MODEL 1
REMARK VINA RESULT:    14.793      0.000      0.000
REMARK INTER + INTRA:          32.790
REMARK INTER:                  33.819
REMARK INTRA:                  -1.029
REMARK UNBOUND:                -1.029
REMARK SMILES CCCCCCCCCCCCCCCCCCCCCCCC(=O)[O-]
REMARK SMILES IDX 13 1 14 2 15 3 16 4 17 5 18 6 19 7 20 8 21 9 22 10 23 11
REMARK SMILES IDX 24 12 25 13 26 14 12 15 11 16 10 17 9 18 8 19 7 20 6 21 5 22
REMARK SMILES IDX 4 23 3 24 2 25 1 26
REMARK H PARENT
REMARK Flexibility Score: inf
ROOT
ATOM      1  C   UNL     1       0.481   9.271  -5.806  1.00  0.00     0.000 C 
ENDROOT
BRANCH   1   2
ATOM      2  C   UNL     1       1.806   8.704  -6.357  1.00  0.00     0.000 C 
BRANCH   2   3
ATOM      3  C   UNL     1       1.939   8.706  -7.893  1.00  0.00     0.000 C 
BRANCH   3   4
ATOM      4  C   UNL     1       0.835   7.942  -8.646  1.00  0.00     0.000 C 
BRANCH   4   5
ATOM      5  C   UNL     1      -0.431   8.788  -8.866  1.00  0.00     0.000 C 
BRANCH   5   6
ATOM      6  C   UNL     1      -0.941   8.726 -10.315  1.00  0.00     0.000 C 
BRANCH   6   7
ATOM      7  C   UNL     1      -0.508   7.446 -11.046  1.00  0.00     0.000 C 
BRANCH   7   8
ATOM      8  C   UNL     1      -0.938   7.480 -12.518  1.00  0.00     0.000 C 
BRANCH   8   9
ATOM      9  C   UNL     1       0.259   7.769 -13.433  1.00  0.00     0.000 C 
BRANCH   9  10
ATOM     10  C   UNL     1       0.742   9.214 -13.270  1.00  0.00     0.006 C 
BRANCH  10  11
ATOM     11  C   UNL     1       2.272   9.277 -13.207  1.00  0.00     0.053 C 
BRANCH  11  12
ATOM     12  C   UNL     1       2.715  10.497 -12.462  1.00  0.00     0.041 C 
ATOM     13  O   UNL     1       3.219  10.391 -11.312  1.00  0.00    -0.550 OA
ATOM     14  O   UNL     1       2.613  11.749 -13.057  1.00  0.00    -0.550 OA
ENDBRANCH  11  12
ENDBRANCH  10  11
ENDBRANCH   9  10
ENDBRANCH   8   9
ENDBRANCH   7   8
ENDBRANCH   6   7
ENDBRANCH   5   6
ENDBRANCH   4   5
ENDBRANCH   3   4
ENDBRANCH   2   3
ENDBRANCH   1   2
BRANCH   1  15
ATOM     15  C   UNL     1       0.096   8.785  -4.396  1.00  0.00     0.000 C 
BRANCH  15  16
ATOM     16  C   UNL     1       0.437   7.303  -4.159  1.00  0.00     0.000 C 
BRANCH  16  17
ATOM     17  C   UNL     1       1.391   7.098  -2.972  1.00  0.00     0.000 C 
BRANCH  17  18
ATOM     18  C   UNL     1       2.826   7.554  -3.271  1.00  0.00    -0.000 C 
BRANCH  18  19
ATOM     19  C   UNL     1       3.744   7.314  -2.062  1.00  0.00    -0.000 C 
BRANCH  19  20
ATOM     20  C   UNL     1       5.214   7.680  -2.358  1.00  0.00    -0.000 C 
BRANCH  20  21
ATOM     21  C   UNL     1       6.098   6.470  -2.704  1.00  0.00    -0.000 C 
BRANCH  21  22
ATOM     22  C   UNL     1       5.288   5.252  -3.176  1.00  0.00    -0.000 C 
BRANCH  22  23
ATOM     23  C   UNL     1       5.840   4.645  -4.475  1.00  0.00    -0.000 C 
BRANCH  23  24
ATOM     24  C   UNL     1       7.064   3.745  -4.231  1.00  0.00    -0.000 C 
BRANCH  24  25
ATOM     25  C   UNL     1       6.953   2.946  -2.923  1.00  0.00    -0.003 C 
ATOM     26  C   UNL     1       7.024   1.435  -3.146  1.00  0.00     0.004 C 
ENDBRANCH  24  25
ENDBRANCH  23  24
ENDBRANCH  22  23
ENDBRANCH  21  22
ENDBRANCH  20  21
ENDBRANCH  19  20
ENDBRANCH  18  19
ENDBRANCH  17  18
ENDBRANCH  16  17
ENDBRANCH  15  16
ENDBRANCH   1  15
TORSDOF 22
ENDMDL
MODEL 2
REMARK VINA RESULT:    14.949      4.538      7.205
REMARK INTER + INTRA:          33.146
REMARK INTER:                  34.684
REMARK INTRA:                  -1.538
REMARK UNBOUND:                -1.029
REMARK SMILES CCCCCCCCCCCCCCCCCCCCCCCC(=O)[O-]
REMARK SMILES IDX 13 1 14 2 15 3 16 4 17 5 18 6 19 7 20 8 21 9 22 10 23 11
REMARK SMILES IDX 24 12 25 13 26 14 12 15 11 16 10 17 9 18 8 19 7 20 6 21 5 22
REMARK SMILES IDX 4 23 3 24 2 25 1 26
REMARK H PARENT
REMARK Flexibility Score: inf
ROOT
ATOM      1  C   UNL     1      -0.136   9.402  -5.401  1.00  0.00     0.000 C 
ENDROOT
BRANCH   1   2
ATOM      2  C   UNL     1       0.083  10.445  -4.285  1.00  0.00     0.000 C 
BRANCH   2   3
ATOM      3  C   UNL     1      -0.721  10.210  -2.990  1.00  0.00     0.000 C 
BRANCH   3   4
ATOM      4  C   UNL     1      -1.530  11.422  -2.495  1.00  0.00     0.000 C 
BRANCH   4   5
ATOM      5  C   UNL     1      -1.448  11.609  -0.970  1.00  0.00     0.000 C 
BRANCH   5   6
ATOM      6  C   UNL     1      -0.566  12.802  -0.565  1.00  0.00     0.000 C 
BRANCH   6   7
ATOM      7  C   UNL     1      -0.601  13.946  -1.590  1.00  0.00     0.000 C 
BRANCH   7   8
ATOM      8  C   UNL     1      -0.458  15.308  -0.900  1.00  0.00     0.000 C 
BRANCH   8   9
ATOM      9  C   UNL     1       0.851  15.994  -1.308  1.00  0.00     0.000 C 
BRANCH   9  10
ATOM     10  C   UNL     1       0.894  16.251  -2.818  1.00  0.00     0.006 C 
BRANCH  10  11
ATOM     11  C   UNL     1       2.237  15.816  -3.412  1.00  0.00     0.053 C 
BRANCH  11  12
ATOM     12  C   UNL     1       2.146  15.723  -4.902  1.00  0.00     0.041 C 
ATOM     13  O   UNL     1       1.028  15.567  -5.461  1.00  0.00    -0.550 OA
ATOM     14  O   UNL     1       3.291  15.855  -5.678  1.00  0.00    -0.550 OA
ENDBRANCH  11  12
ENDBRANCH  10  11
ENDBRANCH   9  10
ENDBRANCH   8   9
ENDBRANCH   7   8
ENDBRANCH   6   7
ENDBRANCH   5   6
ENDBRANCH   4   5
ENDBRANCH   3   4
ENDBRANCH   2   3
ENDBRANCH   1   2
BRANCH   1  15
ATOM     15  C   UNL     1       0.845   8.215  -5.389  1.00  0.00     0.000 C 
BRANCH  15  16
ATOM     16  C   UNL     1       0.424   7.098  -4.418  1.00  0.00     0.000 C 
BRANCH  16  17
ATOM     17  C   UNL     1       1.261   7.089  -3.129  1.00  0.00     0.000 C 
BRANCH  17  18
ATOM     18  C   UNL     1       2.689   7.614  -3.338  1.00  0.00    -0.000 C 
BRANCH  18  19
ATOM     19  C   UNL     1       3.586   7.264  -2.140  1.00  0.00    -0.000 C 
BRANCH  19  20
ATOM     20  C   UNL     1       5.036   7.755  -2.329  1.00  0.00    -0.000 C 
BRANCH  20  21
ATOM     21  C   UNL     1       6.051   6.622  -2.555  1.00  0.00    -0.000 C 
BRANCH  21  22
ATOM     22  C   UNL     1       5.415   5.359  -3.157  1.00  0.00    -0.000 C 
BRANCH  22  23
ATOM     23  C   UNL     1       6.101   4.918  -4.460  1.00  0.00    -0.000 C 
BRANCH  23  24
ATOM     24  C   UNL     1       6.640   3.479  -4.383  1.00  0.00    -0.000 C 
BRANCH  24  25
ATOM     25  C   UNL     1       6.583   2.907  -2.957  1.00  0.00    -0.003 C 
ATOM     26  C   UNL     1       7.733   1.942  -2.662  1.00  0.00     0.004 C 
ENDBRANCH  24  25
ENDBRANCH  23  24
ENDBRANCH  22  23
ENDBRANCH  21  22
ENDBRANCH  20  21
ENDBRANCH  19  20
ENDBRANCH  18  19
ENDBRANCH  17  18
ENDBRANCH  16  17
ENDBRANCH  15  16
ENDBRANCH   1  15
TORSDOF 22
ENDMDL
MODEL 3
REMARK VINA RESULT:    15.104      0.605      1.280
REMARK INTER + INTRA:          33.500
REMARK INTER:                  35.053
REMARK INTRA:                  -1.553
REMARK UNBOUND:                -1.029
REMARK SMILES CCCCCCCCCCCCCCCCCCCCCCCC(=O)[O-]
REMARK SMILES IDX 13 1 14 2 15 3 16 4 17 5 18 6 19 7 20 8 21 9 22 10 23 11
REMARK SMILES IDX 24 12 25 13 26 14 12 15 11 16 10 17 9 18 8 19 7 20 6 21 5 22
REMARK SMILES IDX 4 23 3 24 2 25 1 26
REMARK H PARENT
REMARK Flexibility Score: inf
ROOT
ATOM      1  C   UNL     1       0.349   8.811  -4.342  1.00  0.00     0.000 C 
ENDROOT
BRANCH   1   2
ATOM      2  C   UNL     1       0.473   9.398  -5.763  1.00  0.00     0.000 C 
BRANCH   2   3
ATOM      3  C   UNL     1       1.234   8.521  -6.778  1.00  0.00     0.000 C 
BRANCH   3   4
ATOM      4  C   UNL     1       0.366   7.912  -7.894  1.00  0.00     0.000 C 
BRANCH   4   5
ATOM      5  C   UNL     1       0.669   8.511  -9.279  1.00  0.00     0.000 C 
BRANCH   5   6
ATOM      6  C   UNL     1      -0.560   8.521 -10.203  1.00  0.00     0.000 C 
BRANCH   6   7
ATOM      7  C   UNL     1      -0.594   7.323 -11.164  1.00  0.00     0.000 C 
BRANCH   7   8
ATOM      8  C   UNL     1      -0.877   7.778 -12.601  1.00  0.00     0.000 C 
BRANCH   8   9
ATOM      9  C   UNL     1       0.427   7.955 -13.388  1.00  0.00     0.000 C 
BRANCH   9  10
ATOM     10  C   UNL     1       0.851   9.427 -13.433  1.00  0.00     0.006 C 
BRANCH  10  11
ATOM     11  C   UNL     1       2.377   9.560 -13.407  1.00  0.00     0.053 C 
BRANCH  11  12
ATOM     12  C   UNL     1       2.789  10.670 -12.492  1.00  0.00     0.041 C 
ATOM     13  O   UNL     1       2.733  11.867 -12.879  1.00  0.00    -0.550 OA
ATOM     14  O   UNL     1       3.193  10.385 -11.193  1.00  0.00    -0.550 OA
ENDBRANCH  11  12
ENDBRANCH  10  11
ENDBRANCH   9  10
ENDBRANCH   8   9
ENDBRANCH   7   8
ENDBRANCH   6   7
ENDBRANCH   5   6
ENDBRANCH   4   5
ENDBRANCH   3   4
ENDBRANCH   2   3
ENDBRANCH   1   2
BRANCH   1  15
ATOM     15  C   UNL     1       0.398   7.274  -4.262  1.00  0.00     0.000 C 
BRANCH  15  16
ATOM     16  C   UNL     1       1.425   6.759  -3.240  1.00  0.00     0.000 C 
BRANCH  16  17
ATOM     17  C   UNL     1       2.712   7.599  -3.220  1.00  0.00     0.000 C 
BRANCH  17  18
ATOM     18  C   UNL     1       3.646   7.236  -2.056  1.00  0.00    -0.000 C 
BRANCH  18  19
ATOM     19  C   UNL     1       4.996   7.961  -2.186  1.00  0.00    -0.000 C 
BRANCH  19  20
ATOM     20  C   UNL     1       6.165   6.985  -2.433  1.00  0.00    -0.000 C 
BRANCH  20  21
ATOM     21  C   UNL     1       5.718   5.559  -2.796  1.00  0.00    -0.000 C 
BRANCH  21  22
ATOM     22  C   UNL     1       5.804   5.269  -4.303  1.00  0.00    -0.000 C 
BRANCH  22  23
ATOM     23  C   UNL     1       6.284   3.840  -4.602  1.00  0.00    -0.000 C 
BRANCH  23  24
ATOM     24  C   UNL     1       6.641   3.060  -3.325  1.00  0.00    -0.000 C 
BRANCH  24  25
ATOM     25  C   UNL     1       7.554   1.857  -3.609  1.00  0.00    -0.003 C 
ATOM     26  C   UNL     1       7.246   1.185  -4.948  1.00  0.00     0.004 C 
ENDBRANCH  24  25
ENDBRANCH  23  24
ENDBRANCH  22  23
ENDBRANCH  21  22
ENDBRANCH  20  21
ENDBRANCH  19  20
ENDBRANCH  18  19
ENDBRANCH  17  18
ENDBRANCH  16  17
ENDBRANCH  15  16
ENDBRANCH   1  15
TORSDOF 22
ENDMDL
MODEL 4
REMARK VINA RESULT:    15.169      1.789      2.816
REMARK INTER + INTRA:          33.649
REMARK INTER:                  35.182
REMARK INTRA:                  -1.533
REMARK UNBOUND:                -1.029
REMARK SMILES CCCCCCCCCCCCCCCCCCCCCCCC(=O)[O-]
REMARK SMILES IDX 13 1 14 2 15 3 16 4 17 5 18 6 19 7 20 8 21 9 22 10 23 11
REMARK SMILES IDX 24 12 25 13 26 14 12 15 11 16 10 17 9 18 8 19 7 20 6 21 5 22
REMARK SMILES IDX 4 23 3 24 2 25 1 26
REMARK H PARENT
REMARK Flexibility Score: inf
ROOT
ATOM      1  C   UNL     1       0.248   8.358  -6.848  1.00  0.00     0.000 C 
ENDROOT
BRANCH   1   2
ATOM      2  C   UNL     1       1.188   8.399  -8.071  1.00  0.00     0.000 C 
BRANCH   2   3
ATOM      3  C   UNL     1       2.641   8.823  -7.775  1.00  0.00     0.000 C 
BRANCH   3   4
ATOM      4  C   UNL     1       3.478   9.193  -9.013  1.00  0.00     0.000 C 
BRANCH   4   5
ATOM      5  C   UNL     1       2.726  10.117  -9.987  1.00  0.00     0.000 C 
BRANCH   5   6
ATOM      6  C   UNL     1       3.439  10.259 -11.341  1.00  0.00     0.000 C 
BRANCH   6   7
ATOM      7  C   UNL     1       2.711  11.211 -12.303  1.00  0.00     0.000 C 
BRANCH   7   8
ATOM      8  C   UNL     1       2.409  10.519 -13.638  1.00  0.00     0.000 C 
BRANCH   8   9
ATOM      9  C   UNL     1       2.058   9.042 -13.424  1.00  0.00     0.000 C 
BRANCH   9  10
ATOM     10  C   UNL     1       0.543   8.819 -13.488  1.00  0.00     0.006 C 
BRANCH  10  11
ATOM     11  C   UNL     1       0.172   7.424 -12.975  1.00  0.00     0.053 C 
BRANCH  11  12
ATOM     12  C   UNL     1      -0.861   7.522 -11.896  1.00  0.00     0.041 C 
ATOM     13  O   UNL     1      -0.647   8.227 -10.874  1.00  0.00    -0.550 OA
ATOM     14  O   UNL     1      -2.080   6.870 -12.040  1.00  0.00    -0.550 OA
ENDBRANCH  11  12
ENDBRANCH  10  11
ENDBRANCH   9  10
ENDBRANCH   8   9
ENDBRANCH   7   8
ENDBRANCH   6   7
ENDBRANCH   5   6
ENDBRANCH   4   5
ENDBRANCH   3   4
ENDBRANCH   2   3
ENDBRANCH   1   2
BRANCH   1  15
ATOM     15  C   UNL     1       0.887   8.790  -5.516  1.00  0.00     0.000 C 
BRANCH  15  16
ATOM     16  C   UNL     1       0.079   8.337  -4.288  1.00  0.00     0.000 C 
BRANCH  16  17
ATOM     17  C   UNL     1       0.902   7.464  -3.327  1.00  0.00     0.000 C 
BRANCH  17  18
ATOM     18  C   UNL     1       2.416   7.579  -3.562  1.00  0.00    -0.000 C 
BRANCH  18  19
ATOM     19  C   UNL     1       3.203   6.973  -2.389  1.00  0.00    -0.000 C 
BRANCH  19  20
ATOM     20  C   UNL     1       4.513   7.737  -2.104  1.00  0.00    -0.000 C 
BRANCH  20  21
ATOM     21  C   UNL     1       5.749   7.125  -2.784  1.00  0.00    -0.000 C 
BRANCH  21  22
ATOM     22  C   UNL     1       5.707   5.590  -2.836  1.00  0.00    -0.000 C 
BRANCH  22  23
ATOM     23  C   UNL     1       5.825   5.045  -4.268  1.00  0.00    -0.000 C 
BRANCH  23  24
ATOM     24  C   UNL     1       6.608   3.722  -4.331  1.00  0.00    -0.000 C 
BRANCH  24  25
ATOM     25  C   UNL     1       6.950   3.175  -2.936  1.00  0.00    -0.003 C 
ATOM     26  C   UNL     1       7.303   1.687  -2.956  1.00  0.00     0.004 C 
ENDBRANCH  24  25
ENDBRANCH  23  24
ENDBRANCH  22  23
ENDBRANCH  21  22
ENDBRANCH  20  21
ENDBRANCH  19  20
ENDBRANCH  18  19
ENDBRANCH  17  18
ENDBRANCH  16  17
ENDBRANCH  15  16
ENDBRANCH   1  15
TORSDOF 22
ENDMDL
MODEL 5
REMARK VINA RESULT:    16.492      3.582      9.720
REMARK INTER + INTRA:          36.673
REMARK INTER:                  38.017
REMARK INTRA:                  -1.344
REMARK UNBOUND:                -1.029
REMARK SMILES CCCCCCCCCCCCCCCCCCCCCCCC(=O)[O-]
REMARK SMILES IDX 13 1 14 2 15 3 16 4 17 5 18 6 19 7 20 8 21 9 22 10 23 11
REMARK SMILES IDX 24 12 25 13 26 14 12 15 11 16 10 17 9 18 8 19 7 20 6 21 5 22
REMARK SMILES IDX 4 23 3 24 2 25 1 26
REMARK H PARENT
REMARK Flexibility Score: inf
ROOT
ATOM      1  C   UNL     1       0.879   9.219  -5.898  1.00  0.00     0.000 C 
ENDROOT
BRANCH   1   2
ATOM      2  C   UNL     1       0.337   8.742  -4.535  1.00  0.00     0.000 C 
BRANCH   2   3
ATOM      3  C   UNL     1       0.305   7.213  -4.333  1.00  0.00     0.000 C 
BRANCH   3   4
ATOM      4  C   UNL     1       1.115   6.696  -3.131  1.00  0.00     0.000 C 
BRANCH   4   5
ATOM      5  C   UNL     1       2.540   7.275  -3.080  1.00  0.00     0.000 C 
BRANCH   5   6
ATOM      6  C   UNL     1       3.256   6.971  -1.754  1.00  0.00     0.000 C 
BRANCH   6   7
ATOM      7  C   UNL     1       4.594   7.713  -1.614  1.00  0.00     0.000 C 
BRANCH   7   8
ATOM      8  C   UNL     1       5.485   7.478  -2.840  1.00  0.00     0.000 C 
BRANCH   8   9
ATOM      9  C   UNL     1       6.110   6.078  -2.805  1.00  0.00     0.000 C 
BRANCH   9  10
ATOM     10  C   UNL     1       5.368   5.119  -3.744  1.00  0.00     0.006 C 
BRANCH  10  11
ATOM     11  C   UNL     1       6.354   4.331  -4.612  1.00  0.00     0.053 C 
BRANCH  11  12
ATOM     12  C   UNL     1       6.801   3.092  -3.903  1.00  0.00     0.041 C 
ATOM     13  O   UNL     1       6.986   2.024  -4.544  1.00  0.00    -0.550 OA
ATOM     14  O   UNL     1       7.060   3.129  -2.538  1.00  0.00    -0.550 OA
ENDBRANCH  11  12
ENDBRANCH  10  11
ENDBRANCH   9  10
ENDBRANCH   8   9
ENDBRANCH   7   8
ENDBRANCH   6   7
ENDBRANCH   5   6
ENDBRANCH   4   5
ENDBRANCH   3   4
ENDBRANCH   2   3
ENDBRANCH   1   2
BRANCH   1  15
ATOM     15  C   UNL     1       0.297   8.494  -7.125  1.00  0.00     0.000 C 
BRANCH  15  16
ATOM     16  C   UNL     1       1.281   8.427  -8.306  1.00  0.00     0.000 C 
BRANCH  16  17
ATOM     17  C   UNL     1       2.725   8.749  -7.891  1.00  0.00     0.000 C 
BRANCH  17  18
ATOM     18  C   UNL     1       3.535   9.420  -9.010  1.00  0.00    -0.000 C 
BRANCH  18  19
ATOM     19  C   UNL     1       2.620   9.859 -10.165  1.00  0.00    -0.000 C 
BRANCH  19  20
ATOM     20  C   UNL     1       3.346   9.845 -11.527  1.00  0.00    -0.000 C 
BRANCH  20  21
ATOM     21  C   UNL     1       2.793  10.867 -12.535  1.00  0.00    -0.000 C 
BRANCH  21  22
ATOM     22  C   UNL     1       1.757  10.262 -13.495  1.00  0.00    -0.000 C 
BRANCH  22  23
ATOM     23  C   UNL     1       1.480   8.779 -13.204  1.00  0.00    -0.000 C 
BRANCH  23  24
ATOM     24  C   UNL     1       0.077   8.341 -13.662  1.00  0.00    -0.000 C 
BRANCH  24  25
ATOM     25  C   UNL     1      -0.691   7.590 -12.564  1.00  0.00    -0.003 C 
ATOM     26  C   UNL     1      -0.458   8.179 -11.172  1.00  0.00     0.004 C 
ENDBRANCH  24  25
ENDBRANCH  23  24
ENDBRANCH  22  23
ENDBRANCH  21  22
ENDBRANCH  20  21
ENDBRANCH  19  20
ENDBRANCH  18  19
ENDBRANCH  17  18
ENDBRANCH  16  17
ENDBRANCH  15  16
ENDBRANCH   1  15
TORSDOF 22
ENDMDL
MODEL 6
REMARK VINA RESULT:    16.543      3.606     10.144
REMARK INTER + INTRA:          36.791
REMARK INTER:                  38.346
REMARK INTRA:                  -1.555
REMARK UNBOUND:                -1.029
REMARK SMILES CCCCCCCCCCCCCCCCCCCCCCCC(=O)[O-]
REMARK SMILES IDX 13 1 14 2 15 3 16 4 17 5 18 6 19 7 20 8 21 9 22 10 23 11
REMARK SMILES IDX 24 12 25 13 26 14 12 15 11 16 10 17 9 18 8 19 7 20 6 21 5 22
REMARK SMILES IDX 4 23 3 24 2 25 1 26
REMARK H PARENT
REMARK Flexibility Score: inf
ROOT
ATOM      1  C   UNL     1       0.221   9.082  -6.049  1.00  0.00     0.000 C 
ENDROOT
BRANCH   1   2
ATOM      2  C   UNL     1       0.603   9.053  -4.554  1.00  0.00     0.000 C 
BRANCH   2   3
ATOM      3  C   UNL     1       0.152   7.798  -3.780  1.00  0.00     0.000 C 
BRANCH   3   4
ATOM      4  C   UNL     1       1.289   6.858  -3.339  1.00  0.00     0.000 C 
BRANCH   4   5
ATOM      5  C   UNL     1       2.638   7.583  -3.197  1.00  0.00     0.000 C 
BRANCH   5   6
ATOM      6  C   UNL     1       3.558   6.924  -2.156  1.00  0.00     0.000 C 
BRANCH   6   7
ATOM      7  C   UNL     1       4.992   7.475  -2.192  1.00  0.00     0.000 C 
BRANCH   7   8
ATOM      8  C   UNL     1       5.965   6.440  -2.771  1.00  0.00     0.000 C 
BRANCH   8   9
ATOM      9  C   UNL     1       5.284   5.591  -3.851  1.00  0.00     0.000 C 
BRANCH   9  10
ATOM     10  C   UNL     1       6.143   4.377  -4.222  1.00  0.00     0.006 C 
BRANCH  10  11
ATOM     11  C   UNL     1       6.766   3.743  -2.974  1.00  0.00     0.053 C 
BRANCH  11  12
ATOM     12  C   UNL     1       7.056   2.295  -3.212  1.00  0.00     0.041 C 
ATOM     13  O   UNL     1       7.417   1.554  -2.259  1.00  0.00    -0.550 OA
ATOM     14  O   UNL     1       6.885   1.751  -4.480  1.00  0.00    -0.550 OA
ENDBRANCH  11  12
ENDBRANCH  10  11
ENDBRANCH   9  10
ENDBRANCH   8   9
ENDBRANCH   7   8
ENDBRANCH   6   7
ENDBRANCH   5   6
ENDBRANCH   4   5
ENDBRANCH   3   4
ENDBRANCH   2   3
ENDBRANCH   1   2
BRANCH   1  15
ATOM     15  C   UNL     1       1.252   8.448  -7.000  1.00  0.00     0.000 C 
BRANCH  15  16
ATOM     16  C   UNL     1       0.609   7.812  -8.245  1.00  0.00     0.000 C 
BRANCH  16  17
ATOM     17  C   UNL     1       0.486   8.799  -9.416  1.00  0.00     0.000 C 
BRANCH  17  18
ATOM     18  C   UNL     1      -0.736   8.525 -10.305  1.00  0.00    -0.000 C 
BRANCH  18  19
ATOM     19  C   UNL     1      -0.506   7.292 -11.193  1.00  0.00    -0.000 C 
BRANCH  19  20
ATOM     20  C   UNL     1      -1.039   7.493 -12.627  1.00  0.00    -0.000 C 
BRANCH  20  21
ATOM     21  C   UNL     1      -0.124   8.353 -13.515  1.00  0.00    -0.000 C 
BRANCH  21  22
ATOM     22  C   UNL     1       1.370   8.096 -13.262  1.00  0.00    -0.000 C 
BRANCH  22  23
ATOM     23  C   UNL     1       2.233   9.344 -13.509  1.00  0.00    -0.000 C 
BRANCH  23  24
ATOM     24  C   UNL     1       3.206   9.625 -12.351  1.00  0.00    -0.000 C 
BRANCH  24  25
ATOM     25  C   UNL     1       3.048  11.044 -11.783  1.00  0.00    -0.003 C 
ATOM     26  C   UNL     1       2.613  12.058 -12.842  1.00  0.00     0.004 C 
ENDBRANCH  24  25
ENDBRANCH  23  24
ENDBRANCH  22  23
ENDBRANCH  21  22
ENDBRANCH  20  21
ENDBRANCH  19  20
ENDBRANCH  18  19
ENDBRANCH  17  18
ENDBRANCH  16  17
ENDBRANCH  15  16
ENDBRANCH   1  15
TORSDOF 22
ENDMDL
MODEL 7
REMARK VINA RESULT:    16.957      3.880      6.774
REMARK INTER + INTRA:          37.736
REMARK INTER:                  38.949
REMARK INTRA:                  -1.213
REMARK UNBOUND:                -1.029
REMARK SMILES CCCCCCCCCCCCCCCCCCCCCCCC(=O)[O-]
REMARK SMILES IDX 13 1 14 2 15 3 16 4 17 5 18 6 19 7 20 8 21 9 22 10 23 11
REMARK SMILES IDX 24 12 25 13 26 14 12 15 11 16 10 17 9 18 8 19 7 20 6 21 5 22
REMARK SMILES IDX 4 23 3 24 2 25 1 26
REMARK H PARENT
REMARK Flexibility Score: inf
ROOT
ATOM      1  C   UNL     1       0.872   7.963  -4.495  1.00  0.00     0.000 C 
ENDROOT
BRANCH   1   2
ATOM      2  C   UNL     1       0.736   8.988  -5.641  1.00  0.00     0.000 C 
BRANCH   2   3
ATOM      3  C   UNL     1       1.579   8.692  -6.898  1.00  0.00     0.000 C 
BRANCH   3   4
ATOM      4  C   UNL     1       0.784   8.170  -8.109  1.00  0.00     0.000 C 
BRANCH   4   5
ATOM      5  C   UNL     1      -0.524   8.945  -8.341  1.00  0.00     0.000 C 
BRANCH   5   6
ATOM      6  C   UNL     1      -1.131   8.682  -9.729  1.00  0.00     0.000 C 
BRANCH   6   7
ATOM      7  C   UNL     1      -0.077   8.288 -10.776  1.00  0.00     0.000 C 
BRANCH   7   8
ATOM      8  C   UNL     1      -0.720   7.539 -11.950  1.00  0.00     0.000 C 
BRANCH   8   9
ATOM      9  C   UNL     1       0.046   7.798 -13.253  1.00  0.00     0.000 C 
BRANCH   9  10
ATOM     10  C   UNL     1       0.589   9.231 -13.298  1.00  0.00     0.006 C 
BRANCH  10  11
ATOM     11  C   UNL     1       2.120   9.234 -13.364  1.00  0.00     0.053 C 
BRANCH  11  12
ATOM     12  C   UNL     1       2.677  10.337 -12.519  1.00  0.00     0.041 C 
ATOM     13  O   UNL     1       3.139  10.088 -11.374  1.00  0.00    -0.550 OA
ATOM     14  O   UNL     1       2.730  11.634 -13.016  1.00  0.00    -0.550 OA
ENDBRANCH  11  12
ENDBRANCH  10  11
ENDBRANCH   9  10
ENDBRANCH   8   9
ENDBRANCH   7   8
ENDBRANCH   6   7
ENDBRANCH   5   6
ENDBRANCH   4   5
ENDBRANCH   3   4
ENDBRANCH   2   3
ENDBRANCH   1   2
BRANCH   1  15
ATOM     15  C   UNL     1       0.144   8.338  -3.191  1.00  0.00     0.000 C 
BRANCH  15  16
ATOM     16  C   UNL     1      -0.984   9.362  -3.407  1.00  0.00     0.000 C 
BRANCH  16  17
ATOM     17  C   UNL     1      -0.614  10.765  -2.901  1.00  0.00     0.000 C 
BRANCH  17  18
ATOM     18  C   UNL     1      -1.622  11.320  -1.884  1.00  0.00    -0.000 C 
BRANCH  18  19
ATOM     19  C   UNL     1      -0.974  12.393  -0.994  1.00  0.00    -0.000 C 
BRANCH  19  20
ATOM     20  C   UNL     1      -0.611  13.670  -1.782  1.00  0.00    -0.000 C 
BRANCH  20  21
ATOM     21  C   UNL     1      -0.514  14.931  -0.907  1.00  0.00    -0.000 C 
BRANCH  21  22
ATOM     22  C   UNL     1       0.602  15.888  -1.357  1.00  0.00    -0.000 C 
BRANCH  22  23
ATOM     23  C   UNL     1       0.807  15.880  -2.880  1.00  0.00    -0.000 C 
BRANCH  23  24
ATOM     24  C   UNL     1       2.255  16.213  -3.280  1.00  0.00    -0.000 C 
BRANCH  24  25
ATOM     25  C   UNL     1       2.565  15.831  -4.735  1.00  0.00    -0.003 C 
ATOM     26  C   UNL     1       1.400  15.110  -5.416  1.00  0.00     0.004 C 
ENDBRANCH  24  25
ENDBRANCH  23  24
ENDBRANCH  22  23
ENDBRANCH  21  22
ENDBRANCH  20  21
ENDBRANCH  19  20
ENDBRANCH  18  19
ENDBRANCH  17  18
ENDBRANCH  16  17
ENDBRANCH  15  16
ENDBRANCH   1  15
TORSDOF 22
ENDMDL
MODEL 8
REMARK VINA RESULT:    17.094      2.862      9.730
REMARK INTER + INTRA:          38.051
REMARK INTER:                  39.139
REMARK INTRA:                  -1.088
REMARK UNBOUND:                -1.029
REMARK SMILES CCCCCCCCCCCCCCCCCCCCCCCC(=O)[O-]
REMARK SMILES IDX 13 1 14 2 15 3 16 4 17 5 18 6 19 7 20 8 21 9 22 10 23 11
REMARK SMILES IDX 24 12 25 13 26 14 12 15 11 16 10 17 9 18 8 19 7 20 6 21 5 22
REMARK SMILES IDX 4 23 3 24 2 25 1 26
REMARK H PARENT
REMARK Flexibility Score: inf
ROOT
ATOM      1  C   UNL     1       1.842   8.499  -7.740  1.00  0.00     0.000 C 
ENDROOT
BRANCH   1   2
ATOM      2  C   UNL     1       1.756   8.762  -6.222  1.00  0.00     0.000 C 
BRANCH   2   3
ATOM      3  C   UNL     1       0.367   9.186  -5.701  1.00  0.00     0.000 C 
BRANCH   3   4
ATOM      4  C   UNL     1       0.031   8.707  -4.277  1.00  0.00     0.000 C 
BRANCH   4   5
ATOM      5  C   UNL     1       0.433   7.243  -4.030  1.00  0.00     0.000 C 
BRANCH   5   6
ATOM      6  C   UNL     1       1.290   7.069  -2.766  1.00  0.00     0.000 C 
BRANCH   6   7
ATOM      7  C   UNL     1       2.710   7.635  -2.923  1.00  0.00     0.000 C 
BRANCH   7   8
ATOM      8  C   UNL     1       3.674   6.992  -1.919  1.00  0.00     0.000 C 
BRANCH   8   9
ATOM      9  C   UNL     1       5.085   7.577  -2.060  1.00  0.00     0.000 C 
BRANCH   9  10
ATOM     10  C   UNL     1       5.980   6.665  -2.906  1.00  0.00     0.006 C 
BRANCH  10  11
ATOM     11  C   UNL     1       5.302   5.314  -3.160  1.00  0.00     0.053 C 
BRANCH  11  12
ATOM     12  C   UNL     1       6.096   4.507  -4.139  1.00  0.00     0.041 C 
ATOM     13  O   UNL     1       6.734   3.491  -3.755  1.00  0.00    -0.550 OA
ATOM     14  O   UNL     1       6.093   4.850  -5.486  1.00  0.00    -0.550 OA
ENDBRANCH  11  12
ENDBRANCH  10  11
ENDBRANCH   9  10
ENDBRANCH   8   9
ENDBRANCH   7   8
ENDBRANCH   6   7
ENDBRANCH   5   6
ENDBRANCH   4   5
ENDBRANCH   3   4
ENDBRANCH   2   3
ENDBRANCH   1   2
BRANCH   1  15
ATOM     15  C   UNL     1       0.530   8.037  -8.400  1.00  0.00     0.000 C 
BRANCH  15  16
ATOM     16  C   UNL     1       0.115   8.917  -9.591  1.00  0.00     0.000 C 
BRANCH  16  17
ATOM     17  C   UNL     1      -1.007   8.286 -10.431  1.00  0.00     0.000 C 
BRANCH  17  18
ATOM     18  C   UNL     1      -0.505   7.173 -11.361  1.00  0.00    -0.000 C 
BRANCH  18  19
ATOM     19  C   UNL     1      -0.944   7.426 -12.812  1.00  0.00    -0.000 C 
BRANCH  19  20
ATOM     20  C   UNL     1       0.097   8.241 -13.608  1.00  0.00    -0.000 C 
BRANCH  20  21
ATOM     21  C   UNL     1       1.554   7.888 -13.267  1.00  0.00    -0.000 C 
BRANCH  21  22
ATOM     22  C   UNL     1       2.531   9.043 -13.540  1.00  0.00    -0.000 C 
BRANCH  22  23
ATOM     23  C   UNL     1       3.502   9.283 -12.374  1.00  0.00    -0.000 C 
BRANCH  23  24
ATOM     24  C   UNL     1       3.003  10.372 -11.407  1.00  0.00    -0.000 C 
BRANCH  24  25
ATOM     25  C   UNL     1       3.040  11.774 -12.035  1.00  0.00    -0.003 C 
ATOM     26  C   UNL     1       2.327  11.834 -13.387  1.00  0.00     0.004 C 
ENDBRANCH  24  25
ENDBRANCH  23  24
ENDBRANCH  22  23
ENDBRANCH  21  22
ENDBRANCH  20  21
ENDBRANCH  19  20
ENDBRANCH  18  19
ENDBRANCH  17  18
ENDBRANCH  16  17
ENDBRANCH  15  16
ENDBRANCH   1  15
TORSDOF 22
ENDMDL
