MODEL 1
REMARK VINA RESULT:    -6.067      0.000      0.000
REMARK INTER + INTRA:          -7.834
REMARK INTER:                  -7.486
REMARK INTRA:                  -0.348
REMARK UNBOUND:                -0.348
REMARK SMILES Oc1cc(O)c2cc(O)c(-c3cc(O)c(O)c(O)c3)[o+]c2c1
REMARK SMILES IDX 10 1 20 2 21 3 22 4 2 5 3 6 4 7 6 8 7 9 8 10 11 11 12 12
REMARK SMILES IDX 13 13 19 14 15 15 17 16 14 17 16 19 18 21 9 23 1 25 5 27
REMARK H PARENT 14 18 16 20 18 22 9 24 1 26 5 28
REMARK Flexibility Score: inf
ROOT
ATOM      1  C   UNL     1      -0.830 -27.054   0.021  1.00  0.00     0.402 A 
ATOM      2  O   UNL     1      -1.178 -27.578  -1.152  1.00  0.00    -0.202 OA
ATOM      3  C   UNL     1      -2.273 -28.309  -1.328  1.00  0.00     0.368 A 
ATOM      4  C   UNL     1      -2.553 -28.820  -2.598  1.00  0.00     0.162 A 
ATOM      5  C   UNL     1      -3.694 -29.595  -2.811  1.00  0.00     0.128 A 
ATOM      6  C   UNL     1      -4.562 -29.863  -1.747  1.00  0.00     0.093 A 
ATOM      7  C   UNL     1      -4.304 -29.364  -0.465  1.00  0.00     0.136 A 
ATOM      8  C   UNL     1      -3.147 -28.574  -0.245  1.00  0.00     0.125 A 
ATOM      9  C   UNL     1      -2.815 -28.021   1.003  1.00  0.00     0.078 A 
ATOM     10  C   UNL     1      -1.658 -27.247   1.143  1.00  0.00     0.223 A 
ENDROOT
BRANCH   1  11
ATOM     11  C   UNL     1       0.420 -26.265   0.092  1.00  0.00     0.091 A 
ATOM     12  C   UNL     1       1.572 -26.843   0.647  1.00  0.00     0.068 A 
ATOM     13  C   UNL     1       2.762 -26.115   0.745  1.00  0.00     0.162 A 
ATOM     14  C   UNL     1       0.466 -24.926  -0.332  1.00  0.00     0.068 A 
ATOM     15  C   UNL     1       2.807 -24.782   0.300  1.00  0.00     0.200 A 
ATOM     16  C   UNL     1       1.653 -24.188  -0.236  1.00  0.00     0.162 A 
BRANCH  13  17
ATOM     17  O   UNL     1       3.888 -26.731   1.290  1.00  0.00    -0.504 OA
ATOM     18  H   UNL     1       3.926 -27.728   1.460  1.00  0.00     0.293 HD
ENDBRANCH  13  17
BRANCH  15  19
ATOM     19  O   UNL     1       4.000 -24.064   0.398  1.00  0.00    -0.502 OA
ATOM     20  H   UNL     1       4.429 -23.851   1.291  1.00  0.00     0.293 HD
ENDBRANCH  15  19
BRANCH  16  21
ATOM     21  O   UNL     1       1.687 -22.862  -0.666  1.00  0.00    -0.504 OA
ATOM     22  H   UNL     1       2.357 -22.545  -1.359  1.00  0.00     0.293 HD
ENDBRANCH  16  21
ENDBRANCH   1  11
BRANCH  10  23
ATOM     23  O   UNL     1      -1.355 -26.657   2.368  1.00  0.00    -0.500 OA
ATOM     24  H   UNL     1      -1.633 -25.707   2.586  1.00  0.00     0.294 HD
ENDBRANCH  10  23
BRANCH   5  25
ATOM     25  O   UNL     1      -3.956 -30.094  -4.085  1.00  0.00    -0.507 OA
ATOM     26  H   UNL     1      -4.358 -29.512  -4.810  1.00  0.00     0.293 HD
ENDBRANCH   5  25
BRANCH   7  27
ATOM     27  O   UNL     1      -5.218 -29.679   0.544  1.00  0.00    -0.507 OA
ATOM     28  H   UNL     1      -5.014 -30.273   1.336  1.00  0.00     0.293 HD
ENDBRANCH   7  27
TORSDOF 7
ENDMDL
MODEL 2
REMARK VINA RESULT:    -6.062      0.133      1.799
REMARK INTER + INTRA:          -7.828
REMARK INTER:                  -7.451
REMARK INTRA:                  -0.376
REMARK UNBOUND:                -0.348
REMARK SMILES Oc1cc(O)c2cc(O)c(-c3cc(O)c(O)c(O)c3)[o+]c2c1
REMARK SMILES IDX 10 1 20 2 21 3 22 4 2 5 3 6 4 7 6 8 7 9 8 10 11 11 12 12
REMARK SMILES IDX 13 13 19 14 15 15 17 16 14 17 16 19 18 21 9 23 1 25 5 27
REMARK H PARENT 14 18 16 20 18 22 9 24 1 26 5 28
REMARK Flexibility Score: inf
ROOT
ATOM      1  C   UNL     1      -0.740 -27.050   0.029  1.00  0.00     0.402 A 
ATOM      2  O   UNL     1      -1.051 -27.568  -1.157  1.00  0.00    -0.202 OA
ATOM      3  C   UNL     1      -2.149 -28.284  -1.375  1.00  0.00     0.368 A 
ATOM      4  C   UNL     1      -2.387 -28.790  -2.656  1.00  0.00     0.162 A 
ATOM      5  C   UNL     1      -3.530 -29.548  -2.914  1.00  0.00     0.128 A 
ATOM      6  C   UNL     1      -4.443 -29.804  -1.884  1.00  0.00     0.093 A 
ATOM      7  C   UNL     1      -4.227 -29.308  -0.593  1.00  0.00     0.136 A 
ATOM      8  C   UNL     1      -3.068 -28.535  -0.327  1.00  0.00     0.125 A 
ATOM      9  C   UNL     1      -2.777 -27.988   0.933  1.00  0.00     0.078 A 
ATOM     10  C   UNL     1      -1.615 -27.231   1.118  1.00  0.00     0.223 A 
ENDROOT
BRANCH   1  11
ATOM     11  C   UNL     1       0.517 -26.279   0.149  1.00  0.00     0.091 A 
ATOM     12  C   UNL     1       0.560 -24.953  -0.308  1.00  0.00     0.068 A 
ATOM     13  C   UNL     1       1.740 -24.206  -0.226  1.00  0.00     0.162 A 
ATOM     14  C   UNL     1       1.689 -26.863   0.659  1.00  0.00     0.068 A 
ATOM     15  C   UNL     1       2.904 -24.789   0.304  1.00  0.00     0.200 A 
ATOM     16  C   UNL     1       2.876 -26.123   0.743  1.00  0.00     0.162 A 
BRANCH  13  17
ATOM     17  O   UNL     1       1.736 -22.887  -0.678  1.00  0.00    -0.504 OA
ATOM     18  H   UNL     1       1.958 -22.108  -0.070  1.00  0.00     0.293 HD
ENDBRANCH  13  17
BRANCH  15  19
ATOM     19  O   UNL     1       4.075 -24.036   0.385  1.00  0.00    -0.502 OA
ATOM     20  H   UNL     1       4.826 -24.131  -0.288  1.00  0.00     0.293 HD
ENDBRANCH  15  19
BRANCH  16  21
ATOM     21  O   UNL     1       4.031 -26.712   1.256  1.00  0.00    -0.504 OA
ATOM     22  H   UNL     1       4.152 -27.719   1.274  1.00  0.00     0.293 HD
ENDBRANCH  16  21
ENDBRANCH   1  11
BRANCH  10  23
ATOM     23  O   UNL     1      -1.350 -26.646   2.355  1.00  0.00    -0.500 OA
ATOM     24  H   UNL     1      -0.791 -27.114   3.058  1.00  0.00     0.294 HD
ENDBRANCH  10  23
BRANCH   5  25
ATOM     25  O   UNL     1      -3.750 -30.043  -4.197  1.00  0.00    -0.507 OA
ATOM     26  H   UNL     1      -4.667 -30.013  -4.626  1.00  0.00     0.293 HD
ENDBRANCH   5  25
BRANCH   7  27
ATOM     27  O   UNL     1      -5.184 -29.610   0.380  1.00  0.00    -0.507 OA
ATOM     28  H   UNL     1      -4.981 -29.734   1.362  1.00  0.00     0.293 HD
ENDBRANCH   7  27
TORSDOF 7
ENDMDL
MODEL 3
REMARK VINA RESULT:    -5.981      2.244      7.282
REMARK INTER + INTRA:          -7.727
REMARK INTER:                  -7.342
REMARK INTRA:                  -0.385
REMARK UNBOUND:                -0.348
REMARK SMILES Oc1cc(O)c2cc(O)c(-c3cc(O)c(O)c(O)c3)[o+]c2c1
REMARK SMILES IDX 10 1 20 2 21 3 22 4 2 5 3 6 4 7 6 8 7 9 8 10 11 11 12 12
REMARK SMILES IDX 13 13 19 14 15 15 17 16 14 17 16 19 18 21 9 23 1 25 5 27
REMARK H PARENT 14 18 16 20 18 22 9 24 1 26 5 28
REMARK Flexibility Score: inf
ROOT
ATOM      1  C   UNL     1      -2.091 -29.647  -1.808  1.00  0.00     0.402 A 
ATOM      2  O   UNL     1      -1.542 -28.437  -1.735  1.00  0.00    -0.202 OA
ATOM      3  C   UNL     1      -0.861 -28.007  -0.678  1.00  0.00     0.368 A 
ATOM      4  C   UNL     1      -0.325 -26.717  -0.694  1.00  0.00     0.162 A 
ATOM      5  C   UNL     1       0.391 -26.237   0.404  1.00  0.00     0.128 A 
ATOM      6  C   UNL     1       0.571 -27.052   1.528  1.00  0.00     0.093 A 
ATOM      7  C   UNL     1       0.043 -28.347   1.568  1.00  0.00     0.136 A 
ATOM      8  C   UNL     1      -0.683 -28.840   0.454  1.00  0.00     0.125 A 
ATOM      9  C   UNL     1      -1.236 -30.130   0.401  1.00  0.00     0.078 A 
ATOM     10  C   UNL     1      -1.936 -30.547  -0.736  1.00  0.00     0.223 A 
ENDROOT
BRANCH   1  11
ATOM     11  C   UNL     1      -2.833 -30.007  -3.037  1.00  0.00     0.091 A 
ATOM     12  C   UNL     1      -2.128 -30.466  -4.160  1.00  0.00     0.068 A 
ATOM     13  C   UNL     1      -2.800 -30.795  -5.342  1.00  0.00     0.162 A 
ATOM     14  C   UNL     1      -4.226 -29.845  -3.125  1.00  0.00     0.068 A 
ATOM     15  C   UNL     1      -4.196 -30.650  -5.417  1.00  0.00     0.200 A 
ATOM     16  C   UNL     1      -4.908 -30.169  -4.305  1.00  0.00     0.162 A 
BRANCH  13  17
ATOM     17  O   UNL     1      -2.064 -31.261  -6.430  1.00  0.00    -0.504 OA
ATOM     18  H   UNL     1      -1.184 -30.841  -6.705  1.00  0.00     0.293 HD
ENDBRANCH  13  17
BRANCH  15  19
ATOM     19  O   UNL     1      -4.860 -30.983  -6.599  1.00  0.00    -0.502 OA
ATOM     20  H   UNL     1      -4.375 -31.063  -7.485  1.00  0.00     0.293 HD
ENDBRANCH  15  19
BRANCH  16  21
ATOM     21  O   UNL     1      -6.291 -30.010  -4.379  1.00  0.00    -0.504 OA
ATOM     22  H   UNL     1      -6.886 -30.717  -4.796  1.00  0.00     0.293 HD
ENDBRANCH  16  21
ENDBRANCH   1  11
BRANCH  10  23
ATOM     23  O   UNL     1      -2.442 -31.844  -0.810  1.00  0.00    -0.500 OA
ATOM     24  H   UNL     1      -2.883 -32.289  -0.014  1.00  0.00     0.294 HD
ENDBRANCH  10  23
BRANCH   5  25
ATOM     25  O   UNL     1       0.919 -24.949   0.369  1.00  0.00    -0.507 OA
ATOM     26  H   UNL     1       0.327 -24.131   0.451  1.00  0.00     0.293 HD
ENDBRANCH   5  25
BRANCH   7  27
ATOM     27  O   UNL     1       0.265 -29.097   2.727  1.00  0.00    -0.507 OA
ATOM     28  H   UNL     1      -0.466 -29.512   3.288  1.00  0.00     0.293 HD
ENDBRANCH   7  27
TORSDOF 7
ENDMDL
MODEL 4
REMARK VINA RESULT:    -5.743      2.121      3.871
REMARK INTER + INTRA:          -7.433
REMARK INTER:                  -7.108
REMARK INTRA:                  -0.325
REMARK UNBOUND:                -0.348
REMARK SMILES Oc1cc(O)c2cc(O)c(-c3cc(O)c(O)c(O)c3)[o+]c2c1
REMARK SMILES IDX 10 1 20 2 21 3 22 4 2 5 3 6 4 7 6 8 7 9 8 10 11 11 12 12
REMARK SMILES IDX 13 13 19 14 15 15 17 16 14 17 16 19 18 21 9 23 1 25 5 27
REMARK H PARENT 14 18 16 20 18 22 9 24 1 26 5 28
REMARK Flexibility Score: inf
ROOT
ATOM      1  C   UNL     1      -2.619 -28.997  -1.415  1.00  0.00     0.402 A 
ATOM      2  O   UNL     1      -2.376 -29.213  -2.706  1.00  0.00    -0.202 OA
ATOM      3  C   UNL     1      -3.285 -29.688  -3.550  1.00  0.00     0.368 A 
ATOM      4  C   UNL     1      -2.932 -29.885  -4.887  1.00  0.00     0.162 A 
ATOM      5  C   UNL     1      -3.865 -30.387  -5.796  1.00  0.00     0.128 A 
ATOM      6  C   UNL     1      -5.160 -30.696  -5.365  1.00  0.00     0.093 A 
ATOM      7  C   UNL     1      -5.538 -30.507  -4.031  1.00  0.00     0.136 A 
ATOM      8  C   UNL     1      -4.593 -29.995  -3.105  1.00  0.00     0.125 A 
ATOM      9  C   UNL     1      -4.887 -29.762  -1.751  1.00  0.00     0.078 A 
ATOM     10  C   UNL     1      -3.904 -29.250  -0.898  1.00  0.00     0.223 A 
ENDROOT
BRANCH   1  11
ATOM     11  C   UNL     1      -1.520 -28.473  -0.573  1.00  0.00     0.091 A 
ATOM     12  C   UNL     1      -1.074 -27.156  -0.762  1.00  0.00     0.068 A 
ATOM     13  C   UNL     1      -0.024 -26.640   0.006  1.00  0.00     0.162 A 
ATOM     14  C   UNL     1      -0.874 -29.283   0.375  1.00  0.00     0.068 A 
ATOM     15  C   UNL     1       0.605 -27.449   0.967  1.00  0.00     0.200 A 
ATOM     16  C   UNL     1       0.179 -28.776   1.147  1.00  0.00     0.162 A 
BRANCH  13  17
ATOM     17  O   UNL     1       0.380 -25.322  -0.204  1.00  0.00    -0.504 OA
ATOM     18  H   UNL     1       1.246 -24.958   0.174  1.00  0.00     0.293 HD
ENDBRANCH  13  17
BRANCH  15  19
ATOM     19  O   UNL     1       1.649 -26.925   1.731  1.00  0.00    -0.502 OA
ATOM     20  H   UNL     1       1.629 -26.925   2.744  1.00  0.00     0.293 HD
ENDBRANCH  15  19
BRANCH  16  21
ATOM     21  O   UNL     1       0.809 -29.588   2.090  1.00  0.00    -0.504 OA
ATOM     22  H   UNL     1       1.721 -29.995   1.916  1.00  0.00     0.293 HD
ENDBRANCH  16  21
ENDBRANCH   1  11
BRANCH  10  23
ATOM     23  O   UNL     1      -4.209 -28.972   0.433  1.00  0.00    -0.500 OA
ATOM     24  H   UNL     1      -3.760 -28.215   0.936  1.00  0.00     0.294 HD
ENDBRANCH  10  23
BRANCH   5  25
ATOM     25  O   UNL     1      -3.495 -30.576  -7.126  1.00  0.00    -0.507 OA
ATOM     26  H   UNL     1      -4.187 -30.684  -7.858  1.00  0.00     0.293 HD
ENDBRANCH   5  25
BRANCH   7  27
ATOM     27  O   UNL     1      -6.849 -30.842  -3.679  1.00  0.00    -0.507 OA
ATOM     28  H   UNL     1      -7.632 -30.830  -4.317  1.00  0.00     0.293 HD
ENDBRANCH   7  27
TORSDOF 7
ENDMDL
MODEL 5
REMARK VINA RESULT:    -5.724      2.134      3.496
REMARK INTER + INTRA:          -7.410
REMARK INTER:                  -7.131
REMARK INTRA:                  -0.280
REMARK UNBOUND:                -0.348
REMARK SMILES Oc1cc(O)c2cc(O)c(-c3cc(O)c(O)c(O)c3)[o+]c2c1
REMARK SMILES IDX 10 1 20 2 21 3 22 4 2 5 3 6 4 7 6 8 7 9 8 10 11 11 12 12
REMARK SMILES IDX 13 13 19 14 15 15 17 16 14 17 16 19 18 21 9 23 1 25 5 27
REMARK H PARENT 14 18 16 20 18 22 9 24 1 26 5 28
REMARK Flexibility Score: inf
ROOT
ATOM      1  C   UNL     1      -2.583 -28.979  -1.462  1.00  0.00     0.402 A 
ATOM      2  O   UNL     1      -2.342 -29.196  -2.753  1.00  0.00    -0.202 OA
ATOM      3  C   UNL     1      -3.255 -29.667  -3.596  1.00  0.00     0.368 A 
ATOM      4  C   UNL     1      -2.906 -29.866  -4.934  1.00  0.00     0.162 A 
ATOM      5  C   UNL     1      -3.843 -30.363  -5.841  1.00  0.00     0.128 A 
ATOM      6  C   UNL     1      -5.139 -30.665  -5.408  1.00  0.00     0.093 A 
ATOM      7  C   UNL     1      -5.513 -30.475  -4.073  1.00  0.00     0.136 A 
ATOM      8  C   UNL     1      -4.564 -29.968  -3.148  1.00  0.00     0.125 A 
ATOM      9  C   UNL     1      -4.855 -29.733  -1.794  1.00  0.00     0.078 A 
ATOM     10  C   UNL     1      -3.868 -29.226  -0.942  1.00  0.00     0.223 A 
ENDROOT
BRANCH   1  11
ATOM     11  C   UNL     1      -1.480 -28.461  -0.621  1.00  0.00     0.091 A 
ATOM     12  C   UNL     1      -0.920 -29.284   0.367  1.00  0.00     0.068 A 
ATOM     13  C   UNL     1       0.110 -28.815   1.189  1.00  0.00     0.162 A 
ATOM     14  C   UNL     1      -1.018 -27.140  -0.752  1.00  0.00     0.068 A 
ATOM     15  C   UNL     1       0.582 -27.499   1.040  1.00  0.00     0.200 A 
ATOM     16  C   UNL     1       0.012 -26.661   0.068  1.00  0.00     0.162 A 
BRANCH  13  17
ATOM     17  O   UNL     1       0.650 -29.670   2.150  1.00  0.00    -0.504 OA
ATOM     18  H   UNL     1       1.249 -29.334   2.893  1.00  0.00     0.293 HD
ENDBRANCH  13  17
BRANCH  15  19
ATOM     19  O   UNL     1       1.612 -27.040   1.862  1.00  0.00    -0.502 OA
ATOM     20  H   UNL     1       2.474 -26.661   1.487  1.00  0.00     0.293 HD
ENDBRANCH  15  19
BRANCH  16  21
ATOM     21  O   UNL     1       0.466 -25.350  -0.075  1.00  0.00    -0.504 OA
ATOM     22  H   UNL     1      -0.158 -24.557   0.028  1.00  0.00     0.293 HD
ENDBRANCH  16  21
ENDBRANCH   1  11
BRANCH  10  23
ATOM     23  O   UNL     1      -4.169 -28.946   0.389  1.00  0.00    -0.500 OA
ATOM     24  H   UNL     1      -3.716 -28.192   0.891  1.00  0.00     0.294 HD
ENDBRANCH  10  23
BRANCH   5  25
ATOM     25  O   UNL     1      -3.476 -30.553  -7.171  1.00  0.00    -0.507 OA
ATOM     26  H   UNL     1      -4.169 -30.658  -7.902  1.00  0.00     0.293 HD
ENDBRANCH   5  25
BRANCH   7  27
ATOM     27  O   UNL     1      -6.825 -30.803  -3.719  1.00  0.00    -0.507 OA
ATOM     28  H   UNL     1      -7.610 -30.787  -4.356  1.00  0.00     0.293 HD
ENDBRANCH   7  27
TORSDOF 7
ENDMDL
MODEL 6
REMARK VINA RESULT:    -5.711      4.193      9.948
REMARK INTER + INTRA:          -7.394
REMARK INTER:                  -7.028
REMARK INTRA:                  -0.366
REMARK UNBOUND:                -0.348
REMARK SMILES Oc1cc(O)c2cc(O)c(-c3cc(O)c(O)c(O)c3)[o+]c2c1
REMARK SMILES IDX 10 1 20 2 21 3 22 4 2 5 3 6 4 7 6 8 7 9 8 10 11 11 12 12
REMARK SMILES IDX 13 13 19 14 15 15 17 16 14 17 16 19 18 21 9 23 1 25 5 27
REMARK H PARENT 14 18 16 20 18 22 9 24 1 26 5 28
REMARK Flexibility Score: inf
ROOT
ATOM      1  C   UNL     1      -5.301 -30.408  -4.583  1.00  0.00     0.402 A 
ATOM      2  O   UNL     1      -5.595 -30.295  -3.290  1.00  0.00    -0.202 OA
ATOM      3  C   UNL     1      -4.742 -29.823  -2.387  1.00  0.00     0.368 A 
ATOM      4  C   UNL     1      -5.142 -29.747  -1.050  1.00  0.00     0.162 A 
ATOM      5  C   UNL     1      -4.266 -29.259  -0.079  1.00  0.00     0.128 A 
ATOM      6  C   UNL     1      -2.980 -28.845  -0.445  1.00  0.00     0.093 A 
ATOM      7  C   UNL     1      -2.556 -28.912  -1.778  1.00  0.00     0.136 A 
ATOM      8  C   UNL     1      -3.444 -29.405  -2.768  1.00  0.00     0.125 A 
ATOM      9  C   UNL     1      -3.109 -29.496  -4.129  1.00  0.00     0.078 A 
ATOM     10  C   UNL     1      -4.040 -29.988  -5.050  1.00  0.00     0.223 A 
ENDROOT
BRANCH   1  11
ATOM     11  C   UNL     1      -6.333 -30.957  -5.491  1.00  0.00     0.091 A 
ATOM     12  C   UNL     1      -7.412 -30.148  -5.880  1.00  0.00     0.068 A 
ATOM     13  C   UNL     1      -8.412 -30.646  -6.721  1.00  0.00     0.162 A 
ATOM     14  C   UNL     1      -6.289 -32.292  -5.927  1.00  0.00     0.068 A 
ATOM     15  C   UNL     1      -8.352 -31.976  -7.171  1.00  0.00     0.200 A 
ATOM     16  C   UNL     1      -7.288 -32.800  -6.768  1.00  0.00     0.162 A 
BRANCH  13  17
ATOM     17  O   UNL     1      -9.460 -29.805  -7.095  1.00  0.00    -0.504 OA
ATOM     18  H   UNL     1      -9.350 -29.091  -7.804  1.00  0.00     0.293 HD
ENDBRANCH  13  17
BRANCH  15  19
ATOM     19  O   UNL     1      -9.353 -32.464  -8.013  1.00  0.00    -0.502 OA
ATOM     20  H   UNL     1      -9.147 -33.059  -8.807  1.00  0.00     0.293 HD
ENDBRANCH  15  19
BRANCH  16  21
ATOM     21  O   UNL     1      -7.230 -34.125  -7.200  1.00  0.00    -0.504 OA
ATOM     22  H   UNL     1      -7.119 -34.360  -8.180  1.00  0.00     0.293 HD
ENDBRANCH  16  21
ENDBRANCH   1  11
BRANCH  10  23
ATOM     23  O   UNL     1      -3.727 -30.032  -6.407  1.00  0.00    -0.500 OA
ATOM     24  H   UNL     1      -3.784 -30.892  -6.940  1.00  0.00     0.294 HD
ENDBRANCH  10  23
BRANCH   5  25
ATOM     25  O   UNL     1      -4.683 -29.189   1.248  1.00  0.00    -0.507 OA
ATOM     26  H   UNL     1      -5.292 -28.449   1.574  1.00  0.00     0.293 HD
ENDBRANCH   5  25
BRANCH   7  27
ATOM     27  O   UNL     1      -1.257 -28.482  -2.062  1.00  0.00    -0.507 OA
ATOM     28  H   UNL     1      -0.960 -27.517  -2.055  1.00  0.00     0.293 HD
ENDBRANCH   7  27
TORSDOF 7
ENDMDL
MODEL 7
REMARK VINA RESULT:    -5.654      6.331      8.408
REMARK INTER + INTRA:          -7.323
REMARK INTER:                  -7.105
REMARK INTRA:                  -0.218
REMARK UNBOUND:                -0.348
REMARK SMILES Oc1cc(O)c2cc(O)c(-c3cc(O)c(O)c(O)c3)[o+]c2c1
REMARK SMILES IDX 10 1 20 2 21 3 22 4 2 5 3 6 4 7 6 8 7 9 8 10 11 11 12 12
REMARK SMILES IDX 13 13 19 14 15 15 17 16 14 17 16 19 18 21 9 23 1 25 5 27
REMARK H PARENT 14 18 16 20 18 22 9 24 1 26 5 28
REMARK Flexibility Score: inf
ROOT
ATOM      1  C   UNL     1      -6.673 -30.629  -4.005  1.00  0.00     0.402 A 
ATOM      2  O   UNL     1      -7.092 -29.770  -3.079  1.00  0.00    -0.202 OA
ATOM      3  C   UNL     1      -8.361 -29.665  -2.702  1.00  0.00     0.368 A 
ATOM      4  C   UNL     1      -8.704 -28.729  -1.723  1.00  0.00     0.162 A 
ATOM      5  C   UNL     1     -10.031 -28.594  -1.311  1.00  0.00     0.128 A 
ATOM      6  C   UNL     1     -11.023 -29.398  -1.882  1.00  0.00     0.093 A 
ATOM      7  C   UNL     1     -10.705 -30.343  -2.865  1.00  0.00     0.136 A 
ATOM      8  C   UNL     1      -9.358 -30.486  -3.285  1.00  0.00     0.125 A 
ATOM      9  C   UNL     1      -8.945 -31.415  -4.254  1.00  0.00     0.078 A 
ATOM     10  C   UNL     1      -7.596 -31.501  -4.614  1.00  0.00     0.223 A 
ENDROOT
BRANCH   1  11
ATOM     11  C   UNL     1      -5.232 -30.646  -4.345  1.00  0.00     0.091 A 
ATOM     12  C   UNL     1      -4.288 -30.890  -3.337  1.00  0.00     0.068 A 
ATOM     13  C   UNL     1      -2.919 -30.893  -3.624  1.00  0.00     0.162 A 
ATOM     14  C   UNL     1      -4.784 -30.365  -5.647  1.00  0.00     0.068 A 
ATOM     15  C   UNL     1      -2.477 -30.632  -4.933  1.00  0.00     0.200 A 
ATOM     16  C   UNL     1      -3.415 -30.363  -5.944  1.00  0.00     0.162 A 
BRANCH  13  17
ATOM     17  O   UNL     1      -2.013 -31.154  -2.597  1.00  0.00    -0.504 OA
ATOM     18  H   UNL     1      -2.312 -31.481  -1.686  1.00  0.00     0.293 HD
ENDBRANCH  13  17
BRANCH  15  19
ATOM     19  O   UNL     1      -1.109 -30.639  -5.212  1.00  0.00    -0.502 OA
ATOM     20  H   UNL     1      -0.631 -31.468  -5.544  1.00  0.00     0.293 HD
ENDBRANCH  15  19
BRANCH  16  21
ATOM     21  O   UNL     1      -2.981 -30.089  -7.241  1.00  0.00    -0.504 OA
ATOM     22  H   UNL     1      -2.399 -29.285  -7.448  1.00  0.00     0.293 HD
ENDBRANCH  16  21
ENDBRANCH   1  11
BRANCH  10  23
ATOM     23  O   UNL     1      -7.178 -32.456  -5.539  1.00  0.00    -0.500 OA
ATOM     24  H   UNL     1      -7.835 -32.934  -6.145  1.00  0.00     0.294 HD
ENDBRANCH  10  23
BRANCH   5  25
ATOM     25  O   UNL     1     -10.353 -27.656  -0.333  1.00  0.00    -0.507 OA
ATOM     26  H   UNL     1     -11.096 -26.981  -0.470  1.00  0.00     0.293 HD
ENDBRANCH   5  25
BRANCH   7  27
ATOM     27  O   UNL     1     -11.753 -31.106  -3.387  1.00  0.00    -0.507 OA
ATOM     28  H   UNL     1     -11.730 -31.571  -4.284  1.00  0.00     0.293 HD
ENDBRANCH   7  27
TORSDOF 7
ENDMDL
MODEL 8
REMARK VINA RESULT:    -5.642      2.084      7.157
REMARK INTER + INTRA:          -7.309
REMARK INTER:                  -7.376
REMARK INTRA:                   0.067
REMARK UNBOUND:                -0.348
REMARK SMILES Oc1cc(O)c2cc(O)c(-c3cc(O)c(O)c(O)c3)[o+]c2c1
REMARK SMILES IDX 10 1 20 2 21 3 22 4 2 5 3 6 4 7 6 8 7 9 8 10 11 11 12 12
REMARK SMILES IDX 13 13 19 14 15 15 17 16 14 17 16 19 18 21 9 23 1 25 5 27
REMARK H PARENT 14 18 16 20 18 22 9 24 1 26 5 28
REMARK Flexibility Score: inf
ROOT
ATOM      1  C   UNL     1      -3.117 -29.228  -2.001  1.00  0.00     0.402 A 
ATOM      2  O   UNL     1      -2.048 -28.456  -1.817  1.00  0.00    -0.202 OA
ATOM      3  C   UNL     1      -1.755 -27.881  -0.656  1.00  0.00     0.368 A 
ATOM      4  C   UNL     1      -0.611 -27.084  -0.562  1.00  0.00     0.162 A 
ATOM      5  C   UNL     1      -0.281 -26.463   0.643  1.00  0.00     0.128 A 
ATOM      6  C   UNL     1      -1.100 -26.638   1.764  1.00  0.00     0.093 A 
ATOM      7  C   UNL     1      -2.252 -27.431   1.696  1.00  0.00     0.136 A 
ATOM      8  C   UNL     1      -2.590 -28.066   0.473  1.00  0.00     0.125 A 
ATOM      9  C   UNL     1      -3.718 -28.888   0.315  1.00  0.00     0.078 A 
ATOM     10  C   UNL     1      -3.983 -29.485  -0.922  1.00  0.00     0.223 A 
ENDROOT
BRANCH   1  11
ATOM     11  C   UNL     1      -3.340 -29.806  -3.346  1.00  0.00     0.091 A 
ATOM     12  C   UNL     1      -2.237 -30.184  -4.126  1.00  0.00     0.068 A 
ATOM     13  C   UNL     1      -2.417 -30.716  -5.408  1.00  0.00     0.162 A 
ATOM     14  C   UNL     1      -4.632 -29.932  -3.882  1.00  0.00     0.068 A 
ATOM     15  C   UNL     1      -3.713 -30.859  -5.932  1.00  0.00     0.200 A 
ATOM     16  C   UNL     1      -4.822 -30.462  -5.166  1.00  0.00     0.162 A 
BRANCH  13  17
ATOM     17  O   UNL     1      -1.295 -31.093  -6.145  1.00  0.00    -0.504 OA
ATOM     18  H   UNL     1      -0.421 -30.584  -6.094  1.00  0.00     0.293 HD
ENDBRANCH  13  17
BRANCH  15  19
ATOM     19  O   UNL     1      -3.883 -31.393  -7.210  1.00  0.00    -0.502 OA
ATOM     20  H   UNL     1      -3.196 -32.002  -7.636  1.00  0.00     0.293 HD
ENDBRANCH  15  19
BRANCH  16  21
ATOM     21  O   UNL     1      -6.110 -30.588  -5.687  1.00  0.00    -0.504 OA
ATOM     22  H   UNL     1      -6.662 -29.776  -5.940  1.00  0.00     0.293 HD
ENDBRANCH  16  21
ENDBRANCH   1  11
BRANCH  10  23
ATOM     23  O   UNL     1      -5.074 -30.341  -1.065  1.00  0.00    -0.500 OA
ATOM     24  H   UNL     1      -5.559 -30.442  -1.949  1.00  0.00     0.294 HD
ENDBRANCH  10  23
BRANCH   5  25
ATOM     25  O   UNL     1       0.864 -25.674   0.718  1.00  0.00    -0.507 OA
ATOM     26  H   UNL     1       1.706 -25.911   0.206  1.00  0.00     0.293 HD
ENDBRANCH   5  25
BRANCH   7  27
ATOM     27  O   UNL     1      -3.019 -27.554   2.858  1.00  0.00    -0.507 OA
ATOM     28  H   UNL     1      -2.679 -27.363   3.790  1.00  0.00     0.293 HD
ENDBRANCH   7  27
TORSDOF 7
ENDMDL
MODEL 9
REMARK VINA RESULT:    -5.586      3.818      6.700
REMARK INTER + INTRA:          -7.240
REMARK INTER:                  -6.899
REMARK INTRA:                  -0.341
REMARK UNBOUND:                -0.348
REMARK SMILES Oc1cc(O)c2cc(O)c(-c3cc(O)c(O)c(O)c3)[o+]c2c1
REMARK SMILES IDX 10 1 20 2 21 3 22 4 2 5 3 6 4 7 6 8 7 9 8 10 11 11 12 12
REMARK SMILES IDX 13 13 19 14 15 15 17 16 14 17 16 19 18 21 9 23 1 25 5 27
REMARK H PARENT 14 18 16 20 18 22 9 24 1 26 5 28
REMARK Flexibility Score: inf
ROOT
ATOM      1  C   UNL     1      -4.346 -30.297  -3.704  1.00  0.00     0.402 A 
ATOM      2  O   UNL     1      -5.631 -30.208  -3.368  1.00  0.00    -0.202 OA
ATOM      3  C   UNL     1      -6.625 -30.357  -4.238  1.00  0.00     0.368 A 
ATOM      4  C   UNL     1      -7.943 -30.242  -3.790  1.00  0.00     0.162 A 
ATOM      5  C   UNL     1      -9.006 -30.390  -4.681  1.00  0.00     0.128 A 
ATOM      6  C   UNL     1      -8.752 -30.654  -6.031  1.00  0.00     0.093 A 
ATOM      7  C   UNL     1      -7.440 -30.775  -6.505  1.00  0.00     0.136 A 
ATOM      8  C   UNL     1      -6.356 -30.627  -5.602  1.00  0.00     0.125 A 
ATOM      9  C   UNL     1      -5.010 -30.744  -5.985  1.00  0.00     0.078 A 
ATOM     10  C   UNL     1      -3.994 -30.590  -5.035  1.00  0.00     0.223 A 
ENDROOT
BRANCH   1  11
ATOM     11  C   UNL     1      -3.330 -30.102  -2.645  1.00  0.00     0.091 A 
ATOM     12  C   UNL     1      -3.148 -31.096  -1.672  1.00  0.00     0.068 A 
ATOM     13  C   UNL     1      -2.209 -30.931  -0.648  1.00  0.00     0.162 A 
ATOM     14  C   UNL     1      -2.582 -28.916  -2.559  1.00  0.00     0.068 A 
ATOM     15  C   UNL     1      -1.448 -29.751  -0.578  1.00  0.00     0.200 A 
ATOM     16  C   UNL     1      -1.640 -28.741  -1.536  1.00  0.00     0.162 A 
BRANCH  13  17
ATOM     17  O   UNL     1      -2.049 -31.949   0.291  1.00  0.00    -0.504 OA
ATOM     18  H   UNL     1      -2.544 -32.829   0.221  1.00  0.00     0.293 HD
ENDBRANCH  13  17
BRANCH  15  19
ATOM     19  O   UNL     1      -0.512 -29.596   0.444  1.00  0.00    -0.502 OA
ATOM     20  H   UNL     1      -0.528 -30.165   1.282  1.00  0.00     0.293 HD
ENDBRANCH  15  19
BRANCH  16  21
ATOM     21  O   UNL     1      -0.899 -27.562  -1.463  1.00  0.00    -0.504 OA
ATOM     22  H   UNL     1       0.113 -27.567  -1.520  1.00  0.00     0.293 HD
ENDBRANCH  16  21
ENDBRANCH   1  11
BRANCH  10  23
ATOM     23  O   UNL     1      -2.660 -30.756  -5.405  1.00  0.00    -0.500 OA
ATOM     24  H   UNL     1      -2.143 -30.023  -5.877  1.00  0.00     0.294 HD
ENDBRANCH  10  23
BRANCH   5  25
ATOM     25  O   UNL     1     -10.314 -30.272  -4.216  1.00  0.00    -0.507 OA
ATOM     26  H   UNL     1     -10.880 -29.458  -4.425  1.00  0.00     0.293 HD
ENDBRANCH   5  25
BRANCH   7  27
ATOM     27  O   UNL     1      -7.269 -31.037  -7.867  1.00  0.00    -0.507 OA
ATOM     28  H   UNL     1      -6.539 -31.622  -8.250  1.00  0.00     0.293 HD
ENDBRANCH   7  27
TORSDOF 7
ENDMDL
