MODEL 1
REMARK VINA RESULT:    -4.542      0.000      0.000
REMARK INTER + INTRA:          -8.127
REMARK INTER:                  -7.198
REMARK INTRA:                  -0.929
REMARK UNBOUND:                -0.929
REMARK SMILES CCCCCCCCCCCC(=O)[O-]
REMARK SMILES IDX 7 1 8 2 9 3 10 4 11 5 12 6 13 7 14 8 6 9 5 10 4 11 3 12 2 13
REMARK SMILES IDX 1 14
REMARK H PARENT
REMARK Flexibility Score: inf
ROOT
ATOM      1  C   UNL     1     -20.689  44.183  87.818  1.00  0.00     0.000 C 
ENDROOT
BRANCH   1   2
ATOM      2  C   UNL     1     -21.756  43.163  88.231  1.00  0.00     0.000 C 
BRANCH   2   3
ATOM      3  C   UNL     1     -21.145  41.769  88.413  1.00  0.00     0.000 C 
BRANCH   3   4
ATOM      4  C   UNL     1     -21.439  40.875  87.199  1.00  0.00     0.006 C 
BRANCH   4   5
ATOM      5  C   UNL     1     -20.190  40.131  86.711  1.00  0.00     0.053 C 
BRANCH   5   6
ATOM      6  C   UNL     1     -20.450  38.667  86.524  1.00  0.00     0.041 C 
ATOM      7  O   UNL     1     -20.142  38.102  85.442  1.00  0.00    -0.550 OA
ATOM      8  O   UNL     1     -21.066  37.936  87.532  1.00  0.00    -0.550 OA
ENDBRANCH   5   6
ENDBRANCH   4   5
ENDBRANCH   3   4
ENDBRANCH   2   3
ENDBRANCH   1   2
BRANCH   1   9
ATOM      9  C   UNL     1     -21.182  45.062  86.662  1.00  0.00     0.000 C 
BRANCH   9  10
ATOM     10  C   UNL     1     -20.630  44.564  85.319  1.00  0.00    -0.000 C 
BRANCH  10  11
ATOM     11  C   UNL     1     -19.334  43.750  85.474  1.00  0.00    -0.000 C 
BRANCH  11  12
ATOM     12  C   UNL     1     -18.071  44.617  85.334  1.00  0.00    -0.000 C 
BRANCH  12  13
ATOM     13  C   UNL     1     -18.042  45.405  84.015  1.00  0.00    -0.003 C 
ATOM     14  C   UNL     1     -17.695  46.880  84.213  1.00  0.00     0.004 C 
ENDBRANCH  12  13
ENDBRANCH  11  12
ENDBRANCH  10  11
ENDBRANCH   9  10
ENDBRANCH   1   9
TORSDOF 10
ENDMDL
MODEL 2
REMARK VINA RESULT:    -4.514      1.620      2.974
REMARK INTER + INTRA:          -8.082
REMARK INTER:                  -7.349
REMARK INTRA:                  -0.733
REMARK UNBOUND:                -0.929
REMARK SMILES CCCCCCCCCCCC(=O)[O-]
REMARK SMILES IDX 7 1 8 2 9 3 10 4 11 5 12 6 13 7 14 8 6 9 5 10 4 11 3 12 2 13
REMARK SMILES IDX 1 14
REMARK H PARENT
REMARK Flexibility Score: inf
ROOT
ATOM      1  C   UNL     1     -18.906  44.787  85.557  1.00  0.00     0.000 C 
ENDROOT
BRANCH   1   2
ATOM      2  C   UNL     1     -19.357  43.333  85.377  1.00  0.00     0.000 C 
BRANCH   2   3
ATOM      3  C   UNL     1     -20.617  43.041  86.200  1.00  0.00     0.000 C 
BRANCH   3   4
ATOM      4  C   UNL     1     -20.387  41.868  87.163  1.00  0.00     0.006 C 
BRANCH   4   5
ATOM      5  C   UNL     1     -21.391  40.729  86.942  1.00  0.00     0.053 C 
BRANCH   5   6
ATOM      6  C   UNL     1     -20.747  39.383  87.086  1.00  0.00     0.041 C 
ATOM      7  O   UNL     1     -20.353  38.758  86.067  1.00  0.00    -0.550 OA
ATOM      8  O   UNL     1     -20.615  38.806  88.342  1.00  0.00    -0.550 OA
ENDBRANCH   5   6
ENDBRANCH   4   5
ENDBRANCH   3   4
ENDBRANCH   2   3
ENDBRANCH   1   2
BRANCH   1   9
ATOM      9  C   UNL     1     -17.644  45.079  84.734  1.00  0.00     0.000 C 
BRANCH   9  10
ATOM     10  C   UNL     1     -17.633  46.535  84.244  1.00  0.00    -0.000 C 
BRANCH  10  11
ATOM     11  C   UNL     1     -19.043  47.072  83.945  1.00  0.00    -0.000 C 
BRANCH  11  12
ATOM     12  C   UNL     1     -19.513  46.737  82.520  1.00  0.00    -0.000 C 
BRANCH  12  13
ATOM     13  C   UNL     1     -21.027  46.491  82.442  1.00  0.00    -0.003 C 
ATOM     14  C   UNL     1     -21.670  46.308  83.816  1.00  0.00     0.004 C 
ENDBRANCH  12  13
ENDBRANCH  11  12
ENDBRANCH  10  11
ENDBRANCH   9  10
ENDBRANCH   1   9
TORSDOF 10
ENDMDL
MODEL 3
REMARK VINA RESULT:    -4.500      1.959      2.906
REMARK INTER + INTRA:          -8.061
REMARK INTER:                  -6.697
REMARK INTRA:                  -1.364
REMARK UNBOUND:                -0.929
REMARK SMILES CCCCCCCCCCCC(=O)[O-]
REMARK SMILES IDX 7 1 8 2 9 3 10 4 11 5 12 6 13 7 14 8 6 9 5 10 4 11 3 12 2 13
REMARK SMILES IDX 1 14
REMARK H PARENT
REMARK Flexibility Score: inf
ROOT
ATOM      1  C   UNL     1     -21.903  45.546  85.481  1.00  0.00     0.000 C 
ENDROOT
BRANCH   1   2
ATOM      2  C   UNL     1     -21.023  45.662  86.731  1.00  0.00     0.000 C 
BRANCH   2   3
ATOM      3  C   UNL     1     -20.443  44.299  87.125  1.00  0.00     0.000 C 
BRANCH   3   4
ATOM      4  C   UNL     1     -20.406  43.347  85.921  1.00  0.00     0.006 C 
BRANCH   4   5
ATOM      5  C   UNL     1     -19.743  42.006  86.261  1.00  0.00     0.053 C 
BRANCH   5   6
ATOM      6  C   UNL     1     -20.457  41.297  87.371  1.00  0.00     0.041 C 
ATOM      7  O   UNL     1     -19.839  40.981  88.421  1.00  0.00    -0.550 OA
ATOM      8  O   UNL     1     -21.796  40.955  87.231  1.00  0.00    -0.550 OA
ENDBRANCH   5   6
ENDBRANCH   4   5
ENDBRANCH   3   4
ENDBRANCH   2   3
ENDBRANCH   1   2
BRANCH   1   9
ATOM      9  C   UNL     1     -21.624  46.693  84.501  1.00  0.00     0.000 C 
BRANCH   9  10
ATOM     10  C   UNL     1     -21.094  46.157  83.164  1.00  0.00    -0.000 C 
BRANCH  10  11
ATOM     11  C   UNL     1     -19.832  46.895  82.685  1.00  0.00    -0.000 C 
BRANCH  11  12
ATOM     12  C   UNL     1     -18.669  46.787  83.686  1.00  0.00    -0.000 C 
BRANCH  12  13
ATOM     13  C   UNL     1     -18.202  45.337  83.891  1.00  0.00    -0.003 C 
ATOM     14  C   UNL     1     -17.257  45.181  85.081  1.00  0.00     0.004 C 
ENDBRANCH  12  13
ENDBRANCH  11  12
ENDBRANCH  10  11
ENDBRANCH   9  10
ENDBRANCH   1   9
TORSDOF 10
ENDMDL
MODEL 4
REMARK VINA RESULT:    -4.497      1.228      1.999
REMARK INTER + INTRA:          -8.055
REMARK INTER:                  -7.312
REMARK INTRA:                  -0.743
REMARK UNBOUND:                -0.929
REMARK SMILES CCCCCCCCCCCC(=O)[O-]
REMARK SMILES IDX 7 1 8 2 9 3 10 4 11 5 12 6 13 7 14 8 6 9 5 10 4 11 3 12 2 13
REMARK SMILES IDX 1 14
REMARK H PARENT
REMARK Flexibility Score: inf
ROOT
ATOM      1  C   UNL     1     -20.826  44.252  86.441  1.00  0.00     0.000 C 
ENDROOT
BRANCH   1   2
ATOM      2  C   UNL     1     -21.104  43.372  87.665  1.00  0.00     0.000 C 
BRANCH   2   3
ATOM      3  C   UNL     1     -21.667  42.008  87.248  1.00  0.00     0.000 C 
BRANCH   3   4
ATOM      4  C   UNL     1     -20.876  40.864  87.899  1.00  0.00     0.006 C 
BRANCH   4   5
ATOM      5  C   UNL     1     -19.988  40.125  86.891  1.00  0.00     0.053 C 
BRANCH   5   6
ATOM      6  C   UNL     1     -20.460  38.721  86.656  1.00  0.00     0.041 C 
ATOM      7  O   UNL     1     -20.977  38.062  87.596  1.00  0.00    -0.550 OA
ATOM      8  O   UNL     1     -20.296  38.131  85.410  1.00  0.00    -0.550 OA
ENDBRANCH   5   6
ENDBRANCH   4   5
ENDBRANCH   3   4
ENDBRANCH   2   3
ENDBRANCH   1   2
BRANCH   1   9
ATOM      9  C   UNL     1     -19.813  43.586  85.500  1.00  0.00     0.000 C 
BRANCH   9  10
ATOM     10  C   UNL     1     -18.567  44.466  85.323  1.00  0.00    -0.000 C 
BRANCH  10  11
ATOM     11  C   UNL     1     -18.389  44.959  83.877  1.00  0.00    -0.000 C 
BRANCH  11  12
ATOM     12  C   UNL     1     -18.575  46.480  83.744  1.00  0.00    -0.000 C 
BRANCH  12  13
ATOM     13  C   UNL     1     -19.564  46.857  82.631  1.00  0.00    -0.003 C 
ATOM     14  C   UNL     1     -20.860  46.050  82.690  1.00  0.00     0.004 C 
ENDBRANCH  12  13
ENDBRANCH  11  12
ENDBRANCH  10  11
ENDBRANCH   9  10
ENDBRANCH   1   9
TORSDOF 10
ENDMDL
MODEL 5
REMARK VINA RESULT:    -4.495      1.498      2.285
REMARK INTER + INTRA:          -8.052
REMARK INTER:                  -7.042
REMARK INTRA:                  -1.011
REMARK UNBOUND:                -0.929
REMARK SMILES CCCCCCCCCCCC(=O)[O-]
REMARK SMILES IDX 7 1 8 2 9 3 10 4 11 5 12 6 13 7 14 8 6 9 5 10 4 11 3 12 2 13
REMARK SMILES IDX 1 14
REMARK H PARENT
REMARK Flexibility Score: inf
ROOT
ATOM      1  C   UNL     1     -21.479  44.838  85.996  1.00  0.00     0.000 C 
ENDROOT
BRANCH   1   2
ATOM      2  C   UNL     1     -20.284  44.107  86.618  1.00  0.00     0.000 C 
BRANCH   2   3
ATOM      3  C   UNL     1     -19.912  42.864  85.802  1.00  0.00     0.000 C 
BRANCH   3   4
ATOM      4  C   UNL     1     -19.789  41.628  86.705  1.00  0.00     0.006 C 
BRANCH   4   5
ATOM      5  C   UNL     1     -21.143  40.950  86.948  1.00  0.00     0.053 C 
BRANCH   5   6
ATOM      6  C   UNL     1     -20.985  39.500  87.292  1.00  0.00     0.041 C 
ATOM      7  O   UNL     1     -21.074  39.121  88.490  1.00  0.00    -0.550 OA
ATOM      8  O   UNL     1     -20.707  38.574  86.296  1.00  0.00    -0.550 OA
ENDBRANCH   5   6
ENDBRANCH   4   5
ENDBRANCH   3   4
ENDBRANCH   2   3
ENDBRANCH   1   2
BRANCH   1   9
ATOM      9  C   UNL     1     -21.089  46.253  85.549  1.00  0.00     0.000 C 
BRANCH   9  10
ATOM     10  C   UNL     1     -21.620  46.549  84.138  1.00  0.00    -0.000 C 
BRANCH  10  11
ATOM     11  C   UNL     1     -20.727  45.962  83.032  1.00  0.00    -0.000 C 
BRANCH  11  12
ATOM     12  C   UNL     1     -19.249  46.355  83.196  1.00  0.00    -0.000 C 
BRANCH  12  13
ATOM     13  C   UNL     1     -18.356  45.154  83.542  1.00  0.00    -0.003 C 
ATOM     14  C   UNL     1     -17.383  45.447  84.683  1.00  0.00     0.004 C 
ENDBRANCH  12  13
ENDBRANCH  11  12
ENDBRANCH  10  11
ENDBRANCH   9  10
ENDBRANCH   1   9
TORSDOF 10
ENDMDL
MODEL 6
REMARK VINA RESULT:    -4.482      1.824      3.544
REMARK INTER + INTRA:          -8.032
REMARK INTER:                  -6.731
REMARK INTRA:                  -1.301
REMARK UNBOUND:                -0.929
REMARK SMILES CCCCCCCCCCCC(=O)[O-]
REMARK SMILES IDX 7 1 8 2 9 3 10 4 11 5 12 6 13 7 14 8 6 9 5 10 4 11 3 12 2 13
REMARK SMILES IDX 1 14
REMARK H PARENT
REMARK Flexibility Score: inf
ROOT
ATOM      1  C   UNL     1     -18.221  44.867  84.337  1.00  0.00     0.000 C 
ENDROOT
BRANCH   1   2
ATOM      2  C   UNL     1     -18.840  44.478  85.685  1.00  0.00     0.000 C 
BRANCH   2   3
ATOM      3  C   UNL     1     -19.700  43.216  85.552  1.00  0.00     0.000 C 
BRANCH   3   4
ATOM      4  C   UNL     1     -20.589  43.022  86.790  1.00  0.00     0.006 C 
BRANCH   4   5
ATOM      5  C   UNL     1     -21.228  41.629  86.834  1.00  0.00     0.053 C 
BRANCH   5   6
ATOM      6  C   UNL     1     -20.223  40.566  87.162  1.00  0.00     0.041 C 
ATOM      7  O   UNL     1     -20.115  39.549  86.428  1.00  0.00    -0.550 OA
ATOM      8  O   UNL     1     -19.433  40.682  88.298  1.00  0.00    -0.550 OA
ENDBRANCH   5   6
ENDBRANCH   4   5
ENDBRANCH   3   4
ENDBRANCH   2   3
ENDBRANCH   1   2
BRANCH   1   9
ATOM      9  C   UNL     1     -18.616  46.295  83.940  1.00  0.00     0.000 C 
BRANCH   9  10
ATOM     10  C   UNL     1     -19.527  46.290  82.703  1.00  0.00    -0.000 C 
BRANCH  10  11
ATOM     11  C   UNL     1     -21.017  46.159  83.063  1.00  0.00    -0.000 C 
BRANCH  11  12
ATOM     12  C   UNL     1     -21.400  46.985  84.303  1.00  0.00    -0.000 C 
BRANCH  12  13
ATOM     13  C   UNL     1     -22.127  46.148  85.366  1.00  0.00    -0.003 C 
ATOM     14  C   UNL     1     -21.794  46.582  86.793  1.00  0.00     0.004 C 
ENDBRANCH  12  13
ENDBRANCH  11  12
ENDBRANCH  10  11
ENDBRANCH   9  10
ENDBRANCH   1   9
TORSDOF 10
ENDMDL
MODEL 7
REMARK VINA RESULT:    -4.401      5.439      7.173
REMARK INTER + INTRA:          -7.904
REMARK INTER:                  -6.712
REMARK INTRA:                  -1.192
REMARK UNBOUND:                -0.929
REMARK SMILES CCCCCCCCCCCC(=O)[O-]
REMARK SMILES IDX 7 1 8 2 9 3 10 4 11 5 12 6 13 7 14 8 6 9 5 10 4 11 3 12 2 13
REMARK SMILES IDX 1 14
REMARK H PARENT
REMARK Flexibility Score: inf
ROOT
ATOM      1  C   UNL     1     -25.914  45.993  87.203  1.00  0.00     0.000 C 
ENDROOT
BRANCH   1   2
ATOM      2  C   UNL     1     -26.251  46.862  88.419  1.00  0.00     0.000 C 
BRANCH   2   3
ATOM      3  C   UNL     1     -25.897  46.144  89.726  1.00  0.00     0.000 C 
BRANCH   3   4
ATOM      4  C   UNL     1     -26.415  44.698  89.718  1.00  0.00     0.006 C 
BRANCH   4   5
ATOM      5  C   UNL     1     -27.706  44.539  90.531  1.00  0.00     0.053 C 
BRANCH   5   6
ATOM      6  C   UNL     1     -28.374  43.224  90.264  1.00  0.00     0.041 C 
ATOM      7  O   UNL     1     -29.010  42.640  91.180  1.00  0.00    -0.550 OA
ATOM      8  O   UNL     1     -28.264  42.629  89.014  1.00  0.00    -0.550 OA
ENDBRANCH   5   6
ENDBRANCH   4   5
ENDBRANCH   3   4
ENDBRANCH   2   3
ENDBRANCH   1   2
BRANCH   1   9
ATOM      9  C   UNL     1     -25.098  46.780  86.170  1.00  0.00     0.000 C 
BRANCH   9  10
ATOM     10  C   UNL     1     -23.678  47.056  86.686  1.00  0.00    -0.000 C 
BRANCH  10  11
ATOM     11  C   UNL     1     -22.664  45.993  86.232  1.00  0.00    -0.000 C 
BRANCH  11  12
ATOM     12  C   UNL     1     -21.805  45.462  87.393  1.00  0.00    -0.000 C 
BRANCH  12  13
ATOM     13  C   UNL     1     -22.645  44.778  88.482  1.00  0.00    -0.003 C 
ATOM     14  C   UNL     1     -23.255  43.456  88.018  1.00  0.00     0.004 C 
ENDBRANCH  12  13
ENDBRANCH  11  12
ENDBRANCH  10  11
ENDBRANCH   9  10
ENDBRANCH   1   9
TORSDOF 10
ENDMDL
MODEL 8
REMARK VINA RESULT:    -4.398      2.790      4.943
REMARK INTER + INTRA:          -7.899
REMARK INTER:                  -7.188
REMARK INTRA:                  -0.710
REMARK UNBOUND:                -0.929
REMARK SMILES CCCCCCCCCCCC(=O)[O-]
REMARK SMILES IDX 7 1 8 2 9 3 10 4 11 5 12 6 13 7 14 8 6 9 5 10 4 11 3 12 2 13
REMARK SMILES IDX 1 14
REMARK H PARENT
REMARK Flexibility Score: inf
ROOT
ATOM      1  C   UNL     1     -20.924  38.512  87.496  1.00  0.00     0.000 C 
ENDROOT
BRANCH   1   2
ATOM      2  C   UNL     1     -20.389  38.845  86.099  1.00  0.00     0.000 C 
BRANCH   2   3
ATOM      3  C   UNL     1     -19.569  37.681  85.530  1.00  0.00     0.000 C 
BRANCH   3   4
ATOM      4  C   UNL     1     -19.088  37.992  84.105  1.00  0.00     0.006 C 
BRANCH   4   5
ATOM      5  C   UNL     1     -18.782  36.719  83.306  1.00  0.00     0.053 C 
BRANCH   5   6
ATOM      6  C   UNL     1     -17.317  36.406  83.295  1.00  0.00     0.041 C 
ATOM      7  O   UNL     1     -16.471  37.338  83.288  1.00  0.00    -0.550 OA
ATOM      8  O   UNL     1     -16.887  35.086  83.259  1.00  0.00    -0.550 OA
ENDBRANCH   5   6
ENDBRANCH   4   5
ENDBRANCH   3   4
ENDBRANCH   2   3
ENDBRANCH   1   2
BRANCH   1   9
ATOM      9  C   UNL     1     -20.155  39.279  88.579  1.00  0.00     0.000 C 
BRANCH   9  10
ATOM     10  C   UNL     1     -19.770  40.683  88.089  1.00  0.00    -0.000 C 
BRANCH  10  11
ATOM     11  C   UNL     1     -20.927  41.690  88.203  1.00  0.00    -0.000 C 
BRANCH  11  12
ATOM     12  C   UNL     1     -21.014  42.629  86.987  1.00  0.00    -0.000 C 
BRANCH  12  13
ATOM     13  C   UNL     1     -19.788  42.516  86.068  1.00  0.00    -0.003 C 
ATOM     14  C   UNL     1     -19.464  43.825  85.349  1.00  0.00     0.004 C 
ENDBRANCH  12  13
ENDBRANCH  11  12
ENDBRANCH  10  11
ENDBRANCH   9  10
ENDBRANCH   1   9
TORSDOF 10
ENDMDL
MODEL 9
REMARK VINA RESULT:    -4.323      5.314      6.556
REMARK INTER + INTRA:          -7.780
REMARK INTER:                  -7.338
REMARK INTRA:                  -0.442
REMARK UNBOUND:                -0.929
REMARK SMILES CCCCCCCCCCCC(=O)[O-]
REMARK SMILES IDX 7 1 8 2 9 3 10 4 11 5 12 6 13 7 14 8 6 9 5 10 4 11 3 12 2 13
REMARK SMILES IDX 1 14
REMARK H PARENT
REMARK Flexibility Score: inf
ROOT
ATOM      1  C   UNL     1     -25.850  46.033  87.369  1.00  0.00     0.000 C 
ENDROOT
BRANCH   1   2
ATOM      2  C   UNL     1     -25.589  45.399  88.740  1.00  0.00     0.000 C 
BRANCH   2   3
ATOM      3  C   UNL     1     -26.250  46.212  89.858  1.00  0.00     0.000 C 
BRANCH   3   4
ATOM      4  C   UNL     1     -27.373  45.409  90.533  1.00  0.00     0.006 C 
BRANCH   4   5
ATOM      5  C   UNL     1     -27.023  43.922  90.668  1.00  0.00     0.053 C 
BRANCH   5   6
ATOM      6  C   UNL     1     -28.169  43.042  90.268  1.00  0.00     0.041 C 
ATOM      7  O   UNL     1     -28.283  42.655  89.075  1.00  0.00    -0.550 OA
ATOM      8  O   UNL     1     -29.127  42.679  91.205  1.00  0.00    -0.550 OA
ENDBRANCH   5   6
ENDBRANCH   4   5
ENDBRANCH   3   4
ENDBRANCH   2   3
ENDBRANCH   1   2
BRANCH   1   9
ATOM      9  C   UNL     1     -24.535  46.319  86.633  1.00  0.00     0.000 C 
BRANCH   9  10
ATOM     10  C   UNL     1     -23.417  45.387  87.123  1.00  0.00    -0.000 C 
BRANCH  10  11
ATOM     11  C   UNL     1     -22.131  45.510  86.288  1.00  0.00    -0.000 C 
BRANCH  11  12
ATOM     12  C   UNL     1     -21.075  44.459  86.672  1.00  0.00    -0.000 C 
BRANCH  12  13
ATOM     13  C   UNL     1     -20.366  43.863  85.447  1.00  0.00    -0.003 C 
ATOM     14  C   UNL     1     -18.903  44.291  85.340  1.00  0.00     0.004 C 
ENDBRANCH  12  13
ENDBRANCH  11  12
ENDBRANCH  10  11
ENDBRANCH   9  10
ENDBRANCH   1   9
TORSDOF 10
ENDMDL
