MODEL 1
REMARK VINA RESULT:    -7.940      0.000      0.000
REMARK INTER + INTRA:          -9.645
REMARK INTER:                  -9.333
REMARK INTRA:                  -0.312
REMARK UNBOUND:                -0.312
REMARK SMILES O=c1cc(-c2ccc(O)c(O)c2)oc2cc(O)cc(O)c12
REMARK SMILES IDX 4 1 3 2 2 3 1 4 21 5 19 6 18 7 16 8 15 9 14 10 13 11 5 12
REMARK SMILES IDX 6 13 7 14 8 15 12 16 10 17 9 18 11 20 20 22 17 24
REMARK H PARENT 9 19 11 21 20 23 17 25
REMARK Flexibility Score: inf
ROOT
ATOM      1  C   UNL     1     -32.166  15.039   3.072  1.00  0.00     0.138 A 
ATOM      2  C   UNL     1     -32.527  15.307   1.741  1.00  0.00     0.100 A 
ATOM      3  C   UNL     1     -31.530  15.479   0.780  1.00  0.00     0.197 A 
ATOM      4  O   UNL     1     -31.864  15.720  -0.412  1.00  0.00    -0.289 OA
ATOM      5  C   UNL     1     -30.176  15.384   1.159  1.00  0.00     0.107 A 
ATOM      6  C   UNL     1     -29.104  15.544   0.248  1.00  0.00     0.134 A 
ATOM      7  C   UNL     1     -27.782  15.440   0.705  1.00  0.00     0.093 A 
ATOM      8  C   UNL     1     -27.512  15.182   2.051  1.00  0.00     0.123 A 
ATOM      9  C   UNL     1     -28.568  15.023   2.956  1.00  0.00     0.094 A 
ATOM     10  C   UNL     1     -29.892  15.122   2.520  1.00  0.00     0.146 A 
ATOM     11  O   UNL     1     -30.877  14.966   3.398  1.00  0.00    -0.456 OA
ENDROOT
BRANCH   1  12
ATOM     12  C   UNL     1     -33.182  14.849   4.137  1.00  0.00     0.021 A 
ATOM     13  C   UNL     1     -34.500  15.325   3.996  1.00  0.00     0.016 A 
ATOM     14  C   UNL     1     -35.439  15.123   5.010  1.00  0.00     0.051 A 
ATOM     15  C   UNL     1     -35.086  14.439   6.176  1.00  0.00     0.157 A 
ATOM     16  C   UNL     1     -32.838  14.148   5.306  1.00  0.00     0.062 A 
ATOM     17  C   UNL     1     -33.779  13.945   6.325  1.00  0.00     0.158 A 
BRANCH  15  18
ATOM     18  O   UNL     1     -36.045  14.254   7.171  1.00  0.00    -0.504 OA
ATOM     19  H   UNL     1     -36.922  13.780   6.993  1.00  0.00     0.293 HD
ENDBRANCH  15  18
BRANCH  17  20
ATOM     20  O   UNL     1     -33.421  13.258   7.484  1.00  0.00    -0.504 OA
ATOM     21  H   UNL     1     -33.980  13.310   8.327  1.00  0.00     0.293 HD
ENDBRANCH  17  20
ENDBRANCH   1  12
BRANCH   6  22
ATOM     22  O   UNL     1     -29.342  15.803  -1.103  1.00  0.00    -0.507 OA
ATOM     23  H   UNL     1     -28.762  16.441  -1.633  1.00  0.00     0.293 HD
ENDBRANCH   6  22
BRANCH   8  24
ATOM     24  O   UNL     1     -26.190  15.084   2.479  1.00  0.00    -0.508 OA
ATOM     25  H   UNL     1     -25.696  14.199   2.477  1.00  0.00     0.293 HD
ENDBRANCH   8  24
TORSDOF 5
ENDMDL
MODEL 2
REMARK VINA RESULT:    -7.864      5.804     11.860
REMARK INTER + INTRA:          -9.556
REMARK INTER:                  -9.266
REMARK INTRA:                  -0.289
REMARK UNBOUND:                -0.312
REMARK SMILES O=c1cc(-c2ccc(O)c(O)c2)oc2cc(O)cc(O)c12
REMARK SMILES IDX 4 1 3 2 2 3 1 4 21 5 19 6 18 7 16 8 15 9 14 10 13 11 5 12
REMARK SMILES IDX 6 13 7 14 8 15 12 16 10 17 9 18 11 20 20 22 17 24
REMARK H PARENT 9 19 11 21 20 23 17 25
REMARK Flexibility Score: inf
ROOT
ATOM      1  C   UNL     1     -38.186  12.430   8.713  1.00  0.00     0.138 A 
ATOM      2  C   UNL     1     -38.449  11.122   9.153  1.00  0.00     0.100 A 
ATOM      3  C   UNL     1     -39.482  10.899  10.064  1.00  0.00     0.197 A 
ATOM      4  O   UNL     1     -39.710   9.722  10.454  1.00  0.00    -0.289 OA
ATOM      5  C   UNL     1     -40.244  11.988  10.531  1.00  0.00     0.107 A 
ATOM      6  C   UNL     1     -41.309  11.849  11.454  1.00  0.00     0.134 A 
ATOM      7  C   UNL     1     -42.017  12.985  11.875  1.00  0.00     0.093 A 
ATOM      8  C   UNL     1     -41.681  14.252  11.394  1.00  0.00     0.123 A 
ATOM      9  C   UNL     1     -40.629  14.396  10.482  1.00  0.00     0.094 A 
ATOM     10  C   UNL     1     -39.912  13.277  10.049  1.00  0.00     0.146 A 
ATOM     11  O   UNL     1     -38.919  13.439   9.182  1.00  0.00    -0.456 OA
ENDROOT
BRANCH   1  12
ATOM     12  C   UNL     1     -37.100  12.728   7.746  1.00  0.00     0.021 A 
ATOM     13  C   UNL     1     -36.500  14.001   7.674  1.00  0.00     0.016 A 
ATOM     14  C   UNL     1     -35.473  14.250   6.761  1.00  0.00     0.051 A 
ATOM     15  C   UNL     1     -35.021  13.237   5.910  1.00  0.00     0.157 A 
ATOM     16  C   UNL     1     -36.630  11.710   6.897  1.00  0.00     0.062 A 
ATOM     17  C   UNL     1     -35.599  11.959   5.979  1.00  0.00     0.158 A 
BRANCH  15  18
ATOM     18  O   UNL     1     -33.995  13.517   5.008  1.00  0.00    -0.504 OA
ATOM     19  H   UNL     1     -34.093  13.355   4.013  1.00  0.00     0.293 HD
ENDBRANCH  15  18
BRANCH  17  20
ATOM     20  O   UNL     1     -35.150  10.944   5.136  1.00  0.00    -0.504 OA
ATOM     21  H   UNL     1     -35.234   9.967   5.391  1.00  0.00     0.293 HD
ENDBRANCH  17  20
ENDBRANCH   1  12
BRANCH   6  22
ATOM     22  O   UNL     1     -41.668  10.596  11.952  1.00  0.00    -0.507 OA
ATOM     23  H   UNL     1     -42.438  10.481  12.600  1.00  0.00     0.293 HD
ENDBRANCH   6  22
BRANCH   8  24
ATOM     24  O   UNL     1     -42.399  15.364  11.829  1.00  0.00    -0.508 OA
ATOM     25  H   UNL     1     -41.986  16.290  11.841  1.00  0.00     0.293 HD
ENDBRANCH   8  24
TORSDOF 5
ENDMDL
MODEL 3
REMARK VINA RESULT:    -7.490      2.652      7.126
REMARK INTER + INTRA:          -9.115
REMARK INTER:                  -8.847
REMARK INTRA:                  -0.268
REMARK UNBOUND:                -0.312
REMARK SMILES O=c1cc(-c2ccc(O)c(O)c2)oc2cc(O)cc(O)c12
REMARK SMILES IDX 4 1 3 2 2 3 1 4 21 5 19 6 18 7 16 8 15 9 14 10 13 11 5 12
REMARK SMILES IDX 6 13 7 14 8 15 12 16 10 17 9 18 11 20 20 22 17 24
REMARK H PARENT 9 19 11 21 20 23 17 25
REMARK Flexibility Score: inf
ROOT
ATOM      1  C   UNL     1     -31.054  14.729   1.479  1.00  0.00     0.138 A 
ATOM      2  C   UNL     1     -31.693  15.482   2.478  1.00  0.00     0.100 A 
ATOM      3  C   UNL     1     -32.877  15.009   3.045  1.00  0.00     0.197 A 
ATOM      4  O   UNL     1     -33.443  15.693   3.940  1.00  0.00    -0.289 OA
ATOM      5  C   UNL     1     -33.416  13.783   2.605  1.00  0.00     0.107 A 
ATOM      6  C   UNL     1     -34.610  13.230   3.127  1.00  0.00     0.134 A 
ATOM      7  C   UNL     1     -35.084  12.007   2.632  1.00  0.00     0.093 A 
ATOM      8  C   UNL     1     -34.391  11.328   1.628  1.00  0.00     0.123 A 
ATOM      9  C   UNL     1     -33.209  11.869   1.108  1.00  0.00     0.094 A 
ATOM     10  C   UNL     1     -32.719  13.087   1.589  1.00  0.00     0.146 A 
ATOM     11  O   UNL     1     -31.595  13.580   1.080  1.00  0.00    -0.456 OA
ENDROOT
BRANCH   1  12
ATOM     12  C   UNL     1     -29.794  15.184   0.840  1.00  0.00     0.021 A 
ATOM     13  C   UNL     1     -29.695  15.372  -0.552  1.00  0.00     0.016 A 
ATOM     14  C   UNL     1     -28.500  15.810  -1.125  1.00  0.00     0.051 A 
ATOM     15  C   UNL     1     -27.385  16.074  -0.324  1.00  0.00     0.157 A 
ATOM     16  C   UNL     1     -28.673  15.466   1.642  1.00  0.00     0.062 A 
ATOM     17  C   UNL     1     -27.472  15.905   1.067  1.00  0.00     0.158 A 
BRANCH  15  18
ATOM     18  O   UNL     1     -26.205  16.509  -0.926  1.00  0.00    -0.504 OA
ATOM     19  H   UNL     1     -25.323  16.533  -0.428  1.00  0.00     0.293 HD
ENDBRANCH  15  18
BRANCH  17  20
ATOM     20  O   UNL     1     -26.365  16.170   1.873  1.00  0.00    -0.504 OA
ATOM     21  H   UNL     1     -25.546  15.576   1.862  1.00  0.00     0.293 HD
ENDBRANCH  17  20
ENDBRANCH   1  12
BRANCH   6  22
ATOM     22  O   UNL     1     -35.325  13.886   4.131  1.00  0.00    -0.507 OA
ATOM     23  H   UNL     1     -35.556  14.869   4.065  1.00  0.00     0.293 HD
ENDBRANCH   6  22
BRANCH   8  24
ATOM     24  O   UNL     1     -34.884  10.115   1.153  1.00  0.00    -0.508 OA
ATOM     25  H   UNL     1     -35.047   9.330   1.773  1.00  0.00     0.293 HD
ENDBRANCH   8  24
TORSDOF 5
ENDMDL
MODEL 4
REMARK VINA RESULT:    -7.357      4.949      7.703
REMARK INTER + INTRA:          -8.959
REMARK INTER:                  -8.643
REMARK INTRA:                  -0.316
REMARK UNBOUND:                -0.312
REMARK SMILES O=c1cc(-c2ccc(O)c(O)c2)oc2cc(O)cc(O)c12
REMARK SMILES IDX 4 1 3 2 2 3 1 4 21 5 19 6 18 7 16 8 15 9 14 10 13 11 5 12
REMARK SMILES IDX 6 13 7 14 8 15 12 16 10 17 9 18 11 20 20 22 17 24
REMARK H PARENT 9 19 11 21 20 23 17 25
REMARK Flexibility Score: inf
ROOT
ATOM      1  C   UNL     1     -36.927  11.934   7.516  1.00  0.00     0.138 A 
ATOM      2  C   UNL     1     -36.667  13.314   7.548  1.00  0.00     0.100 A 
ATOM      3  C   UNL     1     -36.007  13.915   6.476  1.00  0.00     0.197 A 
ATOM      4  O   UNL     1     -35.777  15.153   6.515  1.00  0.00    -0.289 OA
ATOM      5  C   UNL     1     -35.607  13.128   5.377  1.00  0.00     0.107 A 
ATOM      6  C   UNL     1     -34.934  13.656   4.250  1.00  0.00     0.134 A 
ATOM      7  C   UNL     1     -34.565  12.804   3.198  1.00  0.00     0.093 A 
ATOM      8  C   UNL     1     -34.854  11.439   3.252  1.00  0.00     0.123 A 
ATOM      9  C   UNL     1     -35.519  10.911   4.364  1.00  0.00     0.094 A 
ATOM     10  C   UNL     1     -35.896  11.742   5.422  1.00  0.00     0.146 A 
ATOM     11  O   UNL     1     -36.527  11.217   6.467  1.00  0.00    -0.456 OA
ENDROOT
BRANCH   1  12
ATOM     12  C   UNL     1     -37.625  11.241   8.628  1.00  0.00     0.021 A 
ATOM     13  C   UNL     1     -37.847  11.870   9.869  1.00  0.00     0.016 A 
ATOM     14  C   UNL     1     -38.515  11.197  10.894  1.00  0.00     0.051 A 
ATOM     15  C   UNL     1     -38.979   9.893  10.701  1.00  0.00     0.157 A 
ATOM     16  C   UNL     1     -38.107   9.934   8.436  1.00  0.00     0.062 A 
ATOM     17  C   UNL     1     -38.778   9.258   9.465  1.00  0.00     0.158 A 
BRANCH  15  18
ATOM     18  O   UNL     1     -39.642   9.248  11.745  1.00  0.00    -0.504 OA
ATOM     19  H   UNL     1     -40.574   9.513  12.037  1.00  0.00     0.293 HD
ENDBRANCH  15  18
BRANCH  17  20
ATOM     20  O   UNL     1     -39.241   7.958   9.264  1.00  0.00    -0.504 OA
ATOM     21  H   UNL     1     -39.370   7.315  10.036  1.00  0.00     0.293 HD
ENDBRANCH  17  20
ENDBRANCH   1  12
BRANCH   6  22
ATOM     22  O   UNL     1     -34.632  15.016   4.167  1.00  0.00    -0.507 OA
ATOM     23  H   UNL     1     -35.282  15.726   4.482  1.00  0.00     0.293 HD
ENDBRANCH   6  22
BRANCH   8  24
ATOM     24  O   UNL     1     -34.475  10.615   2.195  1.00  0.00    -0.508 OA
ATOM     25  H   UNL     1     -33.786  10.911   1.512  1.00  0.00     0.293 HD
ENDBRANCH   8  24
TORSDOF 5
ENDMDL
MODEL 5
REMARK VINA RESULT:    -7.329      2.380      6.998
REMARK INTER + INTRA:          -8.926
REMARK INTER:                  -8.641
REMARK INTRA:                  -0.285
REMARK UNBOUND:                -0.312
REMARK SMILES O=c1cc(-c2ccc(O)c(O)c2)oc2cc(O)cc(O)c12
REMARK SMILES IDX 4 1 3 2 2 3 1 4 21 5 19 6 18 7 16 8 15 9 14 10 13 11 5 12
REMARK SMILES IDX 6 13 7 14 8 15 12 16 10 17 9 18 11 20 20 22 17 24
REMARK H PARENT 9 19 11 21 20 23 17 25
REMARK Flexibility Score: inf
ROOT
ATOM      1  C   UNL     1     -31.390  14.122   1.163  1.00  0.00     0.138 A 
ATOM      2  C   UNL     1     -31.953  12.981   0.568  1.00  0.00     0.100 A 
ATOM      3  C   UNL     1     -33.140  12.454   1.079  1.00  0.00     0.197 A 
ATOM      4  O   UNL     1     -33.637  11.429   0.540  1.00  0.00    -0.289 OA
ATOM      5  C   UNL     1     -33.754  13.073   2.187  1.00  0.00     0.107 A 
ATOM      6  C   UNL     1     -34.958  12.605   2.766  1.00  0.00     0.134 A 
ATOM      7  C   UNL     1     -35.503  13.274   3.872  1.00  0.00     0.093 A 
ATOM      8  C   UNL     1     -34.870  14.398   4.408  1.00  0.00     0.123 A 
ATOM      9  C   UNL     1     -33.680  14.865   3.839  1.00  0.00     0.094 A 
ATOM     10  C   UNL     1     -33.121  14.213   2.737  1.00  0.00     0.146 A 
ATOM     11  O   UNL     1     -31.990  14.677   2.214  1.00  0.00    -0.456 OA
ENDROOT
BRANCH   1  12
ATOM     12  C   UNL     1     -30.129  14.726   0.662  1.00  0.00     0.021 A 
ATOM     13  C   UNL     1     -29.976  15.112  -0.684  1.00  0.00     0.016 A 
ATOM     14  C   UNL     1     -28.782  15.686  -1.125  1.00  0.00     0.051 A 
ATOM     15  C   UNL     1     -27.724  15.892  -0.236  1.00  0.00     0.157 A 
ATOM     16  C   UNL     1     -29.066  14.949   1.555  1.00  0.00     0.062 A 
ATOM     17  C   UNL     1     -27.866  15.525   1.113  1.00  0.00     0.158 A 
BRANCH  15  18
ATOM     18  O   UNL     1     -26.544  16.466  -0.706  1.00  0.00    -0.504 OA
ATOM     19  H   UNL     1     -26.535  17.126  -1.475  1.00  0.00     0.293 HD
ENDBRANCH  15  18
BRANCH  17  20
ATOM     20  O   UNL     1     -26.816  15.731   2.007  1.00  0.00    -0.504 OA
ATOM     21  H   UNL     1     -26.983  16.012   2.965  1.00  0.00     0.293 HD
ENDBRANCH  17  20
ENDBRANCH   1  12
BRANCH   6  22
ATOM     22  O   UNL     1     -35.613  11.485   2.252  1.00  0.00    -0.507 OA
ATOM     23  H   UNL     1     -36.604  11.497   2.045  1.00  0.00     0.293 HD
ENDBRANCH   6  22
BRANCH   8  24
ATOM     24  O   UNL     1     -35.432  15.043   5.507  1.00  0.00    -0.508 OA
ATOM     25  H   UNL     1     -35.664  14.541   6.356  1.00  0.00     0.293 HD
ENDBRANCH   8  24
TORSDOF 5
ENDMDL
MODEL 6
REMARK VINA RESULT:    -7.289      4.488     10.335
REMARK INTER + INTRA:          -8.879
REMARK INTER:                  -8.615
REMARK INTRA:                  -0.264
REMARK UNBOUND:                -0.312
REMARK SMILES O=c1cc(-c2ccc(O)c(O)c2)oc2cc(O)cc(O)c12
REMARK SMILES IDX 4 1 3 2 2 3 1 4 21 5 19 6 18 7 16 8 15 9 14 10 13 11 5 12
REMARK SMILES IDX 6 13 7 14 8 15 12 16 10 17 9 18 11 20 20 22 17 24
REMARK H PARENT 9 19 11 21 20 23 17 25
REMARK Flexibility Score: inf
ROOT
ATOM      1  C   UNL     1     -36.559  13.038   7.804  1.00  0.00     0.138 A 
ATOM      2  C   UNL     1     -37.341  13.937   8.549  1.00  0.00     0.100 A 
ATOM      3  C   UNL     1     -38.387  13.451   9.334  1.00  0.00     0.197 A 
ATOM      4  O   UNL     1     -39.084  14.266   9.997  1.00  0.00    -0.289 OA
ATOM      5  C   UNL     1     -38.647  12.066   9.366  1.00  0.00     0.107 A 
ATOM      6  C   UNL     1     -39.687  11.490  10.135  1.00  0.00     0.134 A 
ATOM      7  C   UNL     1     -39.884  10.101  10.108  1.00  0.00     0.093 A 
ATOM      8  C   UNL     1     -39.065   9.280   9.330  1.00  0.00     0.123 A 
ATOM      9  C   UNL     1     -38.036   9.844   8.568  1.00  0.00     0.094 A 
ATOM     10  C   UNL     1     -37.822  11.225   8.581  1.00  0.00     0.146 A 
ATOM     11  O   UNL     1     -36.837  11.736   7.849  1.00  0.00    -0.456 OA
ENDROOT
BRANCH   1  12
ATOM     12  C   UNL     1     -35.434  13.497   6.952  1.00  0.00     0.021 A 
ATOM     13  C   UNL     1     -34.094  13.208   7.274  1.00  0.00     0.016 A 
ATOM     14  C   UNL     1     -33.056  13.645   6.448  1.00  0.00     0.051 A 
ATOM     15  C   UNL     1     -33.333  14.369   5.286  1.00  0.00     0.157 A 
ATOM     16  C   UNL     1     -35.707  14.214   5.773  1.00  0.00     0.062 A 
ATOM     17  C   UNL     1     -34.665  14.654   4.943  1.00  0.00     0.158 A 
BRANCH  15  18
ATOM     18  O   UNL     1     -32.275  14.793   4.482  1.00  0.00    -0.504 OA
ATOM     19  H   UNL     1     -31.934  14.240   3.705  1.00  0.00     0.293 HD
ENDBRANCH  15  18
BRANCH  17  20
ATOM     20  O   UNL     1     -34.949  15.372   3.783  1.00  0.00    -0.504 OA
ATOM     21  H   UNL     1     -34.231  15.588   3.103  1.00  0.00     0.293 HD
ENDBRANCH  17  20
ENDBRANCH   1  12
BRANCH   6  22
ATOM     22  O   UNL     1     -40.521  12.285  10.922  1.00  0.00    -0.507 OA
ATOM     23  H   UNL     1     -41.411  12.626  10.580  1.00  0.00     0.293 HD
ENDBRANCH   6  22
BRANCH   8  24
ATOM     24  O   UNL     1     -39.283   7.905   9.321  1.00  0.00    -0.508 OA
ATOM     25  H   UNL     1     -40.192   7.513   9.101  1.00  0.00     0.293 HD
ENDBRANCH   8  24
TORSDOF 5
ENDMDL
MODEL 7
REMARK VINA RESULT:    -7.228      5.996      9.119
REMARK INTER + INTRA:          -8.808
REMARK INTER:                  -8.540
REMARK INTRA:                  -0.267
REMARK UNBOUND:                -0.312
REMARK SMILES O=c1cc(-c2ccc(O)c(O)c2)oc2cc(O)cc(O)c12
REMARK SMILES IDX 4 1 3 2 2 3 1 4 21 5 19 6 18 7 16 8 15 9 14 10 13 11 5 12
REMARK SMILES IDX 6 13 7 14 8 15 12 16 10 17 9 18 11 20 20 22 17 24
REMARK H PARENT 9 19 11 21 20 23 17 25
REMARK Flexibility Score: inf
ROOT
ATOM      1  C   UNL     1     -38.226  11.534   8.142  1.00  0.00     0.138 A 
ATOM      2  C   UNL     1     -37.005  12.110   8.531  1.00  0.00     0.100 A 
ATOM      3  C   UNL     1     -36.023  12.352   7.570  1.00  0.00     0.197 A 
ATOM      4  O   UNL     1     -34.930  12.868   7.929  1.00  0.00    -0.289 OA
ATOM      5  C   UNL     1     -36.268  12.013   6.224  1.00  0.00     0.107 A 
ATOM      6  C   UNL     1     -35.328  12.226   5.188  1.00  0.00     0.134 A 
ATOM      7  C   UNL     1     -35.646  11.856   3.873  1.00  0.00     0.093 A 
ATOM      8  C   UNL     1     -36.882  11.277   3.575  1.00  0.00     0.123 A 
ATOM      9  C   UNL     1     -37.816  11.065   4.596  1.00  0.00     0.094 A 
ATOM     10  C   UNL     1     -37.519  11.428   5.912  1.00  0.00     0.146 A 
ATOM     11  O   UNL     1     -38.422  11.216   6.863  1.00  0.00    -0.456 OA
ENDROOT
BRANCH   1  12
ATOM     12  C   UNL     1     -39.307  11.252   9.120  1.00  0.00     0.021 A 
ATOM     13  C   UNL     1     -40.606  11.773   8.959  1.00  0.00     0.016 A 
ATOM     14  C   UNL     1     -41.606  11.483   9.889  1.00  0.00     0.051 A 
ATOM     15  C   UNL     1     -41.333  10.667  10.991  1.00  0.00     0.157 A 
ATOM     16  C   UNL     1     -39.044  10.420  10.222  1.00  0.00     0.062 A 
ATOM     17  C   UNL     1     -40.047  10.130  11.158  1.00  0.00     0.158 A 
BRANCH  15  18
ATOM     18  O   UNL     1     -42.352  10.398  11.904  1.00  0.00    -0.504 OA
ATOM     19  H   UNL     1     -42.913   9.556  11.852  1.00  0.00     0.293 HD
ENDBRANCH  15  18
BRANCH  17  20
ATOM     20  O   UNL     1     -39.769   9.312  12.252  1.00  0.00    -0.504 OA
ATOM     21  H   UNL     1     -38.890   9.372  12.751  1.00  0.00     0.293 HD
ENDBRANCH  17  20
ENDBRANCH   1  12
BRANCH   6  22
ATOM     22  O   UNL     1     -34.084  12.801   5.455  1.00  0.00    -0.507 OA
ATOM     23  H   UNL     1     -33.928  13.798   5.363  1.00  0.00     0.293 HD
ENDBRANCH   6  22
BRANCH   8  24
ATOM     24  O   UNL     1     -37.173  10.918   2.262  1.00  0.00    -0.508 OA
ATOM     25  H   UNL     1     -38.129  10.832   1.935  1.00  0.00     0.293 HD
ENDBRANCH   8  24
TORSDOF 5
ENDMDL
MODEL 8
REMARK VINA RESULT:    -7.165      3.354      5.169
REMARK INTER + INTRA:          -8.733
REMARK INTER:                  -8.440
REMARK INTRA:                  -0.293
REMARK UNBOUND:                -0.312
REMARK SMILES O=c1cc(-c2ccc(O)c(O)c2)oc2cc(O)cc(O)c12
REMARK SMILES IDX 4 1 3 2 2 3 1 4 21 5 19 6 18 7 16 8 15 9 14 10 13 11 5 12
REMARK SMILES IDX 6 13 7 14 8 15 12 16 10 17 9 18 11 20 20 22 17 24
REMARK H PARENT 9 19 11 21 20 23 17 25
REMARK Flexibility Score: inf
ROOT
ATOM      1  C   UNL     1     -35.407  12.475   5.323  1.00  0.00     0.138 A 
ATOM      2  C   UNL     1     -35.556  11.497   4.325  1.00  0.00     0.100 A 
ATOM      3  C   UNL     1     -35.006  11.716   3.061  1.00  0.00     0.197 A 
ATOM      4  O   UNL     1     -35.146  10.833   2.172  1.00  0.00    -0.289 OA
ATOM      5  C   UNL     1     -34.313  12.916   2.803  1.00  0.00     0.107 A 
ATOM      6  C   UNL     1     -33.725  13.217   1.551  1.00  0.00     0.134 A 
ATOM      7  C   UNL     1     -33.055  14.437   1.373  1.00  0.00     0.093 A 
ATOM      8  C   UNL     1     -32.964  15.358   2.418  1.00  0.00     0.123 A 
ATOM      9  C   UNL     1     -33.543  15.066   3.658  1.00  0.00     0.094 A 
ATOM     10  C   UNL     1     -34.214  13.856   3.856  1.00  0.00     0.146 A 
ATOM     11  O   UNL     1     -34.755  13.601   5.043  1.00  0.00    -0.456 OA
ENDROOT
BRANCH   1  12
ATOM     12  C   UNL     1     -35.971  12.297   6.684  1.00  0.00     0.021 A 
ATOM     13  C   UNL     1     -36.070  13.370   7.591  1.00  0.00     0.016 A 
ATOM     14  C   UNL     1     -36.614  13.175   8.862  1.00  0.00     0.051 A 
ATOM     15  C   UNL     1     -37.075  11.914   9.250  1.00  0.00     0.157 A 
ATOM     16  C   UNL     1     -36.451  11.034   7.076  1.00  0.00     0.062 A 
ATOM     17  C   UNL     1     -36.996  10.837   8.352  1.00  0.00     0.158 A 
BRANCH  15  18
ATOM     18  O   UNL     1     -37.612  11.752  10.527  1.00  0.00    -0.504 OA
ATOM     19  H   UNL     1     -37.230  11.089  11.191  1.00  0.00     0.293 HD
ENDBRANCH  15  18
BRANCH  17  20
ATOM     20  O   UNL     1     -37.458   9.578   8.731  1.00  0.00    -0.504 OA
ATOM     21  H   UNL     1     -38.091   9.457   9.512  1.00  0.00     0.293 HD
ENDBRANCH  17  20
ENDBRANCH   1  12
BRANCH   6  22
ATOM     22  O   UNL     1     -33.800  12.315   0.488  1.00  0.00    -0.507 OA
ATOM     23  H   UNL     1     -33.577  11.334   0.605  1.00  0.00     0.293 HD
ENDBRANCH   6  22
BRANCH   8  24
ATOM     24  O   UNL     1     -32.294  16.563   2.214  1.00  0.00    -0.508 OA
ATOM     25  H   UNL     1     -31.565  16.877   2.844  1.00  0.00     0.293 HD
ENDBRANCH   8  24
TORSDOF 5
ENDMDL
MODEL 9
REMARK VINA RESULT:    -7.148      3.921      5.652
REMARK INTER + INTRA:          -8.714
REMARK INTER:                  -8.395
REMARK INTRA:                  -0.319
REMARK UNBOUND:                -0.312
REMARK SMILES O=c1cc(-c2ccc(O)c(O)c2)oc2cc(O)cc(O)c12
REMARK SMILES IDX 4 1 3 2 2 3 1 4 21 5 19 6 18 7 16 8 15 9 14 10 13 11 5 12
REMARK SMILES IDX 6 13 7 14 8 15 12 16 10 17 9 18 11 20 20 22 17 24
REMARK H PARENT 9 19 11 21 20 23 17 25
REMARK Flexibility Score: inf
ROOT
ATOM      1  C   UNL     1     -35.530  12.958   5.705  1.00  0.00     0.138 A 
ATOM      2  C   UNL     1     -35.111  14.273   5.440  1.00  0.00     0.100 A 
ATOM      3  C   UNL     1     -34.543  14.576   4.202  1.00  0.00     0.197 A 
ATOM      4  O   UNL     1     -34.168  15.759   3.975  1.00  0.00    -0.289 OA
ATOM      5  C   UNL     1     -34.395  13.560   3.238  1.00  0.00     0.107 A 
ATOM      6  C   UNL     1     -33.831  13.782   1.958  1.00  0.00     0.134 A 
ATOM      7  C   UNL     1     -33.713  12.715   1.055  1.00  0.00     0.093 A 
ATOM      8  C   UNL     1     -34.146  11.435   1.406  1.00  0.00     0.123 A 
ATOM      9  C   UNL     1     -34.705  11.209   2.669  1.00  0.00     0.094 A 
ATOM     10  C   UNL     1     -34.832  12.259   3.582  1.00  0.00     0.146 A 
ATOM     11  O   UNL     1     -35.367  12.019   4.775  1.00  0.00    -0.456 OA
ENDROOT
BRANCH   1  12
ATOM     12  C   UNL     1     -36.140  12.577   7.004  1.00  0.00     0.021 A 
ATOM     13  C   UNL     1     -36.385  13.527   8.014  1.00  0.00     0.016 A 
ATOM     14  C   UNL     1     -36.970  13.142   9.222  1.00  0.00     0.051 A 
ATOM     15  C   UNL     1     -37.325  11.808   9.444  1.00  0.00     0.157 A 
ATOM     16  C   UNL     1     -36.514  11.240   7.227  1.00  0.00     0.062 A 
ATOM     17  C   UNL     1     -37.099  10.852   8.441  1.00  0.00     0.158 A 
BRANCH  15  18
ATOM     18  O   UNL     1     -37.905  11.454  10.661  1.00  0.00    -0.504 OA
ATOM     19  H   UNL     1     -38.904  11.315  10.762  1.00  0.00     0.293 HD
ENDBRANCH  15  18
BRANCH  17  20
ATOM     20  O   UNL     1     -37.455   9.520   8.653  1.00  0.00    -0.504 OA
ATOM     21  H   UNL     1     -38.200   9.080   8.127  1.00  0.00     0.293 HD
ENDBRANCH  17  20
ENDBRANCH   1  12
BRANCH   6  22
ATOM     22  O   UNL     1     -33.389  15.051   1.580  1.00  0.00    -0.507 OA
ATOM     23  H   UNL     1     -32.597  15.176   0.961  1.00  0.00     0.293 HD
ENDBRANCH   6  22
BRANCH   8  24
ATOM     24  O   UNL     1     -34.018  10.392   0.491  1.00  0.00    -0.508 OA
ATOM     25  H   UNL     1     -34.823  10.006   0.010  1.00  0.00     0.293 HD
ENDBRANCH   8  24
TORSDOF 5
ENDMDL
