MODEL 1
REMARK VINA RESULT:    -7.912      0.000      0.000
REMARK INTER + INTRA:          -8.849
REMARK INTER:                  -9.299
REMARK INTRA:                   0.451
REMARK UNBOUND:                 0.451
REMARK SMILES O=c1c(O)c(-c2ccc(O)cc2)oc2cc(O)cc(O)c12
REMARK SMILES IDX 5 1 3 2 2 3 1 4 21 5 19 6 18 7 16 8 15 9 14 10 13 11 6 12
REMARK SMILES IDX 7 13 8 14 9 15 12 16 11 17 10 18 4 20 20 22 17 24
REMARK H PARENT 10 19 4 21 20 23 17 25
REMARK Flexibility Score: inf
ROOT
ATOM      1  C   UNL     1      16.135  23.374  40.964  1.00  0.00     0.180 A 
ATOM      2  C   UNL     1      16.547  24.219  39.919  1.00  0.00     0.208 A 
ATOM      3  C   UNL     1      17.692  23.881  39.181  1.00  0.00     0.238 A 
ATOM      4  O   UNL     1      18.025  24.613  38.212  1.00  0.00    -0.285 OA
ATOM      5  C   UNL     1      18.421  22.712  39.507  1.00  0.00     0.111 A 
ATOM      6  C   UNL     1      19.619  22.295  38.852  1.00  0.00     0.134 A 
ATOM      7  C   UNL     1      20.183  21.054  39.171  1.00  0.00     0.093 A 
ATOM      8  C   UNL     1      19.630  20.245  40.166  1.00  0.00     0.123 A 
ATOM      9  C   UNL     1      18.494  20.671  40.852  1.00  0.00     0.094 A 
ATOM     10  C   UNL     1      17.888  21.888  40.531  1.00  0.00     0.146 A 
ATOM     11  O   UNL     1      16.802  22.251  41.202  1.00  0.00    -0.452 OA
ENDROOT
BRANCH   1  12
ATOM     12  C   UNL     1      14.952  23.677  41.802  1.00  0.00     0.021 A 
ATOM     13  C   UNL     1      13.994  24.625  41.402  1.00  0.00     0.016 A 
ATOM     14  C   UNL     1      12.898  24.912  42.223  1.00  0.00     0.047 A 
ATOM     15  C   UNL     1      12.755  24.266  43.457  1.00  0.00     0.115 A 
ATOM     16  C   UNL     1      14.812  23.049  43.051  1.00  0.00     0.016 A 
ATOM     17  C   UNL     1      13.715  23.338  43.869  1.00  0.00     0.047 A 
BRANCH  15  18
ATOM     18  O   UNL     1      11.666  24.544  44.282  1.00  0.00    -0.508 OA
ATOM     19  H   UNL     1      11.105  23.803  44.685  1.00  0.00     0.293 HD
ENDBRANCH  15  18
ENDBRANCH   1  12
BRANCH   2  20
ATOM     20  O   UNL     1      15.800  25.357  39.599  1.00  0.00    -0.502 OA
ATOM     21  H   UNL     1      16.047  25.973  38.833  1.00  0.00     0.293 HD
ENDBRANCH   2  20
BRANCH   6  22
ATOM     22  O   UNL     1      20.303  23.069  37.910  1.00  0.00    -0.507 OA
ATOM     23  H   UNL     1      21.232  22.875  37.572  1.00  0.00     0.293 HD
ENDBRANCH   6  22
BRANCH   8  24
ATOM     24  O   UNL     1      20.207  19.019  40.487  1.00  0.00    -0.508 OA
ATOM     25  H   UNL     1      19.726  18.343  41.070  1.00  0.00     0.293 HD
ENDBRANCH   8  24
TORSDOF 5
ENDMDL
MODEL 2
REMARK VINA RESULT:    -7.847      1.106      1.613
REMARK INTER + INTRA:          -8.773
REMARK INTER:                  -9.259
REMARK INTRA:                   0.486
REMARK UNBOUND:                 0.451
REMARK SMILES O=c1c(O)c(-c2ccc(O)cc2)oc2cc(O)cc(O)c12
REMARK SMILES IDX 5 1 3 2 2 3 1 4 21 5 19 6 18 7 16 8 15 9 14 10 13 11 6 12
REMARK SMILES IDX 7 13 8 14 9 15 12 16 11 17 10 18 4 20 20 22 17 24
REMARK H PARENT 10 19 4 21 20 23 17 25
REMARK Flexibility Score: inf
ROOT
ATOM      1  C   UNL     1      14.980  23.763  41.736  1.00  0.00     0.180 A 
ATOM      2  C   UNL     1      15.097  24.723  40.716  1.00  0.00     0.208 A 
ATOM      3  C   UNL     1      16.128  24.592  39.773  1.00  0.00     0.238 A 
ATOM      4  O   UNL     1      16.195  25.425  38.830  1.00  0.00    -0.285 OA
ATOM      5  C   UNL     1      17.040  23.514  39.870  1.00  0.00     0.111 A 
ATOM      6  C   UNL     1      18.148  23.307  38.993  1.00  0.00     0.134 A 
ATOM      7  C   UNL     1      18.906  22.135  39.104  1.00  0.00     0.093 A 
ATOM      8  C   UNL     1      18.637  21.195  40.103  1.00  0.00     0.123 A 
ATOM      9  C   UNL     1      17.596  21.418  41.000  1.00  0.00     0.094 A 
ATOM     10  C   UNL     1      16.799  22.559  40.892  1.00  0.00     0.146 A 
ATOM     11  O   UNL     1      15.811  22.727  41.762  1.00  0.00    -0.452 OA
ENDROOT
BRANCH   1  12
ATOM     12  C   UNL     1      13.934  23.847  42.781  1.00  0.00     0.021 A 
ATOM     13  C   UNL     1      12.880  24.774  42.690  1.00  0.00     0.016 A 
ATOM     14  C   UNL     1      11.918  24.851  43.702  1.00  0.00     0.047 A 
ATOM     15  C   UNL     1      12.005  24.015  44.822  1.00  0.00     0.115 A 
ATOM     16  C   UNL     1      14.025  23.027  43.917  1.00  0.00     0.016 A 
ATOM     17  C   UNL     1      13.061  23.106  44.928  1.00  0.00     0.047 A 
BRANCH  15  18
ATOM     18  O   UNL     1      11.050  24.083  45.835  1.00  0.00    -0.508 OA
ATOM     19  H   UNL     1      10.994  24.881  46.456  1.00  0.00     0.293 HD
ENDBRANCH  15  18
ENDBRANCH   1  12
BRANCH   2  20
ATOM     20  O   UNL     1      14.173  25.768  40.625  1.00  0.00    -0.502 OA
ATOM     21  H   UNL     1      13.208  25.620  40.353  1.00  0.00     0.293 HD
ENDBRANCH   2  20
BRANCH   6  22
ATOM     22  O   UNL     1      18.557  24.226  38.023  1.00  0.00    -0.507 OA
ATOM     23  H   UNL     1      19.419  24.169  37.504  1.00  0.00     0.293 HD
ENDBRANCH   6  22
BRANCH   8  24
ATOM     24  O   UNL     1      19.407  20.040  40.216  1.00  0.00    -0.508 OA
ATOM     25  H   UNL     1      19.018  19.123  40.029  1.00  0.00     0.293 HD
ENDBRANCH   8  24
TORSDOF 5
ENDMDL
MODEL 3
REMARK VINA RESULT:    -7.508      1.573      6.733
REMARK INTER + INTRA:          -8.374
REMARK INTER:                  -8.451
REMARK INTRA:                   0.077
REMARK UNBOUND:                 0.451
REMARK SMILES O=c1c(O)c(-c2ccc(O)cc2)oc2cc(O)cc(O)c12
REMARK SMILES IDX 5 1 3 2 2 3 1 4 21 5 19 6 18 7 16 8 15 9 14 10 13 11 6 12
REMARK SMILES IDX 7 13 8 14 9 15 12 16 11 17 10 18 4 20 20 22 17 24
REMARK H PARENT 10 19 4 21 20 23 17 25
REMARK Flexibility Score: inf
ROOT
ATOM      1  C   UNL     1      15.560  23.403  41.201  1.00  0.00     0.180 A 
ATOM      2  C   UNL     1      14.862  24.556  40.803  1.00  0.00     0.208 A 
ATOM      3  C   UNL     1      13.850  25.061  41.635  1.00  0.00     0.238 A 
ATOM      4  O   UNL     1      13.266  26.125  41.299  1.00  0.00    -0.285 OA
ATOM      5  C   UNL     1      13.536  24.397  42.845  1.00  0.00     0.111 A 
ATOM      6  C   UNL     1      12.501  24.797  43.744  1.00  0.00     0.134 A 
ATOM      7  C   UNL     1      12.365  24.143  44.974  1.00  0.00     0.093 A 
ATOM      8  C   UNL     1      13.184  23.061  45.310  1.00  0.00     0.123 A 
ATOM      9  C   UNL     1      14.157  22.626  44.413  1.00  0.00     0.094 A 
ATOM     10  C   UNL     1      14.341  23.281  43.194  1.00  0.00     0.146 A 
ATOM     11  O   UNL     1      15.286  22.841  42.373  1.00  0.00    -0.452 OA
ENDROOT
BRANCH   1  12
ATOM     12  C   UNL     1      16.623  22.798  40.366  1.00  0.00     0.021 A 
ATOM     13  C   UNL     1      16.647  21.418  40.095  1.00  0.00     0.016 A 
ATOM     14  C   UNL     1      17.675  20.867  39.324  1.00  0.00     0.047 A 
ATOM     15  C   UNL     1      18.699  21.684  38.828  1.00  0.00     0.115 A 
ATOM     16  C   UNL     1      17.664  23.607  39.882  1.00  0.00     0.016 A 
ATOM     17  C   UNL     1      18.691  23.052  39.111  1.00  0.00     0.047 A 
BRANCH  15  18
ATOM     18  O   UNL     1      19.727  21.145  38.058  1.00  0.00    -0.508 OA
ATOM     19  H   UNL     1      20.647  20.978  38.446  1.00  0.00     0.293 HD
ENDBRANCH  15  18
ENDBRANCH   1  12
BRANCH   2  20
ATOM     20  O   UNL     1      15.203  25.209  39.615  1.00  0.00    -0.502 OA
ATOM     21  H   UNL     1      15.946  24.883  39.009  1.00  0.00     0.293 HD
ENDBRANCH   2  20
BRANCH   6  22
ATOM     22  O   UNL     1      11.572  25.803  43.466  1.00  0.00    -0.507 OA
ATOM     23  H   UNL     1      11.795  26.689  43.040  1.00  0.00     0.293 HD
ENDBRANCH   6  22
BRANCH   8  24
ATOM     24  O   UNL     1      13.032  22.406  46.530  1.00  0.00    -0.508 OA
ATOM     25  H   UNL     1      13.337  21.449  46.659  1.00  0.00     0.293 HD
ENDBRANCH   8  24
TORSDOF 5
ENDMDL
MODEL 4
REMARK VINA RESULT:    -7.445      1.181      6.525
REMARK INTER + INTRA:          -8.300
REMARK INTER:                  -8.817
REMARK INTRA:                   0.517
REMARK UNBOUND:                 0.451
REMARK SMILES O=c1c(O)c(-c2ccc(O)cc2)oc2cc(O)cc(O)c12
REMARK SMILES IDX 5 1 3 2 2 3 1 4 21 5 19 6 18 7 16 8 15 9 14 10 13 11 6 12
REMARK SMILES IDX 7 13 8 14 9 15 12 16 11 17 10 18 4 20 20 22 17 24
REMARK H PARENT 10 19 4 21 20 23 17 25
REMARK Flexibility Score: inf
ROOT
ATOM      1  C   UNL     1      17.948  22.757  40.059  1.00  0.00     0.180 A 
ATOM      2  C   UNL     1      17.747  23.890  39.251  1.00  0.00     0.208 A 
ATOM      3  C   UNL     1      16.621  24.697  39.477  1.00  0.00     0.238 A 
ATOM      4  O   UNL     1      16.476  25.739  38.786  1.00  0.00    -0.285 OA
ATOM      5  C   UNL     1      15.701  24.353  40.497  1.00  0.00     0.111 A 
ATOM      6  C   UNL     1      14.505  25.076  40.787  1.00  0.00     0.134 A 
ATOM      7  C   UNL     1      13.737  24.721  41.902  1.00  0.00     0.093 A 
ATOM      8  C   UNL     1      14.087  23.627  42.699  1.00  0.00     0.123 A 
ATOM      9  C   UNL     1      15.220  22.879  42.388  1.00  0.00     0.094 A 
ATOM     10  C   UNL     1      16.026  23.231  41.304  1.00  0.00     0.146 A 
ATOM     11  O   UNL     1      17.102  22.498  41.049  1.00  0.00    -0.452 OA
ENDROOT
BRANCH   1  12
ATOM     12  C   UNL     1      19.098  21.844  39.864  1.00  0.00     0.021 A 
ATOM     13  C   UNL     1      19.132  20.570  40.457  1.00  0.00     0.016 A 
ATOM     14  C   UNL     1      20.241  19.736  40.279  1.00  0.00     0.047 A 
ATOM     15  C   UNL     1      21.333  20.171  39.518  1.00  0.00     0.115 A 
ATOM     16  C   UNL     1      20.207  22.281  39.119  1.00  0.00     0.016 A 
ATOM     17  C   UNL     1      21.314  21.444  38.942  1.00  0.00     0.047 A 
BRANCH  15  18
ATOM     18  O   UNL     1      22.442  19.348  39.333  1.00  0.00    -0.508 OA
ATOM     19  H   UNL     1      23.365  19.624  39.645  1.00  0.00     0.293 HD
ENDBRANCH  15  18
ENDBRANCH   1  12
BRANCH   2  20
ATOM     20  O   UNL     1      18.679  24.223  38.264  1.00  0.00    -0.502 OA
ATOM     21  H   UNL     1      19.212  25.085  38.287  1.00  0.00     0.293 HD
ENDBRANCH   2  20
BRANCH   6  22
ATOM     22  O   UNL     1      14.018  26.125  40.002  1.00  0.00    -0.507 OA
ATOM     23  H   UNL     1      13.872  26.077  39.005  1.00  0.00     0.293 HD
ENDBRANCH   6  22
BRANCH   8  24
ATOM     24  O   UNL     1      13.308  23.271  43.798  1.00  0.00    -0.508 OA
ATOM     25  H   UNL     1      12.393  23.679  43.954  1.00  0.00     0.293 HD
ENDBRANCH   8  24
TORSDOF 5
ENDMDL
MODEL 5
REMARK VINA RESULT:    -6.988      1.585      2.903
REMARK INTER + INTRA:          -7.763
REMARK INTER:                  -7.647
REMARK INTRA:                  -0.115
REMARK UNBOUND:                 0.451
REMARK SMILES O=c1c(O)c(-c2ccc(O)cc2)oc2cc(O)cc(O)c12
REMARK SMILES IDX 5 1 3 2 2 3 1 4 21 5 19 6 18 7 16 8 15 9 14 10 13 11 6 12
REMARK SMILES IDX 7 13 8 14 9 15 12 16 11 17 10 18 4 20 20 22 17 24
REMARK H PARENT 10 19 4 21 20 23 17 25
REMARK Flexibility Score: inf
ROOT
ATOM      1  C   UNL     1      16.850  22.445  41.171  1.00  0.00     0.180 A 
ATOM      2  C   UNL     1      16.977  21.056  40.993  1.00  0.00     0.208 A 
ATOM      3  C   UNL     1      18.170  20.544  40.458  1.00  0.00     0.238 A 
ATOM      4  O   UNL     1      18.298  19.296  40.352  1.00  0.00    -0.285 OA
ATOM      5  C   UNL     1      19.214  21.427  40.092  1.00  0.00     0.111 A 
ATOM      6  C   UNL     1      20.450  21.021  39.504  1.00  0.00     0.134 A 
ATOM      7  C   UNL     1      21.463  21.967  39.304  1.00  0.00     0.093 A 
ATOM      8  C   UNL     1      21.260  23.315  39.610  1.00  0.00     0.123 A 
ATOM      9  C   UNL     1      20.036  23.730  40.130  1.00  0.00     0.094 A 
ATOM     10  C   UNL     1      19.020  22.804  40.374  1.00  0.00     0.146 A 
ATOM     11  O   UNL     1      17.873  23.241  40.879  1.00  0.00    -0.452 OA
ENDROOT
BRANCH   1  12
ATOM     12  C   UNL     1      15.614  23.061  41.705  1.00  0.00     0.021 A 
ATOM     13  C   UNL     1      14.848  23.954  40.936  1.00  0.00     0.016 A 
ATOM     14  C   UNL     1      13.697  24.542  41.472  1.00  0.00     0.047 A 
ATOM     15  C   UNL     1      13.308  24.256  42.786  1.00  0.00     0.115 A 
ATOM     16  C   UNL     1      15.228  22.796  43.030  1.00  0.00     0.016 A 
ATOM     17  C   UNL     1      14.077  23.386  43.563  1.00  0.00     0.047 A 
BRANCH  15  18
ATOM     18  O   UNL     1      12.163  24.835  43.330  1.00  0.00    -0.508 OA
ATOM     19  H   UNL     1      12.065  24.981  44.327  1.00  0.00     0.293 HD
ENDBRANCH  15  18
ENDBRANCH   1  12
BRANCH   2  20
ATOM     20  O   UNL     1      15.942  20.200  41.380  1.00  0.00    -0.502 OA
ATOM     21  H   UNL     1      15.594  19.461  40.782  1.00  0.00     0.293 HD
ENDBRANCH   2  20
BRANCH   6  22
ATOM     22  O   UNL     1      20.719  19.718  39.077  1.00  0.00    -0.507 OA
ATOM     23  H   UNL     1      21.578  19.421  38.641  1.00  0.00     0.293 HD
ENDBRANCH   6  22
BRANCH   8  24
ATOM     24  O   UNL     1      22.268  24.252  39.393  1.00  0.00    -0.508 OA
ATOM     25  H   UNL     1      22.284  25.137  39.886  1.00  0.00     0.293 HD
ENDBRANCH   8  24
TORSDOF 5
ENDMDL
MODEL 6
REMARK VINA RESULT:    -6.697      1.905      3.654
REMARK INTER + INTRA:          -7.420
REMARK INTER:                  -7.993
REMARK INTRA:                   0.573
REMARK UNBOUND:                 0.451
REMARK SMILES O=c1c(O)c(-c2ccc(O)cc2)oc2cc(O)cc(O)c12
REMARK SMILES IDX 5 1 3 2 2 3 1 4 21 5 19 6 18 7 16 8 15 9 14 10 13 11 6 12
REMARK SMILES IDX 7 13 8 14 9 15 12 16 11 17 10 18 4 20 20 22 17 24
REMARK H PARENT 10 19 4 21 20 23 17 25
REMARK Flexibility Score: inf
ROOT
ATOM      1  C   UNL     1      13.836  23.855  42.972  1.00  0.00     0.180 A 
ATOM      2  C   UNL     1      13.612  24.972  42.149  1.00  0.00     0.208 A 
ATOM      3  C   UNL     1      14.416  25.152  41.013  1.00  0.00     0.238 A 
ATOM      4  O   UNL     1      14.176  26.125  40.250  1.00  0.00    -0.285 OA
ATOM      5  C   UNL     1      15.445  24.224  40.722  1.00  0.00     0.111 A 
ATOM      6  C   UNL     1      16.346  24.330  39.620  1.00  0.00     0.134 A 
ATOM      7  C   UNL     1      17.240  23.286  39.355  1.00  0.00     0.093 A 
ATOM      8  C   UNL     1      17.309  22.169  40.191  1.00  0.00     0.123 A 
ATOM      9  C   UNL     1      16.475  22.083  41.303  1.00  0.00     0.094 A 
ATOM     10  C   UNL     1      15.548  23.093  41.573  1.00  0.00     0.146 A 
ATOM     11  O   UNL     1      14.765  22.967  42.637  1.00  0.00    -0.452 OA
ENDROOT
BRANCH   1  12
ATOM     12  C   UNL     1      13.046  23.611  44.200  1.00  0.00     0.021 A 
ATOM     13  C   UNL     1      13.182  22.420  44.936  1.00  0.00     0.016 A 
ATOM     14  C   UNL     1      12.406  22.202  46.079  1.00  0.00     0.047 A 
ATOM     15  C   UNL     1      11.475  23.163  46.492  1.00  0.00     0.115 A 
ATOM     16  C   UNL     1      12.095  24.561  44.610  1.00  0.00     0.016 A 
ATOM     17  C   UNL     1      11.321  24.340  45.754  1.00  0.00     0.047 A 
BRANCH  15  18
ATOM     18  O   UNL     1      10.698  22.957  47.630  1.00  0.00    -0.508 OA
ATOM     19  H   UNL     1      10.140  22.119  47.745  1.00  0.00     0.293 HD
ENDBRANCH  15  18
ENDBRANCH   1  12
BRANCH   2  20
ATOM     20  O   UNL     1      12.577  25.865  42.442  1.00  0.00    -0.502 OA
ATOM     21  H   UNL     1      11.973  26.251  41.726  1.00  0.00     0.293 HD
ENDBRANCH   2  20
BRANCH   6  22
ATOM     22  O   UNL     1      16.421  25.445  38.779  1.00  0.00    -0.507 OA
ATOM     23  H   UNL     1      16.910  25.469  37.898  1.00  0.00     0.293 HD
ENDBRANCH   6  22
BRANCH   8  24
ATOM     24  O   UNL     1      18.212  21.141  39.929  1.00  0.00    -0.508 OA
ATOM     25  H   UNL     1      18.746  21.110  39.068  1.00  0.00     0.293 HD
ENDBRANCH   8  24
TORSDOF 5
ENDMDL
MODEL 7
REMARK VINA RESULT:    -6.073      1.315      3.055
REMARK INTER + INTRA:          -6.688
REMARK INTER:                  -7.032
REMARK INTRA:                   0.345
REMARK UNBOUND:                 0.451
REMARK SMILES O=c1c(O)c(-c2ccc(O)cc2)oc2cc(O)cc(O)c12
REMARK SMILES IDX 5 1 3 2 2 3 1 4 21 5 19 6 18 7 16 8 15 9 14 10 13 11 6 12
REMARK SMILES IDX 7 13 8 14 9 15 12 16 11 17 10 18 4 20 20 22 17 24
REMARK H PARENT 10 19 4 21 20 23 17 25
REMARK Flexibility Score: inf
ROOT
ATOM      1  C   UNL     1      16.464  23.103  40.834  1.00  0.00     0.180 A 
ATOM      2  C   UNL     1      17.086  21.844  40.880  1.00  0.00     0.208 A 
ATOM      3  C   UNL     1      18.188  21.597  40.046  1.00  0.00     0.238 A 
ATOM      4  O   UNL     1      18.774  20.486  40.130  1.00  0.00    -0.285 OA
ATOM      5  C   UNL     1      18.644  22.607  39.164  1.00  0.00     0.111 A 
ATOM      6  C   UNL     1      19.726  22.453  38.245  1.00  0.00     0.134 A 
ATOM      7  C   UNL     1      20.174  23.560  37.515  1.00  0.00     0.093 A 
ATOM      8  C   UNL     1      19.537  24.799  37.622  1.00  0.00     0.123 A 
ATOM      9  C   UNL     1      18.443  24.944  38.471  1.00  0.00     0.094 A 
ATOM     10  C   UNL     1      17.995  23.867  39.240  1.00  0.00     0.146 A 
ATOM     11  O   UNL     1      16.956  24.051  40.044  1.00  0.00    -0.452 OA
ENDROOT
BRANCH   1  12
ATOM     12  C   UNL     1      15.282  23.429  41.665  1.00  0.00     0.021 A 
ATOM     13  C   UNL     1      14.320  24.361  41.238  1.00  0.00     0.016 A 
ATOM     14  C   UNL     1      13.225  24.670  42.052  1.00  0.00     0.047 A 
ATOM     15  C   UNL     1      13.088  24.063  43.308  1.00  0.00     0.115 A 
ATOM     16  C   UNL     1      15.148  22.841  42.934  1.00  0.00     0.016 A 
ATOM     17  C   UNL     1      14.052  23.152  43.746  1.00  0.00     0.047 A 
BRANCH  15  18
ATOM     18  O   UNL     1      12.000  24.363  44.126  1.00  0.00    -0.508 OA
ATOM     19  H   UNL     1      12.049  24.257  45.132  1.00  0.00     0.293 HD
ENDBRANCH  15  18
ENDBRANCH   1  12
BRANCH   2  20
ATOM     20  O   UNL     1      16.633  20.868  41.773  1.00  0.00    -0.502 OA
ATOM     21  H   UNL     1      15.664  20.801  42.061  1.00  0.00     0.293 HD
ENDBRANCH   2  20
BRANCH   6  22
ATOM     22  O   UNL     1      20.370  21.238  37.996  1.00  0.00    -0.507 OA
ATOM     23  H   UNL     1      19.988  20.487  37.442  1.00  0.00     0.293 HD
ENDBRANCH   6  22
BRANCH   8  24
ATOM     24  O   UNL     1      19.980  25.891  36.879  1.00  0.00    -0.508 OA
ATOM     25  H   UNL     1      19.669  26.834  37.086  1.00  0.00     0.293 HD
ENDBRANCH   8  24
TORSDOF 5
ENDMDL
