MODEL 1
REMARK VINA RESULT:    -6.827      0.000      0.000
REMARK INTER + INTRA:          -8.251
REMARK INTER:                  -8.224
REMARK INTRA:                  -0.027
REMARK UNBOUND:                -0.027
REMARK SMILES O=c1c(O)c(-c2ccc(O)c(O)c2)oc2cc(O)cc(O)c12
REMARK SMILES IDX 5 1 3 2 2 3 1 4 22 5 20 6 19 7 17 8 16 9 15 10 14 11 6 12
REMARK SMILES IDX 7 13 8 14 9 15 13 16 11 17 10 18 12 20 4 22 21 24 18 26
REMARK H PARENT 10 19 12 21 4 23 21 25 18 27
REMARK Flexibility Score: inf
ROOT
ATOM      1  C   UNL     1     136.996 134.680 148.312  1.00  0.00     0.180 A 
ATOM      2  C   UNL     1     135.612 134.549 148.106  1.00  0.00     0.208 A 
ATOM      3  C   UNL     1     134.950 135.498 147.310  1.00  0.00     0.238 A 
ATOM      4  O   UNL     1     133.702 135.407 147.173  1.00  0.00    -0.285 OA
ATOM      5  C   UNL     1     135.681 136.555 146.717  1.00  0.00     0.111 A 
ATOM      6  C   UNL     1     135.119 137.549 145.860  1.00  0.00     0.134 A 
ATOM      7  C   UNL     1     135.912 138.623 145.436  1.00  0.00     0.093 A 
ATOM      8  C   UNL     1     137.262 138.703 145.785  1.00  0.00     0.123 A 
ATOM      9  C   UNL     1     137.834 137.707 146.571  1.00  0.00     0.094 A 
ATOM     10  C   UNL     1     137.061 136.642 147.040  1.00  0.00     0.146 A 
ATOM     11  O   UNL     1     137.643 135.720 147.796  1.00  0.00    -0.452 OA
ENDROOT
BRANCH   1  12
ATOM     12  C   UNL     1     137.768 133.706 149.117  1.00  0.00     0.025 A 
ATOM     13  C   UNL     1     138.914 133.075 148.602  1.00  0.00     0.016 A 
ATOM     14  C   UNL     1     139.641 132.179 149.389  1.00  0.00     0.051 A 
ATOM     15  C   UNL     1     139.243 131.909 150.705  1.00  0.00     0.157 A 
ATOM     16  C   UNL     1     137.387 133.450 150.444  1.00  0.00     0.062 A 
ATOM     17  C   UNL     1     138.112 132.551 151.235  1.00  0.00     0.158 A 
BRANCH  15  18
ATOM     18  O   UNL     1     139.969 131.013 151.487  1.00  0.00    -0.504 OA
ATOM     19  H   UNL     1     140.713 130.447 151.094  1.00  0.00     0.293 HD
ENDBRANCH  15  18
BRANCH  17  20
ATOM     20  O   UNL     1     137.694 132.310 152.543  1.00  0.00    -0.504 OA
ATOM     21  H   UNL     1     137.367 131.400 152.845  1.00  0.00     0.293 HD
ENDBRANCH  17  20
ENDBRANCH   1  12
BRANCH   2  22
ATOM     22  O   UNL     1     134.905 133.511 148.718  1.00  0.00    -0.502 OA
ATOM     23  H   UNL     1     134.857 133.403 149.724  1.00  0.00     0.293 HD
ENDBRANCH   2  22
BRANCH   6  24
ATOM     24  O   UNL     1     133.807 137.512 145.378  1.00  0.00    -0.507 OA
ATOM     25  H   UNL     1     132.988 137.719 145.928  1.00  0.00     0.293 HD
ENDBRANCH   6  24
BRANCH   8  26
ATOM     26  O   UNL     1     138.047 139.767 145.345  1.00  0.00    -0.508 OA
ATOM     27  H   UNL     1     138.197 140.588 145.920  1.00  0.00     0.293 HD
ENDBRANCH   8  26
TORSDOF 6
ENDMDL
MODEL 2
REMARK VINA RESULT:    -6.696      1.501      7.231
REMARK INTER + INTRA:          -8.093
REMARK INTER:                  -8.042
REMARK INTRA:                  -0.051
REMARK UNBOUND:                -0.027
REMARK SMILES O=c1c(O)c(-c2ccc(O)c(O)c2)oc2cc(O)cc(O)c12
REMARK SMILES IDX 5 1 3 2 2 3 1 4 22 5 20 6 19 7 17 8 16 9 15 10 14 11 6 12
REMARK SMILES IDX 7 13 8 14 9 15 13 16 11 17 10 18 12 20 4 22 21 24 18 26
REMARK H PARENT 10 19 12 21 4 23 21 25 18 27
REMARK Flexibility Score: inf
ROOT
ATOM      1  C   UNL     1     137.827 135.253 147.466  1.00  0.00     0.180 A 
ATOM      2  C   UNL     1     138.886 134.598 146.814  1.00  0.00     0.208 A 
ATOM      3  C   UNL     1     139.518 133.519 147.454  1.00  0.00     0.238 A 
ATOM      4  O   UNL     1     140.501 132.973 146.888  1.00  0.00    -0.285 OA
ATOM      5  C   UNL     1     139.072 133.097 148.729  1.00  0.00     0.111 A 
ATOM      6  C   UNL     1     139.612 131.991 149.451  1.00  0.00     0.134 A 
ATOM      7  C   UNL     1     139.181 131.745 150.761  1.00  0.00     0.093 A 
ATOM      8  C   UNL     1     138.183 132.526 151.349  1.00  0.00     0.123 A 
ATOM      9  C   UNL     1     137.609 133.571 150.631  1.00  0.00     0.094 A 
ATOM     10  C   UNL     1     138.042 133.864 149.336  1.00  0.00     0.146 A 
ATOM     11  O   UNL     1     137.475 134.875 148.690  1.00  0.00    -0.452 OA
ENDROOT
BRANCH   1  12
ATOM     12  C   UNL     1     137.097 136.381 146.846  1.00  0.00     0.025 A 
ATOM     13  C   UNL     1     135.700 136.354 146.693  1.00  0.00     0.016 A 
ATOM     14  C   UNL     1     135.029 137.441 146.128  1.00  0.00     0.051 A 
ATOM     15  C   UNL     1     135.741 138.576 145.718  1.00  0.00     0.157 A 
ATOM     16  C   UNL     1     137.803 137.530 146.453  1.00  0.00     0.062 A 
ATOM     17  C   UNL     1     137.134 138.620 145.885  1.00  0.00     0.158 A 
BRANCH  15  18
ATOM     18  O   UNL     1     135.069 139.657 145.152  1.00  0.00    -0.504 OA
ATOM     19  H   UNL     1     134.347 139.527 144.452  1.00  0.00     0.293 HD
ENDBRANCH  15  18
BRANCH  17  20
ATOM     20  O   UNL     1     137.871 139.738 145.494  1.00  0.00    -0.504 OA
ATOM     21  H   UNL     1     138.884 139.750 145.518  1.00  0.00     0.293 HD
ENDBRANCH  17  20
ENDBRANCH   1  12
BRANCH   2  22
ATOM     22  O   UNL     1     139.326 135.045 145.564  1.00  0.00    -0.502 OA
ATOM     23  H   UNL     1     138.818 135.733 145.022  1.00  0.00     0.293 HD
ENDBRANCH   2  22
BRANCH   6  24
ATOM     24  O   UNL     1     140.545 131.094 148.922  1.00  0.00    -0.507 OA
ATOM     25  H   UNL     1     140.431 130.592 148.055  1.00  0.00     0.293 HD
ENDBRANCH   6  24
BRANCH   8  26
ATOM     26  O   UNL     1     137.749 132.264 152.648  1.00  0.00    -0.508 OA
ATOM     27  H   UNL     1     136.783 132.030 152.847  1.00  0.00     0.293 HD
ENDBRANCH   8  26
TORSDOF 6
ENDMDL
MODEL 3
REMARK VINA RESULT:    -6.662      6.716     12.338
REMARK INTER + INTRA:          -8.052
REMARK INTER:                  -7.802
REMARK INTRA:                  -0.250
REMARK UNBOUND:                -0.027
REMARK SMILES O=c1c(O)c(-c2ccc(O)c(O)c2)oc2cc(O)cc(O)c12
REMARK SMILES IDX 5 1 3 2 2 3 1 4 22 5 20 6 19 7 17 8 16 9 15 10 14 11 6 12
REMARK SMILES IDX 7 13 8 14 9 15 13 16 11 17 10 18 12 20 4 22 21 24 18 26
REMARK H PARENT 10 19 12 21 4 23 21 25 18 27
REMARK Flexibility Score: inf
ROOT
ATOM      1  C   UNL     1     132.878 141.894 141.016  1.00  0.00     0.180 A 
ATOM      2  C   UNL     1     134.033 142.644 140.732  1.00  0.00     0.208 A 
ATOM      3  C   UNL     1     135.204 142.395 141.464  1.00  0.00     0.238 A 
ATOM      4  O   UNL     1     136.219 143.106 141.243  1.00  0.00    -0.285 OA
ATOM      5  C   UNL     1     135.213 141.388 142.459  1.00  0.00     0.111 A 
ATOM      6  C   UNL     1     136.355 141.023 143.234  1.00  0.00     0.134 A 
ATOM      7  C   UNL     1     136.214 140.103 144.280  1.00  0.00     0.093 A 
ATOM      8  C   UNL     1     134.987 139.487 144.537  1.00  0.00     0.123 A 
ATOM      9  C   UNL     1     133.881 139.792 143.749  1.00  0.00     0.094 A 
ATOM     10  C   UNL     1     133.981 140.733 142.721  1.00  0.00     0.146 A 
ATOM     11  O   UNL     1     132.899 141.002 142.000  1.00  0.00    -0.452 OA
ENDROOT
BRANCH   1  12
ATOM     12  C   UNL     1     131.613 142.083 140.270  1.00  0.00     0.025 A 
ATOM     13  C   UNL     1     130.522 142.763 140.839  1.00  0.00     0.016 A 
ATOM     14  C   UNL     1     129.347 142.951 140.107  1.00  0.00     0.051 A 
ATOM     15  C   UNL     1     129.248 142.473 138.794  1.00  0.00     0.157 A 
ATOM     16  C   UNL     1     131.516 141.625 138.946  1.00  0.00     0.062 A 
ATOM     17  C   UNL     1     130.340 141.810 138.211  1.00  0.00     0.158 A 
BRANCH  15  18
ATOM     18  O   UNL     1     128.073 142.660 138.067  1.00  0.00    -0.504 OA
ATOM     19  H   UNL     1     127.800 142.024 137.327  1.00  0.00     0.293 HD
ENDBRANCH  15  18
BRANCH  17  20
ATOM     20  O   UNL     1     130.276 141.329 136.903  1.00  0.00    -0.504 OA
ATOM     21  H   UNL     1     130.130 140.348 136.697  1.00  0.00     0.293 HD
ENDBRANCH  17  20
ENDBRANCH   1  12
BRANCH   2  22
ATOM     22  O   UNL     1     133.997 143.648 139.761  1.00  0.00    -0.502 OA
ATOM     23  H   UNL     1     134.416 144.560 139.904  1.00  0.00     0.293 HD
ENDBRANCH   2  22
BRANCH   6  24
ATOM     24  O   UNL     1     137.644 141.510 143.000  1.00  0.00    -0.507 OA
ATOM     25  H   UNL     1     138.428 140.945 142.713  1.00  0.00     0.293 HD
ENDBRANCH   6  24
BRANCH   8  26
ATOM     26  O   UNL     1     134.860 138.561 145.571  1.00  0.00    -0.508 OA
ATOM     27  H   UNL     1     135.056 137.577 145.428  1.00  0.00     0.293 HD
ENDBRANCH   8  26
TORSDOF 6
ENDMDL
MODEL 4
REMARK VINA RESULT:    -6.618      1.866      2.671
REMARK INTER + INTRA:          -7.999
REMARK INTER:                  -7.795
REMARK INTRA:                  -0.205
REMARK UNBOUND:                -0.027
REMARK SMILES O=c1c(O)c(-c2ccc(O)c(O)c2)oc2cc(O)cc(O)c12
REMARK SMILES IDX 5 1 3 2 2 3 1 4 22 5 20 6 19 7 17 8 16 9 15 10 14 11 6 12
REMARK SMILES IDX 7 13 8 14 9 15 13 16 11 17 10 18 12 20 4 22 21 24 18 26
REMARK H PARENT 10 19 12 21 4 23 21 25 18 27
REMARK Flexibility Score: inf
ROOT
ATOM      1  C   UNL     1     137.801 133.117 148.830  1.00  0.00     0.180 A 
ATOM      2  C   UNL     1     136.983 132.296 148.035  1.00  0.00     0.208 A 
ATOM      3  C   UNL     1     136.248 132.876 146.988  1.00  0.00     0.238 A 
ATOM      4  O   UNL     1     135.475 132.145 146.314  1.00  0.00    -0.285 OA
ATOM      5  C   UNL     1     136.352 134.265 146.739  1.00  0.00     0.111 A 
ATOM      6  C   UNL     1     135.683 134.951 145.681  1.00  0.00     0.134 A 
ATOM      7  C   UNL     1     135.756 136.349 145.610  1.00  0.00     0.093 A 
ATOM      8  C   UNL     1     136.527 137.076 146.520  1.00  0.00     0.123 A 
ATOM      9  C   UNL     1     137.230 136.410 147.519  1.00  0.00     0.094 A 
ATOM     10  C   UNL     1     137.148 135.021 147.639  1.00  0.00     0.146 A 
ATOM     11  O   UNL     1     137.826 134.427 148.613  1.00  0.00    -0.452 OA
ENDROOT
BRANCH   1  12
ATOM     12  C   UNL     1     138.625 132.575 149.935  1.00  0.00     0.025 A 
ATOM     13  C   UNL     1     138.036 132.065 151.105  1.00  0.00     0.016 A 
ATOM     14  C   UNL     1     138.832 131.536 152.124  1.00  0.00     0.051 A 
ATOM     15  C   UNL     1     140.225 131.496 151.984  1.00  0.00     0.157 A 
ATOM     16  C   UNL     1     140.020 132.512 149.790  1.00  0.00     0.062 A 
ATOM     17  C   UNL     1     140.820 131.984 150.810  1.00  0.00     0.158 A 
BRANCH  15  18
ATOM     18  O   UNL     1     141.016 130.969 153.003  1.00  0.00    -0.504 OA
ATOM     19  H   UNL     1     141.901 131.392 153.262  1.00  0.00     0.293 HD
ENDBRANCH  15  18
BRANCH  17  20
ATOM     20  O   UNL     1     142.204 131.952 150.636  1.00  0.00    -0.504 OA
ATOM     21  H   UNL     1     142.826 131.579 151.343  1.00  0.00     0.293 HD
ENDBRANCH  17  20
ENDBRANCH   1  12
BRANCH   2  22
ATOM     22  O   UNL     1     136.878 130.930 148.310  1.00  0.00    -0.502 OA
ATOM     23  H   UNL     1     136.663 130.575 149.235  1.00  0.00     0.293 HD
ENDBRANCH   2  22
BRANCH   6  24
ATOM     24  O   UNL     1     134.964 134.311 144.668  1.00  0.00    -0.507 OA
ATOM     25  H   UNL     1     134.103 133.806 144.807  1.00  0.00     0.293 HD
ENDBRANCH   6  24
BRANCH   8  26
ATOM     26  O   UNL     1     136.606 138.465 146.432  1.00  0.00    -0.508 OA
ATOM     27  H   UNL     1     137.428 138.970 146.743  1.00  0.00     0.293 HD
ENDBRANCH   8  26
TORSDOF 6
ENDMDL
MODEL 5
REMARK VINA RESULT:    -6.580      2.033      7.133
REMARK INTER + INTRA:          -7.952
REMARK INTER:                  -8.164
REMARK INTRA:                   0.211
REMARK UNBOUND:                -0.027
REMARK SMILES O=c1c(O)c(-c2ccc(O)c(O)c2)oc2cc(O)cc(O)c12
REMARK SMILES IDX 5 1 3 2 2 3 1 4 22 5 20 6 19 7 17 8 16 9 15 10 14 11 6 12
REMARK SMILES IDX 7 13 8 14 9 15 13 16 11 17 10 18 12 20 4 22 21 24 18 26
REMARK H PARENT 10 19 12 21 4 23 21 25 18 27
REMARK Flexibility Score: inf
ROOT
ATOM      1  C   UNL     1     138.026 133.370 149.547  1.00  0.00     0.180 A 
ATOM      2  C   UNL     1     137.767 132.881 150.838  1.00  0.00     0.208 A 
ATOM      3  C   UNL     1     138.769 132.158 151.506  1.00  0.00     0.238 A 
ATOM      4  O   UNL     1     138.512 131.675 152.640  1.00  0.00    -0.285 OA
ATOM      5  C   UNL     1     140.022 131.948 150.883  1.00  0.00     0.111 A 
ATOM      6  C   UNL     1     141.122 131.265 151.483  1.00  0.00     0.134 A 
ATOM      7  C   UNL     1     142.269 131.002 150.723  1.00  0.00     0.093 A 
ATOM      8  C   UNL     1     142.380 131.456 149.406  1.00  0.00     0.123 A 
ATOM      9  C   UNL     1     141.335 132.174 148.832  1.00  0.00     0.094 A 
ATOM     10  C   UNL     1     140.164 132.421 149.551  1.00  0.00     0.146 A 
ATOM     11  O   UNL     1     139.188 133.101 148.962  1.00  0.00    -0.452 OA
ENDROOT
BRANCH   1  12
ATOM     12  C   UNL     1     137.030 134.162 148.789  1.00  0.00     0.025 A 
ATOM     13  C   UNL     1     137.419 135.228 147.960  1.00  0.00     0.016 A 
ATOM     14  C   UNL     1     136.464 135.945 147.236  1.00  0.00     0.051 A 
ATOM     15  C   UNL     1     135.108 135.600 147.318  1.00  0.00     0.157 A 
ATOM     16  C   UNL     1     135.672 133.807 148.852  1.00  0.00     0.062 A 
ATOM     17  C   UNL     1     134.713 134.524 148.128  1.00  0.00     0.158 A 
BRANCH  15  18
ATOM     18  O   UNL     1     134.157 136.319 146.596  1.00  0.00    -0.504 OA
ATOM     19  H   UNL     1     133.523 135.862 145.950  1.00  0.00     0.293 HD
ENDBRANCH  15  18
BRANCH  17  20
ATOM     20  O   UNL     1     133.373 134.151 148.227  1.00  0.00    -0.504 OA
ATOM     21  H   UNL     1     133.035 133.547 148.967  1.00  0.00     0.293 HD
ENDBRANCH  17  20
ENDBRANCH   1  12
BRANCH   2  22
ATOM     22  O   UNL     1     136.516 133.080 151.428  1.00  0.00    -0.502 OA
ATOM     23  H   UNL     1     135.648 132.867 150.950  1.00  0.00     0.293 HD
ENDBRANCH   2  22
BRANCH   6  24
ATOM     24  O   UNL     1     141.149 130.852 152.818  1.00  0.00    -0.507 OA
ATOM     25  H   UNL     1     141.144 129.891 153.121  1.00  0.00     0.293 HD
ENDBRANCH   6  24
BRANCH   8  26
ATOM     26  O   UNL     1     143.531 131.203 148.663  1.00  0.00    -0.508 OA
ATOM     27  H   UNL     1     143.851 131.845 147.946  1.00  0.00     0.293 HD
ENDBRANCH   8  26
TORSDOF 6
ENDMDL
MODEL 6
REMARK VINA RESULT:    -6.468      5.741      8.411
REMARK INTER + INTRA:          -7.818
REMARK INTER:                  -7.498
REMARK INTRA:                  -0.320
REMARK UNBOUND:                -0.027
REMARK SMILES O=c1c(O)c(-c2ccc(O)c(O)c2)oc2cc(O)cc(O)c12
REMARK SMILES IDX 5 1 3 2 2 3 1 4 22 5 20 6 19 7 17 8 16 9 15 10 14 11 6 12
REMARK SMILES IDX 7 13 8 14 9 15 13 16 11 17 10 18 12 20 4 22 21 24 18 26
REMARK H PARENT 10 19 12 21 4 23 21 25 18 27
REMARK Flexibility Score: inf
ROOT
ATOM      1  C   UNL     1     140.847 130.476 147.435  1.00  0.00     0.180 A 
ATOM      2  C   UNL     1     141.923 130.819 148.272  1.00  0.00     0.208 A 
ATOM      3  C   UNL     1     141.665 131.152 149.611  1.00  0.00     0.238 A 
ATOM      4  O   UNL     1     142.626 131.510 150.341  1.00  0.00    -0.285 OA
ATOM      5  C   UNL     1     140.338 131.122 150.102  1.00  0.00     0.111 A 
ATOM      6  C   UNL     1     139.966 131.402 151.451  1.00  0.00     0.134 A 
ATOM      7  C   UNL     1     138.609 131.471 151.793  1.00  0.00     0.093 A 
ATOM      8  C   UNL     1     137.615 131.205 150.849  1.00  0.00     0.123 A 
ATOM      9  C   UNL     1     137.969 130.873 149.545  1.00  0.00     0.094 A 
ATOM     10  C   UNL     1     139.312 130.832 149.164  1.00  0.00     0.146 A 
ATOM     11  O   UNL     1     139.606 130.522 147.907  1.00  0.00    -0.452 OA
ENDROOT
BRANCH   1  12
ATOM     12  C   UNL     1     141.042 130.089 146.019  1.00  0.00     0.025 A 
ATOM     13  C   UNL     1     141.101 131.054 144.998  1.00  0.00     0.016 A 
ATOM     14  C   UNL     1     141.310 130.667 143.672  1.00  0.00     0.051 A 
ATOM     15  C   UNL     1     141.477 129.315 143.347  1.00  0.00     0.157 A 
ATOM     16  C   UNL     1     141.232 128.737 145.691  1.00  0.00     0.062 A 
ATOM     17  C   UNL     1     141.440 128.346 144.364  1.00  0.00     0.158 A 
BRANCH  15  18
ATOM     18  O   UNL     1     141.684 128.932 142.024  1.00  0.00    -0.504 OA
ATOM     19  H   UNL     1     142.058 129.577 141.336  1.00  0.00     0.293 HD
ENDBRANCH  15  18
BRANCH  17  20
ATOM     20  O   UNL     1     141.610 126.993 144.075  1.00  0.00    -0.504 OA
ATOM     21  H   UNL     1     141.983 126.340 144.754  1.00  0.00     0.293 HD
ENDBRANCH  17  20
ENDBRANCH   1  12
BRANCH   2  22
ATOM     22  O   UNL     1     143.224 130.863 147.762  1.00  0.00    -0.502 OA
ATOM     23  H   UNL     1     143.581 131.660 147.249  1.00  0.00     0.293 HD
ENDBRANCH   2  22
BRANCH   6  24
ATOM     24  O   UNL     1     140.882 131.591 152.490  1.00  0.00    -0.507 OA
ATOM     25  H   UNL     1     140.643 131.915 153.414  1.00  0.00     0.293 HD
ENDBRANCH   6  24
BRANCH   8  26
ATOM     26  O   UNL     1     136.267 131.260 151.203  1.00  0.00    -0.508 OA
ATOM     27  H   UNL     1     135.545 130.888 150.597  1.00  0.00     0.293 HD
ENDBRANCH   8  26
TORSDOF 6
ENDMDL
MODEL 7
REMARK VINA RESULT:    -6.360      5.105      8.368
REMARK INTER + INTRA:          -7.688
REMARK INTER:                  -7.360
REMARK INTRA:                  -0.328
REMARK UNBOUND:                -0.027
REMARK SMILES O=c1c(O)c(-c2ccc(O)c(O)c2)oc2cc(O)cc(O)c12
REMARK SMILES IDX 5 1 3 2 2 3 1 4 22 5 20 6 19 7 17 8 16 9 15 10 14 11 6 12
REMARK SMILES IDX 7 13 8 14 9 15 13 16 11 17 10 18 12 20 4 22 21 24 18 26
REMARK H PARENT 10 19 12 21 4 23 21 25 18 27
REMARK Flexibility Score: inf
ROOT
ATOM      1  C   UNL     1     141.672 131.853 147.964  1.00  0.00     0.180 A 
ATOM      2  C   UNL     1     142.660 131.516 148.905  1.00  0.00     0.208 A 
ATOM      3  C   UNL     1     142.287 131.318 150.244  1.00  0.00     0.238 A 
ATOM      4  O   UNL     1     143.184 131.070 151.091  1.00  0.00    -0.285 OA
ATOM      5  C   UNL     1     140.929 131.443 150.623  1.00  0.00     0.111 A 
ATOM      6  C   UNL     1     140.432 131.225 151.943  1.00  0.00     0.134 A 
ATOM      7  C   UNL     1     139.090 131.505 152.231  1.00  0.00     0.093 A 
ATOM      8  C   UNL     1     138.213 131.932 151.231  1.00  0.00     0.123 A 
ATOM      9  C   UNL     1     138.675 132.090 149.927  1.00  0.00     0.094 A 
ATOM     10  C   UNL     1     140.016 131.854 149.616  1.00  0.00     0.146 A 
ATOM     11  O   UNL     1     140.417 132.028 148.363  1.00  0.00    -0.452 OA
ENDROOT
BRANCH   1  12
ATOM     12  C   UNL     1     141.984 132.053 146.530  1.00  0.00     0.025 A 
ATOM     13  C   UNL     1     141.895 130.997 145.608  1.00  0.00     0.016 A 
ATOM     14  C   UNL     1     142.171 131.214 144.256  1.00  0.00     0.051 A 
ATOM     15  C   UNL     1     142.525 132.492 143.803  1.00  0.00     0.157 A 
ATOM     16  C   UNL     1     142.318 133.336 146.068  1.00  0.00     0.062 A 
ATOM     17  C   UNL     1     142.596 133.558 144.714  1.00  0.00     0.158 A 
BRANCH  15  18
ATOM     18  O   UNL     1     142.801 132.705 142.453  1.00  0.00    -0.504 OA
ATOM     19  H   UNL     1     143.720 132.525 142.064  1.00  0.00     0.293 HD
ENDBRANCH  15  18
BRANCH  17  20
ATOM     20  O   UNL     1     142.939 134.843 144.295  1.00  0.00    -0.504 OA
ATOM     21  H   UNL     1     142.943 135.633 144.928  1.00  0.00     0.293 HD
ENDBRANCH  17  20
ENDBRANCH   1  12
BRANCH   2  22
ATOM     22  O   UNL     1     143.998 131.419 148.514  1.00  0.00    -0.502 OA
ATOM     23  H   UNL     1     144.498 132.188 148.086  1.00  0.00     0.293 HD
ENDBRANCH   2  22
BRANCH   6  24
ATOM     24  O   UNL     1     141.202 130.713 152.992  1.00  0.00    -0.507 OA
ATOM     25  H   UNL     1     141.921 130.014 152.888  1.00  0.00     0.293 HD
ENDBRANCH   6  24
BRANCH   8  26
ATOM     26  O   UNL     1     136.876 132.193 151.523  1.00  0.00    -0.508 OA
ATOM     27  H   UNL     1     136.604 132.691 152.363  1.00  0.00     0.293 HD
ENDBRANCH   8  26
TORSDOF 6
ENDMDL
MODEL 8
REMARK VINA RESULT:    -6.300      2.180      7.279
REMARK INTER + INTRA:          -7.616
REMARK INTER:                  -7.793
REMARK INTRA:                   0.178
REMARK UNBOUND:                -0.027
REMARK SMILES O=c1c(O)c(-c2ccc(O)c(O)c2)oc2cc(O)cc(O)c12
REMARK SMILES IDX 5 1 3 2 2 3 1 4 22 5 20 6 19 7 17 8 16 9 15 10 14 11 6 12
REMARK SMILES IDX 7 13 8 14 9 15 13 16 11 17 10 18 12 20 4 22 21 24 18 26
REMARK H PARENT 10 19 12 21 4 23 21 25 18 27
REMARK Flexibility Score: inf
ROOT
ATOM      1  C   UNL     1     138.672 133.713 148.320  1.00  0.00     0.180 A 
ATOM      2  C   UNL     1     139.728 133.718 147.392  1.00  0.00     0.208 A 
ATOM      3  C   UNL     1     140.920 133.049 147.712  1.00  0.00     0.238 A 
ATOM      4  O   UNL     1     141.881 133.104 146.901  1.00  0.00    -0.285 OA
ATOM      5  C   UNL     1     141.036 132.369 148.948  1.00  0.00     0.111 A 
ATOM      6  C   UNL     1     142.183 131.625 149.359  1.00  0.00     0.134 A 
ATOM      7  C   UNL     1     142.238 131.103 150.658  1.00  0.00     0.093 A 
ATOM      8  C   UNL     1     141.161 131.242 151.536  1.00  0.00     0.123 A 
ATOM      9  C   UNL     1     140.015 131.915 151.123  1.00  0.00     0.094 A 
ATOM     10  C   UNL     1     139.943 132.479 149.847  1.00  0.00     0.146 A 
ATOM     11  O   UNL     1     138.836 133.122 149.498  1.00  0.00    -0.452 OA
ENDROOT
BRANCH   1  12
ATOM     12  C   UNL     1     137.376 134.374 148.044  1.00  0.00     0.025 A 
ATOM     13  C   UNL     1     137.311 135.597 147.353  1.00  0.00     0.016 A 
ATOM     14  C   UNL     1     136.076 136.190 147.082  1.00  0.00     0.051 A 
ATOM     15  C   UNL     1     134.888 135.566 147.484  1.00  0.00     0.157 A 
ATOM     16  C   UNL     1     136.182 133.742 148.425  1.00  0.00     0.062 A 
ATOM     17  C   UNL     1     134.943 134.334 148.156  1.00  0.00     0.158 A 
BRANCH  15  18
ATOM     18  O   UNL     1     133.658 136.162 147.214  1.00  0.00    -0.504 OA
ATOM     19  H   UNL     1     133.295 136.916 147.786  1.00  0.00     0.293 HD
ENDBRANCH  15  18
BRANCH  17  20
ATOM     20  O   UNL     1     133.779 133.684 148.564  1.00  0.00    -0.504 OA
ATOM     21  H   UNL     1     132.863 133.957 148.227  1.00  0.00     0.293 HD
ENDBRANCH  17  20
ENDBRANCH   1  12
BRANCH   2  22
ATOM     22  O   UNL     1     139.600 134.414 146.186  1.00  0.00    -0.502 OA
ATOM     23  H   UNL     1     140.363 134.503 145.525  1.00  0.00     0.293 HD
ENDBRANCH   2  22
BRANCH   6  24
ATOM     24  O   UNL     1     143.273 131.349 148.528  1.00  0.00    -0.507 OA
ATOM     25  H   UNL     1     143.274 131.461 147.527  1.00  0.00     0.293 HD
ENDBRANCH   6  24
BRANCH   8  26
ATOM     26  O   UNL     1     141.218 130.705 152.821  1.00  0.00    -0.508 OA
ATOM     27  H   UNL     1     140.811 129.803 153.037  1.00  0.00     0.293 HD
ENDBRANCH   8  26
TORSDOF 6
ENDMDL
MODEL 9
REMARK VINA RESULT:    -6.295      4.998      8.260
REMARK INTER + INTRA:          -7.610
REMARK INTER:                  -7.431
REMARK INTRA:                  -0.179
REMARK UNBOUND:                -0.027
REMARK SMILES O=c1c(O)c(-c2ccc(O)c(O)c2)oc2cc(O)cc(O)c12
REMARK SMILES IDX 5 1 3 2 2 3 1 4 22 5 20 6 19 7 17 8 16 9 15 10 14 11 6 12
REMARK SMILES IDX 7 13 8 14 9 15 13 16 11 17 10 18 12 20 4 22 21 24 18 26
REMARK H PARENT 10 19 12 21 4 23 21 25 18 27
REMARK Flexibility Score: inf
ROOT
ATOM      1  C   UNL     1     136.043 140.051 142.683  1.00  0.00     0.180 A 
ATOM      2  C   UNL     1     136.554 141.317 142.351  1.00  0.00     0.208 A 
ATOM      3  C   UNL     1     135.818 142.144 141.487  1.00  0.00     0.238 A 
ATOM      4  O   UNL     1     136.307 143.254 141.150  1.00  0.00    -0.285 OA
ATOM      5  C   UNL     1     134.572 141.703 140.981  1.00  0.00     0.111 A 
ATOM      6  C   UNL     1     133.723 142.475 140.131  1.00  0.00     0.134 A 
ATOM      7  C   UNL     1     132.575 141.887 139.585  1.00  0.00     0.093 A 
ATOM      8  C   UNL     1     132.211 140.578 139.911  1.00  0.00     0.123 A 
ATOM      9  C   UNL     1     133.002 139.838 140.786  1.00  0.00     0.094 A 
ATOM     10  C   UNL     1     134.172 140.383 141.318  1.00  0.00     0.146 A 
ATOM     11  O   UNL     1     134.903 139.639 142.140  1.00  0.00    -0.452 OA
ENDROOT
BRANCH   1  12
ATOM     12  C   UNL     1     136.749 139.134 143.606  1.00  0.00     0.025 A 
ATOM     13  C   UNL     1     137.314 137.930 143.151  1.00  0.00     0.016 A 
ATOM     14  C   UNL     1     137.997 137.091 144.035  1.00  0.00     0.051 A 
ATOM     15  C   UNL     1     138.138 137.448 145.383  1.00  0.00     0.157 A 
ATOM     16  C   UNL     1     136.911 139.497 144.953  1.00  0.00     0.062 A 
ATOM     17  C   UNL     1     137.594 138.659 145.841  1.00  0.00     0.158 A 
BRANCH  15  18
ATOM     18  O   UNL     1     138.818 136.609 146.263  1.00  0.00    -0.504 OA
ATOM     19  H   UNL     1     139.454 136.975 146.962  1.00  0.00     0.293 HD
ENDBRANCH  15  18
BRANCH  17  20
ATOM     20  O   UNL     1     137.723 139.047 147.175  1.00  0.00    -0.504 OA
ATOM     21  H   UNL     1     136.994 139.557 147.660  1.00  0.00     0.293 HD
ENDBRANCH  17  20
ENDBRANCH   1  12
BRANCH   2  22
ATOM     22  O   UNL     1     137.797 141.725 142.844  1.00  0.00    -0.502 OA
ATOM     23  H   UNL     1     138.668 141.305 142.543  1.00  0.00     0.293 HD
ENDBRANCH   2  22
BRANCH   6  24
ATOM     24  O   UNL     1     133.946 143.819 139.818  1.00  0.00    -0.507 OA
ATOM     25  H   UNL     1     134.114 144.546 140.495  1.00  0.00     0.293 HD
ENDBRANCH   6  24
BRANCH   8  26
ATOM     26  O   UNL     1     131.058 140.007 139.376  1.00  0.00    -0.508 OA
ATOM     27  H   UNL     1     130.261 140.573 139.109  1.00  0.00     0.293 HD
ENDBRANCH   8  26
TORSDOF 6
ENDMDL
