MODEL 1
REMARK VINA RESULT:    -4.843      0.000      0.000
REMARK INTER + INTRA:          -5.126
REMARK INTER:                  -5.126
REMARK INTRA:                   0.000
REMARK UNBOUND:                 0.000
REMARK SMILES O=c1ccc2cc(O)c(O)cc2o1
REMARK SMILES IDX 4 1 3 2 2 3 1 4 13 5 12 6 11 7 9 8 7 9 6 10 5 11 8 12 10 14
REMARK H PARENT 8 13 10 15
REMARK Flexibility Score: inf
ROOT
ATOM      1  C   UNL     1      -0.109  26.224  30.253  1.00  0.00     0.019 A 
ATOM      2  C   UNL     1      -0.104  26.920  29.045  1.00  0.00     0.094 A 
ATOM      3  C   UNL     1      -0.099  28.320  29.068  1.00  0.00     0.336 A 
ATOM      4  O   UNL     1      -0.094  28.966  27.988  1.00  0.00    -0.246 OA
ATOM      5  O   UNL     1      -0.100  28.973  30.226  1.00  0.00    -0.423 OA
ATOM      6  C   UNL     1      -0.105  28.348  31.402  1.00  0.00     0.142 A 
ATOM      7  C   UNL     1      -0.105  29.089  32.587  1.00  0.00     0.098 A 
ATOM      8  C   UNL     1      -0.110  28.436  33.829  1.00  0.00     0.161 A 
ATOM      9  C   UNL     1      -0.115  27.029  33.883  1.00  0.00     0.158 A 
ATOM     10  C   UNL     1      -0.115  26.286  32.696  1.00  0.00     0.062 A 
ATOM     11  C   UNL     1      -0.110  26.938  31.456  1.00  0.00     0.022 A 
ENDROOT
BRANCH   9  12
ATOM     12  O   UNL     1      -0.122  26.355  35.103  1.00  0.00    -0.504 OA
ATOM     13  H   UNL     1      -0.153  26.846  35.989  1.00  0.00     0.293 HD
ENDBRANCH   9  12
BRANCH   8  14
ATOM     14  O   UNL     1      -0.112  29.178  35.009  1.00  0.00    -0.504 OA
ATOM     15  H   UNL     1      -0.869  29.812  35.237  1.00  0.00     0.293 HD
ENDBRANCH   8  14
TORSDOF 2
ENDMDL
MODEL 2
REMARK VINA RESULT:    -4.131      1.065      4.554
REMARK INTER + INTRA:          -4.372
REMARK INTER:                  -4.372
REMARK INTRA:                   0.000
REMARK UNBOUND:                 0.000
REMARK SMILES O=c1ccc2cc(O)c(O)cc2o1
REMARK SMILES IDX 4 1 3 2 2 3 1 4 13 5 12 6 11 7 9 8 7 9 6 10 5 11 8 12 10 14
REMARK H PARENT 8 13 10 15
REMARK Flexibility Score: inf
ROOT
ATOM      1  C   UNL     1      -0.122  26.248  32.529  1.00  0.00     0.019 A 
ATOM      2  C   UNL     1      -0.121  26.991  33.709  1.00  0.00     0.094 A 
ATOM      3  C   UNL     1      -0.119  28.389  33.630  1.00  0.00     0.336 A 
ATOM      4  O   UNL     1      -0.118  29.077  34.684  1.00  0.00    -0.246 OA
ATOM      5  O   UNL     1      -0.118  28.996  32.447  1.00  0.00    -0.423 OA
ATOM      6  C   UNL     1      -0.119  28.325  31.298  1.00  0.00     0.142 A 
ATOM      7  C   UNL     1      -0.119  29.018  30.084  1.00  0.00     0.098 A 
ATOM      8  C   UNL     1      -0.121  28.317  28.868  1.00  0.00     0.161 A 
ATOM      9  C   UNL     1      -0.123  26.910  28.870  1.00  0.00     0.158 A 
ATOM     10  C   UNL     1      -0.124  26.214  30.085  1.00  0.00     0.062 A 
ATOM     11  C   UNL     1      -0.122  26.914  31.298  1.00  0.00     0.022 A 
ENDROOT
BRANCH   9  12
ATOM     12  O   UNL     1      -0.124  26.188  27.677  1.00  0.00    -0.504 OA
ATOM     13  H   UNL     1      -0.925  25.645  27.378  1.00  0.00     0.293 HD
ENDBRANCH   9  12
BRANCH   8  14
ATOM     14  O   UNL     1      -0.120  29.013  27.660  1.00  0.00    -0.504 OA
ATOM     15  H   UNL     1       0.267  28.610  26.816  1.00  0.00     0.293 HD
ENDBRANCH   8  14
TORSDOF 2
ENDMDL
MODEL 3
REMARK VINA RESULT:    -3.827      1.687      4.327
REMARK INTER + INTRA:          -4.051
REMARK INTER:                  -4.051
REMARK INTRA:                   0.000
REMARK UNBOUND:                 0.000
REMARK SMILES O=c1ccc2cc(O)c(O)cc2o1
REMARK SMILES IDX 4 1 3 2 2 3 1 4 13 5 12 6 11 7 9 8 7 9 6 10 5 11 8 12 10 14
REMARK H PARENT 8 13 10 15
REMARK Flexibility Score: inf
ROOT
ATOM      1  C   UNL     1      -0.125  27.420  33.385  1.00  0.00     0.019 A 
ATOM      2  C   UNL     1      -0.120  28.645  34.052  1.00  0.00     0.094 A 
ATOM      3  C   UNL     1      -0.111  29.826  33.301  1.00  0.00     0.336 A 
ATOM      4  O   UNL     1      -0.107  30.941  33.884  1.00  0.00    -0.246 OA
ATOM      5  O   UNL     1      -0.105  29.779  31.972  1.00  0.00    -0.423 OA
ATOM      6  C   UNL     1      -0.109  28.632  31.296  1.00  0.00     0.142 A 
ATOM      7  C   UNL     1      -0.104  28.644  29.898  1.00  0.00     0.098 A 
ATOM      8  C   UNL     1      -0.108  27.439  29.180  1.00  0.00     0.161 A 
ATOM      9  C   UNL     1      -0.118  26.211  29.869  1.00  0.00     0.158 A 
ATOM     10  C   UNL     1      -0.124  26.197  31.269  1.00  0.00     0.062 A 
ATOM     11  C   UNL     1      -0.120  27.401  31.986  1.00  0.00     0.022 A 
ENDROOT
BRANCH   9  12
ATOM     12  O   UNL     1      -0.122  24.999  29.180  1.00  0.00    -0.504 OA
ATOM     13  H   UNL     1       0.470  24.223  29.453  1.00  0.00     0.293 HD
ENDBRANCH   9  12
BRANCH   8  14
ATOM     14  O   UNL     1      -0.102  27.456  27.786  1.00  0.00    -0.504 OA
ATOM     15  H   UNL     1       0.661  27.055  27.254  1.00  0.00     0.293 HD
ENDBRANCH   8  14
TORSDOF 2
ENDMDL
MODEL 4
REMARK VINA RESULT:    -3.047      1.160      5.089
REMARK INTER + INTRA:          -3.225
REMARK INTER:                  -3.225
REMARK INTRA:                   0.000
REMARK UNBOUND:                 0.000
REMARK SMILES O=c1ccc2cc(O)c(O)cc2o1
REMARK SMILES IDX 4 1 3 2 2 3 1 4 13 5 12 6 11 7 9 8 7 9 6 10 5 11 8 12 10 14
REMARK H PARENT 8 13 10 15
REMARK Flexibility Score: inf
ROOT
ATOM      1  C   UNL     1      -0.098  29.013  32.478  1.00  0.00     0.019 A 
ATOM      2  C   UNL     1      -0.091  28.290  33.671  1.00  0.00     0.094 A 
ATOM      3  C   UNL     1      -0.089  26.891  33.616  1.00  0.00     0.336 A 
ATOM      4  O   UNL     1      -0.082  26.221  34.681  1.00  0.00    -0.246 OA
ATOM      5  O   UNL     1      -0.095  26.264  32.443  1.00  0.00    -0.423 OA
ATOM      6  C   UNL     1      -0.102  26.915  31.282  1.00  0.00     0.142 A 
ATOM      7  C   UNL     1      -0.108  26.202  30.080  1.00  0.00     0.098 A 
ATOM      8  C   UNL     1      -0.115  26.882  28.853  1.00  0.00     0.161 A 
ATOM      9  C   UNL     1      -0.117  28.290  28.831  1.00  0.00     0.158 A 
ATOM     10  C   UNL     1      -0.111  29.006  30.034  1.00  0.00     0.062 A 
ATOM     11  C   UNL     1      -0.104  28.327  31.259  1.00  0.00     0.022 A 
ENDROOT
BRANCH   9  12
ATOM     12  O   UNL     1      -0.125  28.991  27.626  1.00  0.00    -0.504 OA
ATOM     13  H   UNL     1       0.412  28.688  26.823  1.00  0.00     0.293 HD
ENDBRANCH   9  12
BRANCH   8  14
ATOM     14  O   UNL     1      -0.121  26.167  27.657  1.00  0.00    -0.504 OA
ATOM     15  H   UNL     1      -0.986  25.921  27.189  1.00  0.00     0.293 HD
ENDBRANCH   8  14
TORSDOF 2
ENDMDL
