MODEL 1
REMARK VINA RESULT:    -5.527      0.000      0.000
REMARK INTER + INTRA:          -6.984
REMARK INTER:                  -6.658
REMARK INTRA:                  -0.326
REMARK UNBOUND:                -0.326
REMARK SMILES Oc1cc(O)c2cc(O)c(-c3ccc(O)c(O)c3)[o+]c2c1.[Cl-]
REMARK SMILES IDX 10 1 19 2 20 3 21 4 2 5 3 6 4 7 6 8 7 9 8 10 11 11 12 12
REMARK SMILES IDX 13 13 14 14 18 15 16 16 15 17 17 19 9 21 1 23 5 25
REMARK H PARENT 15 18 17 20 9 22 1 24 5 26
REMARK Flexibility Score: inf
ROOT
ATOM      1  C   UNL     1      -4.741   8.169  -5.944  1.00  0.00     0.402 A 
ATOM      2  O   UNL     1      -5.311   7.129  -6.548  1.00  0.00    -0.202 OA
ATOM      3  C   UNL     1      -6.587   6.798  -6.380  1.00  0.00     0.368 A 
ATOM      4  C   UNL     1      -7.095   5.686  -7.057  1.00  0.00     0.162 A 
ATOM      5  C   UNL     1      -8.433   5.313  -6.897  1.00  0.00     0.128 A 
ATOM      6  C   UNL     1      -9.265   6.055  -6.056  1.00  0.00     0.093 A 
ATOM      7  C   UNL     1      -8.780   7.173  -5.366  1.00  0.00     0.136 A 
ATOM      8  C   UNL     1      -7.423   7.557  -5.528  1.00  0.00     0.125 A 
ATOM      9  C   UNL     1      -6.855   8.670  -4.888  1.00  0.00     0.078 A 
ATOM     10  C   UNL     1      -5.511   8.990  -5.101  1.00  0.00     0.223 A 
ENDROOT
BRANCH   1  11
ATOM     11  C   UNL     1      -3.306   8.430  -6.205  1.00  0.00     0.087 A 
ATOM     12  C   UNL     1      -2.919   8.998  -7.428  1.00  0.00     0.022 A 
ATOM     13  C   UNL     1      -1.569   9.235  -7.703  1.00  0.00     0.051 A 
ATOM     14  C   UNL     1      -0.588   8.891  -6.766  1.00  0.00     0.157 A 
ATOM     15  C   UNL     1      -2.315   8.068  -5.274  1.00  0.00     0.068 A 
ATOM     16  C   UNL     1      -0.960   8.303  -5.550  1.00  0.00     0.158 A 
BRANCH  14  17
ATOM     17  O   UNL     1       0.759   9.127  -7.035  1.00  0.00    -0.504 OA
ATOM     18  H   UNL     1       1.260   8.596  -7.737  1.00  0.00     0.293 HD
ENDBRANCH  14  17
BRANCH  16  19
ATOM     19  O   UNL     1       0.020   7.950  -4.624  1.00  0.00    -0.504 OA
ATOM     20  H   UNL     1       0.519   8.649  -4.087  1.00  0.00     0.293 HD
ENDBRANCH  16  19
ENDBRANCH   1  11
BRANCH  10  21
ATOM     21  O   UNL     1      -4.958  10.125  -4.504  1.00  0.00    -0.500 OA
ATOM     22  H   UNL     1      -5.327  11.052  -4.681  1.00  0.00     0.294 HD
ENDBRANCH  10  21
BRANCH   5  23
ATOM     23  O   UNL     1      -8.946   4.205  -7.568  1.00  0.00    -0.507 OA
ATOM     24  H   UNL     1      -8.411   3.350  -7.667  1.00  0.00     0.293 HD
ENDBRANCH   5  23
BRANCH   7  25
ATOM     25  O   UNL     1      -9.677   7.859  -4.542  1.00  0.00    -0.507 OA
ATOM     26  H   UNL     1     -10.575   7.499  -4.252  1.00  0.00     0.293 HD
ENDBRANCH   7  25
TORSDOF 6
ENDMDL
MODEL 2
REMARK VINA RESULT:    -5.251      1.962      2.747
REMARK INTER + INTRA:          -6.652
REMARK INTER:                  -6.304
REMARK INTRA:                  -0.348
REMARK UNBOUND:                -0.326
REMARK SMILES Oc1cc(O)c2cc(O)c(-c3ccc(O)c(O)c3)[o+]c2c1.[Cl-]
REMARK SMILES IDX 10 1 19 2 20 3 21 4 2 5 3 6 4 7 6 8 7 9 8 10 11 11 12 12
REMARK SMILES IDX 13 13 14 14 18 15 16 16 15 17 17 19 9 21 1 23 5 25
REMARK H PARENT 15 18 17 20 9 22 1 24 5 26
REMARK Flexibility Score: inf
ROOT
ATOM      1  C   UNL     1      -6.045   7.830  -6.101  1.00  0.00     0.402 A 
ATOM      2  O   UNL     1      -6.627   6.731  -5.627  1.00  0.00    -0.202 OA
ATOM      3  C   UNL     1      -7.707   6.183  -6.176  1.00  0.00     0.368 A 
ATOM      4  C   UNL     1      -8.248   5.028  -5.604  1.00  0.00     0.162 A 
ATOM      5  C   UNL     1      -9.383   4.432  -6.160  1.00  0.00     0.128 A 
ATOM      6  C   UNL     1      -9.981   4.993  -7.290  1.00  0.00     0.093 A 
ATOM      7  C   UNL     1      -9.458   6.150  -7.881  1.00  0.00     0.136 A 
ATOM      8  C   UNL     1      -8.304   6.757  -7.323  1.00  0.00     0.125 A 
ATOM      9  C   UNL     1      -7.703   7.909  -7.856  1.00  0.00     0.078 A 
ATOM     10  C   UNL     1      -6.563   8.448  -7.254  1.00  0.00     0.223 A 
ENDROOT
BRANCH   1  11
ATOM     11  C   UNL     1      -4.853   8.351  -5.393  1.00  0.00     0.087 A 
ATOM     12  C   UNL     1      -5.009   9.344  -4.415  1.00  0.00     0.022 A 
ATOM     13  C   UNL     1      -3.896   9.863  -3.748  1.00  0.00     0.051 A 
ATOM     14  C   UNL     1      -2.610   9.408  -4.063  1.00  0.00     0.157 A 
ATOM     15  C   UNL     1      -3.557   7.910  -5.721  1.00  0.00     0.068 A 
ATOM     16  C   UNL     1      -2.439   8.433  -5.053  1.00  0.00     0.158 A 
BRANCH  14  17
ATOM     17  O   UNL     1      -1.497   9.922  -3.400  1.00  0.00    -0.504 OA
ATOM     18  H   UNL     1      -1.527  10.150  -2.413  1.00  0.00     0.293 HD
ENDBRANCH  14  17
BRANCH  16  19
ATOM     19  O   UNL     1      -1.157   7.991  -5.374  1.00  0.00    -0.504 OA
ATOM     20  H   UNL     1      -0.353   8.603  -5.307  1.00  0.00     0.293 HD
ENDBRANCH  16  19
ENDBRANCH   1  11
BRANCH  10  21
ATOM     21  O   UNL     1      -5.937   9.564  -7.812  1.00  0.00    -0.500 OA
ATOM     22  H   UNL     1      -5.853   9.681  -8.815  1.00  0.00     0.294 HD
ENDBRANCH  10  21
BRANCH   5  23
ATOM     23  O   UNL     1      -9.929   3.280  -5.594  1.00  0.00    -0.507 OA
ATOM     24  H   UNL     1      -9.375   2.443  -5.460  1.00  0.00     0.293 HD
ENDBRANCH   5  23
BRANCH   7  25
ATOM     25  O   UNL     1     -10.117   6.650  -9.008  1.00  0.00    -0.507 OA
ATOM     26  H   UNL     1      -9.764   7.395  -9.592  1.00  0.00     0.293 HD
ENDBRANCH   7  25
TORSDOF 6
ENDMDL
MODEL 3
REMARK VINA RESULT:    -5.192      0.995      2.624
REMARK INTER + INTRA:          -6.581
REMARK INTER:                  -6.259
REMARK INTRA:                  -0.322
REMARK UNBOUND:                -0.326
REMARK SMILES Oc1cc(O)c2cc(O)c(-c3ccc(O)c(O)c3)[o+]c2c1.[Cl-]
REMARK SMILES IDX 10 1 19 2 20 3 21 4 2 5 3 6 4 7 6 8 7 9 8 10 11 11 12 12
REMARK SMILES IDX 13 13 14 14 18 15 16 16 15 17 17 19 9 21 1 23 5 25
REMARK H PARENT 15 18 17 20 9 22 1 24 5 26
REMARK Flexibility Score: inf
ROOT
ATOM      1  C   UNL     1      -4.542   7.314  -6.835  1.00  0.00     0.402 A 
ATOM      2  O   UNL     1      -5.524   7.851  -6.115  1.00  0.00    -0.202 OA
ATOM      3  C   UNL     1      -6.756   7.353  -6.074  1.00  0.00     0.368 A 
ATOM      4  C   UNL     1      -7.722   7.989  -5.289  1.00  0.00     0.162 A 
ATOM      5  C   UNL     1      -9.025   7.487  -5.230  1.00  0.00     0.128 A 
ATOM      6  C   UNL     1      -9.364   6.345  -5.959  1.00  0.00     0.093 A 
ATOM      7  C   UNL     1      -8.415   5.690  -6.752  1.00  0.00     0.136 A 
ATOM      8  C   UNL     1      -7.090   6.193  -6.814  1.00  0.00     0.125 A 
ATOM      9  C   UNL     1      -6.071   5.594  -7.571  1.00  0.00     0.078 A 
ATOM     10  C   UNL     1      -4.786   6.145  -7.578  1.00  0.00     0.223 A 
ENDROOT
BRANCH   1  11
ATOM     11  C   UNL     1      -3.215   7.970  -6.806  1.00  0.00     0.087 A 
ATOM     12  C   UNL     1      -2.823   8.783  -7.880  1.00  0.00     0.022 A 
ATOM     13  C   UNL     1      -1.567   9.396  -7.883  1.00  0.00     0.051 A 
ATOM     14  C   UNL     1      -0.680   9.192  -6.819  1.00  0.00     0.157 A 
ATOM     15  C   UNL     1      -2.313   7.751  -5.748  1.00  0.00     0.068 A 
ATOM     16  C   UNL     1      -1.051   8.365  -5.752  1.00  0.00     0.158 A 
BRANCH  14  17
ATOM     17  O   UNL     1       0.573   9.802  -6.818  1.00  0.00    -0.504 OA
ATOM     18  H   UNL     1       0.971  10.198  -7.661  1.00  0.00     0.293 HD
ENDBRANCH  14  17
BRANCH  16  19
ATOM     19  O   UNL     1      -0.161   8.152  -4.701  1.00  0.00    -0.504 OA
ATOM     20  H   UNL     1       0.663   8.728  -4.578  1.00  0.00     0.293 HD
ENDBRANCH  16  19
ENDBRANCH   1  11
BRANCH  10  21
ATOM     21  O   UNL     1      -3.760   5.522  -8.291  1.00  0.00    -0.500 OA
ATOM     22  H   UNL     1      -2.850   5.953  -8.400  1.00  0.00     0.294 HD
ENDBRANCH  10  21
BRANCH   5  23
ATOM     23  O   UNL     1      -9.993   8.117  -4.450  1.00  0.00    -0.507 OA
ATOM     24  H   UNL     1     -10.912   7.713  -4.318  1.00  0.00     0.293 HD
ENDBRANCH   5  23
BRANCH   7  25
ATOM     25  O   UNL     1      -8.836   4.556  -7.453  1.00  0.00    -0.507 OA
ATOM     26  H   UNL     1      -9.639   3.996  -7.203  1.00  0.00     0.293 HD
ENDBRANCH   7  25
TORSDOF 6
ENDMDL
MODEL 4
REMARK VINA RESULT:    -5.095      1.594      6.620
REMARK INTER + INTRA:          -6.464
REMARK INTER:                  -6.122
REMARK INTRA:                  -0.342
REMARK UNBOUND:                -0.326
REMARK SMILES Oc1cc(O)c2cc(O)c(-c3ccc(O)c(O)c3)[o+]c2c1.[Cl-]
REMARK SMILES IDX 10 1 19 2 20 3 21 4 2 5 3 6 4 7 6 8 7 9 8 10 11 11 12 12
REMARK SMILES IDX 13 13 14 14 18 15 16 16 15 17 17 19 9 21 1 23 5 25
REMARK H PARENT 15 18 17 20 9 22 1 24 5 26
REMARK Flexibility Score: inf
ROOT
ATOM      1  C   UNL     1      -6.392   7.453  -6.532  1.00  0.00     0.402 A 
ATOM      2  O   UNL     1      -5.091   7.323  -6.779  1.00  0.00    -0.202 OA
ATOM      3  C   UNL     1      -4.146   7.864  -6.015  1.00  0.00     0.368 A 
ATOM      4  C   UNL     1      -2.804   7.674  -6.357  1.00  0.00     0.162 A 
ATOM      5  C   UNL     1      -1.791   8.233  -5.574  1.00  0.00     0.128 A 
ATOM      6  C   UNL     1      -2.121   8.986  -4.445  1.00  0.00     0.093 A 
ATOM      7  C   UNL     1      -3.457   9.192  -4.081  1.00  0.00     0.136 A 
ATOM      8  C   UNL     1      -4.489   8.623  -4.872  1.00  0.00     0.125 A 
ATOM      9  C   UNL     1      -5.855   8.766  -4.576  1.00  0.00     0.078 A 
ATOM     10  C   UNL     1      -6.816   8.171  -5.399  1.00  0.00     0.223 A 
ENDROOT
BRANCH   1  11
ATOM     11  C   UNL     1      -7.348   6.812  -7.464  1.00  0.00     0.087 A 
ATOM     12  C   UNL     1      -7.928   7.573  -8.490  1.00  0.00     0.022 A 
ATOM     13  C   UNL     1      -8.847   6.993  -9.369  1.00  0.00     0.051 A 
ATOM     14  C   UNL     1      -9.210   5.649  -9.223  1.00  0.00     0.157 A 
ATOM     15  C   UNL     1      -7.731   5.467  -7.309  1.00  0.00     0.068 A 
ATOM     16  C   UNL     1      -8.655   4.885  -8.189  1.00  0.00     0.158 A 
BRANCH  14  17
ATOM     17  O   UNL     1     -10.125   5.066 -10.099  1.00  0.00    -0.504 OA
ATOM     18  H   UNL     1     -10.751   5.629 -10.663  1.00  0.00     0.293 HD
ENDBRANCH  14  17
BRANCH  16  19
ATOM     19  O   UNL     1      -9.028   3.551  -8.038  1.00  0.00    -0.504 OA
ATOM     20  H   UNL     1      -9.958   3.229  -8.280  1.00  0.00     0.293 HD
ENDBRANCH  16  19
ENDBRANCH   1  11
BRANCH  10  21
ATOM     21  O   UNL     1      -8.171   8.271  -5.078  1.00  0.00    -0.500 OA
ATOM     22  H   UNL     1      -8.582   9.144  -4.771  1.00  0.00     0.294 HD
ENDBRANCH  10  21
BRANCH   5  23
ATOM     23  O   UNL     1      -0.451   8.048  -5.909  1.00  0.00    -0.507 OA
ATOM     24  H   UNL     1      -0.125   7.188  -6.334  1.00  0.00     0.293 HD
ENDBRANCH   5  23
BRANCH   7  25
ATOM     25  O   UNL     1      -3.702   9.960  -2.939  1.00  0.00    -0.507 OA
ATOM     26  H   UNL     1      -4.615  10.289  -2.658  1.00  0.00     0.293 HD
ENDBRANCH   7  25
TORSDOF 6
ENDMDL
MODEL 5
REMARK VINA RESULT:    -5.005      1.523      2.920
REMARK INTER + INTRA:          -6.356
REMARK INTER:                  -6.111
REMARK INTRA:                  -0.245
REMARK UNBOUND:                -0.326
REMARK SMILES Oc1cc(O)c2cc(O)c(-c3ccc(O)c(O)c3)[o+]c2c1.[Cl-]
REMARK SMILES IDX 10 1 19 2 20 3 21 4 2 5 3 6 4 7 6 8 7 9 8 10 11 11 12 12
REMARK SMILES IDX 13 13 14 14 18 15 16 16 15 17 17 19 9 21 1 23 5 25
REMARK H PARENT 15 18 17 20 9 22 1 24 5 26
REMARK Flexibility Score: inf
ROOT
ATOM      1  C   UNL     1      -4.447   7.742  -6.379  1.00  0.00     0.402 A 
ATOM      2  O   UNL     1      -5.418   8.652  -6.392  1.00  0.00    -0.202 OA
ATOM      3  C   UNL     1      -6.694   8.361  -6.160  1.00  0.00     0.368 A 
ATOM      4  C   UNL     1      -7.643   9.386  -6.197  1.00  0.00     0.162 A 
ATOM      5  C   UNL     1      -8.992   9.107  -5.959  1.00  0.00     0.128 A 
ATOM      6  C   UNL     1      -9.394   7.799  -5.684  1.00  0.00     0.093 A 
ATOM      7  C   UNL     1      -8.463   6.754  -5.641  1.00  0.00     0.136 A 
ATOM      8  C   UNL     1      -7.091   7.032  -5.879  1.00  0.00     0.125 A 
ATOM      9  C   UNL     1      -6.087   6.051  -5.843  1.00  0.00     0.078 A 
ATOM     10  C   UNL     1      -4.756   6.402  -6.082  1.00  0.00     0.223 A 
ENDROOT
BRANCH   1  11
ATOM     11  C   UNL     1      -3.065   8.190  -6.663  1.00  0.00     0.087 A 
ATOM     12  C   UNL     1      -2.129   8.248  -5.619  1.00  0.00     0.022 A 
ATOM     13  C   UNL     1      -0.824   8.686  -5.861  1.00  0.00     0.051 A 
ATOM     14  C   UNL     1      -0.442   9.087  -7.146  1.00  0.00     0.157 A 
ATOM     15  C   UNL     1      -2.682   8.613  -7.950  1.00  0.00     0.068 A 
ATOM     16  C   UNL     1      -1.373   9.054  -8.192  1.00  0.00     0.158 A 
BRANCH  14  17
ATOM     17  O   UNL     1       0.859   9.523  -7.392  1.00  0.00    -0.504 OA
ATOM     18  H   UNL     1       1.070  10.157  -8.153  1.00  0.00     0.293 HD
ENDBRANCH  14  17
BRANCH  16  19
ATOM     19  O   UNL     1      -0.993   9.467  -9.468  1.00  0.00    -0.504 OA
ATOM     20  H   UNL     1      -1.253   8.942 -10.295  1.00  0.00     0.293 HD
ENDBRANCH  16  19
ENDBRANCH   1  11
BRANCH  10  21
ATOM     21  O   UNL     1      -3.751   5.436  -5.997  1.00  0.00    -0.500 OA
ATOM     22  H   UNL     1      -3.812   4.559  -6.500  1.00  0.00     0.294 HD
ENDBRANCH  10  21
BRANCH   5  23
ATOM     23  O   UNL     1      -9.944  10.125  -5.996  1.00  0.00    -0.507 OA
ATOM     24  H   UNL     1     -10.877   9.991  -5.624  1.00  0.00     0.293 HD
ENDBRANCH   5  23
BRANCH   7  25
ATOM     25  O   UNL     1      -8.947   5.472  -5.362  1.00  0.00    -0.507 OA
ATOM     26  H   UNL     1      -8.660   4.635  -5.850  1.00  0.00     0.293 HD
ENDBRANCH   7  25
TORSDOF 6
ENDMDL
MODEL 6
REMARK VINA RESULT:    -4.804      1.308      1.983
REMARK INTER + INTRA:          -6.113
REMARK INTER:                  -5.836
REMARK INTRA:                  -0.277
REMARK UNBOUND:                -0.326
REMARK SMILES Oc1cc(O)c2cc(O)c(-c3ccc(O)c(O)c3)[o+]c2c1.[Cl-]
REMARK SMILES IDX 10 1 19 2 20 3 21 4 2 5 3 6 4 7 6 8 7 9 8 10 11 11 12 12
REMARK SMILES IDX 13 13 14 14 18 15 16 16 15 17 17 19 9 21 1 23 5 25
REMARK H PARENT 15 18 17 20 9 22 1 24 5 26
REMARK Flexibility Score: inf
ROOT
ATOM      1  C   UNL     1      -3.586   8.267  -6.416  1.00  0.00     0.402 A 
ATOM      2  O   UNL     1      -4.259   7.296  -7.028  1.00  0.00    -0.202 OA
ATOM      3  C   UNL     1      -5.528   7.006  -6.756  1.00  0.00     0.368 A 
ATOM      4  C   UNL     1      -6.151   5.965  -7.450  1.00  0.00     0.162 A 
ATOM      5  C   UNL     1      -7.483   5.637  -7.183  1.00  0.00     0.128 A 
ATOM      6  C   UNL     1      -8.194   6.351  -6.217  1.00  0.00     0.093 A 
ATOM      7  C   UNL     1      -7.593   7.397  -5.507  1.00  0.00     0.136 A 
ATOM      8  C   UNL     1      -6.242   7.737  -5.777  1.00  0.00     0.125 A 
ATOM      9  C   UNL     1      -5.563   8.778  -5.125  1.00  0.00     0.078 A 
ATOM     10  C   UNL     1      -4.232   9.058  -5.448  1.00  0.00     0.223 A 
ENDROOT
BRANCH   1  11
ATOM     11  C   UNL     1      -2.173   8.487  -6.800  1.00  0.00     0.087 A 
ATOM     12  C   UNL     1      -1.151   8.128  -5.907  1.00  0.00     0.022 A 
ATOM     13  C   UNL     1       0.189   8.344  -6.241  1.00  0.00     0.051 A 
ATOM     14  C   UNL     1       0.525   8.936  -7.464  1.00  0.00     0.157 A 
ATOM     15  C   UNL     1      -1.831   9.100  -8.020  1.00  0.00     0.068 A 
ATOM     16  C   UNL     1      -0.487   9.319  -8.354  1.00  0.00     0.158 A 
BRANCH  14  17
ATOM     17  O   UNL     1       1.860   9.152  -7.801  1.00  0.00    -0.504 OA
ATOM     18  H   UNL     1       2.144   9.949  -8.358  1.00  0.00     0.293 HD
ENDBRANCH  14  17
BRANCH  16  19
ATOM     19  O   UNL     1      -0.150   9.920  -9.565  1.00  0.00    -0.504 OA
ATOM     20  H   UNL     1      -0.824  10.461 -10.094  1.00  0.00     0.293 HD
ENDBRANCH  16  19
ENDBRANCH   1  11
BRANCH  10  21
ATOM     21  O   UNL     1      -3.572  10.125  -4.836  1.00  0.00    -0.500 OA
ATOM     22  H   UNL     1      -2.731  10.529  -5.233  1.00  0.00     0.294 HD
ENDBRANCH  10  21
BRANCH   5  23
ATOM     23  O   UNL     1      -8.110   4.599  -7.872  1.00  0.00    -0.507 OA
ATOM     24  H   UNL     1      -9.012   4.241  -7.582  1.00  0.00     0.293 HD
ENDBRANCH   5  23
BRANCH   7  25
ATOM     25  O   UNL     1      -8.373   8.060  -4.555  1.00  0.00    -0.507 OA
ATOM     26  H   UNL     1      -8.884   7.599  -3.815  1.00  0.00     0.293 HD
ENDBRANCH   7  25
TORSDOF 6
ENDMDL
MODEL 7
REMARK VINA RESULT:    -4.794      3.678      5.892
REMARK INTER + INTRA:          -6.101
REMARK INTER:                  -6.201
REMARK INTRA:                   0.100
REMARK UNBOUND:                -0.326
REMARK SMILES Oc1cc(O)c2cc(O)c(-c3ccc(O)c(O)c3)[o+]c2c1.[Cl-]
REMARK SMILES IDX 10 1 19 2 20 3 21 4 2 5 3 6 4 7 6 8 7 9 8 10 11 11 12 12
REMARK SMILES IDX 13 13 14 14 18 15 16 16 15 17 17 19 9 21 1 23 5 25
REMARK H PARENT 15 18 17 20 9 22 1 24 5 26
REMARK Flexibility Score: inf
ROOT
ATOM      1  C   UNL     1      -0.110   9.159  -7.935  1.00  0.00     0.402 A 
ATOM      2  O   UNL     1      -0.294   8.947  -6.634  1.00  0.00    -0.202 OA
ATOM      3  C   UNL     1      -1.476   9.059  -6.037  1.00  0.00     0.368 A 
ATOM      4  C   UNL     1      -1.570   8.818  -4.663  1.00  0.00     0.162 A 
ATOM      5  C   UNL     1      -2.800   8.930  -4.010  1.00  0.00     0.128 A 
ATOM      6  C   UNL     1      -3.941   9.287  -4.732  1.00  0.00     0.093 A 
ATOM      7  C   UNL     1      -3.874   9.534  -6.108  1.00  0.00     0.136 A 
ATOM      8  C   UNL     1      -2.627   9.418  -6.777  1.00  0.00     0.125 A 
ATOM      9  C   UNL     1      -2.468   9.634  -8.156  1.00  0.00     0.078 A 
ATOM     10  C   UNL     1      -1.209   9.495  -8.746  1.00  0.00     0.223 A 
ENDROOT
BRANCH   1  11
ATOM     11  C   UNL     1       1.259   9.013  -8.480  1.00  0.00     0.087 A 
ATOM     12  C   UNL     1       1.722   9.928  -9.438  1.00  0.00     0.022 A 
ATOM     13  C   UNL     1       3.003   9.798  -9.981  1.00  0.00     0.051 A 
ATOM     14  C   UNL     1       3.833   8.743  -9.585  1.00  0.00     0.157 A 
ATOM     15  C   UNL     1       2.089   7.942  -8.099  1.00  0.00     0.068 A 
ATOM     16  C   UNL     1       3.375   7.811  -8.645  1.00  0.00     0.158 A 
BRANCH  14  17
ATOM     17  O   UNL     1       5.112   8.610 -10.122  1.00  0.00    -0.504 OA
ATOM     18  H   UNL     1       5.257   8.303 -11.076  1.00  0.00     0.293 HD
ENDBRANCH  14  17
BRANCH  16  19
ATOM     19  O   UNL     1       4.198   6.753  -8.262  1.00  0.00    -0.504 OA
ATOM     20  H   UNL     1       5.059   6.908  -7.752  1.00  0.00     0.293 HD
ENDBRANCH  16  19
ENDBRANCH   1  11
BRANCH  10  21
ATOM     21  O   UNL     1      -1.059   9.660 -10.124  1.00  0.00    -0.500 OA
ATOM     22  H   UNL     1      -1.029  10.580 -10.549  1.00  0.00     0.294 HD
ENDBRANCH  10  21
BRANCH   5  23
ATOM     23  O   UNL     1      -2.900   8.692  -2.640  1.00  0.00    -0.507 OA
ATOM     24  H   UNL     1      -3.503   9.251  -2.048  1.00  0.00     0.293 HD
ENDBRANCH   5  23
BRANCH   7  25
ATOM     25  O   UNL     1      -5.060   9.889  -6.757  1.00  0.00    -0.507 OA
ATOM     26  H   UNL     1      -5.122  10.567  -7.503  1.00  0.00     0.293 HD
ENDBRANCH   7  25
TORSDOF 6
ENDMDL
MODEL 8
REMARK VINA RESULT:    -4.762      2.269      2.998
REMARK INTER + INTRA:          -6.063
REMARK INTER:                  -5.711
REMARK INTRA:                  -0.352
REMARK UNBOUND:                -0.326
REMARK SMILES Oc1cc(O)c2cc(O)c(-c3ccc(O)c(O)c3)[o+]c2c1.[Cl-]
REMARK SMILES IDX 10 1 19 2 20 3 21 4 2 5 3 6 4 7 6 8 7 9 8 10 11 11 12 12
REMARK SMILES IDX 13 13 14 14 18 15 16 16 15 17 17 19 9 21 1 23 5 25
REMARK H PARENT 15 18 17 20 9 22 1 24 5 26
REMARK Flexibility Score: inf
ROOT
ATOM      1  C   UNL     1      -5.732   7.962  -5.937  1.00  0.00     0.402 A 
ATOM      2  O   UNL     1      -6.416   8.694  -6.813  1.00  0.00    -0.202 OA
ATOM      3  C   UNL     1      -7.597   8.331  -7.303  1.00  0.00     0.368 A 
ATOM      4  C   UNL     1      -8.238   9.166  -8.221  1.00  0.00     0.162 A 
ATOM      5  C   UNL     1      -9.480   8.807  -8.754  1.00  0.00     0.128 A 
ATOM      6  C   UNL     1     -10.081   7.607  -8.368  1.00  0.00     0.093 A 
ATOM      7  C   UNL     1      -9.458   6.752  -7.451  1.00  0.00     0.136 A 
ATOM      8  C   UNL     1      -8.199   7.114  -6.904  1.00  0.00     0.125 A 
ATOM      9  C   UNL     1      -7.509   6.326  -5.969  1.00  0.00     0.078 A 
ATOM     10  C   UNL     1      -6.274   6.751  -5.470  1.00  0.00     0.223 A 
ENDROOT
BRANCH   1  11
ATOM     11  C   UNL     1      -4.421   8.471  -5.473  1.00  0.00     0.087 A 
ATOM     12  C   UNL     1      -4.372   9.391  -4.415  1.00  0.00     0.022 A 
ATOM     13  C   UNL     1      -3.148   9.899  -3.973  1.00  0.00     0.051 A 
ATOM     14  C   UNL     1      -1.956   9.506  -4.594  1.00  0.00     0.157 A 
ATOM     15  C   UNL     1      -3.222   8.094  -6.107  1.00  0.00     0.068 A 
ATOM     16  C   UNL     1      -1.993   8.605  -5.665  1.00  0.00     0.158 A 
BRANCH  14  17
ATOM     17  O   UNL     1      -0.733  10.009  -4.155  1.00  0.00    -0.504 OA
ATOM     18  H   UNL     1       0.141   9.725  -4.583  1.00  0.00     0.293 HD
ENDBRANCH  14  17
BRANCH  16  19
ATOM     19  O   UNL     1      -0.807   8.226  -6.291  1.00  0.00    -0.504 OA
ATOM     20  H   UNL     1       0.089   8.308  -5.825  1.00  0.00     0.293 HD
ENDBRANCH  16  19
ENDBRANCH   1  11
BRANCH  10  21
ATOM     21  O   UNL     1      -5.611   5.993  -4.504  1.00  0.00    -0.500 OA
ATOM     22  H   UNL     1      -5.392   5.015  -4.653  1.00  0.00     0.294 HD
ENDBRANCH  10  21
BRANCH   5  23
ATOM     23  O   UNL     1     -10.125   9.636  -9.670  1.00  0.00    -0.507 OA
ATOM     24  H   UNL     1     -10.829   9.277 -10.305  1.00  0.00     0.293 HD
ENDBRANCH   5  23
BRANCH   7  25
ATOM     25  O   UNL     1     -10.125   5.569  -7.120  1.00  0.00    -0.507 OA
ATOM     26  H   UNL     1     -10.845   5.498  -6.416  1.00  0.00     0.293 HD
ENDBRANCH   7  25
TORSDOF 6
ENDMDL
