MODEL 1
REMARK VINA RESULT:    -0.641      0.000      0.000
REMARK INTER + INTRA:          -0.115
REMARK INTER:                  -1.615
REMARK INTRA:                   1.500
REMARK UNBOUND:                 1.500
REMARK SMILES CCCCCCCCCCCCCCCCCCCCCCCCCCCC(=O)[O-]
REMARK SMILES IDX 15 1 16 2 17 3 18 4 19 5 20 6 21 7 22 8 23 9 24 10 25 11
REMARK SMILES IDX 26 12 27 13 28 14 29 15 30 16 14 17 13 18 12 19 11 20 10 21
REMARK SMILES IDX 9 22 8 23 7 24 6 25 5 26 4 27 3 28 2 29 1 30
REMARK H PARENT
REMARK Flexibility Score: inf
ROOT
ATOM      1  C   UNL     1     122.992  68.393  -0.565  1.00  0.00     0.000 C 
ENDROOT
BRANCH   1   2
ATOM      2  C   UNL     1     122.287  69.670  -1.057  1.00  0.00     0.000 C 
BRANCH   2   3
ATOM      3  C   UNL     1     120.797  69.710  -0.675  1.00  0.00     0.000 C 
BRANCH   3   4
ATOM      4  C   UNL     1     120.529  69.143   0.730  1.00  0.00     0.000 C 
BRANCH   4   5
ATOM      5  C   UNL     1     119.998  70.203   1.713  1.00  0.00     0.000 C 
BRANCH   5   6
ATOM      6  C   UNL     1     120.116  71.662   1.232  1.00  0.00     0.000 C 
BRANCH   6   7
ATOM      7  C   UNL     1     120.852  72.613   2.195  1.00  0.00     0.000 C 
BRANCH   7   8
ATOM      8  C   UNL     1     119.911  73.432   3.105  1.00  0.00     0.000 C 
BRANCH   8   9
ATOM      9  C   UNL     1     119.984  72.989   4.578  1.00  0.00     0.000 C 
BRANCH   9  10
ATOM     10  C   UNL     1     121.061  71.918   4.818  1.00  0.00     0.000 C 
BRANCH  10  11
ATOM     11  C   UNL     1     120.734  71.008   6.015  1.00  0.00     0.000 C 
BRANCH  11  12
ATOM     12  C   UNL     1     120.940  71.720   7.368  1.00  0.00     0.006 C 
BRANCH  12  13
ATOM     13  C   UNL     1     119.881  71.352   8.422  1.00  0.00     0.053 C 
BRANCH  13  14
ATOM     14  C   UNL     1     120.163  71.978   9.752  1.00  0.00     0.041 C 
ATOM     15  O   UNL     1     120.400  71.254  10.755  1.00  0.00    -0.550 OA
ATOM     16  O   UNL     1     120.138  73.360   9.890  1.00  0.00    -0.550 OA
ENDBRANCH  13  14
ENDBRANCH  12  13
ENDBRANCH  11  12
ENDBRANCH  10  11
ENDBRANCH   9  10
ENDBRANCH   8   9
ENDBRANCH   7   8
ENDBRANCH   6   7
ENDBRANCH   5   6
ENDBRANCH   4   5
ENDBRANCH   3   4
ENDBRANCH   2   3
ENDBRANCH   1   2
BRANCH   1  17
ATOM     17  C   UNL     1     122.233  67.108  -0.944  1.00  0.00     0.000 C 
BRANCH  17  18
ATOM     18  C   UNL     1     120.761  67.060  -0.494  1.00  0.00     0.000 C 
BRANCH  18  19
ATOM     19  C   UNL     1     119.876  66.234  -1.437  1.00  0.00     0.000 C 
BRANCH  19  20
ATOM     20  C   UNL     1     120.570  66.006  -2.789  1.00  0.00     0.000 C 
BRANCH  20  21
ATOM     21  C   UNL     1     119.887  66.793  -3.919  1.00  0.00     0.000 C 
BRANCH  21  22
ATOM     22  C   UNL     1     120.154  66.179  -5.313  1.00  0.00    -0.000 C 
BRANCH  22  23
ATOM     23  C   UNL     1     120.445  64.673  -5.251  1.00  0.00    -0.000 C 
BRANCH  23  24
ATOM     24  C   UNL     1     120.722  64.090  -6.649  1.00  0.00    -0.000 C 
BRANCH  24  25
ATOM     25  C   UNL     1     120.164  64.969  -7.782  1.00  0.00    -0.000 C 
BRANCH  25  26
ATOM     26  C   UNL     1     120.843  66.345  -7.914  1.00  0.00    -0.000 C 
BRANCH  26  27
ATOM     27  C   UNL     1     119.882  67.465  -8.377  1.00  0.00    -0.000 C 
BRANCH  27  28
ATOM     28  C   UNL     1     120.411  68.880  -8.072  1.00  0.00    -0.000 C 
BRANCH  28  29
ATOM     29  C   UNL     1     119.890  69.455  -6.741  1.00  0.00    -0.003 C 
ATOM     30  C   UNL     1     121.017  69.942  -5.832  1.00  0.00     0.004 C 
ENDBRANCH  28  29
ENDBRANCH  27  28
ENDBRANCH  26  27
ENDBRANCH  25  26
ENDBRANCH  24  25
ENDBRANCH  23  24
ENDBRANCH  22  23
ENDBRANCH  21  22
ENDBRANCH  20  21
ENDBRANCH  19  20
ENDBRANCH  18  19
ENDBRANCH  17  18
ENDBRANCH   1  17
TORSDOF 26
ENDMDL
MODEL 2
REMARK VINA RESULT:    -0.049      1.581      3.421
REMARK INTER + INTRA:           1.377
REMARK INTER:                  -1.254
REMARK INTRA:                   2.631
REMARK UNBOUND:                 1.500
REMARK SMILES CCCCCCCCCCCCCCCCCCCCCCCCCCCC(=O)[O-]
REMARK SMILES IDX 15 1 16 2 17 3 18 4 19 5 20 6 21 7 22 8 23 9 24 10 25 11
REMARK SMILES IDX 26 12 27 13 28 14 29 15 30 16 14 17 13 18 12 19 11 20 10 21
REMARK SMILES IDX 9 22 8 23 7 24 6 25 5 26 4 27 3 28 2 29 1 30
REMARK H PARENT
REMARK Flexibility Score: inf
ROOT
ATOM      1  C   UNL     1     120.954  72.263   1.427  1.00  0.00     0.000 C 
ENDROOT
BRANCH   1   2
ATOM      2  C   UNL     1     120.233  73.473   0.808  1.00  0.00     0.000 C 
BRANCH   2   3
ATOM      3  C   UNL     1     119.880  74.551   1.847  1.00  0.00     0.000 C 
BRANCH   3   4
ATOM      4  C   UNL     1     120.015  74.045   3.295  1.00  0.00     0.000 C 
BRANCH   4   5
ATOM      5  C   UNL     1     121.209  73.091   3.488  1.00  0.00     0.000 C 
BRANCH   5   6
ATOM      6  C   UNL     1     120.850  71.690   4.019  1.00  0.00     0.000 C 
BRANCH   6   7
ATOM      7  C   UNL     1     121.086  71.479   5.526  1.00  0.00     0.000 C 
BRANCH   7   8
ATOM      8  C   UNL     1     119.933  71.991   6.416  1.00  0.00     0.000 C 
BRANCH   8   9
ATOM      9  C   UNL     1     120.021  73.506   6.682  1.00  0.00     0.000 C 
BRANCH   9  10
ATOM     10  C   UNL     1     120.456  73.826   8.121  1.00  0.00     0.000 C 
BRANCH  10  11
ATOM     11  C   UNL     1     119.904  72.816   9.144  1.00  0.00     0.000 C 
BRANCH  11  12
ATOM     12  C   UNL     1     120.972  72.368  10.163  1.00  0.00     0.006 C 
BRANCH  12  13
ATOM     13  C   UNL     1     120.539  71.163  11.015  1.00  0.00     0.053 C 
BRANCH  13  14
ATOM     14  C   UNL     1     120.195  69.970  10.177  1.00  0.00     0.041 C 
ATOM     15  O   UNL     1     119.876  68.882  10.725  1.00  0.00    -0.550 OA
ATOM     16  O   UNL     1     120.253  70.053   8.792  1.00  0.00    -0.550 OA
ENDBRANCH  13  14
ENDBRANCH  12  13
ENDBRANCH  11  12
ENDBRANCH  10  11
ENDBRANCH   9  10
ENDBRANCH   8   9
ENDBRANCH   7   8
ENDBRANCH   6   7
ENDBRANCH   5   6
ENDBRANCH   4   5
ENDBRANCH   3   4
ENDBRANCH   2   3
ENDBRANCH   1   2
BRANCH   1  17
ATOM     17  C   UNL     1     121.352  71.205   0.381  1.00  0.00     0.000 C 
BRANCH  17  18
ATOM     18  C   UNL     1     121.204  69.743   0.839  1.00  0.00     0.000 C 
BRANCH  18  19
ATOM     19  C   UNL     1     120.232  68.940  -0.035  1.00  0.00     0.000 C 
BRANCH  19  20
ATOM     20  C   UNL     1     120.927  68.425  -1.305  1.00  0.00     0.000 C 
BRANCH  20  21
ATOM     21  C   UNL     1     119.911  67.975  -2.367  1.00  0.00     0.000 C 
BRANCH  21  22
ATOM     22  C   UNL     1     120.116  68.690  -3.722  1.00  0.00    -0.000 C 
BRANCH  22  23
ATOM     23  C   UNL     1     120.331  67.708  -4.883  1.00  0.00    -0.000 C 
BRANCH  23  24
ATOM     24  C   UNL     1     121.082  66.444  -4.425  1.00  0.00    -0.000 C 
BRANCH  24  25
ATOM     25  C   UNL     1     120.863  65.247  -5.368  1.00  0.00    -0.000 C 
BRANCH  25  26
ATOM     26  C   UNL     1     119.913  65.531  -6.546  1.00  0.00    -0.000 C 
BRANCH  26  27
ATOM     27  C   UNL     1     120.350  64.854  -7.867  1.00  0.00    -0.000 C 
BRANCH  27  28
ATOM     28  C   UNL     1     121.308  65.724  -8.704  1.00  0.00    -0.000 C 
BRANCH  28  29
ATOM     29  C   UNL     1     120.719  67.095  -9.083  1.00  0.00    -0.003 C 
ATOM     30  C   UNL     1     120.809  68.108  -7.942  1.00  0.00     0.004 C 
ENDBRANCH  28  29
ENDBRANCH  27  28
ENDBRANCH  26  27
ENDBRANCH  25  26
ENDBRANCH  24  25
ENDBRANCH  23  24
ENDBRANCH  22  23
ENDBRANCH  21  22
ENDBRANCH  20  21
ENDBRANCH  19  20
ENDBRANCH  18  19
ENDBRANCH  17  18
ENDBRANCH   1  17
TORSDOF 26
ENDMDL
MODEL 3
REMARK VINA RESULT:     0.172      1.266      2.145
REMARK INTER + INTRA:           1.932
REMARK INTER:                   0.956
REMARK INTRA:                   0.977
REMARK UNBOUND:                 1.500
REMARK SMILES CCCCCCCCCCCCCCCCCCCCCCCCCCCC(=O)[O-]
REMARK SMILES IDX 15 1 16 2 17 3 18 4 19 5 20 6 21 7 22 8 23 9 24 10 25 11
REMARK SMILES IDX 26 12 27 13 28 14 29 15 30 16 14 17 13 18 12 19 11 20 10 21
REMARK SMILES IDX 9 22 8 23 7 24 6 25 5 26 4 27 3 28 2 29 1 30
REMARK H PARENT
REMARK Flexibility Score: inf
ROOT
ATOM      1  C   UNL     1     120.439  70.397  -0.211  1.00  0.00     0.000 C 
ENDROOT
BRANCH   1   2
ATOM      2  C   UNL     1     121.468  71.506   0.072  1.00  0.00     0.000 C 
BRANCH   2   3
ATOM      3  C   UNL     1     120.811  72.841   0.464  1.00  0.00     0.000 C 
BRANCH   3   4
ATOM      4  C   UNL     1     120.067  72.764   1.809  1.00  0.00     0.000 C 
BRANCH   4   5
ATOM      5  C   UNL     1     120.016  71.336   2.385  1.00  0.00     0.000 C 
BRANCH   5   6
ATOM      6  C   UNL     1     121.348  70.809   2.952  1.00  0.00     0.000 C 
BRANCH   6   7
ATOM      7  C   UNL     1     121.962  71.656   4.082  1.00  0.00     0.000 C 
BRANCH   7   8
ATOM      8  C   UNL     1     122.213  70.869   5.386  1.00  0.00     0.000 C 
BRANCH   8   9
ATOM      9  C   UNL     1     121.394  71.415   6.571  1.00  0.00     0.000 C 
BRANCH   9  10
ATOM     10  C   UNL     1     120.355  72.461   6.135  1.00  0.00     0.000 C 
BRANCH  10  11
ATOM     11  C   UNL     1     119.875  73.341   7.304  1.00  0.00     0.000 C 
BRANCH  11  12
ATOM     12  C   UNL     1     120.911  73.420   8.444  1.00  0.00     0.006 C 
BRANCH  12  13
ATOM     13  C   UNL     1     120.351  72.993   9.812  1.00  0.00     0.053 C 
BRANCH  13  14
ATOM     14  C   UNL     1     120.433  71.513  10.022  1.00  0.00     0.041 C 
ATOM     15  O   UNL     1     120.937  71.050  11.079  1.00  0.00    -0.550 OA
ATOM     16  O   UNL     1     119.977  70.645   9.038  1.00  0.00    -0.550 OA
ENDBRANCH  13  14
ENDBRANCH  12  13
ENDBRANCH  11  12
ENDBRANCH  10  11
ENDBRANCH   9  10
ENDBRANCH   8   9
ENDBRANCH   7   8
ENDBRANCH   6   7
ENDBRANCH   5   6
ENDBRANCH   4   5
ENDBRANCH   3   4
ENDBRANCH   2   3
ENDBRANCH   1   2
BRANCH   1  17
ATOM     17  C   UNL     1     120.712  69.652  -1.531  1.00  0.00     0.000 C 
BRANCH  17  18
ATOM     18  C   UNL     1     121.813  68.579  -1.461  1.00  0.00     0.000 C 
BRANCH  18  19
ATOM     19  C   UNL     1     121.286  67.164  -1.738  1.00  0.00     0.000 C 
BRANCH  19  20
ATOM     20  C   UNL     1     120.780  67.036  -3.184  1.00  0.00     0.000 C 
BRANCH  20  21
ATOM     21  C   UNL     1     119.875  65.807  -3.363  1.00  0.00     0.000 C 
BRANCH  21  22
ATOM     22  C   UNL     1     120.119  65.083  -4.707  1.00  0.00    -0.000 C 
BRANCH  22  23
ATOM     23  C   UNL     1     121.097  65.840  -5.618  1.00  0.00    -0.000 C 
BRANCH  23  24
ATOM     24  C   UNL     1     121.437  65.030  -6.883  1.00  0.00    -0.000 C 
BRANCH  24  25
ATOM     25  C   UNL     1     120.568  65.420  -8.092  1.00  0.00    -0.000 C 
BRANCH  25  26
ATOM     26  C   UNL     1     120.547  66.928  -8.400  1.00  0.00    -0.000 C 
BRANCH  26  27
ATOM     27  C   UNL     1     120.079  67.794  -7.206  1.00  0.00    -0.000 C 
BRANCH  27  28
ATOM     28  C   UNL     1     119.962  69.291  -7.554  1.00  0.00    -0.000 C 
BRANCH  28  29
ATOM     29  C   UNL     1     119.960  70.210  -6.318  1.00  0.00    -0.003 C 
ATOM     30  C   UNL     1     119.914  69.428  -5.006  1.00  0.00     0.004 C 
ENDBRANCH  28  29
ENDBRANCH  27  28
ENDBRANCH  26  27
ENDBRANCH  25  26
ENDBRANCH  24  25
ENDBRANCH  23  24
ENDBRANCH  22  23
ENDBRANCH  21  22
ENDBRANCH  20  21
ENDBRANCH  19  20
ENDBRANCH  18  19
ENDBRANCH  17  18
ENDBRANCH   1  17
TORSDOF 26
ENDMDL
MODEL 4
REMARK VINA RESULT:     1.203      4.539     13.057
REMARK INTER + INTRA:           4.532
REMARK INTER:                   4.016
REMARK INTRA:                   0.516
REMARK UNBOUND:                 1.500
REMARK SMILES CCCCCCCCCCCCCCCCCCCCCCCCCCCC(=O)[O-]
REMARK SMILES IDX 15 1 16 2 17 3 18 4 19 5 20 6 21 7 22 8 23 9 24 10 25 11
REMARK SMILES IDX 26 12 27 13 28 14 29 15 30 16 14 17 13 18 12 19 11 20 10 21
REMARK SMILES IDX 9 22 8 23 7 24 6 25 5 26 4 27 3 28 2 29 1 30
REMARK H PARENT
REMARK Flexibility Score: inf
ROOT
ATOM      1  C   UNL     1     121.671  70.749   0.991  1.00  0.00     0.000 C 
ENDROOT
BRANCH   1   2
ATOM      2  C   UNL     1     120.785  71.151  -0.200  1.00  0.00     0.000 C 
BRANCH   2   3
ATOM      3  C   UNL     1     120.406  69.955  -1.091  1.00  0.00     0.000 C 
BRANCH   3   4
ATOM      4  C   UNL     1     121.267  69.867  -2.363  1.00  0.00     0.000 C 
BRANCH   4   5
ATOM      5  C   UNL     1     120.466  69.415  -3.599  1.00  0.00     0.000 C 
BRANCH   5   6
ATOM      6  C   UNL     1     120.703  70.246  -4.875  1.00  0.00     0.000 C 
BRANCH   6   7
ATOM      7  C   UNL     1     121.236  69.456  -6.084  1.00  0.00     0.000 C 
BRANCH   7   8
ATOM      8  C   UNL     1     120.202  69.273  -7.216  1.00  0.00     0.000 C 
BRANCH   8   9
ATOM      9  C   UNL     1     120.797  68.570  -8.451  1.00  0.00     0.000 C 
BRANCH   9  10
ATOM     10  C   UNL     1     119.968  67.352  -8.891  1.00  0.00     0.000 C 
BRANCH  10  11
ATOM     11  C   UNL     1     120.084  66.173  -7.909  1.00  0.00     0.000 C 
BRANCH  11  12
ATOM     12  C   UNL     1     121.520  65.988  -7.377  1.00  0.00     0.006 C 
BRANCH  12  13
ATOM     13  C   UNL     1     121.630  64.936  -6.261  1.00  0.00     0.053 C 
BRANCH  13  14
ATOM     14  C   UNL     1     120.535  65.067  -5.248  1.00  0.00     0.041 C 
ATOM     15  O   UNL     1     119.926  64.045  -4.837  1.00  0.00    -0.550 OA
ATOM     16  O   UNL     1     120.171  66.322  -4.776  1.00  0.00    -0.550 OA
ENDBRANCH  13  14
ENDBRANCH  12  13
ENDBRANCH  11  12
ENDBRANCH  10  11
ENDBRANCH   9  10
ENDBRANCH   8   9
ENDBRANCH   7   8
ENDBRANCH   6   7
ENDBRANCH   5   6
ENDBRANCH   4   5
ENDBRANCH   3   4
ENDBRANCH   2   3
ENDBRANCH   1   2
BRANCH   1  17
ATOM     17  C   UNL     1     122.264  71.962   1.732  1.00  0.00     0.000 C 
BRANCH  17  18
ATOM     18  C   UNL     1     121.240  73.027   2.166  1.00  0.00     0.000 C 
BRANCH  18  19
ATOM     19  C   UNL     1     121.341  73.378   3.657  1.00  0.00     0.000 C 
BRANCH  19  20
ATOM     20  C   UNL     1     119.950  73.633   4.260  1.00  0.00     0.000 C 
BRANCH  20  21
ATOM     21  C   UNL     1     120.006  73.744   5.792  1.00  0.00     0.000 C 
BRANCH  21  22
ATOM     22  C   UNL     1     121.182  72.947   6.401  1.00  0.00    -0.000 C 
BRANCH  22  23
ATOM     23  C   UNL     1     121.407  71.598   5.703  1.00  0.00    -0.000 C 
BRANCH  23  24
ATOM     24  C   UNL     1     120.362  70.552   6.136  1.00  0.00    -0.000 C 
BRANCH  24  25
ATOM     25  C   UNL     1     120.128  70.539   7.657  1.00  0.00    -0.000 C 
BRANCH  25  26
ATOM     26  C   UNL     1     121.105  71.419   8.458  1.00  0.00    -0.000 C 
BRANCH  26  27
ATOM     27  C   UNL     1     120.519  71.927   9.797  1.00  0.00    -0.000 C 
BRANCH  27  28
ATOM     28  C   UNL     1     120.026  73.386   9.726  1.00  0.00    -0.000 C 
BRANCH  28  29
ATOM     29  C   UNL     1     120.724  74.319  10.733  1.00  0.00    -0.003 C 
ATOM     30  C   UNL     1     119.988  75.646  10.911  1.00  0.00     0.004 C 
ENDBRANCH  28  29
ENDBRANCH  27  28
ENDBRANCH  26  27
ENDBRANCH  25  26
ENDBRANCH  24  25
ENDBRANCH  23  24
ENDBRANCH  22  23
ENDBRANCH  21  22
ENDBRANCH  20  21
ENDBRANCH  19  20
ENDBRANCH  18  19
ENDBRANCH  17  18
ENDBRANCH   1  17
TORSDOF 26
ENDMDL
MODEL 5
REMARK VINA RESULT:     1.431      5.493     13.449
REMARK INTER + INTRA:           5.107
REMARK INTER:                   5.861
REMARK INTRA:                  -0.754
REMARK UNBOUND:                 1.500
REMARK SMILES CCCCCCCCCCCCCCCCCCCCCCCCCCCC(=O)[O-]
REMARK SMILES IDX 15 1 16 2 17 3 18 4 19 5 20 6 21 7 22 8 23 9 24 10 25 11
REMARK SMILES IDX 26 12 27 13 28 14 29 15 30 16 14 17 13 18 12 19 11 20 10 21
REMARK SMILES IDX 9 22 8 23 7 24 6 25 5 26 4 27 3 28 2 29 1 30
REMARK H PARENT
REMARK Flexibility Score: inf
ROOT
ATOM      1  C   UNL     1     121.316  71.490  -0.296  1.00  0.00     0.000 C 
ENDROOT
BRANCH   1   2
ATOM      2  C   UNL     1     120.657  70.331  -1.063  1.00  0.00     0.000 C 
BRANCH   2   3
ATOM      3  C   UNL     1     120.303  69.142  -0.153  1.00  0.00     0.000 C 
BRANCH   3   4
ATOM      4  C   UNL     1     120.156  67.822  -0.932  1.00  0.00     0.000 C 
BRANCH   4   5
ATOM      5  C   UNL     1     120.059  68.033  -2.455  1.00  0.00     0.000 C 
BRANCH   5   6
ATOM      6  C   UNL     1     120.874  67.042  -3.308  1.00  0.00     0.000 C 
BRANCH   6   7
ATOM      7  C   UNL     1     120.166  65.711  -3.625  1.00  0.00     0.000 C 
BRANCH   7   8
ATOM      8  C   UNL     1     120.820  64.913  -4.773  1.00  0.00     0.000 C 
BRANCH   8   9
ATOM      9  C   UNL     1     120.519  65.518  -6.157  1.00  0.00     0.000 C 
BRANCH   9  10
ATOM     10  C   UNL     1     120.296  67.038  -6.099  1.00  0.00     0.000 C 
BRANCH  10  11
ATOM     11  C   UNL     1     120.044  67.652  -7.488  1.00  0.00     0.000 C 
BRANCH  11  12
ATOM     12  C   UNL     1     120.419  66.690  -8.633  1.00  0.00     0.006 C 
BRANCH  12  13
ATOM     13  C   UNL     1     121.914  66.720  -8.994  1.00  0.00     0.053 C 
BRANCH  13  14
ATOM     14  C   UNL     1     122.599  65.425  -8.685  1.00  0.00     0.041 C 
ATOM     15  O   UNL     1     123.754  65.423  -8.183  1.00  0.00    -0.550 OA
ATOM     16  O   UNL     1     121.971  64.220  -8.975  1.00  0.00    -0.550 OA
ENDBRANCH  13  14
ENDBRANCH  12  13
ENDBRANCH  11  12
ENDBRANCH  10  11
ENDBRANCH   9  10
ENDBRANCH   8   9
ENDBRANCH   7   8
ENDBRANCH   6   7
ENDBRANCH   5   6
ENDBRANCH   4   5
ENDBRANCH   3   4
ENDBRANCH   2   3
ENDBRANCH   1   2
BRANCH   1  17
ATOM     17  C   UNL     1     120.310  72.297   0.547  1.00  0.00     0.000 C 
BRANCH  17  18
ATOM     18  C   UNL     1     120.834  72.771   1.914  1.00  0.00     0.000 C 
BRANCH  18  19
ATOM     19  C   UNL     1     121.931  71.860   2.482  1.00  0.00     0.000 C 
BRANCH  19  20
ATOM     20  C   UNL     1     121.685  71.559   3.968  1.00  0.00     0.000 C 
BRANCH  20  21
ATOM     21  C   UNL     1     120.231  71.137   4.230  1.00  0.00     0.000 C 
BRANCH  21  22
ATOM     22  C   UNL     1     119.918  70.992   5.737  1.00  0.00    -0.000 C 
BRANCH  22  23
ATOM     23  C   UNL     1     119.879  69.527   6.196  1.00  0.00    -0.000 C 
BRANCH  23  24
ATOM     24  C   UNL     1     120.517  69.351   7.586  1.00  0.00    -0.000 C 
BRANCH  24  25
ATOM     25  C   UNL     1     120.725  70.687   8.320  1.00  0.00    -0.000 C 
BRANCH  25  26
ATOM     26  C   UNL     1     120.869  70.558   9.848  1.00  0.00    -0.000 C 
BRANCH  26  27
ATOM     27  C   UNL     1     120.215  71.724  10.628  1.00  0.00    -0.000 C 
BRANCH  27  28
ATOM     28  C   UNL     1     119.897  72.942   9.739  1.00  0.00    -0.000 C 
BRANCH  28  29
ATOM     29  C   UNL     1     120.758  74.178  10.062  1.00  0.00    -0.003 C 
ATOM     30  C   UNL     1     119.988  75.241  10.844  1.00  0.00     0.004 C 
ENDBRANCH  28  29
ENDBRANCH  27  28
ENDBRANCH  26  27
ENDBRANCH  25  26
ENDBRANCH  24  25
ENDBRANCH  23  24
ENDBRANCH  22  23
ENDBRANCH  21  22
ENDBRANCH  20  21
ENDBRANCH  19  20
ENDBRANCH  18  19
ENDBRANCH  17  18
ENDBRANCH   1  17
TORSDOF 26
ENDMDL
MODEL 6
REMARK VINA RESULT:     1.683      4.141     12.425
REMARK INTER + INTRA:           5.740
REMARK INTER:                   4.481
REMARK INTRA:                   1.259
REMARK UNBOUND:                 1.500
REMARK SMILES CCCCCCCCCCCCCCCCCCCCCCCCCCCC(=O)[O-]
REMARK SMILES IDX 15 1 16 2 17 3 18 4 19 5 20 6 21 7 22 8 23 9 24 10 25 11
REMARK SMILES IDX 26 12 27 13 28 14 29 15 30 16 14 17 13 18 12 19 11 20 10 21
REMARK SMILES IDX 9 22 8 23 7 24 6 25 5 26 4 27 3 28 2 29 1 30
REMARK H PARENT
REMARK Flexibility Score: inf
ROOT
ATOM      1  C   UNL     1     121.314  71.488  -0.294  1.00  0.00     0.000 C 
ENDROOT
BRANCH   1   2
ATOM      2  C   UNL     1     120.655  70.318  -1.045  1.00  0.00     0.000 C 
BRANCH   2   3
ATOM      3  C   UNL     1     120.353  69.119  -0.128  1.00  0.00     0.000 C 
BRANCH   3   4
ATOM      4  C   UNL     1     120.207  67.800  -0.907  1.00  0.00     0.000 C 
BRANCH   4   5
ATOM      5  C   UNL     1     120.058  68.013  -2.425  1.00  0.00     0.000 C 
BRANCH   5   6
ATOM      6  C   UNL     1     120.863  67.038  -3.307  1.00  0.00     0.000 C 
BRANCH   6   7
ATOM      7  C   UNL     1     120.170  65.694  -3.602  1.00  0.00     0.000 C 
BRANCH   7   8
ATOM      8  C   UNL     1     120.801  64.910  -4.772  1.00  0.00     0.000 C 
BRANCH   8   9
ATOM      9  C   UNL     1     120.442  65.508  -6.145  1.00  0.00     0.000 C 
BRANCH   9  10
ATOM     10  C   UNL     1     120.189  67.023  -6.079  1.00  0.00     0.000 C 
BRANCH  10  11
ATOM     11  C   UNL     1     119.878  67.632  -7.458  1.00  0.00     0.000 C 
BRANCH  11  12
ATOM     12  C   UNL     1     120.642  68.948  -7.706  1.00  0.00     0.006 C 
BRANCH  12  13
ATOM     13  C   UNL     1     119.947  70.183  -7.107  1.00  0.00     0.053 C 
BRANCH  13  14
ATOM     14  C   UNL     1     120.476  70.530  -5.750  1.00  0.00     0.041 C 
ATOM     15  O   UNL     1     121.443  71.327  -5.632  1.00  0.00    -0.550 OA
ATOM     16  O   UNL     1     119.917  69.952  -4.617  1.00  0.00    -0.550 OA
ENDBRANCH  13  14
ENDBRANCH  12  13
ENDBRANCH  11  12
ENDBRANCH  10  11
ENDBRANCH   9  10
ENDBRANCH   8   9
ENDBRANCH   7   8
ENDBRANCH   6   7
ENDBRANCH   5   6
ENDBRANCH   4   5
ENDBRANCH   3   4
ENDBRANCH   2   3
ENDBRANCH   1   2
BRANCH   1  17
ATOM     17  C   UNL     1     120.309  72.306   0.537  1.00  0.00     0.000 C 
BRANCH  17  18
ATOM     18  C   UNL     1     120.833  72.801   1.897  1.00  0.00     0.000 C 
BRANCH  18  19
ATOM     19  C   UNL     1     121.930  71.898   2.478  1.00  0.00     0.000 C 
BRANCH  19  20
ATOM     20  C   UNL     1     121.684  71.619   3.970  1.00  0.00     0.000 C 
BRANCH  20  21
ATOM     21  C   UNL     1     120.229  71.203   4.239  1.00  0.00     0.000 C 
BRANCH  21  22
ATOM     22  C   UNL     1     119.913  71.096   5.748  1.00  0.00    -0.000 C 
BRANCH  22  23
ATOM     23  C   UNL     1     119.875  69.643   6.244  1.00  0.00    -0.000 C 
BRANCH  23  24
ATOM     24  C   UNL     1     120.507  69.504   7.642  1.00  0.00    -0.000 C 
BRANCH  24  25
ATOM     25  C   UNL     1     120.709  70.860   8.342  1.00  0.00    -0.000 C 
BRANCH  25  26
ATOM     26  C   UNL     1     120.843  70.771   9.873  1.00  0.00    -0.000 C 
BRANCH  26  27
ATOM     27  C   UNL     1     120.186  71.957  10.618  1.00  0.00    -0.000 C 
BRANCH  27  28
ATOM     28  C   UNL     1     119.875  73.153   9.697  1.00  0.00    -0.000 C 
BRANCH  28  29
ATOM     29  C   UNL     1     120.586  73.076   8.333  1.00  0.00    -0.003 C 
ATOM     30  C   UNL     1     120.320  74.303   7.463  1.00  0.00     0.004 C 
ENDBRANCH  28  29
ENDBRANCH  27  28
ENDBRANCH  26  27
ENDBRANCH  25  26
ENDBRANCH  24  25
ENDBRANCH  23  24
ENDBRANCH  22  23
ENDBRANCH  21  22
ENDBRANCH  20  21
ENDBRANCH  19  20
ENDBRANCH  18  19
ENDBRANCH  17  18
ENDBRANCH   1  17
TORSDOF 26
ENDMDL
