MODEL 1
REMARK VINA RESULT:    -5.668      0.000      0.000
REMARK INTER + INTRA:         -19.150
REMARK INTER:                 -14.946
REMARK INTRA:                  -4.204
REMARK UNBOUND:                -4.204
REMARK SMILES CCCCCCCCCCCCCCCCCCCCCCCCCCCCCC(=O)[O-]
REMARK SMILES IDX 16 1 17 2 18 3 19 4 20 5 21 6 22 7 23 8 24 9 25 10 26 11
REMARK SMILES IDX 27 12 28 13 29 14 30 15 31 16 32 17 15 18 14 19 13 20 12 21
REMARK SMILES IDX 11 22 10 23 9 24 8 25 7 26 6 27 5 28 4 29 3 30 2 31 1 32
REMARK H PARENT
REMARK Flexibility Score: inf
ROOT
ATOM      1  C   UNL     1       1.754  11.610  25.813  1.00  0.00     0.000 C 
ENDROOT
BRANCH   1   2
ATOM      2  C   UNL     1       1.457  10.253  25.150  1.00  0.00     0.000 C 
BRANCH   2   3
ATOM      3  C   UNL     1      -0.043   9.912  25.132  1.00  0.00     0.000 C 
BRANCH   3   4
ATOM      4  C   UNL     1      -0.523   9.132  23.893  1.00  0.00     0.000 C 
BRANCH   4   5
ATOM      5  C   UNL     1      -1.756   8.241  24.155  1.00  0.00     0.000 C 
BRANCH   5   6
ATOM      6  C   UNL     1      -2.510   7.897  22.859  1.00  0.00     0.000 C 
BRANCH   6   7
ATOM      7  C   UNL     1      -1.852   8.505  21.610  1.00  0.00     0.000 C 
BRANCH   7   8
ATOM      8  C   UNL     1      -2.872   9.167  20.670  1.00  0.00     0.000 C 
BRANCH   8   9
ATOM      9  C   UNL     1      -3.778  10.133  21.443  1.00  0.00     0.000 C 
BRANCH   9  10
ATOM     10  C   UNL     1      -3.006  11.389  21.875  1.00  0.00     0.000 C 
BRANCH  10  11
ATOM     11  C   UNL     1      -3.315  11.799  23.323  1.00  0.00     0.000 C 
BRANCH  11  12
ATOM     12  C   UNL     1      -4.458  10.970  23.939  1.00  0.00     0.000 C 
BRANCH  12  13
ATOM     13  C   UNL     1      -4.188  10.576  25.401  1.00  0.00     0.006 C 
BRANCH  13  14
ATOM     14  C   UNL     1      -3.093  11.410  26.087  1.00  0.00     0.053 C 
BRANCH  14  15
ATOM     15  C   UNL     1      -2.911  11.020  27.524  1.00  0.00     0.041 C 
ATOM     16  O   UNL     1      -3.170  11.842  28.441  1.00  0.00    -0.550 OA
ATOM     17  O   UNL     1      -2.489   9.738  27.850  1.00  0.00    -0.550 OA
ENDBRANCH  14  15
ENDBRANCH  13  14
ENDBRANCH  12  13
ENDBRANCH  11  12
ENDBRANCH  10  11
ENDBRANCH   9  10
ENDBRANCH   8   9
ENDBRANCH   7   8
ENDBRANCH   6   7
ENDBRANCH   5   6
ENDBRANCH   4   5
ENDBRANCH   3   4
ENDBRANCH   2   3
ENDBRANCH   1   2
BRANCH   1  18
ATOM     18  C   UNL     1       0.499  12.250  26.429  1.00  0.00     0.000 C 
BRANCH  18  19
ATOM     19  C   UNL     1       0.334  13.725  26.032  1.00  0.00     0.000 C 
BRANCH  19  20
ATOM     20  C   UNL     1       1.577  14.242  25.295  1.00  0.00     0.000 C 
BRANCH  20  21
ATOM     21  C   UNL     1       2.024  15.632  25.776  1.00  0.00     0.000 C 
BRANCH  21  22
ATOM     22  C   UNL     1       1.820  16.750  24.730  1.00  0.00     0.000 C 
BRANCH  22  23
ATOM     23  C   UNL     1       2.653  16.516  23.458  1.00  0.00     0.000 C 
BRANCH  23  24
ATOM     24  C   UNL     1       4.002  17.252  23.492  1.00  0.00    -0.000 C 
BRANCH  24  25
ATOM     25  C   UNL     1       3.987  18.462  24.443  1.00  0.00    -0.000 C 
BRANCH  25  26
ATOM     26  C   UNL     1       4.583  19.723  23.797  1.00  0.00    -0.000 C 
BRANCH  26  27
ATOM     27  C   UNL     1       4.581  19.656  22.261  1.00  0.00    -0.000 C 
BRANCH  27  28
ATOM     28  C   UNL     1       3.822  20.849  21.664  1.00  0.00    -0.000 C 
BRANCH  28  29
ATOM     29  C   UNL     1       2.580  21.238  22.482  1.00  0.00    -0.000 C 
BRANCH  29  30
ATOM     30  C   UNL     1       1.309  20.454  22.090  1.00  0.00    -0.000 C 
BRANCH  30  31
ATOM     31  C   UNL     1       0.585  19.877  23.315  1.00  0.00    -0.003 C 
ATOM     32  C   UNL     1      -0.591  19.001  22.896  1.00  0.00     0.004 C 
ENDBRANCH  30  31
ENDBRANCH  29  30
ENDBRANCH  28  29
ENDBRANCH  27  28
ENDBRANCH  26  27
ENDBRANCH  25  26
ENDBRANCH  24  25
ENDBRANCH  23  24
ENDBRANCH  22  23
ENDBRANCH  21  22
ENDBRANCH  20  21
ENDBRANCH  19  20
ENDBRANCH  18  19
ENDBRANCH   1  18
TORSDOF 28
ENDMDL
MODEL 2
REMARK VINA RESULT:    -5.543      2.438     10.136
REMARK INTER + INTRA:         -18.820
REMARK INTER:                 -15.038
REMARK INTRA:                  -3.782
REMARK UNBOUND:                -4.204
REMARK SMILES CCCCCCCCCCCCCCCCCCCCCCCCCCCCCC(=O)[O-]
REMARK SMILES IDX 16 1 17 2 18 3 19 4 20 5 21 6 22 7 23 8 24 9 25 10 26 11
REMARK SMILES IDX 27 12 28 13 29 14 30 15 31 16 32 17 15 18 14 19 13 20 12 21
REMARK SMILES IDX 11 22 10 23 9 24 8 25 7 26 6 27 5 28 4 29 3 30 2 31 1 32
REMARK H PARENT
REMARK Flexibility Score: inf
ROOT
ATOM      1  C   UNL     1       1.071  13.386  25.734  1.00  0.00     0.000 C 
ENDROOT
BRANCH   1   2
ATOM      2  C   UNL     1       0.982  14.857  25.288  1.00  0.00     0.000 C 
BRANCH   2   3
ATOM      3  C   UNL     1       1.952  15.774  26.053  1.00  0.00     0.000 C 
BRANCH   3   4
ATOM      4  C   UNL     1       2.622  16.872  25.205  1.00  0.00     0.000 C 
BRANCH   4   5
ATOM      5  C   UNL     1       3.118  16.382  23.828  1.00  0.00     0.000 C 
BRANCH   5   6
ATOM      6  C   UNL     1       4.199  17.304  23.239  1.00  0.00     0.000 C 
BRANCH   6   7
ATOM      7  C   UNL     1       4.426  18.569  24.082  1.00  0.00     0.000 C 
BRANCH   7   8
ATOM      8  C   UNL     1       5.059  19.712  23.273  1.00  0.00     0.000 C 
BRANCH   8   9
ATOM      9  C   UNL     1       4.496  19.747  21.848  1.00  0.00     0.000 C 
BRANCH   9  10
ATOM     10  C   UNL     1       4.318  21.193  21.361  1.00  0.00     0.000 C 
BRANCH  10  11
ATOM     11  C   UNL     1       2.912  21.742  21.651  1.00  0.00     0.000 C 
BRANCH  11  12
ATOM     12  C   UNL     1       1.922  20.636  22.063  1.00  0.00     0.000 C 
BRANCH  12  13
ATOM     13  C   UNL     1       1.184  20.955  23.374  1.00  0.00     0.006 C 
BRANCH  13  14
ATOM     14  C   UNL     1       0.573  19.727  24.070  1.00  0.00     0.053 C 
BRANCH  14  15
ATOM     15  C   UNL     1      -0.083  18.799  23.092  1.00  0.00     0.041 C 
ATOM     16  O   UNL     1       0.288  17.600  23.011  1.00  0.00    -0.550 OA
ATOM     17  O   UNL     1      -1.126  19.252  22.295  1.00  0.00    -0.550 OA
ENDBRANCH  14  15
ENDBRANCH  13  14
ENDBRANCH  12  13
ENDBRANCH  11  12
ENDBRANCH  10  11
ENDBRANCH   9  10
ENDBRANCH   8   9
ENDBRANCH   7   8
ENDBRANCH   6   7
ENDBRANCH   5   6
ENDBRANCH   4   5
ENDBRANCH   3   4
ENDBRANCH   2   3
ENDBRANCH   1   2
BRANCH   1  18
ATOM     18  C   UNL     1       0.031  13.035  26.811  1.00  0.00     0.000 C 
BRANCH  18  19
ATOM     19  C   UNL     1      -1.406  13.346  26.367  1.00  0.00     0.000 C 
BRANCH  19  20
ATOM     20  C   UNL     1      -1.797  12.518  25.136  1.00  0.00     0.000 C 
BRANCH  20  21
ATOM     21  C   UNL     1      -2.853  11.444  25.447  1.00  0.00     0.000 C 
BRANCH  21  22
ATOM     22  C   UNL     1      -3.785  11.122  24.259  1.00  0.00     0.000 C 
BRANCH  22  23
ATOM     23  C   UNL     1      -3.518  12.032  23.047  1.00  0.00     0.000 C 
BRANCH  23  24
ATOM     24  C   UNL     1      -2.973  11.257  21.837  1.00  0.00    -0.000 C 
BRANCH  24  25
ATOM     25  C   UNL     1      -3.808  10.004  21.516  1.00  0.00    -0.000 C 
BRANCH  25  26
ATOM     26  C   UNL     1      -2.975   8.902  20.841  1.00  0.00    -0.000 C 
BRANCH  26  27
ATOM     27  C   UNL     1      -1.811   8.420  21.721  1.00  0.00    -0.000 C 
BRANCH  27  28
ATOM     28  C   UNL     1      -2.335   7.801  23.025  1.00  0.00    -0.000 C 
BRANCH  28  29
ATOM     29  C   UNL     1      -1.589   8.305  24.270  1.00  0.00    -0.000 C 
BRANCH  29  30
ATOM     30  C   UNL     1      -0.375   9.201  23.945  1.00  0.00    -0.000 C 
BRANCH  30  31
ATOM     31  C   UNL     1       0.378   9.636  25.210  1.00  0.00    -0.003 C 
ATOM     32  C   UNL     1       1.888   9.613  24.987  1.00  0.00     0.004 C 
ENDBRANCH  30  31
ENDBRANCH  29  30
ENDBRANCH  28  29
ENDBRANCH  27  28
ENDBRANCH  26  27
ENDBRANCH  25  26
ENDBRANCH  24  25
ENDBRANCH  23  24
ENDBRANCH  22  23
ENDBRANCH  21  22
ENDBRANCH  20  21
ENDBRANCH  19  20
ENDBRANCH  18  19
ENDBRANCH   1  18
TORSDOF 28
ENDMDL
MODEL 3
REMARK VINA RESULT:    -5.447      2.241      4.018
REMARK INTER + INTRA:         -18.567
REMARK INTER:                 -14.989
REMARK INTRA:                  -3.578
REMARK UNBOUND:                -4.204
REMARK SMILES CCCCCCCCCCCCCCCCCCCCCCCCCCCCCC(=O)[O-]
REMARK SMILES IDX 16 1 17 2 18 3 19 4 20 5 21 6 22 7 23 8 24 9 25 10 26 11
REMARK SMILES IDX 27 12 28 13 29 14 30 15 31 16 32 17 15 18 14 19 13 20 12 21
REMARK SMILES IDX 11 22 10 23 9 24 8 25 7 26 6 27 5 28 4 29 3 30 2 31 1 32
REMARK H PARENT
REMARK Flexibility Score: inf
ROOT
ATOM      1  C   UNL     1      -2.105  12.380  25.499  1.00  0.00     0.000 C 
ENDROOT
BRANCH   1   2
ATOM      2  C   UNL     1      -3.257  11.362  25.405  1.00  0.00     0.000 C 
BRANCH   2   3
ATOM      3  C   UNL     1      -3.863  11.273  23.994  1.00  0.00     0.000 C 
BRANCH   3   4
ATOM      4  C   UNL     1      -2.927  11.706  22.850  1.00  0.00     0.000 C 
BRANCH   4   5
ATOM      5  C   UNL     1      -3.316  11.129  21.472  1.00  0.00     0.000 C 
BRANCH   5   6
ATOM      6  C   UNL     1      -3.337   9.591  21.472  1.00  0.00     0.000 C 
BRANCH   6   7
ATOM      7  C   UNL     1      -2.077   8.979  22.104  1.00  0.00     0.000 C 
BRANCH   7   8
ATOM      8  C   UNL     1      -2.406   7.949  23.196  1.00  0.00     0.000 C 
BRANCH   8   9
ATOM      9  C   UNL     1      -1.568   8.203  24.455  1.00  0.00     0.000 C 
BRANCH   9  10
ATOM     10  C   UNL     1      -0.481   9.256  24.192  1.00  0.00     0.000 C 
BRANCH  10  11
ATOM     11  C   UNL     1       0.321   9.601  25.456  1.00  0.00     0.000 C 
BRANCH  11  12
ATOM     12  C   UNL     1       1.594  10.409  25.144  1.00  0.00     0.000 C 
BRANCH  12  13
ATOM     13  C   UNL     1       2.828   9.895  25.904  1.00  0.00     0.006 C 
BRANCH  13  14
ATOM     14  C   UNL     1       2.708   8.442  26.394  1.00  0.00     0.053 C 
BRANCH  14  15
ATOM     15  C   UNL     1       4.051   7.803  26.587  1.00  0.00     0.041 C 
ATOM     16  O   UNL     1       4.820   7.637  25.605  1.00  0.00    -0.550 OA
ATOM     17  O   UNL     1       4.465   7.423  27.857  1.00  0.00    -0.550 OA
ENDBRANCH  14  15
ENDBRANCH  13  14
ENDBRANCH  12  13
ENDBRANCH  11  12
ENDBRANCH  10  11
ENDBRANCH   9  10
ENDBRANCH   8   9
ENDBRANCH   7   8
ENDBRANCH   6   7
ENDBRANCH   5   6
ENDBRANCH   4   5
ENDBRANCH   3   4
ENDBRANCH   2   3
ENDBRANCH   1   2
BRANCH   1  18
ATOM     18  C   UNL     1      -1.536  12.494  26.923  1.00  0.00     0.000 C 
BRANCH  18  19
ATOM     19  C   UNL     1      -0.212  13.270  26.968  1.00  0.00     0.000 C 
BRANCH  19  20
ATOM     20  C   UNL     1       0.181  13.776  25.574  1.00  0.00     0.000 C 
BRANCH  20  21
ATOM     21  C   UNL     1       1.267  14.864  25.615  1.00  0.00     0.000 C 
BRANCH  21  22
ATOM     22  C   UNL     1       2.493  14.556  24.729  1.00  0.00     0.000 C 
BRANCH  22  23
ATOM     23  C   UNL     1       2.674  15.592  23.605  1.00  0.00     0.000 C 
BRANCH  23  24
ATOM     24  C   UNL     1       3.178  16.947  24.127  1.00  0.00    -0.000 C 
BRANCH  24  25
ATOM     25  C   UNL     1       4.550  17.329  23.545  1.00  0.00    -0.000 C 
BRANCH  25  26
ATOM     26  C   UNL     1       4.910  18.800  23.808  1.00  0.00    -0.000 C 
BRANCH  26  27
ATOM     27  C   UNL     1       4.729  19.683  22.564  1.00  0.00    -0.000 C 
BRANCH  27  28
ATOM     28  C   UNL     1       4.022  20.997  22.926  1.00  0.00    -0.000 C 
BRANCH  28  29
ATOM     29  C   UNL     1       2.666  20.777  23.616  1.00  0.00    -0.000 C 
BRANCH  29  30
ATOM     30  C   UNL     1       1.545  20.337  22.651  1.00  0.00    -0.000 C 
BRANCH  30  31
ATOM     31  C   UNL     1       0.289  19.868  23.400  1.00  0.00    -0.003 C 
ATOM     32  C   UNL     1      -0.588  18.992  22.509  1.00  0.00     0.004 C 
ENDBRANCH  30  31
ENDBRANCH  29  30
ENDBRANCH  28  29
ENDBRANCH  27  28
ENDBRANCH  26  27
ENDBRANCH  25  26
ENDBRANCH  24  25
ENDBRANCH  23  24
ENDBRANCH  22  23
ENDBRANCH  21  22
ENDBRANCH  20  21
ENDBRANCH  19  20
ENDBRANCH  18  19
ENDBRANCH   1  18
TORSDOF 28
ENDMDL
MODEL 4
REMARK VINA RESULT:    -5.354      3.497      9.879
REMARK INTER + INTRA:         -18.322
REMARK INTER:                 -14.835
REMARK INTRA:                  -3.487
REMARK UNBOUND:                -4.204
REMARK SMILES CCCCCCCCCCCCCCCCCCCCCCCCCCCCCC(=O)[O-]
REMARK SMILES IDX 16 1 17 2 18 3 19 4 20 5 21 6 22 7 23 8 24 9 25 10 26 11
REMARK SMILES IDX 27 12 28 13 29 14 30 15 31 16 32 17 15 18 14 19 13 20 12 21
REMARK SMILES IDX 11 22 10 23 9 24 8 25 7 26 6 27 5 28 4 29 3 30 2 31 1 32
REMARK H PARENT
REMARK Flexibility Score: inf
ROOT
ATOM      1  C   UNL     1      -2.709  11.773  25.337  1.00  0.00     0.000 C 
ENDROOT
BRANCH   1   2
ATOM      2  C   UNL     1      -1.855  12.980  25.764  1.00  0.00     0.000 C 
BRANCH   2   3
ATOM      3  C   UNL     1      -0.876  12.647  26.903  1.00  0.00     0.000 C 
BRANCH   3   4
ATOM      4  C   UNL     1       0.526  13.270  26.766  1.00  0.00     0.000 C 
BRANCH   4   5
ATOM      5  C   UNL     1       0.657  14.261  25.591  1.00  0.00     0.000 C 
BRANCH   5   6
ATOM      6  C   UNL     1       2.010  14.134  24.871  1.00  0.00     0.000 C 
BRANCH   6   7
ATOM      7  C   UNL     1       2.455  15.445  24.204  1.00  0.00     0.000 C 
BRANCH   7   8
ATOM      8  C   UNL     1       2.470  16.629  25.184  1.00  0.00     0.000 C 
BRANCH   8   9
ATOM      9  C   UNL     1       1.698  17.822  24.609  1.00  0.00     0.000 C 
BRANCH   9  10
ATOM     10  C   UNL     1       0.761  17.378  23.475  1.00  0.00     0.000 C 
BRANCH  10  11
ATOM     11  C   UNL     1      -0.010  18.554  22.856  1.00  0.00     0.000 C 
BRANCH  11  12
ATOM     12  C   UNL     1       0.509  19.920  23.343  1.00  0.00     0.000 C 
BRANCH  12  13
ATOM     13  C   UNL     1       1.462  20.589  22.337  1.00  0.00     0.006 C 
BRANCH  13  14
ATOM     14  C   UNL     1       2.878  20.843  22.881  1.00  0.00     0.053 C 
BRANCH  14  15
ATOM     15  C   UNL     1       3.919  20.096  22.102  1.00  0.00     0.041 C 
ATOM     16  O   UNL     1       4.061  20.307  20.870  1.00  0.00    -0.550 OA
ATOM     17  O   UNL     1       4.755  19.192  22.746  1.00  0.00    -0.550 OA
ENDBRANCH  14  15
ENDBRANCH  13  14
ENDBRANCH  12  13
ENDBRANCH  11  12
ENDBRANCH  10  11
ENDBRANCH   9  10
ENDBRANCH   8   9
ENDBRANCH   7   8
ENDBRANCH   6   7
ENDBRANCH   5   6
ENDBRANCH   4   5
ENDBRANCH   3   4
ENDBRANCH   2   3
ENDBRANCH   1   2
BRANCH   1  18
ATOM     18  C   UNL     1      -2.971  11.745  23.821  1.00  0.00     0.000 C 
BRANCH  18  19
ATOM     19  C   UNL     1      -4.448  11.494  23.483  1.00  0.00     0.000 C 
BRANCH  19  20
ATOM     20  C   UNL     1      -4.609  11.007  22.036  1.00  0.00     0.000 C 
BRANCH  20  21
ATOM     21  C   UNL     1      -3.263  10.766  21.332  1.00  0.00     0.000 C 
BRANCH  21  22
ATOM     22  C   UNL     1      -3.141   9.373  20.679  1.00  0.00     0.000 C 
BRANCH  22  23
ATOM     23  C   UNL     1      -2.098   8.488  21.385  1.00  0.00     0.000 C 
BRANCH  23  24
ATOM     24  C   UNL     1      -2.646   7.838  22.665  1.00  0.00    -0.000 C 
BRANCH  24  25
ATOM     25  C   UNL     1      -1.888   8.290  23.925  1.00  0.00    -0.000 C 
BRANCH  25  26
ATOM     26  C   UNL     1      -0.624   9.099  23.591  1.00  0.00    -0.000 C 
BRANCH  26  27
ATOM     27  C   UNL     1       0.051   9.683  24.842  1.00  0.00    -0.000 C 
BRANCH  27  28
ATOM     28  C   UNL     1       1.557   9.383  24.838  1.00  0.00    -0.000 C 
BRANCH  28  29
ATOM     29  C   UNL     1       2.350  10.285  25.795  1.00  0.00    -0.000 C 
BRANCH  29  30
ATOM     30  C   UNL     1       3.526   9.567  26.492  1.00  0.00    -0.000 C 
BRANCH  30  31
ATOM     31  C   UNL     1       3.397   8.039  26.417  1.00  0.00    -0.003 C 
ATOM     32  C   UNL     1       4.768   7.376  26.309  1.00  0.00     0.004 C 
ENDBRANCH  30  31
ENDBRANCH  29  30
ENDBRANCH  28  29
ENDBRANCH  27  28
ENDBRANCH  26  27
ENDBRANCH  25  26
ENDBRANCH  24  25
ENDBRANCH  23  24
ENDBRANCH  22  23
ENDBRANCH  21  22
ENDBRANCH  20  21
ENDBRANCH  19  20
ENDBRANCH  18  19
ENDBRANCH   1  18
TORSDOF 28
ENDMDL
MODEL 5
REMARK VINA RESULT:    -5.296      2.628      9.932
REMARK INTER + INTRA:         -18.169
REMARK INTER:                 -14.397
REMARK INTRA:                  -3.772
REMARK UNBOUND:                -4.204
REMARK SMILES CCCCCCCCCCCCCCCCCCCCCCCCCCCCCC(=O)[O-]
REMARK SMILES IDX 16 1 17 2 18 3 19 4 20 5 21 6 22 7 23 8 24 9 25 10 26 11
REMARK SMILES IDX 27 12 28 13 29 14 30 15 31 16 32 17 15 18 14 19 13 20 12 21
REMARK SMILES IDX 11 22 10 23 9 24 8 25 7 26 6 27 5 28 4 29 3 30 2 31 1 32
REMARK H PARENT
REMARK Flexibility Score: inf
ROOT
ATOM      1  C   UNL     1       1.116  10.780  25.490  1.00  0.00     0.000 C 
ENDROOT
BRANCH   1   2
ATOM      2  C   UNL     1       0.609  11.790  26.535  1.00  0.00     0.000 C 
BRANCH   2   3
ATOM      3  C   UNL     1       0.024  13.064  25.901  1.00  0.00     0.000 C 
BRANCH   3   4
ATOM      4  C   UNL     1       0.820  14.355  26.169  1.00  0.00     0.000 C 
BRANCH   4   5
ATOM      5  C   UNL     1       1.681  14.818  24.975  1.00  0.00     0.000 C 
BRANCH   5   6
ATOM      6  C   UNL     1       2.198  16.256  25.155  1.00  0.00     0.000 C 
BRANCH   6   7
ATOM      7  C   UNL     1       2.570  16.924  23.822  1.00  0.00     0.000 C 
BRANCH   7   8
ATOM      8  C   UNL     1       4.089  17.077  23.643  1.00  0.00     0.000 C 
BRANCH   8   9
ATOM      9  C   UNL     1       4.433  18.454  23.063  1.00  0.00     0.000 C 
BRANCH   9  10
ATOM     10  C   UNL     1       4.770  19.455  24.178  1.00  0.00     0.000 C 
BRANCH  10  11
ATOM     11  C   UNL     1       3.598  20.396  24.496  1.00  0.00     0.000 C 
BRANCH  11  12
ATOM     12  C   UNL     1       3.295  21.370  23.342  1.00  0.00     0.000 C 
BRANCH  12  13
ATOM     13  C   UNL     1       1.798  21.432  22.991  1.00  0.00     0.006 C 
BRANCH  13  14
ATOM     14  C   UNL     1       1.240  20.138  22.376  1.00  0.00     0.053 C 
BRANCH  14  15
ATOM     15  C   UNL     1       0.090  19.592  23.168  1.00  0.00     0.041 C 
ATOM     16  O   UNL     1      -0.851  18.992  22.588  1.00  0.00    -0.550 OA
ATOM     17  O   UNL     1       0.076  19.717  24.551  1.00  0.00    -0.550 OA
ENDBRANCH  14  15
ENDBRANCH  13  14
ENDBRANCH  12  13
ENDBRANCH  11  12
ENDBRANCH  10  11
ENDBRANCH   9  10
ENDBRANCH   8   9
ENDBRANCH   7   8
ENDBRANCH   6   7
ENDBRANCH   5   6
ENDBRANCH   4   5
ENDBRANCH   3   4
ENDBRANCH   2   3
ENDBRANCH   1   2
BRANCH   1  18
ATOM     18  C   UNL     1       0.285   9.486  25.471  1.00  0.00     0.000 C 
BRANCH  18  19
ATOM     19  C   UNL     1      -0.548   9.339  24.189  1.00  0.00     0.000 C 
BRANCH  19  20
ATOM     20  C   UNL     1      -1.737   8.392  24.407  1.00  0.00     0.000 C 
BRANCH  20  21
ATOM     21  C   UNL     1      -2.420   7.977  23.093  1.00  0.00     0.000 C 
BRANCH  21  22
ATOM     22  C   UNL     1      -1.727   8.529  21.828  1.00  0.00     0.000 C 
BRANCH  22  23
ATOM     23  C   UNL     1      -2.739   8.991  20.765  1.00  0.00     0.000 C 
BRANCH  23  24
ATOM     24  C   UNL     1      -3.809   9.933  21.341  1.00  0.00    -0.000 C 
BRANCH  24  25
ATOM     25  C   UNL     1      -3.233  11.301  21.746  1.00  0.00    -0.000 C 
BRANCH  25  26
ATOM     26  C   UNL     1      -3.408  11.590  23.246  1.00  0.00    -0.000 C 
BRANCH  26  27
ATOM     27  C   UNL     1      -4.789  11.165  23.771  1.00  0.00    -0.000 C 
BRANCH  27  28
ATOM     28  C   UNL     1      -4.647  10.250  24.995  1.00  0.00    -0.000 C 
BRANCH  28  29
ATOM     29  C   UNL     1      -4.405  11.026  26.299  1.00  0.00    -0.000 C 
BRANCH  29  30
ATOM     30  C   UNL     1      -2.928  11.038  26.747  1.00  0.00    -0.000 C 
BRANCH  30  31
ATOM     31  C   UNL     1      -2.659  10.034  27.878  1.00  0.00    -0.003 C 
ATOM     32  C   UNL     1      -2.477  10.747  29.215  1.00  0.00     0.004 C 
ENDBRANCH  30  31
ENDBRANCH  29  30
ENDBRANCH  28  29
ENDBRANCH  27  28
ENDBRANCH  26  27
ENDBRANCH  25  26
ENDBRANCH  24  25
ENDBRANCH  23  24
ENDBRANCH  22  23
ENDBRANCH  21  22
ENDBRANCH  20  21
ENDBRANCH  19  20
ENDBRANCH  18  19
ENDBRANCH   1  18
TORSDOF 28
ENDMDL
MODEL 6
REMARK VINA RESULT:    -5.260      3.552     10.191
REMARK INTER + INTRA:         -18.075
REMARK INTER:                 -13.843
REMARK INTRA:                  -4.232
REMARK UNBOUND:                -4.204
REMARK SMILES CCCCCCCCCCCCCCCCCCCCCCCCCCCCCC(=O)[O-]
REMARK SMILES IDX 16 1 17 2 18 3 19 4 20 5 21 6 22 7 23 8 24 9 25 10 26 11
REMARK SMILES IDX 27 12 28 13 29 14 30 15 31 16 32 17 15 18 14 19 13 20 12 21
REMARK SMILES IDX 11 22 10 23 9 24 8 25 7 26 6 27 5 28 4 29 3 30 2 31 1 32
REMARK H PARENT
REMARK Flexibility Score: inf
ROOT
ATOM      1  C   UNL     1      -0.458  12.963  27.075  1.00  0.00     0.000 C 
ENDROOT
BRANCH   1   2
ATOM      2  C   UNL     1       0.626  12.733  26.006  1.00  0.00     0.000 C 
BRANCH   2   3
ATOM      3  C   UNL     1       1.320  14.034  25.568  1.00  0.00     0.000 C 
BRANCH   3   4
ATOM      4  C   UNL     1       2.700  13.852  24.910  1.00  0.00     0.000 C 
BRANCH   4   5
ATOM      5  C   UNL     1       3.095  15.001  23.958  1.00  0.00     0.000 C 
BRANCH   5   6
ATOM      6  C   UNL     1       2.181  16.228  24.118  1.00  0.00     0.000 C 
BRANCH   6   7
ATOM      7  C   UNL     1       2.913  17.439  24.719  1.00  0.00     0.000 C 
BRANCH   7   8
ATOM      8  C   UNL     1       2.291  17.904  26.046  1.00  0.00     0.000 C 
BRANCH   8   9
ATOM      9  C   UNL     1       2.054  19.418  26.034  1.00  0.00     0.000 C 
BRANCH   9  10
ATOM     10  C   UNL     1       0.582  19.744  25.741  1.00  0.00     0.000 C 
BRANCH  10  11
ATOM     11  C   UNL     1       0.411  20.607  24.481  1.00  0.00     0.000 C 
BRANCH  11  12
ATOM     12  C   UNL     1       0.682  19.819  23.186  1.00  0.00     0.000 C 
BRANCH  12  13
ATOM     13  C   UNL     1       1.585  20.581  22.202  1.00  0.00     0.006 C 
BRANCH  13  14
ATOM     14  C   UNL     1       2.805  21.251  22.855  1.00  0.00     0.053 C 
BRANCH  14  15
ATOM     15  C   UNL     1       4.033  20.395  22.759  1.00  0.00     0.041 C 
ATOM     16  O   UNL     1       4.783  20.250  23.758  1.00  0.00    -0.550 OA
ATOM     17  O   UNL     1       4.328  19.733  21.574  1.00  0.00    -0.550 OA
ENDBRANCH  14  15
ENDBRANCH  13  14
ENDBRANCH  12  13
ENDBRANCH  11  12
ENDBRANCH  10  11
ENDBRANCH   9  10
ENDBRANCH   8   9
ENDBRANCH   7   8
ENDBRANCH   6   7
ENDBRANCH   5   6
ENDBRANCH   4   5
ENDBRANCH   3   4
ENDBRANCH   2   3
ENDBRANCH   1   2
BRANCH   1  18
ATOM     18  C   UNL     1      -1.872  13.020  26.474  1.00  0.00     0.000 C 
BRANCH  18  19
ATOM     19  C   UNL     1      -1.936  12.428  25.058  1.00  0.00     0.000 C 
BRANCH  19  20
ATOM     20  C   UNL     1      -3.282  11.735  24.808  1.00  0.00     0.000 C 
BRANCH  20  21
ATOM     21  C   UNL     1      -3.532  11.432  23.321  1.00  0.00     0.000 C 
BRANCH  21  22
ATOM     22  C   UNL     1      -2.521  10.439  22.707  1.00  0.00     0.000 C 
BRANCH  22  23
ATOM     23  C   UNL     1      -2.960   8.975  22.887  1.00  0.00     0.000 C 
BRANCH  23  24
ATOM     24  C   UNL     1      -2.030   8.192  23.827  1.00  0.00    -0.000 C 
BRANCH  24  25
ATOM     25  C   UNL     1      -0.810   9.020  24.271  1.00  0.00    -0.000 C 
BRANCH  25  26
ATOM     26  C   UNL     1      -0.705   9.133  25.801  1.00  0.00    -0.000 C 
BRANCH  26  27
ATOM     27  C   UNL     1      -2.038   8.836  26.507  1.00  0.00    -0.000 C 
BRANCH  27  28
ATOM     28  C   UNL     1      -2.101   9.542  27.869  1.00  0.00    -0.000 C 
BRANCH  28  29
ATOM     29  C   UNL     1      -3.471  10.178  28.150  1.00  0.00    -0.000 C 
BRANCH  29  30
ATOM     30  C   UNL     1      -3.519  10.994  29.459  1.00  0.00    -0.000 C 
BRANCH  30  31
ATOM     31  C   UNL     1      -2.125  11.176  30.078  1.00  0.00    -0.003 C 
ATOM     32  C   UNL     1      -2.224  11.556  31.553  1.00  0.00     0.004 C 
ENDBRANCH  30  31
ENDBRANCH  29  30
ENDBRANCH  28  29
ENDBRANCH  27  28
ENDBRANCH  26  27
ENDBRANCH  25  26
ENDBRANCH  24  25
ENDBRANCH  23  24
ENDBRANCH  22  23
ENDBRANCH  21  22
ENDBRANCH  20  21
ENDBRANCH  19  20
ENDBRANCH  18  19
ENDBRANCH   1  18
TORSDOF 28
ENDMDL
MODEL 7
REMARK VINA RESULT:    -5.252      2.642     10.070
REMARK INTER + INTRA:         -18.053
REMARK INTER:                 -14.393
REMARK INTRA:                  -3.660
REMARK UNBOUND:                -4.204
REMARK SMILES CCCCCCCCCCCCCCCCCCCCCCCCCCCCCC(=O)[O-]
REMARK SMILES IDX 16 1 17 2 18 3 19 4 20 5 21 6 22 7 23 8 24 9 25 10 26 11
REMARK SMILES IDX 27 12 28 13 29 14 30 15 31 16 32 17 15 18 14 19 13 20 12 21
REMARK SMILES IDX 11 22 10 23 9 24 8 25 7 26 6 27 5 28 4 29 3 30 2 31 1 32
REMARK H PARENT
REMARK Flexibility Score: inf
ROOT
ATOM      1  C   UNL     1       0.428  13.666  26.309  1.00  0.00     0.000 C 
ENDROOT
BRANCH   1   2
ATOM      2  C   UNL     1       1.341  14.828  25.878  1.00  0.00     0.000 C 
BRANCH   2   3
ATOM      3  C   UNL     1       1.436  14.979  24.350  1.00  0.00     0.000 C 
BRANCH   3   4
ATOM      4  C   UNL     1       1.617  16.423  23.844  1.00  0.00     0.000 C 
BRANCH   4   5
ATOM      5  C   UNL     1       2.921  17.094  24.323  1.00  0.00     0.000 C 
BRANCH   5   6
ATOM      6  C   UNL     1       3.863  17.433  23.156  1.00  0.00     0.000 C 
BRANCH   6   7
ATOM      7  C   UNL     1       4.878  18.532  23.510  1.00  0.00     0.000 C 
BRANCH   7   8
ATOM      8  C   UNL     1       4.272  19.942  23.429  1.00  0.00     0.000 C 
BRANCH   8   9
ATOM      9  C   UNL     1       4.568  20.585  22.070  1.00  0.00     0.000 C 
BRANCH   9  10
ATOM     10  C   UNL     1       3.270  20.972  21.347  1.00  0.00     0.000 C 
BRANCH  10  11
ATOM     11  C   UNL     1       2.108  21.224  22.321  1.00  0.00     0.000 C 
BRANCH  11  12
ATOM     12  C   UNL     1       1.036  20.121  22.257  1.00  0.00     0.000 C 
BRANCH  12  13
ATOM     13  C   UNL     1       0.445  19.783  23.636  1.00  0.00     0.006 C 
BRANCH  13  14
ATOM     14  C   UNL     1       0.726  20.837  24.719  1.00  0.00     0.053 C 
BRANCH  14  15
ATOM     15  C   UNL     1       1.448  20.252  25.896  1.00  0.00     0.041 C 
ATOM     16  O   UNL     1       1.039  19.187  26.425  1.00  0.00    -0.550 OA
ATOM     17  O   UNL     1       2.593  20.867  26.386  1.00  0.00    -0.550 OA
ENDBRANCH  14  15
ENDBRANCH  13  14
ENDBRANCH  12  13
ENDBRANCH  11  12
ENDBRANCH  10  11
ENDBRANCH   9  10
ENDBRANCH   8   9
ENDBRANCH   7   8
ENDBRANCH   6   7
ENDBRANCH   5   6
ENDBRANCH   4   5
ENDBRANCH   3   4
ENDBRANCH   2   3
ENDBRANCH   1   2
BRANCH   1  18
ATOM     18  C   UNL     1       0.989  12.294  25.899  1.00  0.00     0.000 C 
BRANCH  18  19
ATOM     19  C   UNL     1      -0.083  11.194  25.897  1.00  0.00     0.000 C 
BRANCH  19  20
ATOM     20  C   UNL     1       0.395   9.957  25.126  1.00  0.00     0.000 C 
BRANCH  20  21
ATOM     21  C   UNL     1      -0.763   9.144  24.522  1.00  0.00     0.000 C 
BRANCH  21  22
ATOM     22  C   UNL     1      -0.621   8.889  23.005  1.00  0.00     0.000 C 
BRANCH  22  23
ATOM     23  C   UNL     1      -1.892   8.268  22.398  1.00  0.00     0.000 C 
BRANCH  23  24
ATOM     24  C   UNL     1      -2.114   8.690  20.937  1.00  0.00    -0.000 C 
BRANCH  24  25
ATOM     25  C   UNL     1      -3.581   9.057  20.647  1.00  0.00    -0.000 C 
BRANCH  25  26
ATOM     26  C   UNL     1      -4.160  10.025  21.691  1.00  0.00    -0.000 C 
BRANCH  26  27
ATOM     27  C   UNL     1      -3.356  11.330  21.795  1.00  0.00    -0.000 C 
BRANCH  27  28
ATOM     28  C   UNL     1      -3.158  11.732  23.263  1.00  0.00    -0.000 C 
BRANCH  28  29
ATOM     29  C   UNL     1      -3.989  10.880  24.235  1.00  0.00    -0.000 C 
BRANCH  29  30
ATOM     30  C   UNL     1      -3.638  11.113  25.720  1.00  0.00    -0.000 C 
BRANCH  30  31
ATOM     31  C   UNL     1      -3.751   9.825  26.549  1.00  0.00    -0.003 C 
ATOM     32  C   UNL     1      -2.958   9.937  27.848  1.00  0.00     0.004 C 
ENDBRANCH  30  31
ENDBRANCH  29  30
ENDBRANCH  28  29
ENDBRANCH  27  28
ENDBRANCH  26  27
ENDBRANCH  25  26
ENDBRANCH  24  25
ENDBRANCH  23  24
ENDBRANCH  22  23
ENDBRANCH  21  22
ENDBRANCH  20  21
ENDBRANCH  19  20
ENDBRANCH  18  19
ENDBRANCH   1  18
TORSDOF 28
ENDMDL
MODEL 8
REMARK VINA RESULT:    -5.242      1.472      3.702
REMARK INTER + INTRA:         -18.027
REMARK INTER:                 -14.623
REMARK INTRA:                  -3.404
REMARK UNBOUND:                -4.204
REMARK SMILES CCCCCCCCCCCCCCCCCCCCCCCCCCCCCC(=O)[O-]
REMARK SMILES IDX 16 1 17 2 18 3 19 4 20 5 21 6 22 7 23 8 24 9 25 10 26 11
REMARK SMILES IDX 27 12 28 13 29 14 30 15 31 16 32 17 15 18 14 19 13 20 12 21
REMARK SMILES IDX 11 22 10 23 9 24 8 25 7 26 6 27 5 28 4 29 3 30 2 31 1 32
REMARK H PARENT
REMARK Flexibility Score: inf
ROOT
ATOM      1  C   UNL     1       1.762  14.488  25.385  1.00  0.00     0.000 C 
ENDROOT
BRANCH   1   2
ATOM      2  C   UNL     1       0.379  13.887  25.699  1.00  0.00     0.000 C 
BRANCH   2   3
ATOM      3  C   UNL     1       0.462  12.459  26.265  1.00  0.00     0.000 C 
BRANCH   3   4
ATOM      4  C   UNL     1      -0.894  11.774  26.519  1.00  0.00     0.000 C 
BRANCH   4   5
ATOM      5  C   UNL     1      -2.027  12.274  25.599  1.00  0.00     0.000 C 
BRANCH   5   6
ATOM      6  C   UNL     1      -3.230  11.315  25.586  1.00  0.00     0.000 C 
BRANCH   6   7
ATOM      7  C   UNL     1      -3.908  11.229  24.210  1.00  0.00     0.000 C 
BRANCH   7   8
ATOM      8  C   UNL     1      -3.046  11.834  23.090  1.00  0.00     0.000 C 
BRANCH   8   9
ATOM      9  C   UNL     1      -3.631  11.501  21.712  1.00  0.00     0.000 C 
BRANCH   9  10
ATOM     10  C   UNL     1      -4.773  10.481  21.829  1.00  0.00     0.000 C 
BRANCH  10  11
ATOM     11  C   UNL     1      -4.379   9.094  21.298  1.00  0.00     0.000 C 
BRANCH  11  12
ATOM     12  C   UNL     1      -2.997   9.095  20.618  1.00  0.00     0.000 C 
BRANCH  12  13
ATOM     13  C   UNL     1      -1.914   8.408  21.468  1.00  0.00     0.006 C 
BRANCH  13  14
ATOM     14  C   UNL     1      -2.340   8.114  22.916  1.00  0.00     0.053 C 
BRANCH  14  15
ATOM     15  C   UNL     1      -1.315   8.580  23.906  1.00  0.00     0.041 C 
ATOM     16  O   UNL     1      -1.508   8.424  25.139  1.00  0.00    -0.550 OA
ATOM     17  O   UNL     1      -0.130   9.156  23.463  1.00  0.00    -0.550 OA
ENDBRANCH  14  15
ENDBRANCH  13  14
ENDBRANCH  12  13
ENDBRANCH  11  12
ENDBRANCH  10  11
ENDBRANCH   9  10
ENDBRANCH   8   9
ENDBRANCH   7   8
ENDBRANCH   6   7
ENDBRANCH   5   6
ENDBRANCH   4   5
ENDBRANCH   3   4
ENDBRANCH   2   3
ENDBRANCH   1   2
BRANCH   1  18
ATOM     18  C   UNL     1       1.970  15.860  26.048  1.00  0.00     0.000 C 
BRANCH  18  19
ATOM     19  C   UNL     1       1.978  17.011  25.031  1.00  0.00     0.000 C 
BRANCH  19  20
ATOM     20  C   UNL     1       2.598  16.569  23.699  1.00  0.00     0.000 C 
BRANCH  20  21
ATOM     21  C   UNL     1       3.750  17.479  23.243  1.00  0.00     0.000 C 
BRANCH  21  22
ATOM     22  C   UNL     1       4.304  18.391  24.360  1.00  0.00     0.000 C 
BRANCH  22  23
ATOM     23  C   UNL     1       4.774  19.753  23.820  1.00  0.00     0.000 C 
BRANCH  23  24
ATOM     24  C   UNL     1       4.624  19.866  22.294  1.00  0.00    -0.000 C 
BRANCH  24  25
ATOM     25  C   UNL     1       4.141  21.259  21.852  1.00  0.00    -0.000 C 
BRANCH  25  26
ATOM     26  C   UNL     1       2.641  21.278  21.514  1.00  0.00    -0.000 C 
BRANCH  26  27
ATOM     27  C   UNL     1       1.759  20.928  22.723  1.00  0.00    -0.000 C 
BRANCH  27  28
ATOM     28  C   UNL     1       0.796  19.782  22.380  1.00  0.00    -0.000 C 
BRANCH  28  29
ATOM     29  C   UNL     1      -0.231  19.511  23.490  1.00  0.00    -0.000 C 
BRANCH  29  30
ATOM     30  C   UNL     1       0.128  20.166  24.840  1.00  0.00    -0.000 C 
BRANCH  30  31
ATOM     31  C   UNL     1      -0.947  21.161  25.303  1.00  0.00    -0.003 C 
ATOM     32  C   UNL     1      -2.347  20.648  24.980  1.00  0.00     0.004 C 
ENDBRANCH  30  31
ENDBRANCH  29  30
ENDBRANCH  28  29
ENDBRANCH  27  28
ENDBRANCH  26  27
ENDBRANCH  25  26
ENDBRANCH  24  25
ENDBRANCH  23  24
ENDBRANCH  22  23
ENDBRANCH  21  22
ENDBRANCH  20  21
ENDBRANCH  19  20
ENDBRANCH  18  19
ENDBRANCH   1  18
TORSDOF 28
ENDMDL
MODEL 9
REMARK VINA RESULT:    -5.206      3.602     10.348
REMARK INTER + INTRA:         -17.931
REMARK INTER:                 -13.933
REMARK INTRA:                  -3.999
REMARK UNBOUND:                -4.204
REMARK SMILES CCCCCCCCCCCCCCCCCCCCCCCCCCCCCC(=O)[O-]
REMARK SMILES IDX 16 1 17 2 18 3 19 4 20 5 21 6 22 7 23 8 24 9 25 10 26 11
REMARK SMILES IDX 27 12 28 13 29 14 30 15 31 16 32 17 15 18 14 19 13 20 12 21
REMARK SMILES IDX 11 22 10 23 9 24 8 25 7 26 6 27 5 28 4 29 3 30 2 31 1 32
REMARK H PARENT
REMARK Flexibility Score: inf
ROOT
ATOM      1  C   UNL     1       0.413  13.364  26.441  1.00  0.00     0.000 C 
ENDROOT
BRANCH   1   2
ATOM      2  C   UNL     1       1.337  14.316  25.661  1.00  0.00     0.000 C 
BRANCH   2   3
ATOM      3  C   UNL     1       2.521  13.592  24.997  1.00  0.00     0.000 C 
BRANCH   3   4
ATOM      4  C   UNL     1       3.329  14.437  23.995  1.00  0.00     0.000 C 
BRANCH   4   5
ATOM      5  C   UNL     1       2.628  15.746  23.574  1.00  0.00     0.000 C 
BRANCH   5   6
ATOM      6  C   UNL     1       3.479  16.988  23.889  1.00  0.00     0.000 C 
BRANCH   6   7
ATOM      7  C   UNL     1       2.796  17.940  24.883  1.00  0.00     0.000 C 
BRANCH   7   8
ATOM      8  C   UNL     1       1.403  18.384  24.411  1.00  0.00     0.000 C 
BRANCH   8   9
ATOM      9  C   UNL     1       1.097  19.811  24.882  1.00  0.00     0.000 C 
BRANCH   9  10
ATOM     10  C   UNL     1       2.121  20.809  24.321  1.00  0.00     0.000 C 
BRANCH  10  11
ATOM     11  C   UNL     1       1.646  21.466  23.016  1.00  0.00     0.000 C 
BRANCH  11  12
ATOM     12  C   UNL     1       2.371  20.907  21.777  1.00  0.00     0.000 C 
BRANCH  12  13
ATOM     13  C   UNL     1       3.886  21.170  21.804  1.00  0.00     0.006 C 
BRANCH  13  14
ATOM     14  C   UNL     1       4.740  19.920  22.069  1.00  0.00     0.053 C 
BRANCH  14  15
ATOM     15  C   UNL     1       5.844  20.193  23.047  1.00  0.00     0.041 C 
ATOM     16  O   UNL     1       5.853  19.623  24.168  1.00  0.00    -0.550 OA
ATOM     17  O   UNL     1       6.881  21.052  22.704  1.00  0.00    -0.550 OA
ENDBRANCH  14  15
ENDBRANCH  13  14
ENDBRANCH  12  13
ENDBRANCH  11  12
ENDBRANCH  10  11
ENDBRANCH   9  10
ENDBRANCH   8   9
ENDBRANCH   7   8
ENDBRANCH   6   7
ENDBRANCH   5   6
ENDBRANCH   4   5
ENDBRANCH   3   4
ENDBRANCH   2   3
ENDBRANCH   1   2
BRANCH   1  18
ATOM     18  C   UNL     1      -1.024  13.359  25.894  1.00  0.00     0.000 C 
BRANCH  18  19
ATOM     19  C   UNL     1      -2.072  13.116  26.990  1.00  0.00     0.000 C 
BRANCH  19  20
ATOM     20  C   UNL     1      -1.790  11.810  27.744  1.00  0.00     0.000 C 
BRANCH  20  21
ATOM     21  C   UNL     1      -2.681  10.646  27.278  1.00  0.00     0.000 C 
BRANCH  21  22
ATOM     22  C   UNL     1      -3.890  11.088  26.426  1.00  0.00     0.000 C 
BRANCH  22  23
ATOM     23  C   UNL     1      -4.062  10.221  25.166  1.00  0.00     0.000 C 
BRANCH  23  24
ATOM     24  C   UNL     1      -4.466  11.046  23.934  1.00  0.00    -0.000 C 
BRANCH  24  25
ATOM     25  C   UNL     1      -3.270  11.770  23.292  1.00  0.00    -0.000 C 
BRANCH  25  26
ATOM     26  C   UNL     1      -3.178  11.524  21.778  1.00  0.00    -0.000 C 
BRANCH  26  27
ATOM     27  C   UNL     1      -3.808  10.186  21.359  1.00  0.00    -0.000 C 
BRANCH  27  28
ATOM     28  C   UNL     1      -2.722   9.141  21.066  1.00  0.00    -0.000 C 
BRANCH  28  29
ATOM     29  C   UNL     1      -2.286   8.364  22.318  1.00  0.00    -0.000 C 
BRANCH  29  30
ATOM     30  C   UNL     1      -0.930   8.824  22.892  1.00  0.00    -0.000 C 
BRANCH  30  31
ATOM     31  C   UNL     1      -0.916   8.806  24.428  1.00  0.00    -0.003 C 
ATOM     32  C   UNL     1       0.057   9.844  24.981  1.00  0.00     0.004 C 
ENDBRANCH  30  31
ENDBRANCH  29  30
ENDBRANCH  28  29
ENDBRANCH  27  28
ENDBRANCH  26  27
ENDBRANCH  25  26
ENDBRANCH  24  25
ENDBRANCH  23  24
ENDBRANCH  22  23
ENDBRANCH  21  22
ENDBRANCH  20  21
ENDBRANCH  19  20
ENDBRANCH  18  19
ENDBRANCH   1  18
TORSDOF 28
ENDMDL
