MODEL 1
REMARK VINA RESULT:    12.145      0.000      0.000
REMARK INTER + INTRA:          22.335
REMARK INTER:                  23.504
REMARK INTRA:                  -1.169
REMARK UNBOUND:                -1.169
REMARK SMILES CCCCCCCCCCCCCCCCCC(=O)[O-]
REMARK SMILES IDX 10 1 11 2 12 3 13 4 14 5 15 6 16 7 17 8 18 9 19 10 20 11
REMARK SMILES IDX 9 12 8 13 7 14 6 15 5 16 4 17 3 18 2 19 1 20
REMARK H PARENT
REMARK Flexibility Score: inf
ROOT
ATOM      1  C   UNL     1     -17.071  27.543  -3.982  1.00  0.00     0.000 C 
ENDROOT
BRANCH   1   2
ATOM      2  C   UNL     1     -15.943  28.085  -3.084  1.00  0.00     0.000 C 
BRANCH   2   3
ATOM      3  C   UNL     1     -14.562  28.191  -3.754  1.00  0.00     0.000 C 
BRANCH   3   4
ATOM      4  C   UNL     1     -13.622  29.178  -3.039  1.00  0.00     0.000 C 
BRANCH   4   5
ATOM      5  C   UNL     1     -12.188  29.130  -3.592  1.00  0.00     0.000 C 
BRANCH   5   6
ATOM      6  C   UNL     1     -11.718  30.495  -4.127  1.00  0.00     0.000 C 
BRANCH   6   7
ATOM      7  C   UNL     1     -11.998  30.667  -5.629  1.00  0.00     0.006 C 
BRANCH   7   8
ATOM      8  C   UNL     1     -11.751  29.381  -6.430  1.00  0.00     0.053 C 
BRANCH   8   9
ATOM      9  C   UNL     1     -10.623  29.575  -7.392  1.00  0.00     0.041 C 
ATOM     10  O   UNL     1     -10.759  29.251  -8.602  1.00  0.00    -0.550 OA
ATOM     11  O   UNL     1      -9.404  30.069  -6.945  1.00  0.00    -0.550 OA
ENDBRANCH   8   9
ENDBRANCH   7   8
ENDBRANCH   6   7
ENDBRANCH   5   6
ENDBRANCH   4   5
ENDBRANCH   3   4
ENDBRANCH   2   3
ENDBRANCH   1   2
BRANCH   1  12
ATOM     12  C   UNL     1     -17.674  26.229  -3.459  1.00  0.00     0.000 C 
BRANCH  12  13
ATOM     13  C   UNL     1     -19.086  26.417  -2.881  1.00  0.00    -0.000 C 
BRANCH  13  14
ATOM     14  C   UNL     1     -20.018  25.231  -3.189  1.00  0.00    -0.000 C 
BRANCH  14  15
ATOM     15  C   UNL     1     -21.040  25.561  -4.298  1.00  0.00    -0.000 C 
BRANCH  15  16
ATOM     16  C   UNL     1     -20.393  25.913  -5.651  1.00  0.00    -0.000 C 
BRANCH  16  17
ATOM     17  C   UNL     1     -20.293  27.420  -5.952  1.00  0.00    -0.000 C 
BRANCH  17  18
ATOM     18  C   UNL     1     -21.083  28.328  -4.990  1.00  0.00    -0.000 C 
BRANCH  18  19
ATOM     19  C   UNL     1     -20.239  29.482  -4.431  1.00  0.00    -0.003 C 
ATOM     20  C   UNL     1     -21.121  30.657  -4.015  1.00  0.00     0.004 C 
ENDBRANCH  18  19
ENDBRANCH  17  18
ENDBRANCH  16  17
ENDBRANCH  15  16
ENDBRANCH  14  15
ENDBRANCH  13  14
ENDBRANCH  12  13
ENDBRANCH   1  12
TORSDOF 16
ENDMDL
MODEL 2
REMARK VINA RESULT:    14.004      0.995      2.018
REMARK INTER + INTRA:          25.933
REMARK INTER:                  24.718
REMARK INTRA:                   1.215
REMARK UNBOUND:                -1.169
REMARK SMILES CCCCCCCCCCCCCCCCCC(=O)[O-]
REMARK SMILES IDX 10 1 11 2 12 3 13 4 14 5 15 6 16 7 17 8 18 9 19 10 20 11
REMARK SMILES IDX 9 12 8 13 7 14 6 15 5 16 4 17 3 18 2 19 1 20
REMARK H PARENT
REMARK Flexibility Score: inf
ROOT
ATOM      1  C   UNL     1     -17.107  26.972  -4.181  1.00  0.00     0.000 C 
ENDROOT
BRANCH   1   2
ATOM      2  C   UNL     1     -16.389  28.172  -3.534  1.00  0.00     0.000 C 
BRANCH   2   3
ATOM      3  C   UNL     1     -14.966  27.887  -3.021  1.00  0.00     0.000 C 
BRANCH   3   4
ATOM      4  C   UNL     1     -14.062  29.132  -3.038  1.00  0.00     0.000 C 
BRANCH   4   5
ATOM      5  C   UNL     1     -12.598  28.792  -3.358  1.00  0.00     0.000 C 
BRANCH   5   6
ATOM      6  C   UNL     1     -11.906  29.890  -4.186  1.00  0.00     0.000 C 
BRANCH   6   7
ATOM      7  C   UNL     1     -11.755  29.506  -5.667  1.00  0.00     0.006 C 
BRANCH   7   8
ATOM      8  C   UNL     1     -10.789  30.428  -6.423  1.00  0.00     0.053 C 
BRANCH   8   9
ATOM      9  C   UNL     1     -10.219  29.722  -7.612  1.00  0.00     0.041 C 
ATOM     10  O   UNL     1      -9.257  30.229  -8.249  1.00  0.00    -0.550 OA
ATOM     11  O   UNL     1     -10.781  28.528  -8.048  1.00  0.00    -0.550 OA
ENDBRANCH   8   9
ENDBRANCH   7   8
ENDBRANCH   6   7
ENDBRANCH   5   6
ENDBRANCH   4   5
ENDBRANCH   3   4
ENDBRANCH   2   3
ENDBRANCH   1   2
BRANCH   1  12
ATOM     12  C   UNL     1     -17.322  25.805  -3.205  1.00  0.00     0.000 C 
BRANCH  12  13
ATOM     13  C   UNL     1     -18.806  25.574  -2.876  1.00  0.00    -0.000 C 
BRANCH  13  14
ATOM     14  C   UNL     1     -19.744  26.488  -3.684  1.00  0.00    -0.000 C 
BRANCH  14  15
ATOM     15  C   UNL     1     -20.192  27.728  -2.880  1.00  0.00    -0.000 C 
BRANCH  15  16
ATOM     16  C   UNL     1     -20.862  28.815  -3.740  1.00  0.00    -0.000 C 
BRANCH  16  17
ATOM     17  C   UNL     1     -20.057  29.255  -4.978  1.00  0.00    -0.000 C 
BRANCH  17  18
ATOM     18  C   UNL     1     -19.937  28.191  -6.085  1.00  0.00    -0.000 C 
BRANCH  18  19
ATOM     19  C   UNL     1     -21.125  27.218  -6.109  1.00  0.00    -0.003 C 
ATOM     20  C   UNL     1     -20.652  25.770  -6.005  1.00  0.00     0.004 C 
ENDBRANCH  18  19
ENDBRANCH  17  18
ENDBRANCH  16  17
ENDBRANCH  15  16
ENDBRANCH  14  15
ENDBRANCH  13  14
ENDBRANCH  12  13
ENDBRANCH   1  12
TORSDOF 16
ENDMDL
