MODEL 1
REMARK VINA RESULT:    -5.544      0.000      0.000
REMARK INTER + INTRA:         -12.803
REMARK INTER:                 -10.729
REMARK INTRA:                  -2.074
REMARK UNBOUND:                -2.074
REMARK SMILES CCCCCCCCCCCCCCCCCC(=O)[O-]
REMARK SMILES IDX 10 1 11 2 12 3 13 4 14 5 15 6 16 7 17 8 18 9 19 10 20 11
REMARK SMILES IDX 9 12 8 13 7 14 6 15 5 16 4 17 3 18 2 19 1 20
REMARK H PARENT
REMARK Flexibility Score: inf
ROOT
ATOM      1  C   UNL     1      41.008  40.611  16.074  1.00  0.00     0.000 C 
ENDROOT
BRANCH   1   2
ATOM      2  C   UNL     1      40.505  40.896  17.495  1.00  0.00     0.000 C 
BRANCH   2   3
ATOM      3  C   UNL     1      41.567  40.527  18.539  1.00  0.00     0.000 C 
BRANCH   3   4
ATOM      4  C   UNL     1      41.558  41.522  19.708  1.00  0.00     0.000 C 
BRANCH   4   5
ATOM      5  C   UNL     1      42.789  42.443  19.710  1.00  0.00     0.000 C 
BRANCH   5   6
ATOM      6  C   UNL     1      43.450  42.549  18.324  1.00  0.00     0.000 C 
BRANCH   6   7
ATOM      7  C   UNL     1      43.286  43.943  17.692  1.00  0.00     0.006 C 
BRANCH   7   8
ATOM      8  C   UNL     1      42.970  43.920  16.188  1.00  0.00     0.053 C 
BRANCH   8   9
ATOM      9  C   UNL     1      41.671  44.598  15.878  1.00  0.00     0.041 C 
ATOM     10  O   UNL     1      40.587  44.114  16.297  1.00  0.00    -0.550 OA
ATOM     11  O   UNL     1      41.661  45.784  15.154  1.00  0.00    -0.550 OA
ENDBRANCH   8   9
ENDBRANCH   7   8
ENDBRANCH   6   7
ENDBRANCH   5   6
ENDBRANCH   4   5
ENDBRANCH   3   4
ENDBRANCH   2   3
ENDBRANCH   1   2
BRANCH   1  12
ATOM     12  C   UNL     1      42.505  40.256  16.025  1.00  0.00     0.000 C 
BRANCH  12  13
ATOM     13  C   UNL     1      43.197  40.536  14.678  1.00  0.00    -0.000 C 
BRANCH  13  14
ATOM     14  C   UNL     1      44.572  39.862  14.558  1.00  0.00    -0.000 C 
BRANCH  14  15
ATOM     15  C   UNL     1      44.428  38.344  14.404  1.00  0.00    -0.000 C 
BRANCH  15  16
ATOM     16  C   UNL     1      43.337  37.997  13.381  1.00  0.00    -0.000 C 
BRANCH  16  17
ATOM     17  C   UNL     1      42.344  36.944  13.901  1.00  0.00    -0.000 C 
BRANCH  17  18
ATOM     18  C   UNL     1      40.927  37.038  13.306  1.00  0.00    -0.000 C 
BRANCH  18  19
ATOM     19  C   UNL     1      40.329  38.460  13.345  1.00  0.00    -0.003 C 
ATOM     20  C   UNL     1      39.308  38.696  12.231  1.00  0.00     0.004 C 
ENDBRANCH  18  19
ENDBRANCH  17  18
ENDBRANCH  16  17
ENDBRANCH  15  16
ENDBRANCH  14  15
ENDBRANCH  13  14
ENDBRANCH  12  13
ENDBRANCH   1  12
TORSDOF 16
ENDMDL
MODEL 2
REMARK VINA RESULT:    -5.198      1.940      2.809
REMARK INTER + INTRA:         -12.134
REMARK INTER:                  -9.853
REMARK INTRA:                  -2.281
REMARK UNBOUND:                -2.074
REMARK SMILES CCCCCCCCCCCCCCCCCC(=O)[O-]
REMARK SMILES IDX 10 1 11 2 12 3 13 4 14 5 15 6 16 7 17 8 18 9 19 10 20 11
REMARK SMILES IDX 9 12 8 13 7 14 6 15 5 16 4 17 3 18 2 19 1 20
REMARK H PARENT
REMARK Flexibility Score: inf
ROOT
ATOM      1  C   UNL     1      42.278  40.043  15.891  1.00  0.00     0.000 C 
ENDROOT
BRANCH   1   2
ATOM      2  C   UNL     1      40.920  40.755  15.953  1.00  0.00     0.000 C 
BRANCH   2   3
ATOM      3  C   UNL     1      41.019  42.180  15.396  1.00  0.00     0.000 C 
BRANCH   3   4
ATOM      4  C   UNL     1      40.694  43.218  16.480  1.00  0.00     0.000 C 
BRANCH   4   5
ATOM      5  C   UNL     1      41.749  44.332  16.567  1.00  0.00     0.000 C 
BRANCH   5   6
ATOM      6  C   UNL     1      43.116  43.816  17.052  1.00  0.00     0.000 C 
BRANCH   6   7
ATOM      7  C   UNL     1      43.108  43.427  18.542  1.00  0.00     0.006 C 
BRANCH   7   8
ATOM      8  C   UNL     1      43.138  41.911  18.798  1.00  0.00     0.053 C 
BRANCH   8   9
ATOM      9  C   UNL     1      41.953  41.454  19.591  1.00  0.00     0.041 C 
ATOM     10  O   UNL     1      41.448  40.321  19.381  1.00  0.00    -0.550 OA
ATOM     11  O   UNL     1      41.427  42.269  20.587  1.00  0.00    -0.550 OA
ENDBRANCH   8   9
ENDBRANCH   7   8
ENDBRANCH   6   7
ENDBRANCH   5   6
ENDBRANCH   4   5
ENDBRANCH   3   4
ENDBRANCH   2   3
ENDBRANCH   1   2
BRANCH   1  12
ATOM     12  C   UNL     1      43.370  40.889  15.210  1.00  0.00     0.000 C 
BRANCH  12  13
ATOM     13  C   UNL     1      44.243  40.129  14.194  1.00  0.00    -0.000 C 
BRANCH  13  14
ATOM     14  C   UNL     1      44.779  38.798  14.741  1.00  0.00    -0.000 C 
BRANCH  14  15
ATOM     15  C   UNL     1      44.381  37.629  13.831  1.00  0.00    -0.000 C 
BRANCH  15  16
ATOM     16  C   UNL     1      43.002  37.871  13.200  1.00  0.00    -0.000 C 
BRANCH  16  17
ATOM     17  C   UNL     1      42.020  36.714  13.453  1.00  0.00    -0.000 C 
BRANCH  17  18
ATOM     18  C   UNL     1      40.534  37.117  13.477  1.00  0.00    -0.000 C 
BRANCH  18  19
ATOM     19  C   UNL     1      40.280  38.582  13.061  1.00  0.00    -0.003 C 
ATOM     20  C   UNL     1      39.104  38.719  12.094  1.00  0.00     0.004 C 
ENDBRANCH  18  19
ENDBRANCH  17  18
ENDBRANCH  16  17
ENDBRANCH  15  16
ENDBRANCH  14  15
ENDBRANCH  13  14
ENDBRANCH  12  13
ENDBRANCH   1  12
TORSDOF 16
ENDMDL
MODEL 3
REMARK VINA RESULT:    -5.081      2.019      3.136
REMARK INTER + INTRA:         -11.909
REMARK INTER:                 -10.038
REMARK INTRA:                  -1.871
REMARK UNBOUND:                -2.074
REMARK SMILES CCCCCCCCCCCCCCCCCC(=O)[O-]
REMARK SMILES IDX 10 1 11 2 12 3 13 4 14 5 15 6 16 7 17 8 18 9 19 10 20 11
REMARK SMILES IDX 9 12 8 13 7 14 6 15 5 16 4 17 3 18 2 19 1 20
REMARK H PARENT
REMARK Flexibility Score: inf
ROOT
ATOM      1  C   UNL     1      41.006  41.161  15.521  1.00  0.00     0.000 C 
ENDROOT
BRANCH   1   2
ATOM      2  C   UNL     1      40.654  42.300  16.488  1.00  0.00     0.000 C 
BRANCH   2   3
ATOM      3  C   UNL     1      40.790  43.665  15.803  1.00  0.00     0.000 C 
BRANCH   3   4
ATOM      4  C   UNL     1      41.767  44.570  16.567  1.00  0.00     0.000 C 
BRANCH   4   5
ATOM      5  C   UNL     1      43.107  43.878  16.861  1.00  0.00     0.000 C 
BRANCH   5   6
ATOM      6  C   UNL     1      43.444  43.857  18.363  1.00  0.00     0.000 C 
BRANCH   6   7
ATOM      7  C   UNL     1      43.414  42.437  18.958  1.00  0.00     0.006 C 
BRANCH   7   8
ATOM      8  C   UNL     1      42.124  42.104  19.727  1.00  0.00     0.053 C 
BRANCH   8   9
ATOM      9  C   UNL     1      41.891  40.627  19.815  1.00  0.00     0.041 C 
ATOM     10  O   UNL     1      41.088  40.064  19.027  1.00  0.00    -0.550 OA
ATOM     11  O   UNL     1      42.587  39.868  20.748  1.00  0.00    -0.550 OA
ENDBRANCH   8   9
ENDBRANCH   7   8
ENDBRANCH   6   7
ENDBRANCH   5   6
ENDBRANCH   4   5
ENDBRANCH   3   4
ENDBRANCH   2   3
ENDBRANCH   1   2
BRANCH   1  12
ATOM     12  C   UNL     1      42.390  40.544  15.797  1.00  0.00     0.000 C 
BRANCH  12  13
ATOM     13  C   UNL     1      43.404  40.679  14.645  1.00  0.00    -0.000 C 
BRANCH  13  14
ATOM     14  C   UNL     1      44.622  39.758  14.808  1.00  0.00    -0.000 C 
BRANCH  14  15
ATOM     15  C   UNL     1      44.308  38.340  14.315  1.00  0.00    -0.000 C 
BRANCH  15  16
ATOM     16  C   UNL     1      42.999  38.315  13.514  1.00  0.00    -0.000 C 
BRANCH  16  17
ATOM     17  C   UNL     1      42.116  37.102  13.852  1.00  0.00    -0.000 C 
BRANCH  17  18
ATOM     18  C   UNL     1      40.695  37.147  13.260  1.00  0.00    -0.000 C 
BRANCH  18  19
ATOM     19  C   UNL     1      40.126  38.574  13.117  1.00  0.00    -0.003 C 
ATOM     20  C   UNL     1      39.009  38.657  12.076  1.00  0.00     0.004 C 
ENDBRANCH  18  19
ENDBRANCH  17  18
ENDBRANCH  16  17
ENDBRANCH  15  16
ENDBRANCH  14  15
ENDBRANCH  13  14
ENDBRANCH  12  13
ENDBRANCH   1  12
TORSDOF 16
ENDMDL
MODEL 4
REMARK VINA RESULT:    -4.850      2.591      6.371
REMARK INTER + INTRA:         -11.460
REMARK INTER:                  -9.461
REMARK INTRA:                  -1.999
REMARK UNBOUND:                -2.074
REMARK SMILES CCCCCCCCCCCCCCCCCC(=O)[O-]
REMARK SMILES IDX 10 1 11 2 12 3 13 4 14 5 15 6 16 7 17 8 18 9 19 10 20 11
REMARK SMILES IDX 9 12 8 13 7 14 6 15 5 16 4 17 3 18 2 19 1 20
REMARK H PARENT
REMARK Flexibility Score: inf
ROOT
ATOM      1  C   UNL     1      40.627  40.900  16.939  1.00  0.00     0.000 C 
ENDROOT
BRANCH   1   2
ATOM      2  C   UNL     1      41.445  40.865  15.641  1.00  0.00     0.000 C 
BRANCH   2   3
ATOM      3  C   UNL     1      42.677  39.964  15.791  1.00  0.00     0.000 C 
BRANCH   3   4
ATOM      4  C   UNL     1      43.595  40.077  14.565  1.00  0.00     0.000 C 
BRANCH   4   5
ATOM      5  C   UNL     1      43.757  38.741  13.823  1.00  0.00     0.000 C 
BRANCH   5   6
ATOM      6  C   UNL     1      42.855  37.633  14.396  1.00  0.00     0.000 C 
BRANCH   6   7
ATOM      7  C   UNL     1      41.660  37.308  13.481  1.00  0.00     0.006 C 
BRANCH   7   8
ATOM      8  C   UNL     1      40.531  38.351  13.525  1.00  0.00     0.053 C 
BRANCH   8   9
ATOM      9  C   UNL     1      39.467  38.066  12.511  1.00  0.00     0.041 C 
ATOM     10  O   UNL     1      39.045  36.892  12.346  1.00  0.00    -0.550 OA
ATOM     11  O   UNL     1      38.917  39.105  11.770  1.00  0.00    -0.550 OA
ENDBRANCH   8   9
ENDBRANCH   7   8
ENDBRANCH   6   7
ENDBRANCH   5   6
ENDBRANCH   4   5
ENDBRANCH   3   4
ENDBRANCH   2   3
ENDBRANCH   1   2
BRANCH   1  12
ATOM     12  C   UNL     1      41.466  40.572  18.188  1.00  0.00     0.000 C 
BRANCH  12  13
ATOM     13  C   UNL     1      41.383  41.614  19.320  1.00  0.00    -0.000 C 
BRANCH  13  14
ATOM     14  C   UNL     1      42.672  42.433  19.476  1.00  0.00    -0.000 C 
BRANCH  14  15
ATOM     15  C   UNL     1      43.394  42.586  18.132  1.00  0.00    -0.000 C 
BRANCH  15  16
ATOM     16  C   UNL     1      43.280  44.025  17.609  1.00  0.00    -0.000 C 
BRANCH  16  17
ATOM     17  C   UNL     1      41.947  44.293  16.890  1.00  0.00    -0.000 C 
BRANCH  17  18
ATOM     18  C   UNL     1      42.060  44.495  15.367  1.00  0.00    -0.000 C 
BRANCH  18  19
ATOM     19  C   UNL     1      43.514  44.600  14.860  1.00  0.00    -0.003 C 
ATOM     20  C   UNL     1      43.821  43.590  13.753  1.00  0.00     0.004 C 
ENDBRANCH  18  19
ENDBRANCH  17  18
ENDBRANCH  16  17
ENDBRANCH  15  16
ENDBRANCH  14  15
ENDBRANCH  13  14
ENDBRANCH  12  13
ENDBRANCH   1  12
TORSDOF 16
ENDMDL
MODEL 5
REMARK VINA RESULT:    -4.837      2.552      6.816
REMARK INTER + INTRA:         -11.436
REMARK INTER:                  -9.802
REMARK INTRA:                  -1.635
REMARK UNBOUND:                -2.074
REMARK SMILES CCCCCCCCCCCCCCCCCC(=O)[O-]
REMARK SMILES IDX 10 1 11 2 12 3 13 4 14 5 15 6 16 7 17 8 18 9 19 10 20 11
REMARK SMILES IDX 9 12 8 13 7 14 6 15 5 16 4 17 3 18 2 19 1 20
REMARK H PARENT
REMARK Flexibility Score: inf
ROOT
ATOM      1  C   UNL     1      42.027  40.246  15.710  1.00  0.00     0.000 C 
ENDROOT
BRANCH   1   2
ATOM      2  C   UNL     1      43.316  40.710  15.018  1.00  0.00     0.000 C 
BRANCH   2   3
ATOM      3  C   UNL     1      43.932  39.577  14.187  1.00  0.00     0.000 C 
BRANCH   3   4
ATOM      4  C   UNL     1      43.562  38.205  14.767  1.00  0.00     0.000 C 
BRANCH   4   5
ATOM      5  C   UNL     1      43.754  37.064  13.755  1.00  0.00     0.000 C 
BRANCH   5   6
ATOM      6  C   UNL     1      42.431  36.619  13.108  1.00  0.00     0.000 C 
BRANCH   6   7
ATOM      7  C   UNL     1      41.211  37.369  13.674  1.00  0.00     0.006 C 
BRANCH   7   8
ATOM      8  C   UNL     1      39.860  36.879  13.127  1.00  0.00     0.053 C 
BRANCH   8   9
ATOM      9  C   UNL     1      39.154  37.942  12.344  1.00  0.00     0.041 C 
ATOM     10  O   UNL     1      39.453  39.154  12.507  1.00  0.00    -0.550 OA
ATOM     11  O   UNL     1      38.186  37.591  11.411  1.00  0.00    -0.550 OA
ENDBRANCH   8   9
ENDBRANCH   7   8
ENDBRANCH   6   7
ENDBRANCH   5   6
ENDBRANCH   4   5
ENDBRANCH   3   4
ENDBRANCH   2   3
ENDBRANCH   1   2
BRANCH   1  12
ATOM     12  C   UNL     1      40.847  41.212  15.494  1.00  0.00     0.000 C 
BRANCH  12  13
ATOM     13  C   UNL     1      41.240  42.692  15.328  1.00  0.00    -0.000 C 
BRANCH  13  14
ATOM     14  C   UNL     1      41.033  43.514  16.608  1.00  0.00    -0.000 C 
BRANCH  14  15
ATOM     15  C   UNL     1      42.377  43.953  17.202  1.00  0.00    -0.000 C 
BRANCH  15  16
ATOM     16  C   UNL     1      43.109  42.764  17.842  1.00  0.00    -0.000 C 
BRANCH  16  17
ATOM     17  C   UNL     1      43.469  43.009  19.317  1.00  0.00    -0.000 C 
BRANCH  17  18
ATOM     18  C   UNL     1      42.537  42.326  20.334  1.00  0.00    -0.000 C 
BRANCH  18  19
ATOM     19  C   UNL     1      41.502  41.378  19.692  1.00  0.00    -0.003 C 
ATOM     20  C   UNL     1      41.949  39.916  19.725  1.00  0.00     0.004 C 
ENDBRANCH  18  19
ENDBRANCH  17  18
ENDBRANCH  16  17
ENDBRANCH  15  16
ENDBRANCH  14  15
ENDBRANCH  13  14
ENDBRANCH  12  13
ENDBRANCH   1  12
TORSDOF 16
ENDMDL
MODEL 6
REMARK VINA RESULT:    -4.650      2.954      3.517
REMARK INTER + INTRA:         -11.074
REMARK INTER:                  -9.597
REMARK INTRA:                  -1.477
REMARK UNBOUND:                -2.074
REMARK SMILES CCCCCCCCCCCCCCCCCC(=O)[O-]
REMARK SMILES IDX 10 1 11 2 12 3 13 4 14 5 15 6 16 7 17 8 18 9 19 10 20 11
REMARK SMILES IDX 9 12 8 13 7 14 6 15 5 16 4 17 3 18 2 19 1 20
REMARK H PARENT
REMARK Flexibility Score: inf
ROOT
ATOM      1  C   UNL     1      40.604  40.865  16.862  1.00  0.00     0.000 C 
ENDROOT
BRANCH   1   2
ATOM      2  C   UNL     1      41.467  40.607  18.105  1.00  0.00     0.000 C 
BRANCH   2   3
ATOM      3  C   UNL     1      41.370  41.776  19.093  1.00  0.00     0.000 C 
BRANCH   3   4
ATOM      4  C   UNL     1      42.152  41.476  20.380  1.00  0.00     0.000 C 
BRANCH   4   5
ATOM      5  C   UNL     1      42.915  42.701  20.908  1.00  0.00     0.000 C 
BRANCH   5   6
ATOM      6  C   UNL     1      43.886  43.286  19.867  1.00  0.00     0.000 C 
BRANCH   6   7
ATOM      7  C   UNL     1      44.651  44.514  20.393  1.00  0.00     0.006 C 
BRANCH   7   8
ATOM      8  C   UNL     1      44.612  44.674  21.921  1.00  0.00     0.053 C 
BRANCH   8   9
ATOM      9  C   UNL     1      44.306  46.082  22.329  1.00  0.00     0.041 C 
ATOM     10  O   UNL     1      44.344  47.011  21.481  1.00  0.00    -0.550 OA
ATOM     11  O   UNL     1      43.945  46.363  23.642  1.00  0.00    -0.550 OA
ENDBRANCH   8   9
ENDBRANCH   7   8
ENDBRANCH   6   7
ENDBRANCH   5   6
ENDBRANCH   4   5
ENDBRANCH   3   4
ENDBRANCH   2   3
ENDBRANCH   1   2
BRANCH   1  12
ATOM     12  C   UNL     1      41.376  41.567  15.729  1.00  0.00     0.000 C 
BRANCH  12  13
ATOM     13  C   UNL     1      42.910  41.494  15.844  1.00  0.00    -0.000 C 
BRANCH  13  14
ATOM     14  C   UNL     1      43.576  40.889  14.600  1.00  0.00    -0.000 C 
BRANCH  14  15
ATOM     15  C   UNL     1      44.284  39.571  14.941  1.00  0.00    -0.000 C 
BRANCH  15  16
ATOM     16  C   UNL     1      43.309  38.388  14.856  1.00  0.00    -0.000 C 
BRANCH  16  17
ATOM     17  C   UNL     1      42.656  38.251  13.470  1.00  0.00    -0.000 C 
BRANCH  17  18
ATOM     18  C   UNL     1      41.203  37.742  13.484  1.00  0.00    -0.000 C 
BRANCH  18  19
ATOM     19  C   UNL     1      40.149  38.863  13.364  1.00  0.00    -0.003 C 
ATOM     20  C   UNL     1      39.220  38.667  12.166  1.00  0.00     0.004 C 
ENDBRANCH  18  19
ENDBRANCH  17  18
ENDBRANCH  16  17
ENDBRANCH  15  16
ENDBRANCH  14  15
ENDBRANCH  13  14
ENDBRANCH  12  13
ENDBRANCH   1  12
TORSDOF 16
ENDMDL
MODEL 7
REMARK VINA RESULT:    -4.532      2.583      6.493
REMARK INTER + INTRA:         -10.846
REMARK INTER:                  -8.911
REMARK INTRA:                  -1.935
REMARK UNBOUND:                -2.074
REMARK SMILES CCCCCCCCCCCCCCCCCC(=O)[O-]
REMARK SMILES IDX 10 1 11 2 12 3 13 4 14 5 15 6 16 7 17 8 18 9 19 10 20 11
REMARK SMILES IDX 9 12 8 13 7 14 6 15 5 16 4 17 3 18 2 19 1 20
REMARK H PARENT
REMARK Flexibility Score: inf
ROOT
ATOM      1  C   UNL     1      42.659  44.549  15.122  1.00  0.00     0.000 C 
ENDROOT
BRANCH   1   2
ATOM      2  C   UNL     1      43.365  43.605  14.138  1.00  0.00     0.000 C 
BRANCH   2   3
ATOM      3  C   UNL     1      42.849  42.169  14.287  1.00  0.00     0.000 C 
BRANCH   3   4
ATOM      4  C   UNL     1      44.005  41.193  14.550  1.00  0.00     0.000 C 
BRANCH   4   5
ATOM      5  C   UNL     1      43.533  39.873  15.180  1.00  0.00     0.000 C 
BRANCH   5   6
ATOM      6  C   UNL     1      43.871  38.649  14.310  1.00  0.00     0.000 C 
BRANCH   6   7
ATOM      7  C   UNL     1      42.683  38.187  13.446  1.00  0.00     0.006 C 
BRANCH   7   8
ATOM      8  C   UNL     1      41.309  38.623  13.980  1.00  0.00     0.053 C 
BRANCH   8   9
ATOM      9  C   UNL     1      40.191  38.146  13.106  1.00  0.00     0.041 C 
ATOM     10  O   UNL     1      39.510  38.968  12.439  1.00  0.00    -0.550 OA
ATOM     11  O   UNL     1      39.922  36.786  13.002  1.00  0.00    -0.550 OA
ENDBRANCH   8   9
ENDBRANCH   7   8
ENDBRANCH   6   7
ENDBRANCH   5   6
ENDBRANCH   4   5
ENDBRANCH   3   4
ENDBRANCH   2   3
ENDBRANCH   1   2
BRANCH   1  12
ATOM     12  C   UNL     1      43.257  44.498  16.539  1.00  0.00     0.000 C 
BRANCH  12  13
ATOM     13  C   UNL     1      42.638  43.438  17.470  1.00  0.00    -0.000 C 
BRANCH  13  14
ATOM     14  C   UNL     1      41.133  43.243  17.238  1.00  0.00    -0.000 C 
BRANCH  14  15
ATOM     15  C   UNL     1      40.765  41.754  17.239  1.00  0.00    -0.000 C 
BRANCH  15  16
ATOM     16  C   UNL     1      41.891  40.911  17.855  1.00  0.00    -0.000 C 
BRANCH  16  17
ATOM     17  C   UNL     1      41.459  40.190  19.143  1.00  0.00    -0.000 C 
BRANCH  17  18
ATOM     18  C   UNL     1      42.213  40.624  20.413  1.00  0.00    -0.000 C 
BRANCH  18  19
ATOM     19  C   UNL     1      42.026  42.114  20.769  1.00  0.00    -0.003 C 
ATOM     20  C   UNL     1      43.356  42.863  20.868  1.00  0.00     0.004 C 
ENDBRANCH  18  19
ENDBRANCH  17  18
ENDBRANCH  16  17
ENDBRANCH  15  16
ENDBRANCH  14  15
ENDBRANCH  13  14
ENDBRANCH  12  13
ENDBRANCH   1  12
TORSDOF 16
ENDMDL
MODEL 8
REMARK VINA RESULT:    -4.339      3.061      6.393
REMARK INTER + INTRA:         -10.473
REMARK INTER:                  -8.542
REMARK INTRA:                  -1.931
REMARK UNBOUND:                -2.074
REMARK SMILES CCCCCCCCCCCCCCCCCC(=O)[O-]
REMARK SMILES IDX 10 1 11 2 12 3 13 4 14 5 15 6 16 7 17 8 18 9 19 10 20 11
REMARK SMILES IDX 9 12 8 13 7 14 6 15 5 16 4 17 3 18 2 19 1 20
REMARK H PARENT
REMARK Flexibility Score: inf
ROOT
ATOM      1  C   UNL     1      41.615  40.570  19.315  1.00  0.00     0.000 C 
ENDROOT
BRANCH   1   2
ATOM      2  C   UNL     1      41.246  40.376  17.838  1.00  0.00     0.000 C 
BRANCH   2   3
ATOM      3  C   UNL     1      40.379  41.535  17.331  1.00  0.00     0.000 C 
BRANCH   3   4
ATOM      4  C   UNL     1      40.750  41.910  15.889  1.00  0.00     0.000 C 
BRANCH   4   5
ATOM      5  C   UNL     1      41.558  40.810  15.182  1.00  0.00     0.000 C 
BRANCH   5   6
ATOM      6  C   UNL     1      43.029  41.207  14.961  1.00  0.00     0.000 C 
BRANCH   6   7
ATOM      7  C   UNL     1      43.961  39.988  14.832  1.00  0.00     0.006 C 
BRANCH   7   8
ATOM      8  C   UNL     1      43.244  38.633  14.947  1.00  0.00     0.053 C 
BRANCH   8   9
ATOM      9  C   UNL     1      43.558  37.734  13.791  1.00  0.00     0.041 C 
ATOM     10  O   UNL     1      44.571  37.950  13.076  1.00  0.00    -0.550 OA
ATOM     11  O   UNL     1      42.747  36.638  13.523  1.00  0.00    -0.550 OA
ENDBRANCH   8   9
ENDBRANCH   7   8
ENDBRANCH   6   7
ENDBRANCH   5   6
ENDBRANCH   4   5
ENDBRANCH   3   4
ENDBRANCH   2   3
ENDBRANCH   1   2
BRANCH   1  12
ATOM     12  C   UNL     1      41.708  42.052  19.723  1.00  0.00     0.000 C 
BRANCH  12  13
ATOM     13  C   UNL     1      43.129  42.647  19.692  1.00  0.00    -0.000 C 
BRANCH  13  14
ATOM     14  C   UNL     1      43.632  42.923  18.268  1.00  0.00    -0.000 C 
BRANCH  14  15
ATOM     15  C   UNL     1      42.839  44.062  17.615  1.00  0.00    -0.000 C 
BRANCH  15  16
ATOM     16  C   UNL     1      43.628  44.683  16.453  1.00  0.00    -0.000 C 
BRANCH  16  17
ATOM     17  C   UNL     1      42.759  44.929  15.207  1.00  0.00    -0.000 C 
BRANCH  17  18
ATOM     18  C   UNL     1      41.817  46.143  15.303  1.00  0.00    -0.000 C 
BRANCH  18  19
ATOM     19  C   UNL     1      41.865  47.067  14.068  1.00  0.00    -0.003 C 
ATOM     20  C   UNL     1      40.536  47.779  13.818  1.00  0.00     0.004 C 
ENDBRANCH  18  19
ENDBRANCH  17  18
ENDBRANCH  16  17
ENDBRANCH  15  16
ENDBRANCH  14  15
ENDBRANCH  13  14
ENDBRANCH  12  13
ENDBRANCH   1  12
TORSDOF 16
ENDMDL
