MODEL 1
REMARK VINA RESULT:    -3.877      0.000      0.000
REMARK INTER + INTRA:          -7.357
REMARK INTER:                  -6.144
REMARK INTRA:                  -1.213
REMARK UNBOUND:                -1.213
REMARK SMILES CCCCCCCCCCCC(=O)[O-]
REMARK SMILES IDX 7 1 8 2 9 3 10 4 11 5 12 6 13 7 14 8 6 9 5 10 4 11 3 12 2 13
REMARK SMILES IDX 1 14
REMARK H PARENT
REMARK Flexibility Score: inf
ROOT
ATOM      1  C   UNL     1      37.126  -8.941  10.911  1.00  0.00     0.000 C 
ENDROOT
BRANCH   1   2
ATOM      2  C   UNL     1      36.832  -7.489  11.327  1.00  0.00     0.000 C 
BRANCH   2   3
ATOM      3  C   UNL     1      37.559  -7.077  12.617  1.00  0.00     0.000 C 
BRANCH   3   4
ATOM      4  C   UNL     1      36.566  -6.538  13.658  1.00  0.00     0.006 C 
BRANCH   4   5
ATOM      5  C   UNL     1      35.111  -6.857  13.291  1.00  0.00     0.053 C 
BRANCH   5   6
ATOM      6  C   UNL     1      34.561  -7.973  14.126  1.00  0.00     0.041 C 
ATOM      7  O   UNL     1      35.225  -9.030  14.291  1.00  0.00    -0.550 OA
ATOM      8  O   UNL     1      33.327  -7.832  14.749  1.00  0.00    -0.550 OA
ENDBRANCH   5   6
ENDBRANCH   4   5
ENDBRANCH   3   4
ENDBRANCH   2   3
ENDBRANCH   1   2
BRANCH   1   9
ATOM      9  C   UNL     1      38.372  -9.571  11.566  1.00  0.00     0.000 C 
BRANCH   9  10
ATOM     10  C   UNL     1      39.563  -9.804  10.615  1.00  0.00    -0.000 C 
BRANCH  10  11
ATOM     11  C   UNL     1      39.578  -8.906   9.364  1.00  0.00    -0.000 C 
BRANCH  11  12
ATOM     12  C   UNL     1      40.619  -7.767   9.429  1.00  0.00    -0.000 C 
BRANCH  12  13
ATOM     13  C   UNL     1      39.970  -6.376   9.403  1.00  0.00    -0.003 C 
ATOM     14  C   UNL     1      38.755  -6.353   8.479  1.00  0.00     0.004 C 
ENDBRANCH  12  13
ENDBRANCH  11  12
ENDBRANCH  10  11
ENDBRANCH   9  10
ENDBRANCH   1   9
TORSDOF 10
ENDMDL
MODEL 2
REMARK VINA RESULT:    -3.847      3.619      6.020
REMARK INTER + INTRA:          -7.310
REMARK INTER:                  -6.042
REMARK INTRA:                  -1.267
REMARK UNBOUND:                -1.213
REMARK SMILES CCCCCCCCCCCC(=O)[O-]
REMARK SMILES IDX 7 1 8 2 9 3 10 4 11 5 12 6 13 7 14 8 6 9 5 10 4 11 3 12 2 13
REMARK SMILES IDX 1 14
REMARK H PARENT
REMARK Flexibility Score: inf
ROOT
ATOM      1  C   UNL     1      37.030  -8.910  10.621  1.00  0.00     0.000 C 
ENDROOT
BRANCH   1   2
ATOM      2  C   UNL     1      37.764  -7.560  10.548  1.00  0.00     0.000 C 
BRANCH   2   3
ATOM      3  C   UNL     1      39.098  -7.562  11.311  1.00  0.00     0.000 C 
BRANCH   3   4
ATOM      4  C   UNL     1      40.247  -7.088  10.408  1.00  0.00     0.006 C 
BRANCH   4   5
ATOM      5  C   UNL     1      40.567  -8.097   9.297  1.00  0.00     0.053 C 
BRANCH   5   6
ATOM      6  C   UNL     1      40.602  -7.445   7.949  1.00  0.00     0.041 C 
ATOM      7  O   UNL     1      41.573  -7.646   7.172  1.00  0.00    -0.550 OA
ATOM      8  O   UNL     1      39.547  -6.640   7.537  1.00  0.00    -0.550 OA
ENDBRANCH   5   6
ENDBRANCH   4   5
ENDBRANCH   3   4
ENDBRANCH   2   3
ENDBRANCH   1   2
BRANCH   1   9
ATOM      9  C   UNL     1      37.401  -9.794  11.830  1.00  0.00     0.000 C 
BRANCH   9  10
ATOM     10  C   UNL     1      36.250 -10.071  12.816  1.00  0.00    -0.000 C 
BRANCH  10  11
ATOM     11  C   UNL     1      36.050  -8.993  13.897  1.00  0.00    -0.000 C 
BRANCH  11  12
ATOM     12  C   UNL     1      34.862  -8.046  13.619  1.00  0.00    -0.000 C 
BRANCH  12  13
ATOM     13  C   UNL     1      35.317  -6.654  13.157  1.00  0.00    -0.003 C 
ATOM     14  C   UNL     1      36.618  -6.245  13.842  1.00  0.00     0.004 C 
ENDBRANCH  12  13
ENDBRANCH  11  12
ENDBRANCH  10  11
ENDBRANCH   9  10
ENDBRANCH   1   9
TORSDOF 10
ENDMDL
MODEL 3
REMARK VINA RESULT:    -3.791      1.300      2.087
REMARK INTER + INTRA:          -7.220
REMARK INTER:                  -5.628
REMARK INTRA:                  -1.593
REMARK UNBOUND:                -1.213
REMARK SMILES CCCCCCCCCCCC(=O)[O-]
REMARK SMILES IDX 7 1 8 2 9 3 10 4 11 5 12 6 13 7 14 8 6 9 5 10 4 11 3 12 2 13
REMARK SMILES IDX 1 14
REMARK H PARENT
REMARK Flexibility Score: inf
ROOT
ATOM      1  C   UNL     1      38.589 -10.486   9.468  1.00  0.00     0.000 C 
ENDROOT
BRANCH   1   2
ATOM      2  C   UNL     1      37.770  -9.859  10.610  1.00  0.00     0.000 C 
BRANCH   2   3
ATOM      3  C   UNL     1      38.646  -9.169  11.666  1.00  0.00     0.000 C 
BRANCH   3   4
ATOM      4  C   UNL     1      37.970  -7.894  12.192  1.00  0.00     0.006 C 
BRANCH   4   5
ATOM      5  C   UNL     1      36.573  -7.689  11.592  1.00  0.00     0.053 C 
BRANCH   5   6
ATOM      6  C   UNL     1      35.532  -7.516  12.656  1.00  0.00     0.041 C 
ATOM      7  O   UNL     1      35.142  -8.507  13.329  1.00  0.00    -0.550 OA
ATOM      8  O   UNL     1      35.017  -6.254  12.927  1.00  0.00    -0.550 OA
ENDBRANCH   5   6
ENDBRANCH   4   5
ENDBRANCH   3   4
ENDBRANCH   2   3
ENDBRANCH   1   2
BRANCH   1   9
ATOM      9  C   UNL     1      40.112 -10.547   9.710  1.00  0.00     0.000 C 
BRANCH   9  10
ATOM     10  C   UNL     1      40.972  -9.853   8.636  1.00  0.00    -0.000 C 
BRANCH  10  11
ATOM     11  C   UNL     1      40.522  -8.428   8.267  1.00  0.00    -0.000 C 
BRANCH  11  12
ATOM     12  C   UNL     1      40.884  -7.367   9.330  1.00  0.00    -0.000 C 
BRANCH  12  13
ATOM     13  C   UNL     1      39.858  -6.226   9.395  1.00  0.00    -0.003 C 
ATOM     14  C   UNL     1      38.571  -6.602   8.665  1.00  0.00     0.004 C 
ENDBRANCH  12  13
ENDBRANCH  11  12
ENDBRANCH  10  11
ENDBRANCH   9  10
ENDBRANCH   1   9
TORSDOF 10
ENDMDL
MODEL 4
REMARK VINA RESULT:    -3.784      3.467      5.907
REMARK INTER + INTRA:          -7.208
REMARK INTER:                  -5.954
REMARK INTRA:                  -1.254
REMARK UNBOUND:                -1.213
REMARK SMILES CCCCCCCCCCCC(=O)[O-]
REMARK SMILES IDX 7 1 8 2 9 3 10 4 11 5 12 6 13 7 14 8 6 9 5 10 4 11 3 12 2 13
REMARK SMILES IDX 1 14
REMARK H PARENT
REMARK Flexibility Score: inf
ROOT
ATOM      1  C   UNL     1      37.732  -9.533  12.526  1.00  0.00     0.000 C 
ENDROOT
BRANCH   1   2
ATOM      2  C   UNL     1      37.034  -8.927  11.296  1.00  0.00     0.000 C 
BRANCH   2   3
ATOM      3  C   UNL     1      37.789  -7.723  10.712  1.00  0.00     0.000 C 
BRANCH   3   4
ATOM      4  C   UNL     1      39.254  -7.716  11.176  1.00  0.00     0.006 C 
BRANCH   4   5
ATOM      5  C   UNL     1      40.161  -6.929  10.223  1.00  0.00     0.053 C 
BRANCH   5   6
ATOM      6  C   UNL     1      40.038  -7.415   8.811  1.00  0.00     0.041 C 
ATOM      7  O   UNL     1      39.642  -6.637   7.904  1.00  0.00    -0.550 OA
ATOM      8  O   UNL     1      40.392  -8.720   8.492  1.00  0.00    -0.550 OA
ENDBRANCH   5   6
ENDBRANCH   4   5
ENDBRANCH   3   4
ENDBRANCH   2   3
ENDBRANCH   1   2
BRANCH   1   9
ATOM      9  C   UNL     1      36.792 -10.205  13.548  1.00  0.00     0.000 C 
BRANCH   9  10
ATOM     10  C   UNL     1      35.287  -9.999  13.287  1.00  0.00    -0.000 C 
BRANCH  10  11
ATOM     11  C   UNL     1      34.590  -9.027  14.256  1.00  0.00    -0.000 C 
BRANCH  11  12
ATOM     12  C   UNL     1      34.791  -7.538  13.896  1.00  0.00    -0.000 C 
BRANCH  12  13
ATOM     13  C   UNL     1      35.832  -6.852  14.793  1.00  0.00    -0.003 C 
ATOM     14  C   UNL     1      36.925  -6.188  13.959  1.00  0.00     0.004 C 
ENDBRANCH  12  13
ENDBRANCH  11  12
ENDBRANCH  10  11
ENDBRANCH   9  10
ENDBRANCH   1   9
TORSDOF 10
ENDMDL
MODEL 5
REMARK VINA RESULT:    -3.751      2.206      3.257
REMARK INTER + INTRA:          -7.157
REMARK INTER:                  -6.441
REMARK INTRA:                  -0.716
REMARK UNBOUND:                -1.213
REMARK SMILES CCCCCCCCCCCC(=O)[O-]
REMARK SMILES IDX 7 1 8 2 9 3 10 4 11 5 12 6 13 7 14 8 6 9 5 10 4 11 3 12 2 13
REMARK SMILES IDX 1 14
REMARK H PARENT
REMARK Flexibility Score: inf
ROOT
ATOM      1  C   UNL     1      39.183  -7.401  10.948  1.00  0.00     0.000 C 
ENDROOT
BRANCH   1   2
ATOM      2  C   UNL     1      37.791  -7.493  10.298  1.00  0.00     0.000 C 
BRANCH   2   3
ATOM      3  C   UNL     1      36.857  -8.476  11.021  1.00  0.00     0.000 C 
BRANCH   3   4
ATOM      4  C   UNL     1      37.473  -8.944  12.347  1.00  0.00     0.006 C 
BRANCH   4   5
ATOM      5  C   UNL     1      36.570  -8.636  13.548  1.00  0.00     0.053 C 
BRANCH   5   6
ATOM      6  C   UNL     1      36.222  -7.181  13.621  1.00  0.00     0.041 C 
ATOM      7  O   UNL     1      35.027  -6.806  13.487  1.00  0.00    -0.550 OA
ATOM      8  O   UNL     1      37.213  -6.240  13.869  1.00  0.00    -0.550 OA
ENDBRANCH   5   6
ENDBRANCH   4   5
ENDBRANCH   3   4
ENDBRANCH   2   3
ENDBRANCH   1   2
BRANCH   1   9
ATOM      9  C   UNL     1      40.324  -6.980   9.999  1.00  0.00     0.000 C 
BRANCH   9  10
ATOM     10  C   UNL     1      39.894  -6.693   8.547  1.00  0.00    -0.000 C 
BRANCH  10  11
ATOM     11  C   UNL     1      40.781  -7.341   7.469  1.00  0.00    -0.000 C 
BRANCH  11  12
ATOM     12  C   UNL     1      41.893  -8.248   8.042  1.00  0.00    -0.000 C 
BRANCH  12  13
ATOM     13  C   UNL     1      43.229  -8.075   7.306  1.00  0.00    -0.003 C 
ATOM     14  C   UNL     1      44.373  -8.720   8.086  1.00  0.00     0.004 C 
ENDBRANCH  12  13
ENDBRANCH  11  12
ENDBRANCH  10  11
ENDBRANCH   9  10
ENDBRANCH   1   9
TORSDOF 10
ENDMDL
MODEL 6
REMARK VINA RESULT:    -3.731      1.655      3.235
REMARK INTER + INTRA:          -7.126
REMARK INTER:                  -5.592
REMARK INTRA:                  -1.533
REMARK UNBOUND:                -1.213
REMARK SMILES CCCCCCCCCCCC(=O)[O-]
REMARK SMILES IDX 7 1 8 2 9 3 10 4 11 5 12 6 13 7 14 8 6 9 5 10 4 11 3 12 2 13
REMARK SMILES IDX 1 14
REMARK H PARENT
REMARK Flexibility Score: inf
ROOT
ATOM      1  C   UNL     1      39.934  -6.970   9.988  1.00  0.00     0.000 C 
ENDROOT
BRANCH   1   2
ATOM      2  C   UNL     1      38.474  -6.977   9.503  1.00  0.00     0.000 C 
BRANCH   2   3
ATOM      3  C   UNL     1      37.479  -7.374  10.605  1.00  0.00     0.000 C 
BRANCH   3   4
ATOM      4  C   UNL     1      38.216  -7.877  11.855  1.00  0.00     0.006 C 
BRANCH   4   5
ATOM      5  C   UNL     1      37.251  -8.402  12.926  1.00  0.00     0.053 C 
BRANCH   5   6
ATOM      6  C   UNL     1      36.301  -7.338  13.384  1.00  0.00     0.041 C 
ATOM      7  O   UNL     1      35.061  -7.476  13.207  1.00  0.00    -0.550 OA
ATOM      8  O   UNL     1      36.781  -6.210  14.036  1.00  0.00    -0.550 OA
ENDBRANCH   5   6
ENDBRANCH   4   5
ENDBRANCH   3   4
ENDBRANCH   2   3
ENDBRANCH   1   2
BRANCH   1   9
ATOM      9  C   UNL     1      40.935  -7.694   9.064  1.00  0.00     0.000 C 
BRANCH   9  10
ATOM     10  C   UNL     1      40.476  -9.074   8.556  1.00  0.00    -0.000 C 
BRANCH  10  11
ATOM     11  C   UNL     1      40.714 -10.237   9.535  1.00  0.00    -0.000 C 
BRANCH  11  12
ATOM     12  C   UNL     1      39.413 -10.873  10.073  1.00  0.00    -0.000 C 
BRANCH  12  13
ATOM     13  C   UNL     1      38.223 -10.669   9.124  1.00  0.00    -0.003 C 
ATOM     14  C   UNL     1      36.919 -11.125   9.773  1.00  0.00     0.004 C 
ENDBRANCH  12  13
ENDBRANCH  11  12
ENDBRANCH  10  11
ENDBRANCH   9  10
ENDBRANCH   1   9
TORSDOF 10
ENDMDL
MODEL 7
REMARK VINA RESULT:    -3.714      4.727      7.147
REMARK INTER + INTRA:          -7.099
REMARK INTER:                  -6.334
REMARK INTRA:                  -0.765
REMARK UNBOUND:                -1.213
REMARK SMILES CCCCCCCCCCCC(=O)[O-]
REMARK SMILES IDX 7 1 8 2 9 3 10 4 11 5 12 6 13 7 14 8 6 9 5 10 4 11 3 12 2 13
REMARK SMILES IDX 1 14
REMARK H PARENT
REMARK Flexibility Score: inf
ROOT
ATOM      1  C   UNL     1      39.156  -7.333  10.889  1.00  0.00     0.000 C 
ENDROOT
BRANCH   1   2
ATOM      2  C   UNL     1      40.254  -6.873   9.915  1.00  0.00     0.000 C 
BRANCH   2   3
ATOM      3  C   UNL     1      39.794  -6.875   8.450  1.00  0.00     0.000 C 
BRANCH   3   4
ATOM      4  C   UNL     1      40.898  -7.413   7.528  1.00  0.00     0.006 C 
BRANCH   4   5
ATOM      5  C   UNL     1      41.926  -8.262   8.288  1.00  0.00     0.053 C 
BRANCH   5   6
ATOM      6  C   UNL     1      43.271  -8.224   7.631  1.00  0.00     0.041 C 
ATOM      7  O   UNL     1      43.571  -7.280   6.853  1.00  0.00    -0.550 OA
ATOM      8  O   UNL     1      44.206  -9.215   7.903  1.00  0.00    -0.550 OA
ENDBRANCH   5   6
ENDBRANCH   4   5
ENDBRANCH   3   4
ENDBRANCH   2   3
ENDBRANCH   1   2
BRANCH   1   9
ATOM      9  C   UNL     1      37.910  -7.957  10.226  1.00  0.00     0.000 C 
BRANCH   9  10
ATOM     10  C   UNL     1      37.262  -9.114  11.011  1.00  0.00    -0.000 C 
BRANCH  10  11
ATOM     11  C   UNL     1      36.448  -8.684  12.245  1.00  0.00    -0.000 C 
BRANCH  11  12
ATOM     12  C   UNL     1      35.608  -7.407  12.020  1.00  0.00    -0.000 C 
BRANCH  12  13
ATOM     13  C   UNL     1      35.534  -6.524  13.275  1.00  0.00    -0.003 C 
ATOM     14  C   UNL     1      36.917  -6.329  13.892  1.00  0.00     0.004 C 
ENDBRANCH  12  13
ENDBRANCH  11  12
ENDBRANCH  10  11
ENDBRANCH   9  10
ENDBRANCH   1   9
TORSDOF 10
ENDMDL
MODEL 8
REMARK VINA RESULT:    -3.710      1.713      2.749
REMARK INTER + INTRA:          -7.093
REMARK INTER:                  -6.539
REMARK INTRA:                  -0.554
REMARK UNBOUND:                -1.213
REMARK SMILES CCCCCCCCCCCC(=O)[O-]
REMARK SMILES IDX 7 1 8 2 9 3 10 4 11 5 12 6 13 7 14 8 6 9 5 10 4 11 3 12 2 13
REMARK SMILES IDX 1 14
REMARK H PARENT
REMARK Flexibility Score: inf
ROOT
ATOM      1  C   UNL     1      35.384  -7.101  12.452  1.00  0.00     0.000 C 
ENDROOT
BRANCH   1   2
ATOM      2  C   UNL     1      35.906  -6.351  13.689  1.00  0.00     0.000 C 
BRANCH   2   3
ATOM      3  C   UNL     1      35.497  -7.019  15.011  1.00  0.00     0.000 C 
BRANCH   3   4
ATOM      4  C   UNL     1      34.619  -8.253  14.753  1.00  0.00     0.006 C 
BRANCH   4   5
ATOM      5  C   UNL     1      33.152  -8.011  15.134  1.00  0.00     0.053 C 
BRANCH   5   6
ATOM      6  C   UNL     1      32.283  -9.170  14.755  1.00  0.00     0.041 C 
ATOM      7  O   UNL     1      31.030  -9.041  14.726  1.00  0.00    -0.550 OA
ATOM      8  O   UNL     1      32.857 -10.385  14.402  1.00  0.00    -0.550 OA
ENDBRANCH   5   6
ENDBRANCH   4   5
ENDBRANCH   3   4
ENDBRANCH   2   3
ENDBRANCH   1   2
BRANCH   1   9
ATOM      9  C   UNL     1      36.472  -7.755  11.574  1.00  0.00     0.000 C 
BRANCH   9  10
ATOM     10  C   UNL     1      37.920  -7.527  12.049  1.00  0.00    -0.000 C 
BRANCH  10  11
ATOM     11  C   UNL     1      38.959  -7.402  10.920  1.00  0.00    -0.000 C 
BRANCH  11  12
ATOM     12  C   UNL     1      38.345  -7.060   9.545  1.00  0.00    -0.000 C 
BRANCH  12  13
ATOM     13  C   UNL     1      39.231  -6.111   8.725  1.00  0.00    -0.003 C 
ATOM     14  C   UNL     1      39.932  -6.854   7.592  1.00  0.00     0.004 C 
ENDBRANCH  12  13
ENDBRANCH  11  12
ENDBRANCH  10  11
ENDBRANCH   9  10
ENDBRANCH   1   9
TORSDOF 10
ENDMDL
MODEL 9
REMARK VINA RESULT:    -3.653      3.450      7.218
REMARK INTER + INTRA:          -7.002
REMARK INTER:                  -6.520
REMARK INTRA:                  -0.482
REMARK UNBOUND:                -1.213
REMARK SMILES CCCCCCCCCCCC(=O)[O-]
REMARK SMILES IDX 7 1 8 2 9 3 10 4 11 5 12 6 13 7 14 8 6 9 5 10 4 11 3 12 2 13
REMARK SMILES IDX 1 14
REMARK H PARENT
REMARK Flexibility Score: inf
ROOT
ATOM      1  C   UNL     1      35.894  -6.676  14.368  1.00  0.00     0.000 C 
ENDROOT
BRANCH   1   2
ATOM      2  C   UNL     1      37.234  -6.605  13.615  1.00  0.00     0.000 C 
BRANCH   2   3
ATOM      3  C   UNL     1      37.275  -7.514  12.378  1.00  0.00     0.000 C 
BRANCH   3   4
ATOM      4  C   UNL     1      38.673  -7.514  11.743  1.00  0.00     0.006 C 
BRANCH   4   5
ATOM      5  C   UNL     1      38.636  -7.899  10.258  1.00  0.00     0.053 C 
BRANCH   5   6
ATOM      6  C   UNL     1      39.474  -6.979   9.425  1.00  0.00     0.041 C 
ATOM      7  O   UNL     1      40.729  -6.988   9.536  1.00  0.00    -0.550 OA
ATOM      8  O   UNL     1      38.872  -6.133   8.502  1.00  0.00    -0.550 OA
ENDBRANCH   5   6
ENDBRANCH   4   5
ENDBRANCH   3   4
ENDBRANCH   2   3
ENDBRANCH   1   2
BRANCH   1   9
ATOM      9  C   UNL     1      34.768  -7.430  13.632  1.00  0.00     0.000 C 
BRANCH   9  10
ATOM     10  C   UNL     1      34.163  -8.619  14.405  1.00  0.00    -0.000 C 
BRANCH  10  11
ATOM     11  C   UNL     1      33.477  -8.246  15.732  1.00  0.00    -0.000 C 
BRANCH  11  12
ATOM     12  C   UNL     1      31.985  -7.878  15.578  1.00  0.00    -0.000 C 
BRANCH  12  13
ATOM     13  C   UNL     1      31.224  -8.868  14.686  1.00  0.00    -0.003 C 
ATOM     14  C   UNL     1      30.714 -10.058  15.496  1.00  0.00     0.004 C 
ENDBRANCH  12  13
ENDBRANCH  11  12
ENDBRANCH  10  11
ENDBRANCH   9  10
ENDBRANCH   1   9
TORSDOF 10
ENDMDL
