MODEL 1
REMARK VINA RESULT:    -5.489      0.000      0.000
REMARK INTER + INTRA:         -15.069
REMARK INTER:                 -12.549
REMARK INTRA:                  -2.520
REMARK UNBOUND:                -2.520
REMARK SMILES CCCCCCCCCCCCCCCCCCCCCCCC(=O)[O-]
REMARK SMILES IDX 13 1 14 2 15 3 16 4 17 5 18 6 19 7 20 8 21 9 22 10 23 11
REMARK SMILES IDX 24 12 25 13 26 14 12 15 11 16 10 17 9 18 8 19 7 20 6 21 5 22
REMARK SMILES IDX 4 23 3 24 2 25 1 26
REMARK H PARENT
REMARK Flexibility Score: inf
ROOT
ATOM      1  C   UNL     1      45.067  -2.505  28.354  1.00  0.00     0.000 C 
ENDROOT
BRANCH   1   2
ATOM      2  C   UNL     1      44.387  -1.282  28.998  1.00  0.00     0.000 C 
BRANCH   2   3
ATOM      3  C   UNL     1      43.150  -1.671  29.836  1.00  0.00     0.000 C 
BRANCH   3   4
ATOM      4  C   UNL     1      43.099  -3.164  30.220  1.00  0.00     0.000 C 
BRANCH   4   5
ATOM      5  C   UNL     1      41.939  -3.960  29.600  1.00  0.00     0.000 C 
BRANCH   5   6
ATOM      6  C   UNL     1      42.353  -4.998  28.539  1.00  0.00     0.000 C 
BRANCH   6   7
ATOM      7  C   UNL     1      41.403  -5.060  27.324  1.00  0.00     0.000 C 
BRANCH   7   8
ATOM      8  C   UNL     1      40.008  -4.499  27.646  1.00  0.00     0.000 C 
BRANCH   8   9
ATOM      9  C   UNL     1      39.134  -4.305  26.394  1.00  0.00     0.000 C 
BRANCH   9  10
ATOM     10  C   UNL     1      38.767  -5.602  25.650  1.00  0.00     0.006 C 
BRANCH  10  11
ATOM     11  C   UNL     1      37.992  -6.600  26.522  1.00  0.00     0.053 C 
BRANCH  11  12
ATOM     12  C   UNL     1      36.744  -7.043  25.825  1.00  0.00     0.041 C 
ATOM     13  O   UNL     1      35.690  -7.255  26.481  1.00  0.00    -0.550 OA
ATOM     14  O   UNL     1      36.725  -7.153  24.442  1.00  0.00    -0.550 OA
ENDBRANCH  11  12
ENDBRANCH  10  11
ENDBRANCH   9  10
ENDBRANCH   8   9
ENDBRANCH   7   8
ENDBRANCH   6   7
ENDBRANCH   5   6
ENDBRANCH   4   5
ENDBRANCH   3   4
ENDBRANCH   2   3
ENDBRANCH   1   2
BRANCH   1  15
ATOM     15  C   UNL     1      46.238  -2.117  27.440  1.00  0.00     0.000 C 
BRANCH  15  16
ATOM     16  C   UNL     1      46.846  -3.325  26.707  1.00  0.00     0.000 C 
BRANCH  16  17
ATOM     17  C   UNL     1      46.245  -4.666  27.164  1.00  0.00     0.000 C 
BRANCH  17  18
ATOM     18  C   UNL     1      45.281  -5.322  26.154  1.00  0.00    -0.000 C 
BRANCH  18  19
ATOM     19  C   UNL     1      45.009  -6.820  26.394  1.00  0.00    -0.000 C 
BRANCH  19  20
ATOM     20  C   UNL     1      45.834  -7.772  25.513  1.00  0.00    -0.000 C 
BRANCH  20  21
ATOM     21  C   UNL     1      45.957  -7.278  24.059  1.00  0.00    -0.000 C 
BRANCH  21  22
ATOM     22  C   UNL     1      47.263  -7.729  23.386  1.00  0.00    -0.000 C 
BRANCH  22  23
ATOM     23  C   UNL     1      48.169  -6.549  22.994  1.00  0.00    -0.000 C 
BRANCH  23  24
ATOM     24  C   UNL     1      48.341  -5.545  24.156  1.00  0.00    -0.000 C 
BRANCH  24  25
ATOM     25  C   UNL     1      49.141  -6.108  25.344  1.00  0.00    -0.003 C 
ATOM     26  C   UNL     1      50.525  -6.615  24.951  1.00  0.00     0.004 C 
ENDBRANCH  24  25
ENDBRANCH  23  24
ENDBRANCH  22  23
ENDBRANCH  21  22
ENDBRANCH  20  21
ENDBRANCH  19  20
ENDBRANCH  18  19
ENDBRANCH  17  18
ENDBRANCH  16  17
ENDBRANCH  15  16
ENDBRANCH   1  15
TORSDOF 22
ENDMDL
MODEL 2
REMARK VINA RESULT:    -5.474      1.299      6.108
REMARK INTER + INTRA:         -15.034
REMARK INTER:                 -12.272
REMARK INTRA:                  -2.762
REMARK UNBOUND:                -2.520
REMARK SMILES CCCCCCCCCCCCCCCCCCCCCCCC(=O)[O-]
REMARK SMILES IDX 13 1 14 2 15 3 16 4 17 5 18 6 19 7 20 8 21 9 22 10 23 11
REMARK SMILES IDX 24 12 25 13 26 14 12 15 11 16 10 17 9 18 8 19 7 20 6 21 5 22
REMARK SMILES IDX 4 23 3 24 2 25 1 26
REMARK H PARENT
REMARK Flexibility Score: inf
ROOT
ATOM      1  C   UNL     1      47.932  -7.002  25.162  1.00  0.00     0.000 C 
ENDROOT
BRANCH   1   2
ATOM      2  C   UNL     1      46.782  -7.266  24.174  1.00  0.00     0.000 C 
BRANCH   2   3
ATOM      3  C   UNL     1      45.476  -7.677  24.888  1.00  0.00     0.000 C 
BRANCH   3   4
ATOM      4  C   UNL     1      44.760  -6.512  25.602  1.00  0.00     0.000 C 
BRANCH   4   5
ATOM      5  C   UNL     1      44.711  -6.616  27.136  1.00  0.00     0.000 C 
BRANCH   5   6
ATOM      6  C   UNL     1      44.094  -5.400  27.853  1.00  0.00     0.000 C 
BRANCH   6   7
ATOM      7  C   UNL     1      42.584  -5.546  28.139  1.00  0.00     0.000 C 
BRANCH   7   8
ATOM      8  C   UNL     1      41.725  -4.715  27.171  1.00  0.00     0.000 C 
BRANCH   8   9
ATOM      9  C   UNL     1      40.295  -4.478  27.688  1.00  0.00     0.000 C 
BRANCH   9  10
ATOM     10  C   UNL     1      39.226  -4.313  26.593  1.00  0.00     0.006 C 
BRANCH  10  11
ATOM     11  C   UNL     1      39.024  -5.581  25.750  1.00  0.00     0.053 C 
BRANCH  11  12
ATOM     12  C   UNL     1      38.168  -6.564  26.482  1.00  0.00     0.041 C 
ATOM     13  O   UNL     1      38.694  -7.497  27.145  1.00  0.00    -0.550 OA
ATOM     14  O   UNL     1      36.788  -6.410  26.491  1.00  0.00    -0.550 OA
ENDBRANCH  11  12
ENDBRANCH  10  11
ENDBRANCH   9  10
ENDBRANCH   8   9
ENDBRANCH   7   8
ENDBRANCH   6   7
ENDBRANCH   5   6
ENDBRANCH   4   5
ENDBRANCH   3   4
ENDBRANCH   2   3
ENDBRANCH   1   2
BRANCH   1  15
ATOM     15  C   UNL     1      48.424  -5.548  25.123  1.00  0.00     0.000 C 
BRANCH  15  16
ATOM     16  C   UNL     1      48.018  -4.749  26.373  1.00  0.00     0.000 C 
BRANCH  16  17
ATOM     17  C   UNL     1      47.071  -3.580  26.054  1.00  0.00     0.000 C 
BRANCH  17  18
ATOM     18  C   UNL     1      46.288  -3.030  27.264  1.00  0.00    -0.000 C 
BRANCH  18  19
ATOM     19  C   UNL     1      46.406  -1.508  27.479  1.00  0.00    -0.000 C 
BRANCH  19  20
ATOM     20  C   UNL     1      45.300  -0.895  28.352  1.00  0.00    -0.000 C 
BRANCH  20  21
ATOM     21  C   UNL     1      44.227  -1.923  28.759  1.00  0.00    -0.000 C 
BRANCH  21  22
ATOM     22  C   UNL     1      43.488  -1.531  30.048  1.00  0.00    -0.000 C 
BRANCH  22  23
ATOM     23  C   UNL     1      41.963  -1.702  29.935  1.00  0.00    -0.000 C 
BRANCH  23  24
ATOM     24  C   UNL     1      41.455  -2.902  30.765  1.00  0.00    -0.000 C 
BRANCH  24  25
ATOM     25  C   UNL     1      42.565  -3.626  31.545  1.00  0.00    -0.003 C 
ATOM     26  C   UNL     1      42.542  -3.329  33.042  1.00  0.00     0.004 C 
ENDBRANCH  24  25
ENDBRANCH  23  24
ENDBRANCH  22  23
ENDBRANCH  21  22
ENDBRANCH  20  21
ENDBRANCH  19  20
ENDBRANCH  18  19
ENDBRANCH  17  18
ENDBRANCH  16  17
ENDBRANCH  15  16
ENDBRANCH   1  15
TORSDOF 22
ENDMDL
MODEL 3
REMARK VINA RESULT:    -5.442      4.000      7.748
REMARK INTER + INTRA:         -14.960
REMARK INTER:                 -12.525
REMARK INTRA:                  -2.435
REMARK UNBOUND:                -2.520
REMARK SMILES CCCCCCCCCCCCCCCCCCCCCCCC(=O)[O-]
REMARK SMILES IDX 13 1 14 2 15 3 16 4 17 5 18 6 19 7 20 8 21 9 22 10 23 11
REMARK SMILES IDX 24 12 25 13 26 14 12 15 11 16 10 17 9 18 8 19 7 20 6 21 5 22
REMARK SMILES IDX 4 23 3 24 2 25 1 26
REMARK H PARENT
REMARK Flexibility Score: inf
ROOT
ATOM      1  C   UNL     1      48.471  -5.502  25.023  1.00  0.00     0.000 C 
ENDROOT
BRANCH   1   2
ATOM      2  C   UNL     1      48.086  -4.714  26.288  1.00  0.00     0.000 C 
BRANCH   2   3
ATOM      3  C   UNL     1      46.977  -3.674  26.018  1.00  0.00     0.000 C 
BRANCH   3   4
ATOM      4  C   UNL     1      46.260  -3.180  27.291  1.00  0.00     0.000 C 
BRANCH   4   5
ATOM      5  C   UNL     1      46.228  -1.653  27.473  1.00  0.00     0.000 C 
BRANCH   5   6
ATOM      6  C   UNL     1      45.148  -1.133  28.442  1.00  0.00     0.000 C 
BRANCH   6   7
ATOM      7  C   UNL     1      44.203  -2.235  28.969  1.00  0.00     0.000 C 
BRANCH   7   8
ATOM      8  C   UNL     1      43.094  -1.668  29.871  1.00  0.00     0.000 C 
BRANCH   8   9
ATOM      9  C   UNL     1      43.452  -0.298  30.474  1.00  0.00     0.000 C 
BRANCH   9  10
ATOM     10  C   UNL     1      42.652   0.087  31.732  1.00  0.00     0.006 C 
BRANCH  10  11
ATOM     11  C   UNL     1      42.628  -1.020  32.796  1.00  0.00     0.053 C 
BRANCH  11  12
ATOM     12  C   UNL     1      43.375  -0.587  34.017  1.00  0.00     0.041 C 
ATOM     13  O   UNL     1      43.408  -1.325  35.038  1.00  0.00    -0.550 OA
ATOM     14  O   UNL     1      44.096   0.599  34.004  1.00  0.00    -0.550 OA
ENDBRANCH  11  12
ENDBRANCH  10  11
ENDBRANCH   9  10
ENDBRANCH   8   9
ENDBRANCH   7   8
ENDBRANCH   6   7
ENDBRANCH   5   6
ENDBRANCH   4   5
ENDBRANCH   3   4
ENDBRANCH   2   3
ENDBRANCH   1   2
BRANCH   1  15
ATOM     15  C   UNL     1      48.084  -6.986  25.109  1.00  0.00     0.000 C 
BRANCH  15  16
ATOM     16  C   UNL     1      47.213  -7.444  23.927  1.00  0.00     0.000 C 
BRANCH  16  17
ATOM     17  C   UNL     1      45.707  -7.373  24.231  1.00  0.00     0.000 C 
BRANCH  17  18
ATOM     18  C   UNL     1      45.345  -7.395  25.730  1.00  0.00    -0.000 C 
BRANCH  18  19
ATOM     19  C   UNL     1      44.450  -6.232  26.200  1.00  0.00    -0.000 C 
BRANCH  19  20
ATOM     20  C   UNL     1      44.352  -6.074  27.726  1.00  0.00    -0.000 C 
BRANCH  20  21
ATOM     21  C   UNL     1      42.956  -5.611  28.187  1.00  0.00    -0.000 C 
BRANCH  21  22
ATOM     22  C   UNL     1      42.098  -5.071  27.032  1.00  0.00    -0.000 C 
BRANCH  22  23
ATOM     23  C   UNL     1      40.589  -5.193  27.305  1.00  0.00    -0.000 C 
BRANCH  23  24
ATOM     24  C   UNL     1      39.756  -4.325  26.335  1.00  0.00    -0.000 C 
BRANCH  24  25
ATOM     25  C   UNL     1      38.672  -3.487  27.034  1.00  0.00    -0.003 C 
ATOM     26  C   UNL     1      39.061  -3.055  28.445  1.00  0.00     0.004 C 
ENDBRANCH  24  25
ENDBRANCH  23  24
ENDBRANCH  22  23
ENDBRANCH  21  22
ENDBRANCH  20  21
ENDBRANCH  19  20
ENDBRANCH  18  19
ENDBRANCH  17  18
ENDBRANCH  16  17
ENDBRANCH  15  16
ENDBRANCH   1  15
TORSDOF 22
ENDMDL
MODEL 4
REMARK VINA RESULT:    -5.318      1.606      6.505
REMARK INTER + INTRA:         -14.678
REMARK INTER:                 -12.129
REMARK INTRA:                  -2.549
REMARK UNBOUND:                -2.520
REMARK SMILES CCCCCCCCCCCCCCCCCCCCCCCC(=O)[O-]
REMARK SMILES IDX 13 1 14 2 15 3 16 4 17 5 18 6 19 7 20 8 21 9 22 10 23 11
REMARK SMILES IDX 24 12 25 13 26 14 12 15 11 16 10 17 9 18 8 19 7 20 6 21 5 22
REMARK SMILES IDX 4 23 3 24 2 25 1 26
REMARK H PARENT
REMARK Flexibility Score: inf
ROOT
ATOM      1  C   UNL     1      48.964  -7.355  23.949  1.00  0.00     0.000 C 
ENDROOT
BRANCH   1   2
ATOM      2  C   UNL     1      48.237  -7.510  22.600  1.00  0.00     0.000 C 
BRANCH   2   3
ATOM      3  C   UNL     1      46.722  -7.753  22.773  1.00  0.00     0.000 C 
BRANCH   3   4
ATOM      4  C   UNL     1      46.109  -7.038  23.995  1.00  0.00     0.000 C 
BRANCH   4   5
ATOM      5  C   UNL     1      45.180  -7.904  24.861  1.00  0.00     0.000 C 
BRANCH   5   6
ATOM      6  C   UNL     1      45.514  -7.915  26.366  1.00  0.00     0.000 C 
BRANCH   6   7
ATOM      7  C   UNL     1      45.418  -6.526  27.034  1.00  0.00     0.000 C 
BRANCH   7   8
ATOM      8  C   UNL     1      44.027  -6.264  27.637  1.00  0.00     0.000 C 
BRANCH   8   9
ATOM      9  C   UNL     1      43.084  -5.525  26.671  1.00  0.00     0.000 C 
BRANCH   9  10
ATOM     10  C   UNL     1      41.981  -4.692  27.351  1.00  0.00     0.006 C 
BRANCH  10  11
ATOM     11  C   UNL     1      40.797  -4.385  26.423  1.00  0.00     0.053 C 
BRANCH  11  12
ATOM     12  C   UNL     1      39.635  -5.269  26.749  1.00  0.00     0.041 C 
ATOM     13  O   UNL     1      38.463  -4.916  26.452  1.00  0.00    -0.550 OA
ATOM     14  O   UNL     1      39.852  -6.517  27.319  1.00  0.00    -0.550 OA
ENDBRANCH  11  12
ENDBRANCH  10  11
ENDBRANCH   9  10
ENDBRANCH   8   9
ENDBRANCH   7   8
ENDBRANCH   6   7
ENDBRANCH   5   6
ENDBRANCH   4   5
ENDBRANCH   3   4
ENDBRANCH   2   3
ENDBRANCH   1   2
BRANCH   1  15
ATOM     15  C   UNL     1      49.049  -5.893  24.411  1.00  0.00     0.000 C 
BRANCH  15  16
ATOM     16  C   UNL     1      49.181  -5.759  25.937  1.00  0.00     0.000 C 
BRANCH  16  17
ATOM     17  C   UNL     1      48.638  -4.421  26.469  1.00  0.00     0.000 C 
BRANCH  17  18
ATOM     18  C   UNL     1      47.182  -4.107  26.070  1.00  0.00    -0.000 C 
BRANCH  18  19
ATOM     19  C   UNL     1      46.609  -2.808  26.670  1.00  0.00    -0.000 C 
BRANCH  19  20
ATOM     20  C   UNL     1      45.649  -3.015  27.852  1.00  0.00    -0.000 C 
BRANCH  20  21
ATOM     21  C   UNL     1      45.095  -1.689  28.408  1.00  0.00    -0.000 C 
BRANCH  21  22
ATOM     22  C   UNL     1      43.631  -1.800  28.862  1.00  0.00    -0.000 C 
BRANCH  22  23
ATOM     23  C   UNL     1      43.495  -2.280  30.318  1.00  0.00    -0.000 C 
BRANCH  23  24
ATOM     24  C   UNL     1      42.380  -3.337  30.473  1.00  0.00    -0.000 C 
BRANCH  24  25
ATOM     25  C   UNL     1      42.827  -4.599  31.231  1.00  0.00    -0.003 C 
ATOM     26  C   UNL     1      42.081  -5.858  30.798  1.00  0.00     0.004 C 
ENDBRANCH  24  25
ENDBRANCH  23  24
ENDBRANCH  22  23
ENDBRANCH  21  22
ENDBRANCH  20  21
ENDBRANCH  19  20
ENDBRANCH  18  19
ENDBRANCH  17  18
ENDBRANCH  16  17
ENDBRANCH  15  16
ENDBRANCH   1  15
TORSDOF 22
ENDMDL
MODEL 5
REMARK VINA RESULT:    -5.273      4.413     10.693
REMARK INTER + INTRA:         -14.576
REMARK INTER:                 -12.738
REMARK INTRA:                  -1.837
REMARK UNBOUND:                -2.520
REMARK SMILES CCCCCCCCCCCCCCCCCCCCCCCC(=O)[O-]
REMARK SMILES IDX 13 1 14 2 15 3 16 4 17 5 18 6 19 7 20 8 21 9 22 10 23 11
REMARK SMILES IDX 24 12 25 13 26 14 12 15 11 16 10 17 9 18 8 19 7 20 6 21 5 22
REMARK SMILES IDX 4 23 3 24 2 25 1 26
REMARK H PARENT
REMARK Flexibility Score: inf
ROOT
ATOM      1  C   UNL     1      40.274  -4.384  27.574  1.00  0.00     0.000 C 
ENDROOT
BRANCH   1   2
ATOM      2  C   UNL     1      40.994  -5.295  28.583  1.00  0.00     0.000 C 
BRANCH   2   3
ATOM      3  C   UNL     1      42.486  -5.491  28.239  1.00  0.00     0.000 C 
BRANCH   3   4
ATOM      4  C   UNL     1      42.786  -5.475  26.726  1.00  0.00     0.000 C 
BRANCH   4   5
ATOM      5  C   UNL     1      44.278  -5.528  26.354  1.00  0.00     0.000 C 
BRANCH   5   6
ATOM      6  C   UNL     1      45.108  -6.567  27.133  1.00  0.00     0.000 C 
BRANCH   6   7
ATOM      7  C   UNL     1      45.531  -7.787  26.286  1.00  0.00     0.000 C 
BRANCH   7   8
ATOM      8  C   UNL     1      45.197  -7.605  24.796  1.00  0.00     0.000 C 
BRANCH   8   9
ATOM      9  C   UNL     1      46.447  -7.425  23.917  1.00  0.00     0.000 C 
BRANCH   9  10
ATOM     10  C   UNL     1      47.779  -7.352  24.687  1.00  0.00     0.006 C 
BRANCH  10  11
ATOM     11  C   UNL     1      48.727  -6.270  24.153  1.00  0.00     0.053 C 
BRANCH  11  12
ATOM     12  C   UNL     1      49.832  -6.017  25.129  1.00  0.00     0.041 C 
ATOM     13  O   UNL     1      50.929  -6.627  25.021  1.00  0.00    -0.550 OA
ATOM     14  O   UNL     1      49.677  -5.054  26.117  1.00  0.00    -0.550 OA
ENDBRANCH  11  12
ENDBRANCH  10  11
ENDBRANCH   9  10
ENDBRANCH   8   9
ENDBRANCH   7   8
ENDBRANCH   6   7
ENDBRANCH   5   6
ENDBRANCH   4   5
ENDBRANCH   3   4
ENDBRANCH   2   3
ENDBRANCH   1   2
BRANCH   1  15
ATOM     15  C   UNL     1      38.897  -4.926  27.164  1.00  0.00     0.000 C 
BRANCH  15  16
ATOM     16  C   UNL     1      38.850  -5.381  25.695  1.00  0.00     0.000 C 
BRANCH  16  17
ATOM     17  C   UNL     1      38.440  -6.856  25.538  1.00  0.00     0.000 C 
BRANCH  17  18
ATOM     18  C   UNL     1      37.059  -7.080  24.889  1.00  0.00    -0.000 C 
BRANCH  18  19
ATOM     19  C   UNL     1      36.059  -7.880  25.747  1.00  0.00    -0.000 C 
BRANCH  19  20
ATOM     20  C   UNL     1      34.674  -8.070  25.109  1.00  0.00    -0.000 C 
BRANCH  20  21
ATOM     21  C   UNL     1      34.372  -7.022  24.021  1.00  0.00    -0.000 C 
BRANCH  21  22
ATOM     22  C   UNL     1      33.173  -6.128  24.374  1.00  0.00    -0.000 C 
BRANCH  22  23
ATOM     23  C   UNL     1      32.467  -6.565  25.670  1.00  0.00    -0.000 C 
BRANCH  23  24
ATOM     24  C   UNL     1      32.693  -5.555  26.817  1.00  0.00    -0.000 C 
BRANCH  24  25
ATOM     25  C   UNL     1      33.067  -6.215  28.155  1.00  0.00    -0.003 C 
ATOM     26  C   UNL     1      32.498  -7.623  28.312  1.00  0.00     0.004 C 
ENDBRANCH  24  25
ENDBRANCH  23  24
ENDBRANCH  22  23
ENDBRANCH  21  22
ENDBRANCH  20  21
ENDBRANCH  19  20
ENDBRANCH  18  19
ENDBRANCH  17  18
ENDBRANCH  16  17
ENDBRANCH  15  16
ENDBRANCH   1  15
TORSDOF 22
ENDMDL
MODEL 6
REMARK VINA RESULT:    -5.256      2.201      2.639
REMARK INTER + INTRA:         -14.537
REMARK INTER:                 -11.532
REMARK INTRA:                  -3.006
REMARK UNBOUND:                -2.520
REMARK SMILES CCCCCCCCCCCCCCCCCCCCCCCC(=O)[O-]
REMARK SMILES IDX 13 1 14 2 15 3 16 4 17 5 18 6 19 7 20 8 21 9 22 10 23 11
REMARK SMILES IDX 24 12 25 13 26 14 12 15 11 16 10 17 9 18 8 19 7 20 6 21 5 22
REMARK SMILES IDX 4 23 3 24 2 25 1 26
REMARK H PARENT
REMARK Flexibility Score: inf
ROOT
ATOM      1  C   UNL     1      45.522  -3.052  27.875  1.00  0.00     0.000 C 
ENDROOT
BRANCH   1   2
ATOM      2  C   UNL     1      45.225  -1.589  28.249  1.00  0.00     0.000 C 
BRANCH   2   3
ATOM      3  C   UNL     1      44.207  -1.472  29.404  1.00  0.00     0.000 C 
BRANCH   3   4
ATOM      4  C   UNL     1      42.795  -1.980  29.047  1.00  0.00     0.000 C 
BRANCH   4   5
ATOM      5  C   UNL     1      42.304  -3.182  29.870  1.00  0.00     0.000 C 
BRANCH   5   6
ATOM      6  C   UNL     1      42.944  -4.534  29.496  1.00  0.00     0.000 C 
BRANCH   6   7
ATOM      7  C   UNL     1      42.064  -5.403  28.570  1.00  0.00     0.000 C 
BRANCH   7   8
ATOM      8  C   UNL     1      42.031  -4.868  27.129  1.00  0.00     0.000 C 
BRANCH   8   9
ATOM      9  C   UNL     1      40.604  -4.748  26.566  1.00  0.00     0.000 C 
BRANCH   9  10
ATOM     10  C   UNL     1      39.487  -4.714  27.626  1.00  0.00     0.006 C 
BRANCH  10  11
ATOM     11  C   UNL     1      39.039  -3.291  27.987  1.00  0.00     0.053 C 
BRANCH  11  12
ATOM     12  C   UNL     1      38.762  -3.187  29.453  1.00  0.00     0.041 C 
ATOM     13  O   UNL     1      38.869  -4.200  30.194  1.00  0.00    -0.550 OA
ATOM     14  O   UNL     1      38.454  -1.956  30.015  1.00  0.00    -0.550 OA
ENDBRANCH  11  12
ENDBRANCH  10  11
ENDBRANCH   9  10
ENDBRANCH   8   9
ENDBRANCH   7   8
ENDBRANCH   6   7
ENDBRANCH   5   6
ENDBRANCH   4   5
ENDBRANCH   3   4
ENDBRANCH   2   3
ENDBRANCH   1   2
BRANCH   1  15
ATOM     15  C   UNL     1      46.592  -3.178  26.780  1.00  0.00     0.000 C 
BRANCH  15  16
ATOM     16  C   UNL     1      46.780  -4.625  26.296  1.00  0.00     0.000 C 
BRANCH  16  17
ATOM     17  C   UNL     1      46.429  -5.667  27.372  1.00  0.00     0.000 C 
BRANCH  17  18
ATOM     18  C   UNL     1      45.253  -6.598  27.014  1.00  0.00    -0.000 C 
BRANCH  18  19
ATOM     19  C   UNL     1      45.570  -7.665  25.947  1.00  0.00    -0.000 C 
BRANCH  19  20
ATOM     20  C   UNL     1      45.200  -7.265  24.509  1.00  0.00    -0.000 C 
BRANCH  20  21
ATOM     21  C   UNL     1      45.734  -8.258  23.461  1.00  0.00    -0.000 C 
BRANCH  21  22
ATOM     22  C   UNL     1      46.794  -7.635  22.538  1.00  0.00    -0.000 C 
BRANCH  22  23
ATOM     23  C   UNL     1      47.672  -6.596  23.258  1.00  0.00    -0.000 C 
BRANCH  23  24
ATOM     24  C   UNL     1      49.036  -7.188  23.677  1.00  0.00    -0.000 C 
BRANCH  24  25
ATOM     25  C   UNL     1      49.267  -7.189  25.198  1.00  0.00    -0.003 C 
ATOM     26  C   UNL     1      50.439  -6.312  25.630  1.00  0.00     0.004 C 
ENDBRANCH  24  25
ENDBRANCH  23  24
ENDBRANCH  22  23
ENDBRANCH  21  22
ENDBRANCH  20  21
ENDBRANCH  19  20
ENDBRANCH  18  19
ENDBRANCH  17  18
ENDBRANCH  16  17
ENDBRANCH  15  16
ENDBRANCH   1  15
TORSDOF 22
ENDMDL
MODEL 7
REMARK VINA RESULT:    -5.094      4.100      9.820
REMARK INTER + INTRA:         -14.167
REMARK INTER:                 -11.792
REMARK INTRA:                  -2.375
REMARK UNBOUND:                -2.520
REMARK SMILES CCCCCCCCCCCCCCCCCCCCCCCC(=O)[O-]
REMARK SMILES IDX 13 1 14 2 15 3 16 4 17 5 18 6 19 7 20 8 21 9 22 10 23 11
REMARK SMILES IDX 24 12 25 13 26 14 12 15 11 16 10 17 9 18 8 19 7 20 6 21 5 22
REMARK SMILES IDX 4 23 3 24 2 25 1 26
REMARK H PARENT
REMARK Flexibility Score: inf
ROOT
ATOM      1  C   UNL     1      38.923  -6.654  27.104  1.00  0.00     0.000 C 
ENDROOT
BRANCH   1   2
ATOM      2  C   UNL     1      38.923  -5.119  26.999  1.00  0.00     0.000 C 
BRANCH   2   3
ATOM      3  C   UNL     1      40.312  -4.510  27.293  1.00  0.00     0.000 C 
BRANCH   3   4
ATOM      4  C   UNL     1      41.468  -5.199  26.540  1.00  0.00     0.000 C 
BRANCH   4   5
ATOM      5  C   UNL     1      42.833  -5.143  27.247  1.00  0.00     0.000 C 
BRANCH   5   6
ATOM      6  C   UNL     1      44.029  -5.611  26.394  1.00  0.00     0.000 C 
BRANCH   6   7
ATOM      7  C   UNL     1      45.009  -6.534  27.152  1.00  0.00     0.000 C 
BRANCH   7   8
ATOM      8  C   UNL     1      45.456  -7.733  26.299  1.00  0.00     0.000 C 
BRANCH   8   9
ATOM      9  C   UNL     1      45.387  -7.455  24.787  1.00  0.00     0.000 C 
BRANCH   9  10
ATOM     10  C   UNL     1      46.752  -7.304  24.090  1.00  0.00     0.006 C 
BRANCH  10  11
ATOM     11  C   UNL     1      47.933  -7.298  25.070  1.00  0.00     0.053 C 
BRANCH  11  12
ATOM     12  C   UNL     1      48.507  -5.922  25.188  1.00  0.00     0.041 C 
ATOM     13  O   UNL     1      47.809  -4.977  25.643  1.00  0.00    -0.550 OA
ATOM     14  O   UNL     1      49.837  -5.695  24.861  1.00  0.00    -0.550 OA
ENDBRANCH  11  12
ENDBRANCH  10  11
ENDBRANCH   9  10
ENDBRANCH   8   9
ENDBRANCH   7   8
ENDBRANCH   6   7
ENDBRANCH   5   6
ENDBRANCH   4   5
ENDBRANCH   3   4
ENDBRANCH   2   3
ENDBRANCH   1   2
BRANCH   1  15
ATOM     15  C   UNL     1      38.395  -7.334  25.832  1.00  0.00     0.000 C 
BRANCH  15  16
ATOM     16  C   UNL     1      37.747  -6.342  24.852  1.00  0.00     0.000 C 
BRANCH  16  17
ATOM     17  C   UNL     1      36.553  -6.944  24.092  1.00  0.00     0.000 C 
BRANCH  17  18
ATOM     18  C   UNL     1      35.595  -7.791  24.955  1.00  0.00    -0.000 C 
BRANCH  18  19
ATOM     19  C   UNL     1      34.790  -6.997  26.003  1.00  0.00    -0.000 C 
BRANCH  19  20
ATOM     20  C   UNL     1      33.936  -7.861  26.945  1.00  0.00    -0.000 C 
BRANCH  20  21
ATOM     21  C   UNL     1      34.330  -9.350  26.906  1.00  0.00    -0.000 C 
BRANCH  21  22
ATOM     22  C   UNL     1      35.034  -9.812  28.192  1.00  0.00    -0.000 C 
BRANCH  22  23
ATOM     23  C   UNL     1      36.456  -9.241  28.329  1.00  0.00    -0.000 C 
BRANCH  23  24
ATOM     24  C   UNL     1      37.529 -10.248  27.859  1.00  0.00    -0.000 C 
BRANCH  24  25
ATOM     25  C   UNL     1      38.465 -10.722  28.984  1.00  0.00    -0.003 C 
ATOM     26  C   UNL     1      39.377  -9.618  29.513  1.00  0.00     0.004 C 
ENDBRANCH  24  25
ENDBRANCH  23  24
ENDBRANCH  22  23
ENDBRANCH  21  22
ENDBRANCH  20  21
ENDBRANCH  19  20
ENDBRANCH  18  19
ENDBRANCH  17  18
ENDBRANCH  16  17
ENDBRANCH  15  16
ENDBRANCH   1  15
TORSDOF 22
ENDMDL
MODEL 8
REMARK VINA RESULT:    -5.073      3.813      8.663
REMARK INTER + INTRA:         -14.118
REMARK INTER:                 -11.824
REMARK INTRA:                  -2.294
REMARK UNBOUND:                -2.520
REMARK SMILES CCCCCCCCCCCCCCCCCCCCCCCC(=O)[O-]
REMARK SMILES IDX 13 1 14 2 15 3 16 4 17 5 18 6 19 7 20 8 21 9 22 10 23 11
REMARK SMILES IDX 24 12 25 13 26 14 12 15 11 16 10 17 9 18 8 19 7 20 6 21 5 22
REMARK SMILES IDX 4 23 3 24 2 25 1 26
REMARK H PARENT
REMARK Flexibility Score: inf
ROOT
ATOM      1  C   UNL     1      42.430  -4.460  31.631  1.00  0.00     0.000 C 
ENDROOT
BRANCH   1   2
ATOM      2  C   UNL     1      42.082  -3.183  30.845  1.00  0.00     0.000 C 
BRANCH   2   3
ATOM      3  C   UNL     1      43.227  -2.147  30.870  1.00  0.00     0.000 C 
BRANCH   3   4
ATOM      4  C   UNL     1      43.975  -2.008  29.528  1.00  0.00     0.000 C 
BRANCH   4   5
ATOM      5  C   UNL     1      43.624  -3.070  28.472  1.00  0.00     0.000 C 
BRANCH   5   6
ATOM      6  C   UNL     1      44.820  -3.894  27.954  1.00  0.00     0.000 C 
BRANCH   6   7
ATOM      7  C   UNL     1      44.594  -5.421  28.012  1.00  0.00     0.000 C 
BRANCH   7   8
ATOM      8  C   UNL     1      44.428  -6.038  26.614  1.00  0.00     0.000 C 
BRANCH   8   9
ATOM      9  C   UNL     1      45.207  -7.355  26.442  1.00  0.00     0.000 C 
BRANCH   9  10
ATOM     10  C   UNL     1      46.125  -7.411  25.206  1.00  0.00     0.006 C 
BRANCH  10  11
ATOM     11  C   UNL     1      47.397  -6.566  25.359  1.00  0.00     0.053 C 
BRANCH  11  12
ATOM     12  C   UNL     1      48.547  -7.222  24.663  1.00  0.00     0.041 C 
ATOM     13  O   UNL     1      48.475  -7.496  23.436  1.00  0.00    -0.550 OA
ATOM     14  O   UNL     1      49.726  -7.468  25.353  1.00  0.00    -0.550 OA
ENDBRANCH  11  12
ENDBRANCH  10  11
ENDBRANCH   9  10
ENDBRANCH   8   9
ENDBRANCH   7   8
ENDBRANCH   6   7
ENDBRANCH   5   6
ENDBRANCH   4   5
ENDBRANCH   3   4
ENDBRANCH   2   3
ENDBRANCH   1   2
BRANCH   1  15
ATOM     15  C   UNL     1      42.349  -5.727  30.766  1.00  0.00     0.000 C 
BRANCH  15  16
ATOM     16  C   UNL     1      40.998  -6.451  30.897  1.00  0.00     0.000 C 
BRANCH  16  17
ATOM     17  C   UNL     1      40.124  -6.318  29.638  1.00  0.00     0.000 C 
BRANCH  17  18
ATOM     18  C   UNL     1      40.881  -5.891  28.365  1.00  0.00    -0.000 C 
BRANCH  18  19
ATOM     19  C   UNL     1      40.460  -4.526  27.784  1.00  0.00    -0.000 C 
BRANCH  19  20
ATOM     20  C   UNL     1      39.032  -4.482  27.217  1.00  0.00    -0.000 C 
BRANCH  20  21
ATOM     21  C   UNL     1      38.892  -5.271  25.901  1.00  0.00    -0.000 C 
BRANCH  21  22
ATOM     22  C   UNL     1      38.114  -6.585  26.076  1.00  0.00    -0.000 C 
BRANCH  22  23
ATOM     23  C   UNL     1      37.246  -6.929  24.852  1.00  0.00    -0.000 C 
BRANCH  23  24
ATOM     24  C   UNL     1      35.851  -7.450  25.265  1.00  0.00    -0.000 C 
BRANCH  24  25
ATOM     25  C   UNL     1      34.825  -7.438  24.119  1.00  0.00    -0.003 C 
ATOM     26  C   UNL     1      33.530  -6.715  24.479  1.00  0.00     0.004 C 
ENDBRANCH  24  25
ENDBRANCH  23  24
ENDBRANCH  22  23
ENDBRANCH  21  22
ENDBRANCH  20  21
ENDBRANCH  19  20
ENDBRANCH  18  19
ENDBRANCH  17  18
ENDBRANCH  16  17
ENDBRANCH  15  16
ENDBRANCH   1  15
TORSDOF 22
ENDMDL
MODEL 9
REMARK VINA RESULT:    -5.071      4.320      6.490
REMARK INTER + INTRA:         -14.113
REMARK INTER:                 -11.912
REMARK INTRA:                  -2.201
REMARK UNBOUND:                -2.520
REMARK SMILES CCCCCCCCCCCCCCCCCCCCCCCC(=O)[O-]
REMARK SMILES IDX 13 1 14 2 15 3 16 4 17 5 18 6 19 7 20 8 21 9 22 10 23 11
REMARK SMILES IDX 24 12 25 13 26 14 12 15 11 16 10 17 9 18 8 19 7 20 6 21 5 22
REMARK SMILES IDX 4 23 3 24 2 25 1 26
REMARK H PARENT
REMARK Flexibility Score: inf
ROOT
ATOM      1  C   UNL     1      43.340  -4.059  28.643  1.00  0.00     0.000 C 
ENDROOT
BRANCH   1   2
ATOM      2  C   UNL     1      44.075  -2.706  28.661  1.00  0.00     0.000 C 
BRANCH   2   3
ATOM      3  C   UNL     1      43.405  -1.685  29.605  1.00  0.00     0.000 C 
BRANCH   3   4
ATOM      4  C   UNL     1      42.051  -2.156  30.176  1.00  0.00     0.000 C 
BRANCH   4   5
ATOM      5  C   UNL     1      41.939  -2.118  31.709  1.00  0.00     0.000 C 
BRANCH   5   6
ATOM      6  C   UNL     1      43.251  -1.793  32.451  1.00  0.00     0.000 C 
BRANCH   6   7
ATOM      7  C   UNL     1      43.063  -1.533  33.962  1.00  0.00     0.000 C 
BRANCH   7   8
ATOM      8  C   UNL     1      42.356  -0.196  34.240  1.00  0.00     0.000 C 
BRANCH   8   9
ATOM      9  C   UNL     1      43.337   0.978  34.407  1.00  0.00     0.000 C 
BRANCH   9  10
ATOM     10  C   UNL     1      43.030   2.212  33.538  1.00  0.00     0.006 C 
BRANCH  10  11
ATOM     11  C   UNL     1      43.959   2.340  32.322  1.00  0.00     0.053 C 
BRANCH  11  12
ATOM     12  C   UNL     1      43.169   2.295  31.053  1.00  0.00     0.041 C 
ATOM     13  O   UNL     1      43.503   3.007  30.069  1.00  0.00    -0.550 OA
ATOM     14  O   UNL     1      42.103   1.413  30.932  1.00  0.00    -0.550 OA
ENDBRANCH  11  12
ENDBRANCH  10  11
ENDBRANCH   9  10
ENDBRANCH   8   9
ENDBRANCH   7   8
ENDBRANCH   6   7
ENDBRANCH   5   6
ENDBRANCH   4   5
ENDBRANCH   3   4
ENDBRANCH   2   3
ENDBRANCH   1   2
BRANCH   1  15
ATOM     15  C   UNL     1      44.080  -5.123  27.820  1.00  0.00     0.000 C 
BRANCH  15  16
ATOM     16  C   UNL     1      45.567  -4.787  27.612  1.00  0.00     0.000 C 
BRANCH  16  17
ATOM     17  C   UNL     1      46.299  -5.823  26.742  1.00  0.00     0.000 C 
BRANCH  17  18
ATOM     18  C   UNL     1      45.453  -7.050  26.344  1.00  0.00    -0.000 C 
BRANCH  18  19
ATOM     19  C   UNL     1      45.031  -7.096  24.862  1.00  0.00    -0.000 C 
BRANCH  19  20
ATOM     20  C   UNL     1      45.876  -8.031  23.982  1.00  0.00    -0.000 C 
BRANCH  20  21
ATOM     21  C   UNL     1      46.513  -7.304  22.783  1.00  0.00    -0.000 C 
BRANCH  21  22
ATOM     22  C   UNL     1      47.887  -6.703  23.114  1.00  0.00    -0.000 C 
BRANCH  22  23
ATOM     23  C   UNL     1      48.856  -7.732  23.722  1.00  0.00    -0.000 C 
BRANCH  23  24
ATOM     24  C   UNL     1      49.229  -7.381  25.180  1.00  0.00    -0.000 C 
BRANCH  24  25
ATOM     25  C   UNL     1      50.439  -6.439  25.296  1.00  0.00    -0.003 C 
ATOM     26  C   UNL     1      50.148  -5.182  26.111  1.00  0.00     0.004 C 
ENDBRANCH  24  25
ENDBRANCH  23  24
ENDBRANCH  22  23
ENDBRANCH  21  22
ENDBRANCH  20  21
ENDBRANCH  19  20
ENDBRANCH  18  19
ENDBRANCH  17  18
ENDBRANCH  16  17
ENDBRANCH  15  16
ENDBRANCH   1  15
TORSDOF 22
ENDMDL
