MODEL 1
REMARK VINA RESULT:    -6.122      0.000      0.000
REMARK INTER + INTRA:         -10.928
REMARK INTER:                  -8.985
REMARK INTRA:                  -1.944
REMARK UNBOUND:                -1.944
REMARK SMILES O=c1c(O[C@H]2O[C@H](CO)[C@@H](O)[C@H](O)[C@H]2O)c(-c2ccc(O)c(O)c2)oc2cc(O)cc(O)c12
REMARK SMILES IDX 4 1 3 2 16 3 25 4 2 5 26 6 1 7 33 8 27 9 31 10 28 11 30 12
REMARK SMILES IDX 17 13 18 14 19 15 20 16 24 17 22 18 21 19 23 21 32 23 29 25
REMARK SMILES IDX 5 27 14 28 6 29 12 30 7 31 10 32 15 33 13 35 8 37 9 38 11 40
REMARK H PARENT 21 20 23 22 32 24 29 26 15 34 13 36 9 39 11 41
REMARK Flexibility Score: inf
ROOT
ATOM      1  O   UNL     1      18.913  -6.020 -13.724  1.00  0.00    -0.454 OA
ENDROOT
BRANCH   1   2
ATOM      2  C   UNL     1      18.076  -5.061 -13.115  1.00  0.00     0.214 A 
ATOM      3  C   UNL     1      16.703  -5.086 -13.434  1.00  0.00     0.180 A 
ATOM      4  O   UNL     1      15.888  -4.149 -12.963  1.00  0.00    -0.452 OA
ATOM      5  C   UNL     1      18.538  -4.056 -12.236  1.00  0.00     0.239 A 
ATOM      6  C   UNL     1      16.286  -3.175 -12.157  1.00  0.00     0.146 A 
ATOM      7  O   UNL     1      19.751  -4.011 -11.897  1.00  0.00    -0.285 OA
ATOM      8  C   UNL     1      17.634  -3.090 -11.742  1.00  0.00     0.111 A 
ATOM      9  C   UNL     1      15.350  -2.231 -11.721  1.00  0.00     0.094 A 
ATOM     10  C   UNL     1      18.018  -2.045 -10.866  1.00  0.00     0.134 A 
ATOM     11  C   UNL     1      15.739  -1.194 -10.868  1.00  0.00     0.123 A 
ATOM     12  C   UNL     1      17.065  -1.106 -10.442  1.00  0.00     0.093 A 
BRANCH   3  13
ATOM     13  C   UNL     1      16.127  -6.127 -14.315  1.00  0.00     0.025 A 
ATOM     14  C   UNL     1      15.576  -7.306 -13.782  1.00  0.00     0.016 A 
ATOM     15  C   UNL     1      15.022  -8.270 -14.627  1.00  0.00     0.051 A 
ATOM     16  C   UNL     1      14.993  -8.063 -16.013  1.00  0.00     0.157 A 
ATOM     17  C   UNL     1      16.078  -5.914 -15.703  1.00  0.00     0.062 A 
ATOM     18  C   UNL     1      15.521  -6.877 -16.552  1.00  0.00     0.158 A 
BRANCH  16  19
ATOM     19  O   UNL     1      14.439  -9.027 -16.853  1.00  0.00    -0.504 OA
ATOM     20  H   UNL     1      14.951  -9.863 -17.113  1.00  0.00     0.293 HD
ENDBRANCH  16  19
BRANCH  18  21
ATOM     21  O   UNL     1      15.501  -6.637 -17.925  1.00  0.00    -0.504 OA
ATOM     22  H   UNL     1      16.189  -6.047 -18.379  1.00  0.00     0.293 HD
ENDBRANCH  18  21
ENDBRANCH   3  13
BRANCH  10  23
ATOM     23  O   UNL     1      19.334  -1.933 -10.411  1.00  0.00    -0.507 OA
ATOM     24  H   UNL     1      19.945  -2.739 -10.338  1.00  0.00     0.293 HD
ENDBRANCH  10  23
BRANCH  11  25
ATOM     25  O   UNL     1      14.815  -0.244 -10.439  1.00  0.00    -0.508 OA
ATOM     26  H   UNL     1      14.464  -0.238  -9.489  1.00  0.00     0.293 HD
ENDBRANCH  11  25
ENDBRANCH   1   2
BRANCH   1  27
ATOM     27  C   UNL     1      19.204  -7.341 -13.258  1.00  0.00     0.339 C 
ATOM     28  C   UNL     1      20.723  -7.524 -13.082  1.00  0.00     0.214 C 
ATOM     29  O   UNL     1      18.672  -8.330 -14.125  1.00  0.00    -0.332 OA
ATOM     30  C   UNL     1      21.420  -7.492 -14.448  1.00  0.00     0.180 C 
ATOM     31  C   UNL     1      19.219  -8.239 -15.432  1.00  0.00     0.179 C 
ATOM     32  C   UNL     1      20.747  -8.488 -15.406  1.00  0.00     0.177 C 
BRANCH  28  33
ATOM     33  O   UNL     1      21.246  -6.503 -12.270  1.00  0.00    -0.384 OA
ATOM     34  H   UNL     1      21.013  -5.642 -12.707  1.00  0.00     0.211 HD
ENDBRANCH  28  33
BRANCH  30  35
ATOM     35  O   UNL     1      22.773  -7.829 -14.281  1.00  0.00    -0.387 OA
ATOM     36  H   UNL     1      23.226  -7.026 -13.909  1.00  0.00     0.211 HD
ENDBRANCH  30  35
BRANCH  31  37
ATOM     37  C   UNL     1      18.497  -9.280 -16.308  1.00  0.00     0.191 C 
BRANCH  37  38
ATOM     38  O   UNL     1      18.391  -8.853 -17.640  1.00  0.00    -0.394 OA
ATOM     39  H   UNL     1      17.441  -8.972 -17.902  1.00  0.00     0.210 HD
ENDBRANCH  37  38
ENDBRANCH  31  37
BRANCH  32  40
ATOM     40  O   UNL     1      21.285  -8.310 -16.694  1.00  0.00    -0.387 OA
ATOM     41  H   UNL     1      20.894  -7.476 -17.067  1.00  0.00     0.211 HD
ENDBRANCH  32  40
ENDBRANCH   1  27
TORSDOF 12
ENDMDL
MODEL 2
REMARK VINA RESULT:    -5.855      2.033      7.396
REMARK INTER + INTRA:         -10.537
REMARK INTER:                  -8.831
REMARK INTRA:                  -1.706
REMARK UNBOUND:                -1.944
REMARK SMILES O=c1c(O[C@H]2O[C@H](CO)[C@@H](O)[C@H](O)[C@H]2O)c(-c2ccc(O)c(O)c2)oc2cc(O)cc(O)c12
REMARK SMILES IDX 4 1 3 2 16 3 25 4 2 5 26 6 1 7 33 8 27 9 31 10 28 11 30 12
REMARK SMILES IDX 17 13 18 14 19 15 20 16 24 17 22 18 21 19 23 21 32 23 29 25
REMARK SMILES IDX 5 27 14 28 6 29 12 30 7 31 10 32 15 33 13 35 8 37 9 38 11 40
REMARK H PARENT 21 20 23 22 32 24 29 26 15 34 13 36 9 39 11 41
REMARK Flexibility Score: inf
ROOT
ATOM      1  O   UNL     1      17.759  -3.393 -11.806  1.00  0.00    -0.454 OA
ENDROOT
BRANCH   1   2
ATOM      2  C   UNL     1      17.418  -4.107 -12.973  1.00  0.00     0.214 A 
ATOM      3  C   UNL     1      16.460  -3.540 -13.839  1.00  0.00     0.180 A 
ATOM      4  O   UNL     1      16.034  -4.213 -14.901  1.00  0.00    -0.452 OA
ATOM      5  C   UNL     1      17.949  -5.375 -13.306  1.00  0.00     0.239 A 
ATOM      6  C   UNL     1      16.488  -5.413 -15.234  1.00  0.00     0.146 A 
ATOM      7  O   UNL     1      18.829  -5.909 -12.580  1.00  0.00    -0.285 OA
ATOM      8  C   UNL     1      17.482  -6.048 -14.456  1.00  0.00     0.111 A 
ATOM      9  C   UNL     1      15.969  -6.043 -16.369  1.00  0.00     0.094 A 
ATOM     10  C   UNL     1      17.955  -7.323 -14.853  1.00  0.00     0.134 A 
ATOM     11  C   UNL     1      16.429  -7.308 -16.748  1.00  0.00     0.123 A 
ATOM     12  C   UNL     1      17.420  -7.940 -15.994  1.00  0.00     0.093 A 
BRANCH   3  13
ATOM     13  C   UNL     1      15.881  -2.201 -13.588  1.00  0.00     0.025 A 
ATOM     14  C   UNL     1      16.338  -1.069 -14.286  1.00  0.00     0.016 A 
ATOM     15  C   UNL     1      15.769   0.184 -14.049  1.00  0.00     0.051 A 
ATOM     16  C   UNL     1      14.723   0.321 -13.126  1.00  0.00     0.157 A 
ATOM     17  C   UNL     1      14.820  -2.062 -12.678  1.00  0.00     0.062 A 
ATOM     18  C   UNL     1      14.245  -0.809 -12.439  1.00  0.00     0.158 A 
BRANCH  16  19
ATOM     19  O   UNL     1      14.157   1.573 -12.891  1.00  0.00    -0.504 OA
ATOM     20  H   UNL     1      13.284   1.851 -13.325  1.00  0.00     0.293 HD
ENDBRANCH  16  19
BRANCH  18  21
ATOM     21  O   UNL     1      13.202  -0.707 -11.520  1.00  0.00    -0.504 OA
ATOM     22  H   UNL     1      12.342  -1.233 -11.620  1.00  0.00     0.293 HD
ENDBRANCH  18  21
ENDBRANCH   3  13
BRANCH  10  23
ATOM     23  O   UNL     1      18.953  -7.979 -14.128  1.00  0.00    -0.507 OA
ATOM     24  H   UNL     1      18.851  -8.943 -13.832  1.00  0.00     0.293 HD
ENDBRANCH  10  23
BRANCH  11  25
ATOM     25  O   UNL     1      15.909  -7.946 -17.871  1.00  0.00    -0.508 OA
ATOM     26  H   UNL     1      15.913  -7.503 -18.781  1.00  0.00     0.293 HD
ENDBRANCH  11  25
ENDBRANCH   1   2
BRANCH   1  27
ATOM     27  C   UNL     1      18.656  -2.283 -11.697  1.00  0.00     0.339 C 
ATOM     28  C   UNL     1      19.886  -2.670 -10.855  1.00  0.00     0.214 C 
ATOM     29  O   UNL     1      18.010  -1.142 -11.155  1.00  0.00    -0.332 OA
ATOM     30  C   UNL     1      19.475  -2.909  -9.398  1.00  0.00     0.180 C 
ATOM     31  C   UNL     1      17.515  -1.383  -9.847  1.00  0.00     0.179 C 
ATOM     32  C   UNL     1      18.674  -1.707  -8.872  1.00  0.00     0.177 C 
BRANCH  28  33
ATOM     33  O   UNL     1      20.479  -3.836 -11.368  1.00  0.00    -0.384 OA
ATOM     34  H   UNL     1      21.435  -3.813 -11.101  1.00  0.00     0.211 HD
ENDBRANCH  28  33
BRANCH  30  35
ATOM     35  O   UNL     1      20.629  -3.092  -8.619  1.00  0.00    -0.387 OA
ATOM     36  H   UNL     1      20.726  -4.070  -8.474  1.00  0.00     0.211 HD
ENDBRANCH  30  35
BRANCH  31  37
ATOM     37  C   UNL     1      16.747  -0.124  -9.404  1.00  0.00     0.191 C 
BRANCH  37  38
ATOM     38  O   UNL     1      17.319   0.457  -8.262  1.00  0.00    -0.394 OA
ATOM     39  H   UNL     1      17.553  -0.290  -7.650  1.00  0.00     0.210 HD
ENDBRANCH  37  38
ENDBRANCH  31  37
BRANCH  32  40
ATOM     40  O   UNL     1      18.159  -2.027  -7.603  1.00  0.00    -0.387 OA
ATOM     41  H   UNL     1      18.556  -1.391  -6.951  1.00  0.00     0.211 HD
ENDBRANCH  32  40
ENDBRANCH   1  27
TORSDOF 12
ENDMDL
MODEL 3
REMARK VINA RESULT:    -5.668      2.787      7.970
REMARK INTER + INTRA:         -10.263
REMARK INTER:                  -8.737
REMARK INTRA:                  -1.525
REMARK UNBOUND:                -1.944
REMARK SMILES O=c1c(O[C@H]2O[C@H](CO)[C@@H](O)[C@H](O)[C@H]2O)c(-c2ccc(O)c(O)c2)oc2cc(O)cc(O)c12
REMARK SMILES IDX 4 1 3 2 16 3 25 4 2 5 26 6 1 7 33 8 27 9 31 10 28 11 30 12
REMARK SMILES IDX 17 13 18 14 19 15 20 16 24 17 22 18 21 19 23 21 32 23 29 25
REMARK SMILES IDX 5 27 14 28 6 29 12 30 7 31 10 32 15 33 13 35 8 37 9 38 11 40
REMARK H PARENT 21 20 23 22 32 24 29 26 15 34 13 36 9 39 11 41
REMARK Flexibility Score: inf
ROOT
ATOM      1  O   UNL     1      17.220  -1.396 -11.497  1.00  0.00    -0.454 OA
ENDROOT
BRANCH   1   2
ATOM      2  C   UNL     1      17.276  -2.326 -12.555  1.00  0.00     0.214 A 
ATOM      3  C   UNL     1      16.513  -2.058 -13.711  1.00  0.00     0.180 A 
ATOM      4  O   UNL     1      16.456  -2.945 -14.697  1.00  0.00    -0.452 OA
ATOM      5  C   UNL     1      18.022  -3.526 -12.512  1.00  0.00     0.239 A 
ATOM      6  C   UNL     1      17.118  -4.093 -14.685  1.00  0.00     0.146 A 
ATOM      7  O   UNL     1      18.743  -3.795 -11.516  1.00  0.00    -0.285 OA
ATOM      8  C   UNL     1      17.948  -4.433 -13.593  1.00  0.00     0.111 A 
ATOM      9  C   UNL     1      16.986  -4.965 -15.771  1.00  0.00     0.094 A 
ATOM     10  C   UNL     1      18.655  -5.661 -13.623  1.00  0.00     0.134 A 
ATOM     11  C   UNL     1      17.675  -6.181 -15.788  1.00  0.00     0.123 A 
ATOM     12  C   UNL     1      18.506  -6.523 -14.720  1.00  0.00     0.093 A 
BRANCH   3  13
ATOM     13  C   UNL     1      15.734  -0.808 -13.856  1.00  0.00     0.025 A 
ATOM     14  C   UNL     1      14.405  -0.723 -13.404  1.00  0.00     0.016 A 
ATOM     15  C   UNL     1      13.689   0.469 -13.535  1.00  0.00     0.051 A 
ATOM     16  C   UNL     1      14.297   1.598 -14.101  1.00  0.00     0.157 A 
ATOM     17  C   UNL     1      16.344   0.331 -14.405  1.00  0.00     0.062 A 
ATOM     18  C   UNL     1      15.632   1.529 -14.535  1.00  0.00     0.158 A 
BRANCH  16  19
ATOM     19  O   UNL     1      13.581   2.787 -14.230  1.00  0.00    -0.504 OA
ATOM     20  H   UNL     1      12.767   2.982 -13.657  1.00  0.00     0.293 HD
ENDBRANCH  16  19
BRANCH  18  21
ATOM     21  O   UNL     1      16.267   2.636 -15.097  1.00  0.00    -0.504 OA
ATOM     22  H   UNL     1      16.559   3.430 -14.538  1.00  0.00     0.293 HD
ENDBRANCH  18  21
ENDBRANCH   3  13
BRANCH  10  23
ATOM     23  O   UNL     1      19.504  -6.030 -12.576  1.00  0.00    -0.507 OA
ATOM     24  H   UNL     1      20.459  -5.695 -12.520  1.00  0.00     0.293 HD
ENDBRANCH  10  23
BRANCH  11  25
ATOM     25  O   UNL     1      17.539  -7.059 -16.861  1.00  0.00    -0.508 OA
ATOM     26  H   UNL     1      17.719  -8.050 -16.760  1.00  0.00     0.293 HD
ENDBRANCH  11  25
ENDBRANCH   1   2
BRANCH   1  27
ATOM     27  C   UNL     1      16.298  -1.378 -10.403  1.00  0.00     0.339 C 
ATOM     28  C   UNL     1      16.241   0.025  -9.772  1.00  0.00     0.214 C 
ATOM     29  O   UNL     1      16.625  -2.358  -9.430  1.00  0.00    -0.332 OA
ATOM     30  C   UNL     1      17.574   0.351  -9.088  1.00  0.00     0.180 C 
ATOM     31  C   UNL     1      17.912  -2.141  -8.869  1.00  0.00     0.179 C 
ATOM     32  C   UNL     1      17.965  -0.784  -8.127  1.00  0.00     0.177 C 
BRANCH  28  33
ATOM     33  O   UNL     1      15.977   0.991 -10.758  1.00  0.00    -0.384 OA
ATOM     34  H   UNL     1      15.848   0.502 -11.612  1.00  0.00     0.211 HD
ENDBRANCH  28  33
BRANCH  30  35
ATOM     35  O   UNL     1      17.445   1.556  -8.379  1.00  0.00    -0.387 OA
ATOM     36  H   UNL     1      17.463   1.325  -7.413  1.00  0.00     0.211 HD
ENDBRANCH  30  35
BRANCH  31  37
ATOM     37  C   UNL     1      18.203  -3.313  -7.914  1.00  0.00     0.191 C 
BRANCH  37  38
ATOM     38  O   UNL     1      17.775  -3.034  -6.607  1.00  0.00    -0.394 OA
ATOM     39  H   UNL     1      18.302  -2.250  -6.296  1.00  0.00     0.210 HD
ENDBRANCH  37  38
ENDBRANCH  31  37
BRANCH  32  40
ATOM     40  O   UNL     1      19.268  -0.546  -7.653  1.00  0.00    -0.387 OA
ATOM     41  H   UNL     1      19.279  -0.771  -6.686  1.00  0.00     0.211 HD
ENDBRANCH  32  40
ENDBRANCH   1  27
TORSDOF 12
ENDMDL
MODEL 4
REMARK VINA RESULT:    -5.631      5.850      8.601
REMARK INTER + INTRA:         -10.208
REMARK INTER:                  -8.086
REMARK INTRA:                  -2.122
REMARK UNBOUND:                -1.944
REMARK SMILES O=c1c(O[C@H]2O[C@H](CO)[C@@H](O)[C@H](O)[C@H]2O)c(-c2ccc(O)c(O)c2)oc2cc(O)cc(O)c12
REMARK SMILES IDX 4 1 3 2 16 3 25 4 2 5 26 6 1 7 33 8 27 9 31 10 28 11 30 12
REMARK SMILES IDX 17 13 18 14 19 15 20 16 24 17 22 18 21 19 23 21 32 23 29 25
REMARK SMILES IDX 5 27 14 28 6 29 12 30 7 31 10 32 15 33 13 35 8 37 9 38 11 40
REMARK H PARENT 21 20 23 22 32 24 29 26 15 34 13 36 9 39 11 41
REMARK Flexibility Score: inf
ROOT
ATOM      1  O   UNL     1      18.828   0.604 -13.264  1.00  0.00    -0.454 OA
ENDROOT
BRANCH   1   2
ATOM      2  C   UNL     1      18.864   0.387 -14.657  1.00  0.00     0.214 A 
ATOM      3  C   UNL     1      17.762  -0.262 -15.253  1.00  0.00     0.180 A 
ATOM      4  O   UNL     1      17.785  -0.574 -16.543  1.00  0.00    -0.452 OA
ATOM      5  C   UNL     1      19.953   0.746 -15.484  1.00  0.00     0.239 A 
ATOM      6  C   UNL     1      18.797  -0.279 -17.347  1.00  0.00     0.146 A 
ATOM      7  O   UNL     1      20.946   1.353 -15.005  1.00  0.00    -0.285 OA
ATOM      8  C   UNL     1      19.928   0.411 -16.856  1.00  0.00     0.111 A 
ATOM      9  C   UNL     1      18.728  -0.660 -18.691  1.00  0.00     0.094 A 
ATOM     10  C   UNL     1      20.982   0.725 -17.750  1.00  0.00     0.134 A 
ATOM     11  C   UNL     1      19.778  -0.359 -19.564  1.00  0.00     0.123 A 
ATOM     12  C   UNL     1      20.895   0.332 -19.094  1.00  0.00     0.093 A 
BRANCH   3  13
ATOM     13  C   UNL     1      16.564  -0.637 -14.469  1.00  0.00     0.025 A 
ATOM     14  C   UNL     1      16.529  -1.829 -13.722  1.00  0.00     0.016 A 
ATOM     15  C   UNL     1      15.396  -2.160 -12.975  1.00  0.00     0.051 A 
ATOM     16  C   UNL     1      14.291  -1.299 -12.949  1.00  0.00     0.157 A 
ATOM     17  C   UNL     1      15.462   0.232 -14.424  1.00  0.00     0.062 A 
ATOM     18  C   UNL     1      14.326  -0.095 -13.675  1.00  0.00     0.158 A 
BRANCH  16  19
ATOM     19  O   UNL     1      13.162  -1.632 -12.203  1.00  0.00    -0.504 OA
ATOM     20  H   UNL     1      13.121  -1.477 -11.202  1.00  0.00     0.293 HD
ENDBRANCH  16  19
BRANCH  18  21
ATOM     21  O   UNL     1      13.246   0.786 -13.664  1.00  0.00    -0.504 OA
ATOM     22  H   UNL     1      13.276   1.682 -14.137  1.00  0.00     0.293 HD
ENDBRANCH  18  21
ENDBRANCH   3  13
BRANCH  10  23
ATOM     23  O   UNL     1      22.110   1.425 -17.315  1.00  0.00    -0.507 OA
ATOM     24  H   UNL     1      22.867   1.663 -17.946  1.00  0.00     0.293 HD
ENDBRANCH  10  23
BRANCH  11  25
ATOM     25  O   UNL     1      19.722  -0.745 -20.902  1.00  0.00    -0.508 OA
ATOM     26  H   UNL     1      20.351  -0.354 -21.592  1.00  0.00     0.293 HD
ENDBRANCH  11  25
ENDBRANCH   1   2
BRANCH   1  27
ATOM     27  C   UNL     1      18.532   1.826 -12.582  1.00  0.00     0.339 C 
ATOM     28  C   UNL     1      19.660   2.176 -11.594  1.00  0.00     0.214 C 
ATOM     29  O   UNL     1      17.279   1.763 -11.919  1.00  0.00    -0.332 OA
ATOM     30  C   UNL     1      19.694   1.157 -10.450  1.00  0.00     0.180 C 
ATOM     31  C   UNL     1      17.252   0.741 -10.933  1.00  0.00     0.179 C 
ATOM     32  C   UNL     1      18.296   1.019  -9.825  1.00  0.00     0.177 C 
BRANCH  28  33
ATOM     33  O   UNL     1      20.901   2.176 -12.253  1.00  0.00    -0.384 OA
ATOM     34  H   UNL     1      21.367   1.340 -11.988  1.00  0.00     0.211 HD
ENDBRANCH  28  33
BRANCH  30  35
ATOM     35  O   UNL     1      20.612   1.587  -9.478  1.00  0.00    -0.387 OA
ATOM     36  H   UNL     1      20.088   1.803  -8.662  1.00  0.00     0.211 HD
ENDBRANCH  30  35
BRANCH  31  37
ATOM     37  C   UNL     1      15.825   0.692 -10.358  1.00  0.00     0.191 C 
BRANCH  37  38
ATOM     38  O   UNL     1      15.536  -0.560  -9.793  1.00  0.00    -0.394 OA
ATOM     39  H   UNL     1      16.143  -0.667  -9.014  1.00  0.00     0.210 HD
ENDBRANCH  37  38
ENDBRANCH  31  37
BRANCH  32  40
ATOM     40  O   UNL     1      18.316  -0.045  -8.905  1.00  0.00    -0.387 OA
ATOM     41  H   UNL     1      19.202  -0.036  -8.457  1.00  0.00     0.211 HD
ENDBRANCH  32  40
ENDBRANCH   1  27
TORSDOF 12
ENDMDL
MODEL 5
REMARK VINA RESULT:    -5.535      4.909      8.404
REMARK INTER + INTRA:         -10.067
REMARK INTER:                  -8.088
REMARK INTRA:                  -1.980
REMARK UNBOUND:                -1.944
REMARK SMILES O=c1c(O[C@H]2O[C@H](CO)[C@@H](O)[C@H](O)[C@H]2O)c(-c2ccc(O)c(O)c2)oc2cc(O)cc(O)c12
REMARK SMILES IDX 4 1 3 2 16 3 25 4 2 5 26 6 1 7 33 8 27 9 31 10 28 11 30 12
REMARK SMILES IDX 17 13 18 14 19 15 20 16 24 17 22 18 21 19 23 21 32 23 29 25
REMARK SMILES IDX 5 27 14 28 6 29 12 30 7 31 10 32 15 33 13 35 8 37 9 38 11 40
REMARK H PARENT 21 20 23 22 32 24 29 26 15 34 13 36 9 39 11 41
REMARK Flexibility Score: inf
ROOT
ATOM      1  O   UNL     1      18.119   0.864  -8.808  1.00  0.00    -0.454 OA
ENDROOT
BRANCH   1   2
ATOM      2  C   UNL     1      16.730   1.099  -8.882  1.00  0.00     0.214 A 
ATOM      3  C   UNL     1      15.938   0.165  -9.582  1.00  0.00     0.180 A 
ATOM      4  O   UNL     1      14.641   0.385  -9.762  1.00  0.00    -0.452 OA
ATOM      5  C   UNL     1      16.090   2.232  -8.329  1.00  0.00     0.239 A 
ATOM      6  C   UNL     1      14.009   1.447  -9.282  1.00  0.00     0.146 A 
ATOM      7  O   UNL     1      16.749   3.079  -7.669  1.00  0.00    -0.285 OA
ATOM      8  C   UNL     1      14.704   2.418  -8.527  1.00  0.00     0.111 A 
ATOM      9  C   UNL     1      12.641   1.593  -9.533  1.00  0.00     0.094 A 
ATOM     10  C   UNL     1      13.991   3.531  -8.016  1.00  0.00     0.134 A 
ATOM     11  C   UNL     1      11.946   2.700  -9.038  1.00  0.00     0.123 A 
ATOM     12  C   UNL     1      12.619   3.660  -8.281  1.00  0.00     0.093 A 
BRANCH   3  13
ATOM     13  C   UNL     1      16.518  -1.069 -10.159  1.00  0.00     0.025 A 
ATOM     14  C   UNL     1      17.034  -1.086 -11.468  1.00  0.00     0.016 A 
ATOM     15  C   UNL     1      17.593  -2.254 -11.991  1.00  0.00     0.051 A 
ATOM     16  C   UNL     1      17.661  -3.415 -11.210  1.00  0.00     0.157 A 
ATOM     17  C   UNL     1      16.607  -2.229  -9.373  1.00  0.00     0.062 A 
ATOM     18  C   UNL     1      17.168  -3.401  -9.893  1.00  0.00     0.158 A 
BRANCH  16  19
ATOM     19  O   UNL     1      18.219  -4.580 -11.734  1.00  0.00    -0.504 OA
ATOM     20  H   UNL     1      18.692  -5.256 -11.144  1.00  0.00     0.293 HD
ENDBRANCH  16  19
BRANCH  18  21
ATOM     21  O   UNL     1      17.228  -4.538  -9.088  1.00  0.00    -0.504 OA
ATOM     22  H   UNL     1      16.860  -5.432  -9.391  1.00  0.00     0.293 HD
ENDBRANCH  18  21
ENDBRANCH   3  13
BRANCH  10  23
ATOM     23  O   UNL     1      14.631   4.505  -7.246  1.00  0.00    -0.507 OA
ATOM     24  H   UNL     1      15.190   5.238  -7.668  1.00  0.00     0.293 HD
ENDBRANCH  10  23
BRANCH  11  25
ATOM     25  O   UNL     1      10.586   2.857  -9.293  1.00  0.00    -0.508 OA
ATOM     26  H   UNL     1       9.935   3.106  -8.559  1.00  0.00     0.293 HD
ENDBRANCH  11  25
ENDBRANCH   1   2
BRANCH   1  27
ATOM     27  C   UNL     1      18.904   0.657  -7.631  1.00  0.00     0.339 C 
ATOM     28  C   UNL     1      20.123   1.598  -7.626  1.00  0.00     0.214 C 
ATOM     29  O   UNL     1      19.309  -0.698  -7.506  1.00  0.00    -0.332 OA
ATOM     30  C   UNL     1      21.094   1.209  -8.747  1.00  0.00     0.180 C 
ATOM     31  C   UNL     1      20.114  -1.113  -8.600  1.00  0.00     0.179 C 
ATOM     32  C   UNL     1      21.424  -0.290  -8.661  1.00  0.00     0.177 C 
BRANCH  28  33
ATOM     33  O   UNL     1      19.710   2.929  -7.811  1.00  0.00    -0.384 OA
ATOM     34  H   UNL     1      19.453   3.276  -6.917  1.00  0.00     0.211 HD
ENDBRANCH  28  33
BRANCH  30  35
ATOM     35  O   UNL     1      22.270   1.966  -8.619  1.00  0.00    -0.387 OA
ATOM     36  H   UNL     1      22.193   2.726  -9.254  1.00  0.00     0.211 HD
ENDBRANCH  30  35
BRANCH  31  37
ATOM     37  C   UNL     1      20.404  -2.614  -8.416  1.00  0.00     0.191 C 
BRANCH  37  38
ATOM     38  O   UNL     1      20.734  -3.231  -9.632  1.00  0.00    -0.394 OA
ATOM     39  H   UNL     1      21.693  -3.033  -9.801  1.00  0.00     0.210 HD
ENDBRANCH  37  38
ENDBRANCH  31  37
BRANCH  32  40
ATOM     40  O   UNL     1      22.168  -0.655  -9.798  1.00  0.00    -0.387 OA
ATOM     41  H   UNL     1      22.368   0.177 -10.302  1.00  0.00     0.211 HD
ENDBRANCH  32  40
ENDBRANCH   1  27
TORSDOF 12
ENDMDL
MODEL 6
REMARK VINA RESULT:    -5.515      3.919      7.776
REMARK INTER + INTRA:         -10.037
REMARK INTER:                  -8.266
REMARK INTRA:                  -1.771
REMARK UNBOUND:                -1.944
REMARK SMILES O=c1c(O[C@H]2O[C@H](CO)[C@@H](O)[C@H](O)[C@H]2O)c(-c2ccc(O)c(O)c2)oc2cc(O)cc(O)c12
REMARK SMILES IDX 4 1 3 2 16 3 25 4 2 5 26 6 1 7 33 8 27 9 31 10 28 11 30 12
REMARK SMILES IDX 17 13 18 14 19 15 20 16 24 17 22 18 21 19 23 21 32 23 29 25
REMARK SMILES IDX 5 27 14 28 6 29 12 30 7 31 10 32 15 33 13 35 8 37 9 38 11 40
REMARK H PARENT 21 20 23 22 32 24 29 26 15 34 13 36 9 39 11 41
REMARK Flexibility Score: inf
ROOT
ATOM      1  O   UNL     1      16.713  -1.109 -11.295  1.00  0.00    -0.454 OA
ENDROOT
BRANCH   1   2
ATOM      2  C   UNL     1      16.174  -0.017 -10.584  1.00  0.00     0.214 A 
ATOM      3  C   UNL     1      16.639   0.213  -9.273  1.00  0.00     0.180 A 
ATOM      4  O   UNL     1      16.099   1.169  -8.526  1.00  0.00    -0.452 OA
ATOM      5  C   UNL     1      15.169   0.838 -11.093  1.00  0.00     0.239 A 
ATOM      6  C   UNL     1      15.138   1.974  -8.957  1.00  0.00     0.146 A 
ATOM      7  O   UNL     1      14.743   0.692 -12.270  1.00  0.00    -0.285 OA
ATOM      8  C   UNL     1      14.635   1.855 -10.272  1.00  0.00     0.111 A 
ATOM      9  C   UNL     1      14.628   2.946  -8.090  1.00  0.00     0.094 A 
ATOM     10  C   UNL     1      13.620   2.745 -10.703  1.00  0.00     0.134 A 
ATOM     11  C   UNL     1      13.616   3.812  -8.516  1.00  0.00     0.123 A 
ATOM     12  C   UNL     1      13.120   3.712  -9.817  1.00  0.00     0.093 A 
BRANCH   3  13
ATOM     13  C   UNL     1      17.716  -0.608  -8.674  1.00  0.00     0.025 A 
ATOM     14  C   UNL     1      18.968  -0.049  -8.363  1.00  0.00     0.016 A 
ATOM     15  C   UNL     1      19.968  -0.834  -7.783  1.00  0.00     0.051 A 
ATOM     16  C   UNL     1      19.725  -2.182  -7.490  1.00  0.00     0.157 A 
ATOM     17  C   UNL     1      17.471  -1.955  -8.361  1.00  0.00     0.062 A 
ATOM     18  C   UNL     1      18.468  -2.744  -7.777  1.00  0.00     0.158 A 
BRANCH  16  19
ATOM     19  O   UNL     1      20.724  -2.963  -6.911  1.00  0.00    -0.504 OA
ATOM     20  H   UNL     1      20.682  -3.244  -5.938  1.00  0.00     0.293 HD
ENDBRANCH  16  19
BRANCH  18  21
ATOM     21  O   UNL     1      18.193  -4.081  -7.492  1.00  0.00    -0.504 OA
ATOM     22  H   UNL     1      18.820  -4.653  -6.938  1.00  0.00     0.293 HD
ENDBRANCH  18  21
ENDBRANCH   3  13
BRANCH  10  23
ATOM     23  O   UNL     1      13.108   2.680 -12.001  1.00  0.00    -0.507 OA
ATOM     24  H   UNL     1      13.250   3.429 -12.669  1.00  0.00     0.293 HD
ENDBRANCH  10  23
BRANCH  11  25
ATOM     25  O   UNL     1      13.096   4.775  -7.655  1.00  0.00    -0.508 OA
ATOM     26  H   UNL     1      12.167   5.156  -7.786  1.00  0.00     0.293 HD
ENDBRANCH  11  25
ENDBRANCH   1   2
BRANCH   1  27
ATOM     27  C   UNL     1      17.651  -1.066 -12.374  1.00  0.00     0.339 C 
ATOM     28  C   UNL     1      17.144  -1.910 -13.559  1.00  0.00     0.214 C 
ATOM     29  O   UNL     1      18.940  -1.494 -11.963  1.00  0.00    -0.332 OA
ATOM     30  C   UNL     1      17.137  -3.396 -13.183  1.00  0.00     0.180 C 
ATOM     31  C   UNL     1      18.930  -2.835 -11.497  1.00  0.00     0.179 C 
ATOM     32  C   UNL     1      18.511  -3.806 -12.628  1.00  0.00     0.177 C 
BRANCH  28  33
ATOM     33  O   UNL     1      15.843  -1.515 -13.915  1.00  0.00    -0.384 OA
ATOM     34  H   UNL     1      15.673  -0.647 -13.464  1.00  0.00     0.211 HD
ENDBRANCH  28  33
BRANCH  30  35
ATOM     35  O   UNL     1      16.835  -4.157 -14.324  1.00  0.00    -0.387 OA
ATOM     36  H   UNL     1      16.107  -4.783 -14.069  1.00  0.00     0.211 HD
ENDBRANCH  30  35
BRANCH  31  37
ATOM     37  C   UNL     1      20.345  -3.155 -10.982  1.00  0.00     0.191 C 
BRANCH  37  38
ATOM     38  O   UNL     1      20.927  -4.218 -11.690  1.00  0.00    -0.394 OA
ATOM     39  H   UNL     1      20.268  -4.961 -11.680  1.00  0.00     0.210 HD
ENDBRANCH  37  38
ENDBRANCH  31  37
BRANCH  32  40
ATOM     40  O   UNL     1      18.423  -5.117 -12.128  1.00  0.00    -0.387 OA
ATOM     41  H   UNL     1      19.154  -5.645 -12.545  1.00  0.00     0.211 HD
ENDBRANCH  32  40
ENDBRANCH   1  27
TORSDOF 12
ENDMDL
MODEL 7
REMARK VINA RESULT:    -5.489      3.939      7.937
REMARK INTER + INTRA:         -10.000
REMARK INTER:                  -8.083
REMARK INTRA:                  -1.917
REMARK UNBOUND:                -1.944
REMARK SMILES O=c1c(O[C@H]2O[C@H](CO)[C@@H](O)[C@H](O)[C@H]2O)c(-c2ccc(O)c(O)c2)oc2cc(O)cc(O)c12
REMARK SMILES IDX 4 1 3 2 16 3 25 4 2 5 26 6 1 7 33 8 27 9 31 10 28 11 30 12
REMARK SMILES IDX 17 13 18 14 19 15 20 16 24 17 22 18 21 19 23 21 32 23 29 25
REMARK SMILES IDX 5 27 14 28 6 29 12 30 7 31 10 32 15 33 13 35 8 37 9 38 11 40
REMARK H PARENT 21 20 23 22 32 24 29 26 15 34 13 36 9 39 11 41
REMARK Flexibility Score: inf
ROOT
ATOM      1  O   UNL     1      15.994  -1.293 -10.834  1.00  0.00    -0.454 OA
ENDROOT
BRANCH   1   2
ATOM      2  C   UNL     1      15.781  -0.094 -10.121  1.00  0.00     0.214 A 
ATOM      3  C   UNL     1      16.701   0.243  -9.107  1.00  0.00     0.180 A 
ATOM      4  O   UNL     1      16.496   1.310  -8.343  1.00  0.00    -0.452 OA
ATOM      5  C   UNL     1      14.682   0.768 -10.338  1.00  0.00     0.239 A 
ATOM      6  C   UNL     1      15.465   2.129  -8.496  1.00  0.00     0.146 A 
ATOM      7  O   UNL     1      13.851   0.526 -11.252  1.00  0.00    -0.285 OA
ATOM      8  C   UNL     1      14.513   1.904  -9.516  1.00  0.00     0.111 A 
ATOM      9  C   UNL     1      15.334   3.223  -7.635  1.00  0.00     0.094 A 
ATOM     10  C   UNL     1      13.434   2.811  -9.660  1.00  0.00     0.134 A 
ATOM     11  C   UNL     1      14.260   4.106  -7.774  1.00  0.00     0.123 A 
ATOM     12  C   UNL     1      13.319   3.901  -8.783  1.00  0.00     0.093 A 
BRANCH   3  13
ATOM     13  C   UNL     1      17.900  -0.582  -8.838  1.00  0.00     0.025 A 
ATOM     14  C   UNL     1      19.175  -0.173  -9.269  1.00  0.00     0.016 A 
ATOM     15  C   UNL     1      20.298  -0.955  -8.993  1.00  0.00     0.051 A 
ATOM     16  C   UNL     1      20.168  -2.147  -8.267  1.00  0.00     0.157 A 
ATOM     17  C   UNL     1      17.777  -1.767  -8.095  1.00  0.00     0.062 A 
ATOM     18  C   UNL     1      18.901  -2.553  -7.813  1.00  0.00     0.158 A 
BRANCH  16  19
ATOM     19  O   UNL     1      21.291  -2.925  -7.993  1.00  0.00    -0.504 OA
ATOM     20  H   UNL     1      22.229  -2.590  -8.180  1.00  0.00     0.293 HD
ENDBRANCH  16  19
BRANCH  18  21
ATOM     21  O   UNL     1      18.738  -3.729  -7.083  1.00  0.00    -0.504 OA
ATOM     22  H   UNL     1      18.833  -3.754  -6.074  1.00  0.00     0.293 HD
ENDBRANCH  18  21
ENDBRANCH   3  13
BRANCH  10  23
ATOM     23  O   UNL     1      12.479   2.642 -10.666  1.00  0.00    -0.507 OA
ATOM     24  H   UNL     1      11.504   2.467 -10.454  1.00  0.00     0.293 HD
ENDBRANCH  10  23
BRANCH  11  25
ATOM     25  O   UNL     1      14.117   5.191  -6.912  1.00  0.00    -0.508 OA
ATOM     26  H   UNL     1      13.631   5.104  -6.028  1.00  0.00     0.293 HD
ENDBRANCH  11  25
ENDBRANCH   1   2
BRANCH   1  27
ATOM     27  C   UNL     1      16.469  -1.433 -12.176  1.00  0.00     0.339 C 
ATOM     28  C   UNL     1      15.565  -2.396 -12.967  1.00  0.00     0.214 C 
ATOM     29  O   UNL     1      17.821  -1.867 -12.208  1.00  0.00    -0.332 OA
ATOM     30  C   UNL     1      15.699  -3.820 -12.416  1.00  0.00     0.180 C 
ATOM     31  C   UNL     1      17.985  -3.136 -11.592  1.00  0.00     0.179 C 
ATOM     32  C   UNL     1      17.182  -4.221 -12.349  1.00  0.00     0.177 C 
BRANCH  28  33
ATOM     33  O   UNL     1      14.223  -1.988 -12.876  1.00  0.00    -0.384 OA
ATOM     34  H   UNL     1      14.187  -1.049 -13.196  1.00  0.00     0.211 HD
ENDBRANCH  28  33
BRANCH  30  35
ATOM     35  O   UNL     1      15.002  -4.706 -13.253  1.00  0.00    -0.387 OA
ATOM     36  H   UNL     1      15.678  -5.304 -13.667  1.00  0.00     0.211 HD
ENDBRANCH  30  35
BRANCH  31  37
ATOM     37  C   UNL     1      19.491  -3.454 -11.588  1.00  0.00     0.191 C 
BRANCH  37  38
ATOM     38  O   UNL     1      19.771  -4.644 -12.278  1.00  0.00    -0.394 OA
ATOM     39  H   UNL     1      18.930  -4.913 -12.735  1.00  0.00     0.210 HD
ENDBRANCH  37  38
ENDBRANCH  31  37
BRANCH  32  40
ATOM     40  O   UNL     1      17.287  -5.452 -11.677  1.00  0.00    -0.387 OA
ATOM     41  H   UNL     1      18.254  -5.650 -11.565  1.00  0.00     0.211 HD
ENDBRANCH  32  40
ENDBRANCH   1  27
TORSDOF 12
ENDMDL
MODEL 8
REMARK VINA RESULT:    -5.366      5.551      8.776
REMARK INTER + INTRA:          -9.818
REMARK INTER:                  -8.193
REMARK INTRA:                  -1.625
REMARK UNBOUND:                -1.944
REMARK SMILES O=c1c(O[C@H]2O[C@H](CO)[C@@H](O)[C@H](O)[C@H]2O)c(-c2ccc(O)c(O)c2)oc2cc(O)cc(O)c12
REMARK SMILES IDX 4 1 3 2 16 3 25 4 2 5 26 6 1 7 33 8 27 9 31 10 28 11 30 12
REMARK SMILES IDX 17 13 18 14 19 15 20 16 24 17 22 18 21 19 23 21 32 23 29 25
REMARK SMILES IDX 5 27 14 28 6 29 12 30 7 31 10 32 15 33 13 35 8 37 9 38 11 40
REMARK H PARENT 21 20 23 22 32 24 29 26 15 34 13 36 9 39 11 41
REMARK Flexibility Score: inf
ROOT
ATOM      1  O   UNL     1      19.258   0.915 -13.612  1.00  0.00    -0.454 OA
ENDROOT
BRANCH   1   2
ATOM      2  C   UNL     1      19.226   0.602 -14.987  1.00  0.00     0.214 A 
ATOM      3  C   UNL     1      18.096  -0.079 -15.483  1.00  0.00     0.180 A 
ATOM      4  O   UNL     1      18.056  -0.480 -16.748  1.00  0.00    -0.452 OA
ATOM      5  C   UNL     1      20.276   0.896 -15.887  1.00  0.00     0.239 A 
ATOM      6  C   UNL     1      19.029  -0.247 -17.618  1.00  0.00     0.146 A 
ATOM      7  O   UNL     1      21.293   1.529 -15.498  1.00  0.00    -0.285 OA
ATOM      8  C   UNL     1      20.185   0.468 -17.230  1.00  0.00     0.111 A 
ATOM      9  C   UNL     1      18.896  -0.719 -18.927  1.00  0.00     0.094 A 
ATOM     10  C   UNL     1      21.196   0.713 -18.192  1.00  0.00     0.134 A 
ATOM     11  C   UNL     1      19.903  -0.486 -19.868  1.00  0.00     0.123 A 
ATOM     12  C   UNL     1      21.044   0.229 -19.500  1.00  0.00     0.093 A 
BRANCH   3  13
ATOM     13  C   UNL     1      16.935  -0.392 -14.620  1.00  0.00     0.025 A 
ATOM     14  C   UNL     1      15.889   0.532 -14.445  1.00  0.00     0.016 A 
ATOM     15  C   UNL     1      14.793   0.214 -13.640  1.00  0.00     0.051 A 
ATOM     16  C   UNL     1      14.717  -1.038 -13.014  1.00  0.00     0.157 A 
ATOM     17  C   UNL     1      16.845  -1.652 -14.006  1.00  0.00     0.062 A 
ATOM     18  C   UNL     1      15.747  -1.976 -13.201  1.00  0.00     0.158 A 
BRANCH  16  19
ATOM     19  O   UNL     1      13.622  -1.353 -12.211  1.00  0.00    -0.504 OA
ATOM     20  H   UNL     1      13.739  -1.742 -11.281  1.00  0.00     0.293 HD
ENDBRANCH  16  19
BRANCH  18  21
ATOM     21  O   UNL     1      15.698  -3.232 -12.598  1.00  0.00    -0.504 OA
ATOM     22  H   UNL     1      15.727  -3.347 -11.591  1.00  0.00     0.293 HD
ENDBRANCH  18  21
ENDBRANCH   3  13
BRANCH  10  23
ATOM     23  O   UNL     1      22.346   1.434 -17.861  1.00  0.00    -0.507 OA
ATOM     24  H   UNL     1      22.626   1.580 -16.898  1.00  0.00     0.293 HD
ENDBRANCH  10  23
BRANCH  11  25
ATOM     25  O   UNL     1      19.782  -0.963 -21.171  1.00  0.00    -0.508 OA
ATOM     26  H   UNL     1      20.016  -1.919 -21.409  1.00  0.00     0.293 HD
ENDBRANCH  11  25
ENDBRANCH   1   2
BRANCH   1  27
ATOM     27  C   UNL     1      19.720   0.086 -12.542  1.00  0.00     0.339 C 
ATOM     28  C   UNL     1      19.102   0.539 -11.206  1.00  0.00     0.214 C 
ATOM     29  O   UNL     1      21.137   0.074 -12.465  1.00  0.00    -0.332 OA
ATOM     30  C   UNL     1      19.643   1.919 -10.815  1.00  0.00     0.180 C 
ATOM     31  C   UNL     1      21.666   1.370 -12.222  1.00  0.00     0.179 C 
ATOM     32  C   UNL     1      21.180   1.913 -10.856  1.00  0.00     0.177 C 
BRANCH  28  33
ATOM     33  O   UNL     1      17.702   0.604 -11.316  1.00  0.00    -0.384 OA
ATOM     34  H   UNL     1      17.351   0.777 -10.404  1.00  0.00     0.211 HD
ENDBRANCH  28  33
BRANCH  30  35
ATOM     35  O   UNL     1      19.200   2.237  -9.521  1.00  0.00    -0.387 OA
ATOM     36  H   UNL     1      19.674   1.627  -8.896  1.00  0.00     0.211 HD
ENDBRANCH  30  35
BRANCH  31  37
ATOM     37  C   UNL     1      23.201   1.257 -12.265  1.00  0.00     0.191 C 
BRANCH  37  38
ATOM     38  O   UNL     1      23.802   2.485 -12.584  1.00  0.00    -0.394 OA
ATOM     39  H   UNL     1      23.667   3.080 -11.800  1.00  0.00     0.210 HD
ENDBRANCH  37  38
ENDBRANCH  31  37
BRANCH  32  40
ATOM     40  O   UNL     1      21.642   3.229 -10.671  1.00  0.00    -0.387 OA
ATOM     41  H   UNL     1      20.865   3.781 -10.390  1.00  0.00     0.211 HD
ENDBRANCH  32  40
ENDBRANCH   1  27
TORSDOF 12
ENDMDL
MODEL 9
REMARK VINA RESULT:    -5.346      3.815      6.746
REMARK INTER + INTRA:          -9.790
REMARK INTER:                  -7.814
REMARK INTRA:                  -1.977
REMARK UNBOUND:                -1.944
REMARK SMILES O=c1c(O[C@H]2O[C@H](CO)[C@@H](O)[C@H](O)[C@H]2O)c(-c2ccc(O)c(O)c2)oc2cc(O)cc(O)c12
REMARK SMILES IDX 4 1 3 2 16 3 25 4 2 5 26 6 1 7 33 8 27 9 31 10 28 11 30 12
REMARK SMILES IDX 17 13 18 14 19 15 20 16 24 17 22 18 21 19 23 21 32 23 29 25
REMARK SMILES IDX 5 27 14 28 6 29 12 30 7 31 10 32 15 33 13 35 8 37 9 38 11 40
REMARK H PARENT 21 20 23 22 32 24 29 26 15 34 13 36 9 39 11 41
REMARK Flexibility Score: inf
ROOT
ATOM      1  O   UNL     1      17.091  -0.448 -10.264  1.00  0.00    -0.454 OA
ENDROOT
BRANCH   1   2
ATOM      2  C   UNL     1      15.819   0.146 -10.399  1.00  0.00     0.214 A 
ATOM      3  C   UNL     1      15.028  -0.231 -11.504  1.00  0.00     0.180 A 
ATOM      4  O   UNL     1      13.864   0.365 -11.731  1.00  0.00    -0.452 OA
ATOM      5  C   UNL     1      15.306   1.123  -9.515  1.00  0.00     0.239 A 
ATOM      6  C   UNL     1      13.359   1.303 -10.941  1.00  0.00     0.146 A 
ATOM      7  O   UNL     1      15.961   1.470  -8.497  1.00  0.00    -0.285 OA
ATOM      8  C   UNL     1      14.053   1.718  -9.782  1.00  0.00     0.111 A 
ATOM      9  C   UNL     1      12.127   1.876 -11.271  1.00  0.00     0.094 A 
ATOM     10  C   UNL     1      13.474   2.710  -8.953  1.00  0.00     0.134 A 
ATOM     11  C   UNL     1      11.568   2.865 -10.456  1.00  0.00     0.123 A 
ATOM     12  C   UNL     1      12.238   3.275  -9.303  1.00  0.00     0.093 A 
BRANCH   3  13
ATOM     13  C   UNL     1      15.470  -1.274 -12.458  1.00  0.00     0.025 A 
ATOM     14  C   UNL     1      16.383  -0.978 -13.486  1.00  0.00     0.016 A 
ATOM     15  C   UNL     1      16.802  -1.977 -14.367  1.00  0.00     0.051 A 
ATOM     16  C   UNL     1      16.331  -3.289 -14.223  1.00  0.00     0.157 A 
ATOM     17  C   UNL     1      15.015  -2.594 -12.305  1.00  0.00     0.062 A 
ATOM     18  C   UNL     1      15.435  -3.598 -13.185  1.00  0.00     0.158 A 
BRANCH  16  19
ATOM     19  O   UNL     1      16.750  -4.284 -15.104  1.00  0.00    -0.504 OA
ATOM     20  H   UNL     1      17.333  -5.055 -14.796  1.00  0.00     0.293 HD
ENDBRANCH  16  19
BRANCH  18  21
ATOM     21  O   UNL     1      14.953  -4.895 -13.010  1.00  0.00    -0.504 OA
ATOM     22  H   UNL     1      13.969  -5.088 -12.858  1.00  0.00     0.293 HD
ENDBRANCH  18  21
ENDBRANCH   3  13
BRANCH  10  23
ATOM     23  O   UNL     1      14.113   3.136  -7.786  1.00  0.00    -0.507 OA
ATOM     24  H   UNL     1      14.321   2.497  -7.027  1.00  0.00     0.293 HD
ENDBRANCH  10  23
BRANCH  11  25
ATOM     25  O   UNL     1      10.346   3.448 -10.784  1.00  0.00    -0.508 OA
ATOM     26  H   UNL     1       9.488   2.910 -10.794  1.00  0.00     0.293 HD
ENDBRANCH  11  25
ENDBRANCH   1   2
BRANCH   1  27
ATOM     27  C   UNL     1      17.439  -1.586  -9.470  1.00  0.00     0.339 C 
ATOM     28  C   UNL     1      18.574  -1.230  -8.492  1.00  0.00     0.214 C 
ATOM     29  O   UNL     1      17.798  -2.696 -10.278  1.00  0.00    -0.332 OA
ATOM     30  C   UNL     1      19.870  -0.954  -9.264  1.00  0.00     0.180 C 
ATOM     31  C   UNL     1      18.928  -2.418 -11.092  1.00  0.00     0.179 C 
ATOM     32  C   UNL     1      20.172  -2.119 -10.220  1.00  0.00     0.177 C 
BRANCH  28  33
ATOM     33  O   UNL     1      18.230  -0.093  -7.741  1.00  0.00    -0.384 OA
ATOM     34  H   UNL     1      18.951   0.575  -7.884  1.00  0.00     0.211 HD
ENDBRANCH  28  33
BRANCH  30  35
ATOM     35  O   UNL     1      20.925  -0.799  -8.350  1.00  0.00    -0.387 OA
ATOM     36  H   UNL     1      21.003   0.174  -8.163  1.00  0.00     0.211 HD
ENDBRANCH  30  35
BRANCH  31  37
ATOM     37  C   UNL     1      19.158  -3.642 -11.996  1.00  0.00     0.191 C 
BRANCH  37  38
ATOM     38  O   UNL     1      20.380  -4.272 -11.713  1.00  0.00    -0.394 OA
ATOM     39  H   UNL     1      21.096  -3.638 -11.982  1.00  0.00     0.210 HD
ENDBRANCH  37  38
ENDBRANCH  31  37
BRANCH  32  40
ATOM     40  O   UNL     1      21.258  -1.761 -11.039  1.00  0.00    -0.387 OA
ATOM     41  H   UNL     1      22.059  -2.238 -10.697  1.00  0.00     0.211 HD
ENDBRANCH  32  40
ENDBRANCH   1  27
TORSDOF 12
ENDMDL
