MODEL 1
REMARK VINA RESULT:    -7.723      0.000      0.000
REMARK INTER + INTRA:          -9.734
REMARK INTER:                  -9.529
REMARK INTRA:                  -0.205
REMARK UNBOUND:                -0.205
REMARK SMILES Oc1cc(O)c2cc(O)c(-c3cc(O)c(O)c(O)c3)[o+]c2c1
REMARK SMILES IDX 10 1 20 2 21 3 22 4 2 5 3 6 4 7 6 8 7 9 8 10 11 11 12 12
REMARK SMILES IDX 13 13 19 14 15 15 17 16 14 17 16 19 18 21 9 23 1 25 5 27
REMARK H PARENT 14 18 16 20 18 22 9 24 1 26 5 28
REMARK Flexibility Score: inf
ROOT
ATOM      1  C   UNL     1      -3.406  21.027  48.085  1.00  0.00     0.402 A 
ATOM      2  O   UNL     1      -3.392  21.674  49.248  1.00  0.00    -0.202 OA
ATOM      3  C   UNL     1      -3.959  22.863  49.428  1.00  0.00     0.368 A 
ATOM      4  C   UNL     1      -3.893  23.463  50.689  1.00  0.00     0.162 A 
ATOM      5  C   UNL     1      -4.484  24.711  50.907  1.00  0.00     0.128 A 
ATOM      6  C   UNL     1      -5.143  25.361  49.861  1.00  0.00     0.093 A 
ATOM      7  C   UNL     1      -5.222  24.781  48.588  1.00  0.00     0.136 A 
ATOM      8  C   UNL     1      -4.622  23.515  48.361  1.00  0.00     0.125 A 
ATOM      9  C   UNL     1      -4.640  22.865  47.117  1.00  0.00     0.078 A 
ATOM     10  C   UNL     1      -4.022  21.620  46.967  1.00  0.00     0.223 A 
ENDROOT
BRANCH   1  11
ATOM     11  C   UNL     1      -2.747  19.703  48.013  1.00  0.00     0.091 A 
ATOM     12  C   UNL     1      -1.633  19.485  47.184  1.00  0.00     0.068 A 
ATOM     13  C   UNL     1      -1.037  18.219  47.112  1.00  0.00     0.162 A 
ATOM     14  C   UNL     1      -3.277  18.627  48.740  1.00  0.00     0.068 A 
ATOM     15  C   UNL     1      -1.561  17.152  47.861  1.00  0.00     0.200 A 
ATOM     16  C   UNL     1      -2.688  17.361  48.674  1.00  0.00     0.162 A 
BRANCH  13  17
ATOM     17  O   UNL     1       0.074  18.015  46.292  1.00  0.00    -0.504 OA
ATOM     18  H   UNL     1       0.038  17.392  45.494  1.00  0.00     0.293 HD
ENDBRANCH  13  17
BRANCH  15  19
ATOM     19  O   UNL     1      -0.977  15.886  47.804  1.00  0.00    -0.502 OA
ATOM     20  H   UNL     1      -0.255  15.594  48.452  1.00  0.00     0.293 HD
ENDBRANCH  15  19
BRANCH  16  21
ATOM     21  O   UNL     1      -3.238  16.321  49.424  1.00  0.00    -0.504 OA
ATOM     22  H   UNL     1      -2.670  15.716  50.005  1.00  0.00     0.293 HD
ENDBRANCH  16  21
ENDBRANCH   1  11
BRANCH  10  23
ATOM     23  O   UNL     1      -3.996  20.995  45.720  1.00  0.00    -0.500 OA
ATOM     24  H   UNL     1      -3.818  21.516  44.869  1.00  0.00     0.294 HD
ENDBRANCH  10  23
BRANCH   5  25
ATOM     25  O   UNL     1      -4.423  25.315  52.161  1.00  0.00    -0.507 OA
ATOM     26  H   UNL     1      -5.153  25.936  52.487  1.00  0.00     0.293 HD
ENDBRANCH   5  25
BRANCH   7  27
ATOM     27  O   UNL     1      -5.901  25.495  47.596  1.00  0.00    -0.507 OA
ATOM     28  H   UNL     1      -6.900  25.466  47.456  1.00  0.00     0.293 HD
ENDBRANCH   7  27
TORSDOF 7
ENDMDL
MODEL 2
REMARK VINA RESULT:    -7.705      1.533      7.082
REMARK INTER + INTRA:          -9.712
REMARK INTER:                  -9.393
REMARK INTRA:                  -0.319
REMARK UNBOUND:                -0.205
REMARK SMILES Oc1cc(O)c2cc(O)c(-c3cc(O)c(O)c(O)c3)[o+]c2c1
REMARK SMILES IDX 10 1 20 2 21 3 22 4 2 5 3 6 4 7 6 8 7 9 8 10 11 11 12 12
REMARK SMILES IDX 13 13 19 14 15 15 17 16 14 17 16 19 18 21 9 23 1 25 5 27
REMARK H PARENT 14 18 16 20 18 22 9 24 1 26 5 28
REMARK Flexibility Score: inf
ROOT
ATOM      1  C   UNL     1      -4.103  22.147  48.271  1.00  0.00     0.402 A 
ATOM      2  O   UNL     1      -3.998  21.007  48.949  1.00  0.00    -0.202 OA
ATOM      3  C   UNL     1      -3.651  19.853  48.387  1.00  0.00     0.368 A 
ATOM      4  C   UNL     1      -3.565  18.708  49.184  1.00  0.00     0.162 A 
ATOM      5  C   UNL     1      -3.199  17.482  48.619  1.00  0.00     0.128 A 
ATOM      6  C   UNL     1      -2.917  17.402  47.253  1.00  0.00     0.093 A 
ATOM      7  C   UNL     1      -2.996  18.535  46.434  1.00  0.00     0.136 A 
ATOM      8  C   UNL     1      -3.369  19.781  47.001  1.00  0.00     0.125 A 
ATOM      9  C   UNL     1      -3.487  20.965  46.255  1.00  0.00     0.078 A 
ATOM     10  C   UNL     1      -3.865  22.155  46.883  1.00  0.00     0.223 A 
ENDROOT
BRANCH   1  11
ATOM     11  C   UNL     1      -4.489  23.369  49.012  1.00  0.00     0.091 A 
ATOM     12  C   UNL     1      -5.785  23.904  48.916  1.00  0.00     0.068 A 
ATOM     13  C   UNL     1      -6.124  25.075  49.607  1.00  0.00     0.162 A 
ATOM     14  C   UNL     1      -3.528  24.043  49.780  1.00  0.00     0.068 A 
ATOM     15  C   UNL     1      -5.162  25.731  50.393  1.00  0.00     0.200 A 
ATOM     16  C   UNL     1      -3.859  25.212  50.474  1.00  0.00     0.162 A 
BRANCH  13  17
ATOM     17  O   UNL     1      -7.417  25.593  49.511  1.00  0.00    -0.504 OA
ATOM     18  H   UNL     1      -8.186  25.037  49.156  1.00  0.00     0.293 HD
ENDBRANCH  13  17
BRANCH  15  19
ATOM     19  O   UNL     1      -5.484  26.895  51.090  1.00  0.00    -0.502 OA
ATOM     20  H   UNL     1      -4.908  27.728  51.048  1.00  0.00     0.293 HD
ENDBRANCH  15  19
BRANCH  16  21
ATOM     21  O   UNL     1      -2.877  25.844  51.238  1.00  0.00    -0.504 OA
ATOM     22  H   UNL     1      -1.889  25.679  51.088  1.00  0.00     0.293 HD
ENDBRANCH  16  21
ENDBRANCH   1  11
BRANCH  10  23
ATOM     23  O   UNL     1      -4.030  23.321  46.135  1.00  0.00    -0.500 OA
ATOM     24  H   UNL     1      -4.562  24.108  46.488  1.00  0.00     0.294 HD
ENDBRANCH  10  23
BRANCH   5  25
ATOM     25  O   UNL     1      -3.112  16.337  49.407  1.00  0.00    -0.507 OA
ATOM     26  H   UNL     1      -2.313  16.164  50.004  1.00  0.00     0.293 HD
ENDBRANCH   5  25
BRANCH   7  27
ATOM     27  O   UNL     1      -2.695  18.372  45.079  1.00  0.00    -0.507 OA
ATOM     28  H   UNL     1      -2.230  17.564  44.691  1.00  0.00     0.293 HD
ENDBRANCH   7  27
TORSDOF 7
ENDMDL
MODEL 3
REMARK VINA RESULT:    -7.671      1.648      6.898
REMARK INTER + INTRA:          -9.670
REMARK INTER:                  -9.337
REMARK INTRA:                  -0.333
REMARK UNBOUND:                -0.205
REMARK SMILES Oc1cc(O)c2cc(O)c(-c3cc(O)c(O)c(O)c3)[o+]c2c1
REMARK SMILES IDX 10 1 20 2 21 3 22 4 2 5 3 6 4 7 6 8 7 9 8 10 11 11 12 12
REMARK SMILES IDX 13 13 19 14 15 15 17 16 14 17 16 19 18 21 9 23 1 25 5 27
REMARK H PARENT 14 18 16 20 18 22 9 24 1 26 5 28
REMARK Flexibility Score: inf
ROOT
ATOM      1  C   UNL     1      -3.942  22.139  48.376  1.00  0.00     0.402 A 
ATOM      2  O   UNL     1      -3.793  20.978  49.007  1.00  0.00    -0.202 OA
ATOM      3  C   UNL     1      -3.601  19.823  48.376  1.00  0.00     0.368 A 
ATOM      4  C   UNL     1      -3.452  18.655  49.127  1.00  0.00     0.162 A 
ATOM      5  C   UNL     1      -3.247  17.428  48.489  1.00  0.00     0.128 A 
ATOM      6  C   UNL     1      -3.191  17.370  47.095  1.00  0.00     0.093 A 
ATOM      7  C   UNL     1      -3.338  18.527  46.319  1.00  0.00     0.136 A 
ATOM      8  C   UNL     1      -3.549  19.774  46.962  1.00  0.00     0.125 A 
ATOM      9  C   UNL     1      -3.719  20.982  46.266  1.00  0.00     0.078 A 
ATOM     10  C   UNL     1      -3.928  22.173  46.969  1.00  0.00     0.223 A 
ENDROOT
BRANCH   1  11
ATOM     11  C   UNL     1      -4.139  23.359  49.191  1.00  0.00     0.091 A 
ATOM     12  C   UNL     1      -3.066  23.971  49.862  1.00  0.00     0.068 A 
ATOM     13  C   UNL     1      -3.277  25.113  50.648  1.00  0.00     0.162 A 
ATOM     14  C   UNL     1      -5.430  23.885  49.347  1.00  0.00     0.068 A 
ATOM     15  C   UNL     1      -4.570  25.646  50.780  1.00  0.00     0.200 A 
ATOM     16  C   UNL     1      -5.648  25.024  50.128  1.00  0.00     0.162 A 
BRANCH  13  17
ATOM     17  O   UNL     1      -2.203  25.717  51.304  1.00  0.00    -0.504 OA
ATOM     18  H   UNL     1      -2.293  26.081  52.245  1.00  0.00     0.293 HD
ENDBRANCH  13  17
BRANCH  15  19
ATOM     19  O   UNL     1      -4.796  26.784  51.555  1.00  0.00    -0.502 OA
ATOM     20  H   UNL     1      -5.262  26.742  52.454  1.00  0.00     0.293 HD
ENDBRANCH  15  19
BRANCH  16  21
ATOM     21  O   UNL     1      -6.946  25.523  50.245  1.00  0.00    -0.504 OA
ATOM     22  H   UNL     1      -7.604  25.498  49.476  1.00  0.00     0.293 HD
ENDBRANCH  16  21
ENDBRANCH   1  11
BRANCH  10  23
ATOM     23  O   UNL     1      -4.147  23.365  46.278  1.00  0.00    -0.500 OA
ATOM     24  H   UNL     1      -3.381  23.972  46.010  1.00  0.00     0.294 HD
ENDBRANCH  10  23
BRANCH   5  25
ATOM     25  O   UNL     1      -3.098  16.259  49.232  1.00  0.00    -0.507 OA
ATOM     26  H   UNL     1      -2.653  16.262  50.141  1.00  0.00     0.293 HD
ENDBRANCH   5  25
BRANCH   7  27
ATOM     27  O   UNL     1      -3.266  18.385  44.931  1.00  0.00    -0.507 OA
ATOM     28  H   UNL     1      -3.042  17.523  44.457  1.00  0.00     0.293 HD
ENDBRANCH   7  27
TORSDOF 7
ENDMDL
MODEL 4
REMARK VINA RESULT:    -7.615      0.076      1.796
REMARK INTER + INTRA:          -9.602
REMARK INTER:                  -9.401
REMARK INTRA:                  -0.201
REMARK UNBOUND:                -0.205
REMARK SMILES Oc1cc(O)c2cc(O)c(-c3cc(O)c(O)c(O)c3)[o+]c2c1
REMARK SMILES IDX 10 1 20 2 21 3 22 4 2 5 3 6 4 7 6 8 7 9 8 10 11 11 12 12
REMARK SMILES IDX 13 13 19 14 15 15 17 16 14 17 16 19 18 21 9 23 1 25 5 27
REMARK H PARENT 14 18 16 20 18 22 9 24 1 26 5 28
REMARK Flexibility Score: inf
ROOT
ATOM      1  C   UNL     1      -3.450  21.008  48.076  1.00  0.00     0.402 A 
ATOM      2  O   UNL     1      -3.432  21.633  49.250  1.00  0.00    -0.202 OA
ATOM      3  C   UNL     1      -3.956  22.839  49.443  1.00  0.00     0.368 A 
ATOM      4  C   UNL     1      -3.890  23.413  50.716  1.00  0.00     0.162 A 
ATOM      5  C   UNL     1      -4.438  24.679  50.947  1.00  0.00     0.128 A 
ATOM      6  C   UNL     1      -5.053  25.373  49.902  1.00  0.00     0.093 A 
ATOM      7  C   UNL     1      -5.131  24.819  48.618  1.00  0.00     0.136 A 
ATOM      8  C   UNL     1      -4.576  23.536  48.377  1.00  0.00     0.125 A 
ATOM      9  C   UNL     1      -4.597  22.909  47.121  1.00  0.00     0.078 A 
ATOM     10  C   UNL     1      -4.024  21.644  46.959  1.00  0.00     0.223 A 
ENDROOT
BRANCH   1  11
ATOM     11  C   UNL     1      -2.840  19.662  47.989  1.00  0.00     0.091 A 
ATOM     12  C   UNL     1      -3.343  18.582  48.735  1.00  0.00     0.068 A 
ATOM     13  C   UNL     1      -2.738  17.320  48.657  1.00  0.00     0.162 A 
ATOM     14  C   UNL     1      -1.702  19.469  47.192  1.00  0.00     0.068 A 
ATOM     15  C   UNL     1      -1.612  17.131  47.839  1.00  0.00     0.200 A 
ATOM     16  C   UNL     1      -1.093  18.213  47.108  1.00  0.00     0.162 A 
BRANCH  13  17
ATOM     17  O   UNL     1      -3.250  16.253  49.396  1.00  0.00    -0.504 OA
ATOM     18  H   UNL     1      -3.710  16.397  50.287  1.00  0.00     0.293 HD
ENDBRANCH  13  17
BRANCH  15  19
ATOM     19  O   UNL     1      -1.000  15.880  47.746  1.00  0.00    -0.502 OA
ATOM     20  H   UNL     1      -0.472  15.479  48.512  1.00  0.00     0.293 HD
ENDBRANCH  15  19
BRANCH  16  21
ATOM     21  O   UNL     1       0.029  18.061  46.293  1.00  0.00    -0.504 OA
ATOM     22  H   UNL     1       0.757  17.388  46.499  1.00  0.00     0.293 HD
ENDBRANCH  16  21
ENDBRANCH   1  11
BRANCH  10  23
ATOM     23  O   UNL     1      -4.000  21.042  45.701  1.00  0.00    -0.500 OA
ATOM     24  H   UNL     1      -3.862  21.583  44.855  1.00  0.00     0.294 HD
ENDBRANCH  10  23
BRANCH   5  25
ATOM     25  O   UNL     1      -4.375  25.258  52.213  1.00  0.00    -0.507 OA
ATOM     26  H   UNL     1      -3.840  26.099  52.385  1.00  0.00     0.293 HD
ENDBRANCH   5  25
BRANCH   7  27
ATOM     27  O   UNL     1      -5.766  25.576  47.629  1.00  0.00    -0.507 OA
ATOM     28  H   UNL     1      -6.559  25.261  47.091  1.00  0.00     0.293 HD
ENDBRANCH   7  27
TORSDOF 7
ENDMDL
MODEL 5
REMARK VINA RESULT:    -7.267      1.683      2.137
REMARK INTER + INTRA:          -9.172
REMARK INTER:                  -9.055
REMARK INTRA:                  -0.117
REMARK UNBOUND:                -0.205
REMARK SMILES Oc1cc(O)c2cc(O)c(-c3cc(O)c(O)c(O)c3)[o+]c2c1
REMARK SMILES IDX 10 1 20 2 21 3 22 4 2 5 3 6 4 7 6 8 7 9 8 10 11 11 12 12
REMARK SMILES IDX 13 13 19 14 15 15 17 16 14 17 16 19 18 21 9 23 1 25 5 27
REMARK H PARENT 14 18 16 20 18 22 9 24 1 26 5 28
REMARK Flexibility Score: inf
ROOT
ATOM      1  C   UNL     1      -3.982  21.822  48.858  1.00  0.00     0.402 A 
ATOM      2  O   UNL     1      -3.160  22.289  49.794  1.00  0.00    -0.202 OA
ATOM      3  C   UNL     1      -3.351  23.443  50.425  1.00  0.00     0.368 A 
ATOM      4  C   UNL     1      -2.432  23.848  51.396  1.00  0.00     0.162 A 
ATOM      5  C   UNL     1      -2.612  25.056  52.077  1.00  0.00     0.128 A 
ATOM      6  C   UNL     1      -3.715  25.861  51.785  1.00  0.00     0.093 A 
ATOM      7  C   UNL     1      -4.650  25.478  50.815  1.00  0.00     0.136 A 
ATOM      8  C   UNL     1      -4.471  24.254  50.120  1.00  0.00     0.125 A 
ATOM      9  C   UNL     1      -5.350  23.796  49.125  1.00  0.00     0.078 A 
ATOM     10  C   UNL     1      -5.105  22.581  48.479  1.00  0.00     0.223 A 
ENDROOT
BRANCH   1  11
ATOM     11  C   UNL     1      -3.666  20.517  48.235  1.00  0.00     0.091 A 
ATOM     12  C   UNL     1      -3.526  20.386  46.843  1.00  0.00     0.068 A 
ATOM     13  C   UNL     1      -3.249  19.137  46.270  1.00  0.00     0.162 A 
ATOM     14  C   UNL     1      -3.559  19.374  49.042  1.00  0.00     0.068 A 
ATOM     15  C   UNL     1      -3.121  18.002  47.087  1.00  0.00     0.200 A 
ATOM     16  C   UNL     1      -3.282  18.125  48.478  1.00  0.00     0.162 A 
BRANCH  13  17
ATOM     17  O   UNL     1      -3.104  19.020  44.887  1.00  0.00    -0.504 OA
ATOM     18  H   UNL     1      -2.592  19.708  44.346  1.00  0.00     0.293 HD
ENDBRANCH  13  17
BRANCH  15  19
ATOM     19  O   UNL     1      -2.841  16.752  46.533  1.00  0.00    -0.502 OA
ATOM     20  H   UNL     1      -3.512  16.252  45.961  1.00  0.00     0.293 HD
ENDBRANCH  15  19
BRANCH  16  21
ATOM     21  O   UNL     1      -3.170  17.016  49.317  1.00  0.00    -0.504 OA
ATOM     22  H   UNL     1      -2.272  16.637  49.592  1.00  0.00     0.293 HD
ENDBRANCH  16  21
ENDBRANCH   1  11
BRANCH  10  23
ATOM     23  O   UNL     1      -5.950  22.149  47.456  1.00  0.00    -0.500 OA
ATOM     24  H   UNL     1      -5.603  21.969  46.520  1.00  0.00     0.294 HD
ENDBRANCH  10  23
BRANCH   5  25
ATOM     25  O   UNL     1      -1.699  25.466  53.046  1.00  0.00    -0.507 OA
ATOM     26  H   UNL     1      -0.785  25.823  52.796  1.00  0.00     0.293 HD
ENDBRANCH   5  25
BRANCH   7  27
ATOM     27  O   UNL     1      -5.727  26.338  50.585  1.00  0.00    -0.507 OA
ATOM     28  H   UNL     1      -6.659  26.034  50.344  1.00  0.00     0.293 HD
ENDBRANCH   7  27
TORSDOF 7
ENDMDL
MODEL 6
REMARK VINA RESULT:    -7.174      1.686      2.648
REMARK INTER + INTRA:          -9.057
REMARK INTER:                  -8.944
REMARK INTRA:                  -0.113
REMARK UNBOUND:                -0.205
REMARK SMILES Oc1cc(O)c2cc(O)c(-c3cc(O)c(O)c(O)c3)[o+]c2c1
REMARK SMILES IDX 10 1 20 2 21 3 22 4 2 5 3 6 4 7 6 8 7 9 8 10 11 11 12 12
REMARK SMILES IDX 13 13 19 14 15 15 17 16 14 17 16 19 18 21 9 23 1 25 5 27
REMARK H PARENT 14 18 16 20 18 22 9 24 1 26 5 28
REMARK Flexibility Score: inf
ROOT
ATOM      1  C   UNL     1      -4.061  21.819  48.875  1.00  0.00     0.402 A 
ATOM      2  O   UNL     1      -3.241  22.271  49.821  1.00  0.00    -0.202 OA
ATOM      3  C   UNL     1      -3.415  23.433  50.443  1.00  0.00     0.368 A 
ATOM      4  C   UNL     1      -2.501  23.821  51.426  1.00  0.00     0.162 A 
ATOM      5  C   UNL     1      -2.662  25.036  52.098  1.00  0.00     0.128 A 
ATOM      6  C   UNL     1      -3.741  25.866  51.785  1.00  0.00     0.093 A 
ATOM      7  C   UNL     1      -4.671  25.500  50.803  1.00  0.00     0.136 A 
ATOM      8  C   UNL     1      -4.510  24.269  50.117  1.00  0.00     0.125 A 
ATOM      9  C   UNL     1      -5.384  23.826  49.111  1.00  0.00     0.078 A 
ATOM     10  C   UNL     1      -5.159  22.602  48.474  1.00  0.00     0.223 A 
ENDROOT
BRANCH   1  11
ATOM     11  C   UNL     1      -3.766  20.503  48.263  1.00  0.00     0.091 A 
ATOM     12  C   UNL     1      -3.626  19.346  49.048  1.00  0.00     0.068 A 
ATOM     13  C   UNL     1      -3.324  18.114  48.453  1.00  0.00     0.162 A 
ATOM     14  C   UNL     1      -3.565  20.416  46.878  1.00  0.00     0.068 A 
ATOM     15  C   UNL     1      -3.146  18.031  47.062  1.00  0.00     0.200 A 
ATOM     16  C   UNL     1      -3.264  19.190  46.275  1.00  0.00     0.162 A 
BRANCH  13  17
ATOM     17  O   UNL     1      -3.195  16.970  49.241  1.00  0.00    -0.504 OA
ATOM     18  H   UNL     1      -2.621  16.186  48.950  1.00  0.00     0.293 HD
ENDBRANCH  13  17
BRANCH  15  19
ATOM     19  O   UNL     1      -2.850  16.812  46.452  1.00  0.00    -0.502 OA
ATOM     20  H   UNL     1      -2.256  16.747  45.633  1.00  0.00     0.293 HD
ENDBRANCH  15  19
BRANCH  16  21
ATOM     21  O   UNL     1      -3.085  19.144  44.892  1.00  0.00    -0.504 OA
ATOM     22  H   UNL     1      -2.259  19.519  44.443  1.00  0.00     0.293 HD
ENDBRANCH  16  21
ENDBRANCH   1  11
BRANCH  10  23
ATOM     23  O   UNL     1      -5.998  22.185  47.441  1.00  0.00    -0.500 OA
ATOM     24  H   UNL     1      -6.372  22.839  46.763  1.00  0.00     0.294 HD
ENDBRANCH  10  23
BRANCH   5  25
ATOM     25  O   UNL     1      -1.755  25.429  53.079  1.00  0.00    -0.507 OA
ATOM     26  H   UNL     1      -1.766  26.364  53.468  1.00  0.00     0.293 HD
ENDBRANCH   5  25
BRANCH   7  27
ATOM     27  O   UNL     1      -5.723  26.385  50.552  1.00  0.00    -0.507 OA
ATOM     28  H   UNL     1      -6.627  26.338  50.999  1.00  0.00     0.293 HD
ENDBRANCH   7  27
TORSDOF 7
ENDMDL
MODEL 7
REMARK VINA RESULT:    -6.858      1.827      3.025
REMARK INTER + INTRA:          -8.667
REMARK INTER:                  -8.404
REMARK INTRA:                  -0.263
REMARK UNBOUND:                -0.205
REMARK SMILES Oc1cc(O)c2cc(O)c(-c3cc(O)c(O)c(O)c3)[o+]c2c1
REMARK SMILES IDX 10 1 20 2 21 3 22 4 2 5 3 6 4 7 6 8 7 9 8 10 11 11 12 12
REMARK SMILES IDX 13 13 19 14 15 15 17 16 14 17 16 19 18 21 9 23 1 25 5 27
REMARK H PARENT 14 18 16 20 18 22 9 24 1 26 5 28
REMARK Flexibility Score: inf
ROOT
ATOM      1  C   UNL     1      -3.912  22.400  49.000  1.00  0.00     0.402 A 
ATOM      2  O   UNL     1      -5.040  23.075  48.792  1.00  0.00    -0.202 OA
ATOM      3  C   UNL     1      -5.294  24.258  49.341  1.00  0.00     0.368 A 
ATOM      4  C   UNL     1      -6.507  24.892  49.059  1.00  0.00     0.162 A 
ATOM      5  C   UNL     1      -6.798  26.139  49.621  1.00  0.00     0.128 A 
ATOM      6  C   UNL     1      -5.873  26.754  50.467  1.00  0.00     0.093 A 
ATOM      7  C   UNL     1      -4.650  26.139  50.765  1.00  0.00     0.136 A 
ATOM      8  C   UNL     1      -4.351  24.873  50.199  1.00  0.00     0.125 A 
ATOM      9  C   UNL     1      -3.157  24.177  50.452  1.00  0.00     0.078 A 
ATOM     10  C   UNL     1      -2.934  22.930  49.862  1.00  0.00     0.223 A 
ENDROOT
BRANCH   1  11
ATOM     11  C   UNL     1      -3.742  21.094  48.323  1.00  0.00     0.091 A 
ATOM     12  C   UNL     1      -3.587  21.008  46.929  1.00  0.00     0.068 A 
ATOM     13  C   UNL     1      -3.451  19.761  46.304  1.00  0.00     0.162 A 
ATOM     14  C   UNL     1      -3.795  19.913  49.078  1.00  0.00     0.068 A 
ATOM     15  C   UNL     1      -3.481  18.584  47.070  1.00  0.00     0.200 A 
ATOM     16  C   UNL     1      -3.658  18.665  48.462  1.00  0.00     0.162 A 
BRANCH  13  17
ATOM     17  O   UNL     1      -3.289  19.687  44.920  1.00  0.00    -0.504 OA
ATOM     18  H   UNL     1      -3.298  18.800  44.430  1.00  0.00     0.293 HD
ENDBRANCH  13  17
BRANCH  15  19
ATOM     19  O   UNL     1      -3.342  17.335  46.465  1.00  0.00    -0.502 OA
ATOM     20  H   UNL     1      -2.656  17.159  45.741  1.00  0.00     0.293 HD
ENDBRANCH  15  19
BRANCH  16  21
ATOM     21  O   UNL     1      -3.702  17.515  49.251  1.00  0.00    -0.504 OA
ATOM     22  H   UNL     1      -3.206  17.446  50.131  1.00  0.00     0.293 HD
ENDBRANCH  16  21
ENDBRANCH   1  11
BRANCH  10  23
ATOM     23  O   UNL     1      -1.771  22.216  50.152  1.00  0.00    -0.500 OA
ATOM     24  H   UNL     1      -1.803  21.253  50.468  1.00  0.00     0.294 HD
ENDBRANCH  10  23
BRANCH   5  25
ATOM     25  O   UNL     1      -8.006  26.776  49.344  1.00  0.00    -0.507 OA
ATOM     26  H   UNL     1      -8.853  26.548  49.849  1.00  0.00     0.293 HD
ENDBRANCH   5  25
BRANCH   7  27
ATOM     27  O   UNL     1      -3.778  26.822  51.618  1.00  0.00    -0.507 OA
ATOM     28  H   UNL     1      -3.976  27.717  52.038  1.00  0.00     0.293 HD
ENDBRANCH   7  27
TORSDOF 7
ENDMDL
MODEL 8
REMARK VINA RESULT:    -6.845      1.805      7.596
REMARK INTER + INTRA:          -8.651
REMARK INTER:                  -8.372
REMARK INTRA:                  -0.279
REMARK UNBOUND:                -0.205
REMARK SMILES Oc1cc(O)c2cc(O)c(-c3cc(O)c(O)c(O)c3)[o+]c2c1
REMARK SMILES IDX 10 1 20 2 21 3 22 4 2 5 3 6 4 7 6 8 7 9 8 10 11 11 12 12
REMARK SMILES IDX 13 13 19 14 15 15 17 16 14 17 16 19 18 21 9 23 1 25 5 27
REMARK H PARENT 14 18 16 20 18 22 9 24 1 26 5 28
REMARK Flexibility Score: inf
ROOT
ATOM      1  C   UNL     1      -3.405  21.289  47.504  1.00  0.00     0.402 A 
ATOM      2  O   UNL     1      -3.493  20.545  46.405  1.00  0.00    -0.202 OA
ATOM      3  C   UNL     1      -3.048  19.294  46.333  1.00  0.00     0.368 A 
ATOM      4  C   UNL     1      -3.189  18.591  45.134  1.00  0.00     0.162 A 
ATOM      5  C   UNL     1      -2.732  17.273  45.032  1.00  0.00     0.128 A 
ATOM      6  C   UNL     1      -2.133  16.657  46.133  1.00  0.00     0.093 A 
ATOM      7  C   UNL     1      -1.980  17.341  47.346  1.00  0.00     0.136 A 
ATOM      8  C   UNL     1      -2.440  18.679  47.454  1.00  0.00     0.125 A 
ATOM      9  C   UNL     1      -2.318  19.445  48.625  1.00  0.00     0.078 A 
ATOM     10  C   UNL     1      -2.790  20.760  48.655  1.00  0.00     0.223 A 
ENDROOT
BRANCH   1  11
ATOM     11  C   UNL     1      -3.947  22.666  47.463  1.00  0.00     0.091 A 
ATOM     12  C   UNL     1      -5.065  23.035  48.230  1.00  0.00     0.068 A 
ATOM     13  C   UNL     1      -5.578  24.338  48.159  1.00  0.00     0.162 A 
ATOM     14  C   UNL     1      -3.371  23.609  46.599  1.00  0.00     0.068 A 
ATOM     15  C   UNL     1      -4.981  25.283  47.308  1.00  0.00     0.200 A 
ATOM     16  C   UNL     1      -3.876  24.911  46.523  1.00  0.00     0.162 A 
BRANCH  13  17
ATOM     17  O   UNL     1      -6.684  24.696  48.931  1.00  0.00    -0.504 OA
ATOM     18  H   UNL     1      -7.047  24.086  49.654  1.00  0.00     0.293 HD
ENDBRANCH  13  17
BRANCH  15  19
ATOM     19  O   UNL     1      -5.475  26.585  47.229  1.00  0.00    -0.502 OA
ATOM     20  H   UNL     1      -5.708  27.125  48.054  1.00  0.00     0.293 HD
ENDBRANCH  15  19
BRANCH  16  21
ATOM     21  O   UNL     1      -3.265  25.823  45.661  1.00  0.00    -0.504 OA
ATOM     22  H   UNL     1      -2.281  25.766  45.427  1.00  0.00     0.293 HD
ENDBRANCH  16  21
ENDBRANCH   1  11
BRANCH  10  23
ATOM     23  O   UNL     1      -2.624  21.538  49.801  1.00  0.00    -0.500 OA
ATOM     24  H   UNL     1      -1.759  21.531  50.328  1.00  0.00     0.294 HD
ENDBRANCH  10  23
BRANCH   5  25
ATOM     25  O   UNL     1      -2.869  16.566  43.839  1.00  0.00    -0.507 OA
ATOM     26  H   UNL     1      -3.095  17.033  42.969  1.00  0.00     0.293 HD
ENDBRANCH   5  25
BRANCH   7  27
ATOM     27  O   UNL     1      -1.374  16.653  48.400  1.00  0.00    -0.507 OA
ATOM     28  H   UNL     1      -1.737  15.807  48.813  1.00  0.00     0.293 HD
ENDBRANCH   7  27
TORSDOF 7
ENDMDL
MODEL 9
REMARK VINA RESULT:    -6.694      1.888      2.766
REMARK INTER + INTRA:          -8.465
REMARK INTER:                  -8.086
REMARK INTRA:                  -0.379
REMARK UNBOUND:                -0.205
REMARK SMILES Oc1cc(O)c2cc(O)c(-c3cc(O)c(O)c(O)c3)[o+]c2c1
REMARK SMILES IDX 10 1 20 2 21 3 22 4 2 5 3 6 4 7 6 8 7 9 8 10 11 11 12 12
REMARK SMILES IDX 13 13 19 14 15 15 17 16 14 17 16 19 18 21 9 23 1 25 5 27
REMARK H PARENT 14 18 16 20 18 22 9 24 1 26 5 28
REMARK Flexibility Score: inf
ROOT
ATOM      1  C   UNL     1      -3.140  21.730  48.575  1.00  0.00     0.402 A 
ATOM      2  O   UNL     1      -4.300  22.299  48.891  1.00  0.00    -0.202 OA
ATOM      3  C   UNL     1      -4.410  23.568  49.274  1.00  0.00     0.368 A 
ATOM      4  C   UNL     1      -5.674  24.077  49.584  1.00  0.00     0.162 A 
ATOM      5  C   UNL     1      -5.818  25.409  49.986  1.00  0.00     0.128 A 
ATOM      6  C   UNL     1      -4.695  26.233  50.079  1.00  0.00     0.093 A 
ATOM      7  C   UNL     1      -3.417  25.746  49.774  1.00  0.00     0.136 A 
ATOM      8  C   UNL     1      -3.265  24.395  49.367  1.00  0.00     0.125 A 
ATOM      9  C   UNL     1      -2.023  23.818  49.055  1.00  0.00     0.078 A 
ATOM     10  C   UNL     1      -1.951  22.477  48.667  1.00  0.00     0.223 A 
ENDROOT
BRANCH   1  11
ATOM     11  C   UNL     1      -3.149  20.311  48.153  1.00  0.00     0.091 A 
ATOM     12  C   UNL     1      -3.027  19.269  49.088  1.00  0.00     0.068 A 
ATOM     13  C   UNL     1      -3.014  17.932  48.667  1.00  0.00     0.162 A 
ATOM     14  C   UNL     1      -3.223  19.997  46.788  1.00  0.00     0.068 A 
ATOM     15  C   UNL     1      -3.111  17.626  47.299  1.00  0.00     0.200 A 
ATOM     16  C   UNL     1      -3.212  18.665  46.359  1.00  0.00     0.162 A 
BRANCH  13  17
ATOM     17  O   UNL     1      -2.900  16.906  49.605  1.00  0.00    -0.504 OA
ATOM     18  H   UNL     1      -3.020  17.076  50.596  1.00  0.00     0.293 HD
ENDBRANCH  13  17
BRANCH  15  19
ATOM     19  O   UNL     1      -3.104  16.301  46.863  1.00  0.00    -0.502 OA
ATOM     20  H   UNL     1      -3.668  15.986  46.082  1.00  0.00     0.293 HD
ENDBRANCH  15  19
BRANCH  16  21
ATOM     21  O   UNL     1      -3.302  18.396  44.993  1.00  0.00    -0.504 OA
ATOM     22  H   UNL     1      -3.721  19.048  44.342  1.00  0.00     0.293 HD
ENDBRANCH  16  21
ENDBRANCH   1  11
BRANCH  10  23
ATOM     23  O   UNL     1      -0.714  21.889  48.404  1.00  0.00    -0.500 OA
ATOM     24  H   UNL     1       0.151  22.412  48.486  1.00  0.00     0.294 HD
ENDBRANCH  10  23
BRANCH   5  25
ATOM     25  O   UNL     1      -7.075  25.923  50.297  1.00  0.00    -0.507 OA
ATOM     26  H   UNL     1      -7.441  26.745  49.834  1.00  0.00     0.293 HD
ENDBRANCH   5  25
BRANCH   7  27
ATOM     27  O   UNL     1      -2.345  26.636  49.888  1.00  0.00    -0.507 OA
ATOM     28  H   UNL     1      -2.432  27.640  49.856  1.00  0.00     0.293 HD
ENDBRANCH   7  27
TORSDOF 7
ENDMDL
