MODEL 1
REMARK VINA RESULT:    -2.932      0.000      0.000
REMARK INTER + INTRA:          -8.973
REMARK INTER:                  -6.359
REMARK INTRA:                  -2.614
REMARK UNBOUND:                -2.614
REMARK SMILES CCCCCCCCCCCCCCCCCCCCCC(=O)[O-]
REMARK SMILES IDX 12 1 11 2 10 3 9 4 8 5 7 6 6 7 5 8 4 9 3 10 2 11 1 12 13 13
REMARK SMILES IDX 14 14 15 15 16 16 17 17 18 18 19 19 20 20 21 21 22 22 23 23
REMARK SMILES IDX 24 24
REMARK H PARENT
REMARK Flexibility Score: inf
ROOT
ATOM      1  C   UNL     1      -5.321   8.448   7.526  1.00  0.00     0.000 C 
ENDROOT
BRANCH   1   2
ATOM      2  C   UNL     1      -4.816   9.101   8.821  1.00  0.00     0.000 C 
BRANCH   2   3
ATOM      3  C   UNL     1      -5.565   8.571  10.063  1.00  0.00     0.000 C 
BRANCH   3   4
ATOM      4  C   UNL     1      -4.630   7.965  11.121  1.00  0.00    -0.000 C 
BRANCH   4   5
ATOM      5  C   UNL     1      -4.830   6.449  11.287  1.00  0.00    -0.000 C 
BRANCH   5   6
ATOM      6  C   UNL     1      -4.212   5.649  10.127  1.00  0.00    -0.000 C 
BRANCH   6   7
ATOM      7  C   UNL     1      -3.089   4.706  10.596  1.00  0.00    -0.000 C 
BRANCH   7   8
ATOM      8  C   UNL     1      -1.946   4.592   9.574  1.00  0.00    -0.000 C 
BRANCH   8   9
ATOM      9  C   UNL     1      -2.012   5.687   8.494  1.00  0.00    -0.000 C 
BRANCH   9  10
ATOM     10  C   UNL     1      -0.850   6.687   8.597  1.00  0.00    -0.000 C 
BRANCH  10  11
ATOM     11  C   UNL     1      -1.283   8.039   9.184  1.00  0.00    -0.003 C 
ATOM     12  C   UNL     1      -0.937   8.131  10.667  1.00  0.00     0.004 C 
ENDBRANCH  10  11
ENDBRANCH   9  10
ENDBRANCH   8   9
ENDBRANCH   7   8
ENDBRANCH   6   7
ENDBRANCH   5   6
ENDBRANCH   4   5
ENDBRANCH   3   4
ENDBRANCH   2   3
ENDBRANCH   1   2
BRANCH   1  13
ATOM     13  C   UNL     1      -4.170   7.785   6.753  1.00  0.00     0.000 C 
BRANCH  13  14
ATOM     14  C   UNL     1      -4.107   8.250   5.282  1.00  0.00     0.000 C 
BRANCH  14  15
ATOM     15  C   UNL     1      -2.958   9.238   5.001  1.00  0.00     0.000 C 
BRANCH  15  16
ATOM     16  C   UNL     1      -2.360   9.139   3.587  1.00  0.00     0.000 C 
BRANCH  16  17
ATOM     17  C   UNL     1      -3.328   8.512   2.574  1.00  0.00     0.000 C 
BRANCH  17  18
ATOM     18  C   UNL     1      -2.658   7.352   1.825  1.00  0.00     0.000 C 
BRANCH  18  19
ATOM     19  C   UNL     1      -3.681   6.291   1.364  1.00  0.00     0.000 C 
BRANCH  19  20
ATOM     20  C   UNL     1      -3.958   5.209   2.419  1.00  0.00     0.006 C 
BRANCH  20  21
ATOM     21  C   UNL     1      -3.197   3.908   2.148  1.00  0.00     0.053 C 
BRANCH  21  22
ATOM     22  C   UNL     1      -3.539   2.878   3.177  1.00  0.00     0.041 C 
ATOM     23  O   UNL     1      -3.524   1.654   2.878  1.00  0.00    -0.550 OA
ATOM     24  O   UNL     1      -3.931   3.271   4.450  1.00  0.00    -0.550 OA
ENDBRANCH  21  22
ENDBRANCH  20  21
ENDBRANCH  19  20
ENDBRANCH  18  19
ENDBRANCH  17  18
ENDBRANCH  16  17
ENDBRANCH  15  16
ENDBRANCH  14  15
ENDBRANCH  13  14
ENDBRANCH   1  13
TORSDOF 20
ENDMDL
MODEL 2
REMARK VINA RESULT:    -2.893      3.651      6.251
REMARK INTER + INTRA:          -8.889
REMARK INTER:                  -5.050
REMARK INTRA:                  -3.839
REMARK UNBOUND:                -2.614
REMARK SMILES CCCCCCCCCCCCCCCCCCCCCC(=O)[O-]
REMARK SMILES IDX 12 1 11 2 10 3 9 4 8 5 7 6 6 7 5 8 4 9 3 10 2 11 1 12 13 13
REMARK SMILES IDX 14 14 15 15 16 16 17 17 18 18 19 19 20 20 21 21 22 22 23 23
REMARK SMILES IDX 24 24
REMARK H PARENT
REMARK Flexibility Score: inf
ROOT
ATOM      1  C   UNL     1      -0.750   7.224   8.486  1.00  0.00     0.000 C 
ENDROOT
BRANCH   1   2
ATOM      2  C   UNL     1      -2.035   6.405   8.296  1.00  0.00     0.000 C 
BRANCH   2   3
ATOM      3  C   UNL     1      -1.943   5.022   8.976  1.00  0.00     0.000 C 
BRANCH   3   4
ATOM      4  C   UNL     1      -3.249   4.599   9.666  1.00  0.00    -0.000 C 
BRANCH   4   5
ATOM      5  C   UNL     1      -3.012   4.021  11.072  1.00  0.00    -0.000 C 
BRANCH   5   6
ATOM      6  C   UNL     1      -2.043   4.881  11.901  1.00  0.00    -0.000 C 
BRANCH   6   7
ATOM      7  C   UNL     1      -0.842   4.073  12.427  1.00  0.00    -0.000 C 
BRANCH   7   8
ATOM      8  C   UNL     1      -0.815   2.634  11.888  1.00  0.00    -0.000 C 
BRANCH   8   9
ATOM      9  C   UNL     1       0.577   2.227  11.372  1.00  0.00    -0.000 C 
BRANCH   9  10
ATOM     10  C   UNL     1       0.891   2.822   9.990  1.00  0.00    -0.000 C 
BRANCH  10  11
ATOM     11  C   UNL     1       2.305   3.415   9.908  1.00  0.00    -0.003 C 
ATOM     12  C   UNL     1       3.071   2.847   8.718  1.00  0.00     0.004 C 
ENDBRANCH  10  11
ENDBRANCH   9  10
ENDBRANCH   8   9
ENDBRANCH   7   8
ENDBRANCH   6   7
ENDBRANCH   5   6
ENDBRANCH   4   5
ENDBRANCH   3   4
ENDBRANCH   2   3
ENDBRANCH   1   2
BRANCH   1  13
ATOM     13  C   UNL     1       0.247   6.488   9.396  1.00  0.00     0.000 C 
BRANCH  13  14
ATOM     14  C   UNL     1       0.517   7.256  10.708  1.00  0.00     0.000 C 
BRANCH  14  15
ATOM     15  C   UNL     1      -0.208   8.613  10.785  1.00  0.00     0.000 C 
BRANCH  15  16
ATOM     16  C   UNL     1      -1.291   8.700  11.874  1.00  0.00     0.000 C 
BRANCH  16  17
ATOM     17  C   UNL     1      -2.652   9.152  11.327  1.00  0.00     0.000 C 
BRANCH  17  18
ATOM     18  C   UNL     1      -3.605   7.959  11.177  1.00  0.00     0.000 C 
BRANCH  18  19
ATOM     19  C   UNL     1      -5.002   8.389  10.680  1.00  0.00     0.000 C 
BRANCH  19  20
ATOM     20  C   UNL     1      -5.373   7.797   9.311  1.00  0.00     0.006 C 
BRANCH  20  21
ATOM     21  C   UNL     1      -4.907   8.670   8.142  1.00  0.00     0.053 C 
BRANCH  21  22
ATOM     22  C   UNL     1      -5.261   8.029   6.838  1.00  0.00     0.041 C 
ATOM     23  O   UNL     1      -4.352   7.644   6.054  1.00  0.00    -0.550 OA
ATOM     24  O   UNL     1      -6.592   7.908   6.461  1.00  0.00    -0.550 OA
ENDBRANCH  21  22
ENDBRANCH  20  21
ENDBRANCH  19  20
ENDBRANCH  18  19
ENDBRANCH  17  18
ENDBRANCH  16  17
ENDBRANCH  15  16
ENDBRANCH  14  15
ENDBRANCH  13  14
ENDBRANCH   1  13
TORSDOF 20
ENDMDL
MODEL 3
REMARK VINA RESULT:    -2.862      4.296      7.362
REMARK INTER + INTRA:          -8.821
REMARK INTER:                  -4.955
REMARK INTRA:                  -3.866
REMARK UNBOUND:                -2.614
REMARK SMILES CCCCCCCCCCCCCCCCCCCCCC(=O)[O-]
REMARK SMILES IDX 12 1 11 2 10 3 9 4 8 5 7 6 6 7 5 8 4 9 3 10 2 11 1 12 13 13
REMARK SMILES IDX 14 14 15 15 16 16 17 17 18 18 19 19 20 20 21 21 22 22 23 23
REMARK SMILES IDX 24 24
REMARK H PARENT
REMARK Flexibility Score: inf
ROOT
ATOM      1  C   UNL     1      -0.390   8.186   9.708  1.00  0.00     0.000 C 
ENDROOT
BRANCH   1   2
ATOM      2  C   UNL     1       0.787   7.555  10.467  1.00  0.00     0.000 C 
BRANCH   2   3
ATOM      3  C   UNL     1       1.675   6.695   9.542  1.00  0.00     0.000 C 
BRANCH   3   4
ATOM      4  C   UNL     1       2.082   5.353  10.170  1.00  0.00    -0.000 C 
BRANCH   4   5
ATOM      5  C   UNL     1       3.150   4.615   9.344  1.00  0.00    -0.000 C 
BRANCH   5   6
ATOM      6  C   UNL     1       3.458   3.216   9.905  1.00  0.00    -0.000 C 
BRANCH   6   7
ATOM      7  C   UNL     1       2.944   2.089   8.991  1.00  0.00    -0.000 C 
BRANCH   7   8
ATOM      8  C   UNL     1       1.956   1.152   9.704  1.00  0.00    -0.000 C 
BRANCH   8   9
ATOM      9  C   UNL     1       0.663   1.872  10.124  1.00  0.00    -0.000 C 
BRANCH   9  10
ATOM     10  C   UNL     1       0.257   1.558  11.573  1.00  0.00    -0.000 C 
BRANCH  10  11
ATOM     11  C   UNL     1       0.544   2.721  12.535  1.00  0.00    -0.003 C 
ATOM     12  C   UNL     1       1.919   2.574  13.179  1.00  0.00     0.004 C 
ENDBRANCH  10  11
ENDBRANCH   9  10
ENDBRANCH   8   9
ENDBRANCH   7   8
ENDBRANCH   6   7
ENDBRANCH   5   6
ENDBRANCH   4   5
ENDBRANCH   3   4
ENDBRANCH   2   3
ENDBRANCH   1   2
BRANCH   1  13
ATOM     13  C   UNL     1      -0.677   7.428   8.402  1.00  0.00     0.000 C 
BRANCH  13  14
ATOM     14  C   UNL     1      -2.165   7.038   8.267  1.00  0.00     0.000 C 
BRANCH  14  15
ATOM     15  C   UNL     1      -2.405   5.516   8.293  1.00  0.00     0.000 C 
BRANCH  15  16
ATOM     16  C   UNL     1      -1.482   4.739   9.247  1.00  0.00     0.000 C 
BRANCH  16  17
ATOM     17  C   UNL     1      -2.181   4.331  10.551  1.00  0.00     0.000 C 
BRANCH  17  18
ATOM     18  C   UNL     1      -1.856   5.321  11.678  1.00  0.00     0.000 C 
BRANCH  18  19
ATOM     19  C   UNL     1      -2.949   6.400  11.838  1.00  0.00     0.000 C 
BRANCH  19  20
ATOM     20  C   UNL     1      -4.301   5.836  12.303  1.00  0.00     0.006 C 
BRANCH  20  21
ATOM     21  C   UNL     1      -5.490   6.477  11.581  1.00  0.00     0.053 C 
BRANCH  21  22
ATOM     22  C   UNL     1      -5.598   5.952  10.185  1.00  0.00     0.041 C 
ATOM     23  O   UNL     1      -5.711   6.749   9.215  1.00  0.00    -0.550 OA
ATOM     24  O   UNL     1      -5.632   4.582   9.958  1.00  0.00    -0.550 OA
ENDBRANCH  21  22
ENDBRANCH  20  21
ENDBRANCH  19  20
ENDBRANCH  18  19
ENDBRANCH  17  18
ENDBRANCH  16  17
ENDBRANCH  15  16
ENDBRANCH  14  15
ENDBRANCH  13  14
ENDBRANCH   1  13
TORSDOF 20
ENDMDL
MODEL 4
REMARK VINA RESULT:    -2.814      5.215      7.521
REMARK INTER + INTRA:          -8.719
REMARK INTER:                  -5.413
REMARK INTRA:                  -3.306
REMARK UNBOUND:                -2.614
REMARK SMILES CCCCCCCCCCCCCCCCCCCCCC(=O)[O-]
REMARK SMILES IDX 12 1 11 2 10 3 9 4 8 5 7 6 6 7 5 8 4 9 3 10 2 11 1 12 13 13
REMARK SMILES IDX 14 14 15 15 16 16 17 17 18 18 19 19 20 20 21 21 22 22 23 23
REMARK SMILES IDX 24 24
REMARK H PARENT
REMARK Flexibility Score: inf
ROOT
ATOM      1  C   UNL     1      -1.504   7.154   9.204  1.00  0.00     0.000 C 
ENDROOT
BRANCH   1   2
ATOM      2  C   UNL     1      -2.403   6.340   8.264  1.00  0.00     0.000 C 
BRANCH   2   3
ATOM      3  C   UNL     1      -2.549   4.875   8.730  1.00  0.00     0.000 C 
BRANCH   3   4
ATOM      4  C   UNL     1      -1.269   4.312   9.367  1.00  0.00    -0.000 C 
BRANCH   4   5
ATOM      5  C   UNL     1      -1.483   3.862  10.822  1.00  0.00    -0.000 C 
BRANCH   5   6
ATOM      6  C   UNL     1      -0.446   2.817  11.268  1.00  0.00    -0.000 C 
BRANCH   6   7
ATOM      7  C   UNL     1       0.416   2.306  10.099  1.00  0.00    -0.000 C 
BRANCH   7   8
ATOM      8  C   UNL     1       1.097   0.963  10.408  1.00  0.00    -0.000 C 
BRANCH   8   9
ATOM      9  C   UNL     1       2.628   1.091  10.509  1.00  0.00    -0.000 C 
BRANCH   9  10
ATOM     10  C   UNL     1       3.071   1.915  11.728  1.00  0.00    -0.000 C 
BRANCH  10  11
ATOM     11  C   UNL     1       4.595   2.100  11.796  1.00  0.00    -0.003 C 
ATOM     12  C   UNL     1       5.304   1.185  10.803  1.00  0.00     0.004 C 
ENDBRANCH  10  11
ENDBRANCH   9  10
ENDBRANCH   8   9
ENDBRANCH   7   8
ENDBRANCH   6   7
ENDBRANCH   5   6
ENDBRANCH   4   5
ENDBRANCH   3   4
ENDBRANCH   2   3
ENDBRANCH   1   2
BRANCH   1  13
ATOM     13  C   UNL     1      -0.399   7.883   8.422  1.00  0.00     0.000 C 
BRANCH  13  14
ATOM     14  C   UNL     1       1.008   7.593   8.989  1.00  0.00     0.000 C 
BRANCH  14  15
ATOM     15  C   UNL     1       1.001   7.213  10.482  1.00  0.00     0.000 C 
BRANCH  15  16
ATOM     16  C   UNL     1       1.761   5.918  10.817  1.00  0.00     0.000 C 
BRANCH  16  17
ATOM     17  C   UNL     1       2.260   5.180   9.567  1.00  0.00     0.000 C 
BRANCH  17  18
ATOM     18  C   UNL     1       3.782   4.988   9.617  1.00  0.00     0.000 C 
BRANCH  18  19
ATOM     19  C   UNL     1       4.364   4.605   8.239  1.00  0.00     0.000 C 
BRANCH  19  20
ATOM     20  C   UNL     1       4.197   3.116   7.897  1.00  0.00     0.006 C 
BRANCH  20  21
ATOM     21  C   UNL     1       4.341   2.834   6.398  1.00  0.00     0.053 C 
BRANCH  21  22
ATOM     22  C   UNL     1       4.817   1.434   6.174  1.00  0.00     0.041 C 
ATOM     23  O   UNL     1       4.974   0.997   5.002  1.00  0.00    -0.550 OA
ATOM     24  O   UNL     1       5.031   0.590   7.257  1.00  0.00    -0.550 OA
ENDBRANCH  21  22
ENDBRANCH  20  21
ENDBRANCH  19  20
ENDBRANCH  18  19
ENDBRANCH  17  18
ENDBRANCH  16  17
ENDBRANCH  15  16
ENDBRANCH  14  15
ENDBRANCH  13  14
ENDBRANCH   1  13
TORSDOF 20
ENDMDL
MODEL 5
REMARK VINA RESULT:    -2.792      5.354      8.870
REMARK INTER + INTRA:          -8.671
REMARK INTER:                  -6.539
REMARK INTRA:                  -2.132
REMARK UNBOUND:                -2.614
REMARK SMILES CCCCCCCCCCCCCCCCCCCCCC(=O)[O-]
REMARK SMILES IDX 12 1 11 2 10 3 9 4 8 5 7 6 6 7 5 8 4 9 3 10 2 11 1 12 13 13
REMARK SMILES IDX 14 14 15 15 16 16 17 17 18 18 19 19 20 20 21 21 22 22 23 23
REMARK SMILES IDX 24 24
REMARK H PARENT
REMARK Flexibility Score: inf
ROOT
ATOM      1  C   UNL     1      -4.136  -0.074  12.258  1.00  0.00     0.000 C 
ENDROOT
BRANCH   1   2
ATOM      2  C   UNL     1      -3.646  -1.470  11.846  1.00  0.00     0.000 C 
BRANCH   2   3
ATOM      3  C   UNL     1      -4.562  -2.112  10.782  1.00  0.00     0.000 C 
BRANCH   3   4
ATOM      4  C   UNL     1      -3.889  -3.263  10.019  1.00  0.00    -0.000 C 
BRANCH   4   5
ATOM      5  C   UNL     1      -2.717  -3.883  10.799  1.00  0.00    -0.000 C 
BRANCH   5   6
ATOM      6  C   UNL     1      -1.442  -3.996   9.946  1.00  0.00    -0.000 C 
BRANCH   6   7
ATOM      7  C   UNL     1      -0.205  -3.416  10.655  1.00  0.00    -0.000 C 
BRANCH   7   8
ATOM      8  C   UNL     1       0.703  -2.619   9.705  1.00  0.00    -0.000 C 
BRANCH   8   9
ATOM      9  C   UNL     1       1.297  -1.367  10.374  1.00  0.00    -0.000 C 
BRANCH   9  10
ATOM     10  C   UNL     1       0.240  -0.542  11.124  1.00  0.00    -0.000 C 
BRANCH  10  11
ATOM     11  C   UNL     1       0.593   0.952  11.194  1.00  0.00    -0.003 C 
ATOM     12  C   UNL     1       1.178   1.440   9.872  1.00  0.00     0.004 C 
ENDBRANCH  10  11
ENDBRANCH   9  10
ENDBRANCH   8   9
ENDBRANCH   7   8
ENDBRANCH   6   7
ENDBRANCH   5   6
ENDBRANCH   4   5
ENDBRANCH   3   4
ENDBRANCH   2   3
ENDBRANCH   1   2
BRANCH   1  13
ATOM     13  C   UNL     1      -3.156   0.592  13.237  1.00  0.00     0.000 C 
BRANCH  13  14
ATOM     14  C   UNL     1      -2.579   1.912  12.681  1.00  0.00     0.000 C 
BRANCH  14  15
ATOM     15  C   UNL     1      -3.659   2.888  12.175  1.00  0.00     0.000 C 
BRANCH  15  16
ATOM     16  C   UNL     1      -3.155   3.935  11.167  1.00  0.00     0.000 C 
BRANCH  16  17
ATOM     17  C   UNL     1      -1.624   3.965  11.055  1.00  0.00     0.000 C 
BRANCH  17  18
ATOM     18  C   UNL     1      -1.186   4.181   9.600  1.00  0.00     0.000 C 
BRANCH  18  19
ATOM     19  C   UNL     1      -0.570   5.580   9.381  1.00  0.00     0.000 C 
BRANCH  19  20
ATOM     20  C   UNL     1      -1.401   6.475   8.449  1.00  0.00     0.006 C 
BRANCH  20  21
ATOM     21  C   UNL     1      -2.592   7.125   9.160  1.00  0.00     0.053 C 
BRANCH  21  22
ATOM     22  C   UNL     1      -3.776   7.182   8.248  1.00  0.00     0.041 C 
ATOM     23  O   UNL     1      -4.943   7.196   8.725  1.00  0.00    -0.550 OA
ATOM     24  O   UNL     1      -3.595   7.162   6.871  1.00  0.00    -0.550 OA
ENDBRANCH  21  22
ENDBRANCH  20  21
ENDBRANCH  19  20
ENDBRANCH  18  19
ENDBRANCH  17  18
ENDBRANCH  16  17
ENDBRANCH  15  16
ENDBRANCH  14  15
ENDBRANCH  13  14
ENDBRANCH   1  13
TORSDOF 20
ENDMDL
MODEL 6
REMARK VINA RESULT:    -2.785      4.437      6.958
REMARK INTER + INTRA:          -8.654
REMARK INTER:                  -4.673
REMARK INTRA:                  -3.981
REMARK UNBOUND:                -2.614
REMARK SMILES CCCCCCCCCCCCCCCCCCCCCC(=O)[O-]
REMARK SMILES IDX 12 1 11 2 10 3 9 4 8 5 7 6 6 7 5 8 4 9 3 10 2 11 1 12 13 13
REMARK SMILES IDX 14 14 15 15 16 16 17 17 18 18 19 19 20 20 21 21 22 22 23 23
REMARK SMILES IDX 24 24
REMARK H PARENT
REMARK Flexibility Score: inf
ROOT
ATOM      1  C   UNL     1      -2.100   6.150   8.412  1.00  0.00     0.000 C 
ENDROOT
BRANCH   1   2
ATOM      2  C   UNL     1      -2.300   4.664   8.741  1.00  0.00     0.000 C 
BRANCH   2   3
ATOM      3  C   UNL     1      -1.198   4.129   9.682  1.00  0.00     0.000 C 
BRANCH   3   4
ATOM      4  C   UNL     1      -1.710   3.815  11.097  1.00  0.00    -0.000 C 
BRANCH   4   5
ATOM      5  C   UNL     1      -0.674   4.142  12.185  1.00  0.00    -0.000 C 
BRANCH   5   6
ATOM      6  C   UNL     1       0.756   4.229  11.622  1.00  0.00    -0.000 C 
BRANCH   6   7
ATOM      7  C   UNL     1       1.420   5.588  11.909  1.00  0.00    -0.000 C 
BRANCH   7   8
ATOM      8  C   UNL     1       2.717   5.794  11.111  1.00  0.00    -0.000 C 
BRANCH   8   9
ATOM      9  C   UNL     1       2.562   5.412   9.628  1.00  0.00    -0.000 C 
BRANCH   9  10
ATOM     10  C   UNL     1       3.600   4.375   9.174  1.00  0.00    -0.000 C 
BRANCH  10  11
ATOM     11  C   UNL     1       2.973   3.010   8.850  1.00  0.00    -0.003 C 
ATOM     12  C   UNL     1       3.198   2.019   9.988  1.00  0.00     0.004 C 
ENDBRANCH  10  11
ENDBRANCH   9  10
ENDBRANCH   8   9
ENDBRANCH   7   8
ENDBRANCH   6   7
ENDBRANCH   5   6
ENDBRANCH   4   5
ENDBRANCH   3   4
ENDBRANCH   2   3
ENDBRANCH   1   2
BRANCH   1  13
ATOM     13  C   UNL     1      -0.656   6.593   8.698  1.00  0.00     0.000 C 
BRANCH  13  14
ATOM     14  C   UNL     1      -0.593   7.787   9.674  1.00  0.00     0.000 C 
BRANCH  14  15
ATOM     15  C   UNL     1      -1.896   7.997  10.471  1.00  0.00     0.000 C 
BRANCH  15  16
ATOM     16  C   UNL     1      -1.753   7.816  11.992  1.00  0.00     0.000 C 
BRANCH  16  17
ATOM     17  C   UNL     1      -2.895   6.993  12.603  1.00  0.00     0.000 C 
BRANCH  17  18
ATOM     18  C   UNL     1      -3.974   6.692  11.554  1.00  0.00     0.000 C 
BRANCH  18  19
ATOM     19  C   UNL     1      -5.262   6.126  12.191  1.00  0.00     0.000 C 
BRANCH  19  20
ATOM     20  C   UNL     1      -5.463   4.624  11.932  1.00  0.00     0.006 C 
BRANCH  20  21
ATOM     21  C   UNL     1      -5.478   4.277  10.441  1.00  0.00     0.053 C 
BRANCH  21  22
ATOM     22  C   UNL     1      -6.624   3.369  10.127  1.00  0.00     0.041 C 
ATOM     23  O   UNL     1      -7.052   3.274   8.945  1.00  0.00    -0.550 OA
ATOM     24  O   UNL     1      -7.259   2.672  11.147  1.00  0.00    -0.550 OA
ENDBRANCH  21  22
ENDBRANCH  20  21
ENDBRANCH  19  20
ENDBRANCH  18  19
ENDBRANCH  17  18
ENDBRANCH  16  17
ENDBRANCH  15  16
ENDBRANCH  14  15
ENDBRANCH  13  14
ENDBRANCH   1  13
TORSDOF 20
ENDMDL
MODEL 7
REMARK VINA RESULT:    -2.767      4.423      7.316
REMARK INTER + INTRA:          -8.617
REMARK INTER:                  -4.359
REMARK INTRA:                  -4.258
REMARK UNBOUND:                -2.614
REMARK SMILES CCCCCCCCCCCCCCCCCCCCCC(=O)[O-]
REMARK SMILES IDX 12 1 11 2 10 3 9 4 8 5 7 6 6 7 5 8 4 9 3 10 2 11 1 12 13 13
REMARK SMILES IDX 14 14 15 15 16 16 17 17 18 18 19 19 20 20 21 21 22 22 23 23
REMARK SMILES IDX 24 24
REMARK H PARENT
REMARK Flexibility Score: inf
ROOT
ATOM      1  C   UNL     1       0.173   6.233   9.196  1.00  0.00     0.000 C 
ENDROOT
BRANCH   1   2
ATOM      2  C   UNL     1      -1.000   6.894   8.456  1.00  0.00     0.000 C 
BRANCH   2   3
ATOM      3  C   UNL     1      -2.253   5.992   8.441  1.00  0.00     0.000 C 
BRANCH   3   4
ATOM      4  C   UNL     1      -1.995   4.587   9.008  1.00  0.00    -0.000 C 
BRANCH   4   5
ATOM      5  C   UNL     1      -2.810   4.308  10.282  1.00  0.00    -0.000 C 
BRANCH   5   6
ATOM      6  C   UNL     1      -4.040   5.224  10.401  1.00  0.00    -0.000 C 
BRANCH   6   7
ATOM      7  C   UNL     1      -4.169   5.859  11.798  1.00  0.00    -0.000 C 
BRANCH   7   8
ATOM      8  C   UNL     1      -4.178   7.395  11.753  1.00  0.00    -0.000 C 
BRANCH   8   9
ATOM      9  C   UNL     1      -2.767   7.986  11.576  1.00  0.00    -0.000 C 
BRANCH   9  10
ATOM     10  C   UNL     1      -2.764   9.255  10.709  1.00  0.00    -0.000 C 
BRANCH  10  11
ATOM     11  C   UNL     1      -4.084   9.457   9.949  1.00  0.00    -0.003 C 
ATOM     12  C   UNL     1      -3.876   9.331   8.443  1.00  0.00     0.004 C 
ENDBRANCH  10  11
ENDBRANCH   9  10
ENDBRANCH   8   9
ENDBRANCH   7   8
ENDBRANCH   6   7
ENDBRANCH   5   6
ENDBRANCH   4   5
ENDBRANCH   3   4
ENDBRANCH   2   3
ENDBRANCH   1   2
BRANCH   1  13
ATOM     13  C   UNL     1       1.014   7.278   9.947  1.00  0.00     0.000 C 
BRANCH  13  14
ATOM     14  C   UNL     1       0.719   7.287  11.463  1.00  0.00     0.000 C 
BRANCH  14  15
ATOM     15  C   UNL     1       0.834   5.896  12.117  1.00  0.00     0.000 C 
BRANCH  15  16
ATOM     16  C   UNL     1      -0.452   5.401  12.800  1.00  0.00     0.000 C 
BRANCH  16  17
ATOM     17  C   UNL     1      -0.409   3.904  13.138  1.00  0.00     0.000 C 
BRANCH  17  18
ATOM     18  C   UNL     1       0.656   3.185  12.299  1.00  0.00     0.000 C 
BRANCH  18  19
ATOM     19  C   UNL     1       0.042   2.108  11.379  1.00  0.00     0.000 C 
BRANCH  19  20
ATOM     20  C   UNL     1       0.545   2.181   9.930  1.00  0.00     0.006 C 
BRANCH  20  21
ATOM     21  C   UNL     1       1.823   3.013   9.788  1.00  0.00     0.053 C 
BRANCH  21  22
ATOM     22  C   UNL     1       2.898   2.212   9.125  1.00  0.00     0.041 C 
ATOM     23  O   UNL     1       3.347   2.561   8.000  1.00  0.00    -0.550 OA
ATOM     24  O   UNL     1       3.364   1.047   9.720  1.00  0.00    -0.550 OA
ENDBRANCH  21  22
ENDBRANCH  20  21
ENDBRANCH  19  20
ENDBRANCH  18  19
ENDBRANCH  17  18
ENDBRANCH  16  17
ENDBRANCH  15  16
ENDBRANCH  14  15
ENDBRANCH  13  14
ENDBRANCH   1  13
TORSDOF 20
ENDMDL
MODEL 8
REMARK VINA RESULT:    -2.721      5.024      8.248
REMARK INTER + INTRA:          -8.516
REMARK INTER:                  -5.520
REMARK INTRA:                  -2.996
REMARK UNBOUND:                -2.614
REMARK SMILES CCCCCCCCCCCCCCCCCCCCCC(=O)[O-]
REMARK SMILES IDX 12 1 11 2 10 3 9 4 8 5 7 6 6 7 5 8 4 9 3 10 2 11 1 12 13 13
REMARK SMILES IDX 14 14 15 15 16 16 17 17 18 18 19 19 20 20 21 21 22 22 23 23
REMARK SMILES IDX 24 24
REMARK H PARENT
REMARK Flexibility Score: inf
ROOT
ATOM      1  C   UNL     1      -1.527   4.599   9.186  1.00  0.00     0.000 C 
ENDROOT
BRANCH   1   2
ATOM      2  C   UNL     1      -1.096   6.014   8.775  1.00  0.00     0.000 C 
BRANCH   2   3
ATOM      3  C   UNL     1      -0.405   6.766   9.934  1.00  0.00     0.000 C 
BRANCH   3   4
ATOM      4  C   UNL     1       1.087   6.427  10.071  1.00  0.00    -0.000 C 
BRANCH   4   5
ATOM      5  C   UNL     1       1.379   5.534  11.289  1.00  0.00    -0.000 C 
BRANCH   5   6
ATOM      6  C   UNL     1       2.347   4.386  10.953  1.00  0.00    -0.000 C 
BRANCH   6   7
ATOM      7  C   UNL     1       2.125   3.824   9.537  1.00  0.00    -0.000 C 
BRANCH   7   8
ATOM      8  C   UNL     1       2.092   2.287   9.508  1.00  0.00    -0.000 C 
BRANCH   8   9
ATOM      9  C   UNL     1       0.755   1.718  10.014  1.00  0.00    -0.000 C 
BRANCH   9  10
ATOM     10  C   UNL     1       0.905   0.947  11.335  1.00  0.00    -0.000 C 
BRANCH  10  11
ATOM     11  C   UNL     1       0.365  -0.488  11.247  1.00  0.00    -0.003 C 
ATOM     12  C   UNL     1       1.083  -1.280  10.159  1.00  0.00     0.004 C 
ENDBRANCH  10  11
ENDBRANCH   9  10
ENDBRANCH   8   9
ENDBRANCH   7   8
ENDBRANCH   6   7
ENDBRANCH   5   6
ENDBRANCH   4   5
ENDBRANCH   3   4
ENDBRANCH   2   3
ENDBRANCH   1   2
BRANCH   1  13
ATOM     13  C   UNL     1      -2.972   4.590   9.712  1.00  0.00     0.000 C 
BRANCH  13  14
ATOM     14  C   UNL     1      -3.046   4.247  11.215  1.00  0.00     0.000 C 
BRANCH  14  15
ATOM     15  C   UNL     1      -1.789   3.527  11.742  1.00  0.00     0.000 C 
BRANCH  15  16
ATOM     16  C   UNL     1      -2.028   2.641  12.976  1.00  0.00     0.000 C 
BRANCH  16  17
ATOM     17  C   UNL     1      -2.711   1.310  12.630  1.00  0.00     0.000 C 
BRANCH  17  18
ATOM     18  C   UNL     1      -4.115   1.240  13.248  1.00  0.00     0.000 C 
BRANCH  18  19
ATOM     19  C   UNL     1      -5.169   0.733  12.240  1.00  0.00     0.000 C 
BRANCH  19  20
ATOM     20  C   UNL     1      -6.460   1.566  12.235  1.00  0.00     0.006 C 
BRANCH  20  21
ATOM     21  C   UNL     1      -6.415   2.722  11.231  1.00  0.00     0.053 C 
BRANCH  21  22
ATOM     22  C   UNL     1      -7.312   2.439  10.068  1.00  0.00     0.041 C 
ATOM     23  O   UNL     1      -8.193   1.541  10.151  1.00  0.00    -0.550 OA
ATOM     24  O   UNL     1      -7.138   3.125   8.873  1.00  0.00    -0.550 OA
ENDBRANCH  21  22
ENDBRANCH  20  21
ENDBRANCH  19  20
ENDBRANCH  18  19
ENDBRANCH  17  18
ENDBRANCH  16  17
ENDBRANCH  15  16
ENDBRANCH  14  15
ENDBRANCH  13  14
ENDBRANCH   1  13
TORSDOF 20
ENDMDL
MODEL 9
REMARK VINA RESULT:    -2.689      5.345      8.987
REMARK INTER + INTRA:          -8.446
REMARK INTER:                  -4.602
REMARK INTRA:                  -3.844
REMARK UNBOUND:                -2.614
REMARK SMILES CCCCCCCCCCCCCCCCCCCCCC(=O)[O-]
REMARK SMILES IDX 12 1 11 2 10 3 9 4 8 5 7 6 6 7 5 8 4 9 3 10 2 11 1 12 13 13
REMARK SMILES IDX 14 14 15 15 16 16 17 17 18 18 19 19 20 20 21 21 22 22 23 23
REMARK SMILES IDX 24 24
REMARK H PARENT
REMARK Flexibility Score: inf
ROOT
ATOM      1  C   UNL     1      -1.617   1.377  13.150  1.00  0.00     0.000 C 
ENDROOT
BRANCH   1   2
ATOM      2  C   UNL     1      -1.358   2.357  11.996  1.00  0.00     0.000 C 
BRANCH   2   3
ATOM      3  C   UNL     1      -0.668   3.651  12.483  1.00  0.00     0.000 C 
BRANCH   3   4
ATOM      4  C   UNL     1       0.069   4.401  11.363  1.00  0.00    -0.000 C 
BRANCH   4   5
ATOM      5  C   UNL     1      -0.347   3.926   9.961  1.00  0.00    -0.000 C 
BRANCH   5   6
ATOM      6  C   UNL     1      -1.191   4.974   9.216  1.00  0.00    -0.000 C 
BRANCH   6   7
ATOM      7  C   UNL     1      -2.689   4.620   9.198  1.00  0.00    -0.000 C 
BRANCH   7   8
ATOM      8  C   UNL     1      -3.543   5.615  10.000  1.00  0.00    -0.000 C 
BRANCH   8   9
ATOM      9  C   UNL     1      -3.980   5.049  11.363  1.00  0.00    -0.000 C 
BRANCH   9  10
ATOM     10  C   UNL     1      -4.745   3.723  11.233  1.00  0.00    -0.000 C 
BRANCH  10  11
ATOM     11  C   UNL     1      -4.973   3.035  12.588  1.00  0.00    -0.003 C 
ATOM     12  C   UNL     1      -4.381   3.857  13.728  1.00  0.00     0.004 C 
ENDBRANCH  10  11
ENDBRANCH   9  10
ENDBRANCH   8   9
ENDBRANCH   7   8
ENDBRANCH   6   7
ENDBRANCH   5   6
ENDBRANCH   4   5
ENDBRANCH   3   4
ENDBRANCH   2   3
ENDBRANCH   1   2
BRANCH   1  13
ATOM     13  C   UNL     1      -2.410   0.151  12.669  1.00  0.00     0.000 C 
BRANCH  13  14
ATOM     14  C   UNL     1      -1.488  -1.023  12.275  1.00  0.00     0.000 C 
BRANCH  14  15
ATOM     15  C   UNL     1      -0.149  -1.034  13.036  1.00  0.00     0.000 C 
BRANCH  15  16
ATOM     16  C   UNL     1       1.095  -0.869  12.146  1.00  0.00     0.000 C 
BRANCH  16  17
ATOM     17  C   UNL     1       0.757  -0.843  10.649  1.00  0.00     0.000 C 
BRANCH  17  18
ATOM     18  C   UNL     1       1.166   0.496  10.019  1.00  0.00     0.000 C 
BRANCH  18  19
ATOM     19  C   UNL     1       2.077   1.322  10.952  1.00  0.00     0.000 C 
BRANCH  19  20
ATOM     20  C   UNL     1       3.285   1.943  10.234  1.00  0.00     0.006 C 
BRANCH  20  21
ATOM     21  C   UNL     1       2.930   2.504   8.854  1.00  0.00     0.053 C 
BRANCH  21  22
ATOM     22  C   UNL     1       4.027   2.221   7.878  1.00  0.00     0.041 C 
ATOM     23  O   UNL     1       4.016   2.762   6.738  1.00  0.00    -0.550 OA
ATOM     24  O   UNL     1       5.030   1.317   8.201  1.00  0.00    -0.550 OA
ENDBRANCH  21  22
ENDBRANCH  20  21
ENDBRANCH  19  20
ENDBRANCH  18  19
ENDBRANCH  17  18
ENDBRANCH  16  17
ENDBRANCH  15  16
ENDBRANCH  14  15
ENDBRANCH  13  14
ENDBRANCH   1  13
TORSDOF 20
ENDMDL
