MODEL 1
REMARK VINA RESULT:    -5.115      0.000      0.000
REMARK INTER + INTRA:         -14.479
REMARK INTER:                 -11.096
REMARK INTRA:                  -3.384
REMARK UNBOUND:                -3.384
REMARK SMILES CCCCCCCCCCCCCCCCCCCCCC(=O)[O-]
REMARK SMILES IDX 12 1 11 2 10 3 9 4 8 5 7 6 6 7 5 8 4 9 3 10 2 11 1 12 13 13
REMARK SMILES IDX 14 14 15 15 16 16 17 17 18 18 19 19 20 20 21 21 22 22 23 23
REMARK SMILES IDX 24 24
REMARK H PARENT
REMARK Flexibility Score: inf
ROOT
ATOM      1  C   UNL     1      17.872 -22.280 -28.299  1.00  0.00     0.000 C 
ENDROOT
BRANCH   1   2
ATOM      2  C   UNL     1      19.369 -21.933 -28.137  1.00  0.00     0.000 C 
BRANCH   2   3
ATOM      3  C   UNL     1      20.332 -23.140 -28.158  1.00  0.00     0.000 C 
BRANCH   3   4
ATOM      4  C   UNL     1      19.817 -24.406 -28.876  1.00  0.00    -0.000 C 
BRANCH   4   5
ATOM      5  C   UNL     1      19.605 -25.605 -27.937  1.00  0.00    -0.000 C 
BRANCH   5   6
ATOM      6  C   UNL     1      18.129 -26.026 -27.848  1.00  0.00    -0.000 C 
BRANCH   6   7
ATOM      7  C   UNL     1      17.623 -26.085 -26.395  1.00  0.00    -0.000 C 
BRANCH   7   8
ATOM      8  C   UNL     1      18.442 -25.199 -25.444  1.00  0.00    -0.000 C 
BRANCH   8   9
ATOM      9  C   UNL     1      17.603 -24.634 -24.288  1.00  0.00    -0.000 C 
BRANCH   9  10
ATOM     10  C   UNL     1      18.247 -23.360 -23.717  1.00  0.00    -0.000 C 
BRANCH  10  11
ATOM     11  C   UNL     1      19.518 -22.950 -24.478  1.00  0.00    -0.003 C 
ATOM     12  C   UNL     1      19.797 -21.449 -24.398  1.00  0.00     0.004 C 
ENDBRANCH  10  11
ENDBRANCH   9  10
ENDBRANCH   8   9
ENDBRANCH   7   8
ENDBRANCH   6   7
ENDBRANCH   5   6
ENDBRANCH   4   5
ENDBRANCH   3   4
ENDBRANCH   2   3
ENDBRANCH   1   2
BRANCH   1  13
ATOM     13  C   UNL     1      17.051 -22.189 -26.999  1.00  0.00     0.000 C 
BRANCH  13  14
ATOM     14  C   UNL     1      15.689 -22.905 -27.026  1.00  0.00     0.000 C 
BRANCH  14  15
ATOM     15  C   UNL     1      15.188 -23.335 -28.418  1.00  0.00     0.000 C 
BRANCH  15  16
ATOM     16  C   UNL     1      13.653 -23.432 -28.549  1.00  0.00     0.000 C 
BRANCH  16  17
ATOM     17  C   UNL     1      12.946 -22.100 -28.248  1.00  0.00     0.000 C 
BRANCH  17  18
ATOM     18  C   UNL     1      12.139 -22.176 -26.944  1.00  0.00     0.000 C 
BRANCH  18  19
ATOM     19  C   UNL     1      11.902 -20.794 -26.306  1.00  0.00     0.000 C 
BRANCH  19  20
ATOM     20  C   UNL     1      12.804 -19.661 -26.841  1.00  0.00     0.006 C 
BRANCH  20  21
ATOM     21  C   UNL     1      12.051 -18.378 -27.225  1.00  0.00     0.053 C 
BRANCH  21  22
ATOM     22  C   UNL     1      11.452 -18.468 -28.594  1.00  0.00     0.041 C 
ATOM     23  O   UNL     1      10.249 -18.810 -28.737  1.00  0.00    -0.550 OA
ATOM     24  O   UNL     1      12.213 -18.142 -29.711  1.00  0.00    -0.550 OA
ENDBRANCH  21  22
ENDBRANCH  20  21
ENDBRANCH  19  20
ENDBRANCH  18  19
ENDBRANCH  17  18
ENDBRANCH  16  17
ENDBRANCH  15  16
ENDBRANCH  14  15
ENDBRANCH  13  14
ENDBRANCH   1  13
TORSDOF 20
ENDMDL
MODEL 2
REMARK VINA RESULT:    -4.910      3.539      7.172
REMARK INTER + INTRA:         -14.034
REMARK INTER:                 -11.416
REMARK INTRA:                  -2.618
REMARK UNBOUND:                -3.384
REMARK SMILES CCCCCCCCCCCCCCCCCCCCCC(=O)[O-]
REMARK SMILES IDX 12 1 11 2 10 3 9 4 8 5 7 6 6 7 5 8 4 9 3 10 2 11 1 12 13 13
REMARK SMILES IDX 14 14 15 15 16 16 17 17 18 18 19 19 20 20 21 21 22 22 23 23
REMARK SMILES IDX 24 24
REMARK H PARENT
REMARK Flexibility Score: inf
ROOT
ATOM      1  C   UNL     1      20.303 -21.288 -25.710  1.00  0.00     0.000 C 
ENDROOT
BRANCH   1   2
ATOM      2  C   UNL     1      19.468 -21.428 -27.003  1.00  0.00     0.000 C 
BRANCH   2   3
ATOM      3  C   UNL     1      17.957 -21.665 -26.790  1.00  0.00     0.000 C 
BRANCH   3   4
ATOM      4  C   UNL     1      17.258 -22.560 -27.834  1.00  0.00    -0.000 C 
BRANCH   4   5
ATOM      5  C   UNL     1      15.865 -23.045 -27.398  1.00  0.00    -0.000 C 
BRANCH   5   6
ATOM      6  C   UNL     1      15.004 -23.502 -28.587  1.00  0.00    -0.000 C 
BRANCH   6   7
ATOM      7  C   UNL     1      13.519 -23.137 -28.410  1.00  0.00    -0.000 C 
BRANCH   7   8
ATOM      8  C   UNL     1      13.127 -22.937 -26.937  1.00  0.00    -0.000 C 
BRANCH   8   9
ATOM      9  C   UNL     1      11.997 -21.913 -26.756  1.00  0.00    -0.000 C 
BRANCH   9  10
ATOM     10  C   UNL     1      12.160 -20.740 -27.736  1.00  0.00    -0.000 C 
BRANCH  10  11
ATOM     11  C   UNL     1      11.866 -19.380 -27.083  1.00  0.00    -0.003 C 
ATOM     12  C   UNL     1      12.964 -18.940 -26.113  1.00  0.00     0.004 C 
ENDBRANCH  10  11
ENDBRANCH   9  10
ENDBRANCH   8   9
ENDBRANCH   7   8
ENDBRANCH   6   7
ENDBRANCH   5   6
ENDBRANCH   4   5
ENDBRANCH   3   4
ENDBRANCH   2   3
ENDBRANCH   1   2
BRANCH   1  13
ATOM     13  C   UNL     1      19.505 -21.496 -24.409  1.00  0.00     0.000 C 
BRANCH  13  14
ATOM     14  C   UNL     1      19.409 -22.951 -23.918  1.00  0.00     0.000 C 
BRANCH  14  15
ATOM     15  C   UNL     1      17.983 -23.478 -23.668  1.00  0.00     0.000 C 
BRANCH  15  16
ATOM     16  C   UNL     1      17.668 -24.830 -24.343  1.00  0.00     0.000 C 
BRANCH  16  17
ATOM     17  C   UNL     1      18.577 -25.117 -25.550  1.00  0.00     0.000 C 
BRANCH  17  18
ATOM     18  C   UNL     1      17.872 -26.007 -26.583  1.00  0.00     0.000 C 
BRANCH  18  19
ATOM     19  C   UNL     1      18.799 -26.430 -27.740  1.00  0.00     0.000 C 
BRANCH  19  20
ATOM     20  C   UNL     1      18.095 -26.655 -29.095  1.00  0.00     0.006 C 
BRANCH  20  21
ATOM     21  C   UNL     1      16.582 -26.902 -28.993  1.00  0.00     0.053 C 
BRANCH  21  22
ATOM     22  C   UNL     1      16.255 -28.362 -28.940  1.00  0.00     0.041 C 
ATOM     23  O   UNL     1      16.061 -29.006 -30.005  1.00  0.00    -0.550 OA
ATOM     24  O   UNL     1      16.197 -29.020 -27.718  1.00  0.00    -0.550 OA
ENDBRANCH  21  22
ENDBRANCH  20  21
ENDBRANCH  19  20
ENDBRANCH  18  19
ENDBRANCH  17  18
ENDBRANCH  16  17
ENDBRANCH  15  16
ENDBRANCH  14  15
ENDBRANCH  13  14
ENDBRANCH   1  13
TORSDOF 20
ENDMDL
MODEL 3
REMARK VINA RESULT:    -4.893      3.245      8.176
REMARK INTER + INTRA:         -13.998
REMARK INTER:                 -11.893
REMARK INTRA:                  -2.105
REMARK UNBOUND:                -3.384
REMARK SMILES CCCCCCCCCCCCCCCCCCCCCC(=O)[O-]
REMARK SMILES IDX 12 1 11 2 10 3 9 4 8 5 7 6 6 7 5 8 4 9 3 10 2 11 1 12 13 13
REMARK SMILES IDX 14 14 15 15 16 16 17 17 18 18 19 19 20 20 21 21 22 22 23 23
REMARK SMILES IDX 24 24
REMARK H PARENT
REMARK Flexibility Score: inf
ROOT
ATOM      1  C   UNL     1      14.838 -23.727 -29.560  1.00  0.00     0.000 C 
ENDROOT
BRANCH   1   2
ATOM      2  C   UNL     1      13.582 -23.016 -29.008  1.00  0.00     0.000 C 
BRANCH   2   3
ATOM      3  C   UNL     1      12.336 -23.914 -28.843  1.00  0.00     0.000 C 
BRANCH   3   4
ATOM      4  C   UNL     1      11.442 -23.615 -27.622  1.00  0.00    -0.000 C 
BRANCH   4   5
ATOM      5  C   UNL     1      12.220 -23.108 -26.396  1.00  0.00    -0.000 C 
BRANCH   5   6
ATOM      6  C   UNL     1      11.861 -21.659 -26.032  1.00  0.00    -0.000 C 
BRANCH   6   7
ATOM      7  C   UNL     1      12.243 -20.664 -27.144  1.00  0.00    -0.000 C 
BRANCH   7   8
ATOM      8  C   UNL     1      12.798 -19.341 -26.595  1.00  0.00    -0.000 C 
BRANCH   8   9
ATOM      9  C   UNL     1      12.164 -18.109 -27.258  1.00  0.00    -0.000 C 
BRANCH   9  10
ATOM     10  C   UNL     1      11.289 -18.521 -28.452  1.00  0.00    -0.000 C 
BRANCH  10  11
ATOM     11  C   UNL     1       9.921 -17.819 -28.451  1.00  0.00    -0.003 C 
ATOM     12  C   UNL     1       9.334 -17.672 -27.047  1.00  0.00     0.004 C 
ENDBRANCH  10  11
ENDBRANCH   9  10
ENDBRANCH   8   9
ENDBRANCH   7   8
ENDBRANCH   6   7
ENDBRANCH   5   6
ENDBRANCH   4   5
ENDBRANCH   3   4
ENDBRANCH   2   3
ENDBRANCH   1   2
BRANCH   1  13
ATOM     13  C   UNL     1      16.030 -23.766 -28.585  1.00  0.00     0.000 C 
BRANCH  13  14
ATOM     14  C   UNL     1      15.842 -22.976 -27.278  1.00  0.00     0.000 C 
BRANCH  14  15
ATOM     15  C   UNL     1      17.126 -22.707 -26.470  1.00  0.00     0.000 C 
BRANCH  15  16
ATOM     16  C   UNL     1      17.471 -23.792 -25.428  1.00  0.00     0.000 C 
BRANCH  16  17
ATOM     17  C   UNL     1      18.629 -24.699 -25.877  1.00  0.00     0.000 C 
BRANCH  17  18
ATOM     18  C   UNL     1      18.110 -25.968 -26.569  1.00  0.00     0.000 C 
BRANCH  18  19
ATOM     19  C   UNL     1      18.974 -26.387 -27.775  1.00  0.00     0.000 C 
BRANCH  19  20
ATOM     20  C   UNL     1      18.183 -26.811 -29.031  1.00  0.00     0.006 C 
BRANCH  20  21
ATOM     21  C   UNL     1      16.795 -27.402 -28.740  1.00  0.00     0.053 C 
BRANCH  21  22
ATOM     22  C   UNL     1      16.005 -27.617 -29.993  1.00  0.00     0.041 C 
ATOM     23  O   UNL     1      15.247 -28.618 -30.099  1.00  0.00    -0.550 OA
ATOM     24  O   UNL     1      16.079 -26.697 -31.031  1.00  0.00    -0.550 OA
ENDBRANCH  21  22
ENDBRANCH  20  21
ENDBRANCH  19  20
ENDBRANCH  18  19
ENDBRANCH  17  18
ENDBRANCH  16  17
ENDBRANCH  15  16
ENDBRANCH  14  15
ENDBRANCH  13  14
ENDBRANCH   1  13
TORSDOF 20
ENDMDL
MODEL 4
REMARK VINA RESULT:    -4.893      2.073      3.837
REMARK INTER + INTRA:         -13.997
REMARK INTER:                 -11.098
REMARK INTRA:                  -2.899
REMARK UNBOUND:                -3.384
REMARK SMILES CCCCCCCCCCCCCCCCCCCCCC(=O)[O-]
REMARK SMILES IDX 12 1 11 2 10 3 9 4 8 5 7 6 6 7 5 8 4 9 3 10 2 11 1 12 13 13
REMARK SMILES IDX 14 14 15 15 16 16 17 17 18 18 19 19 20 20 21 21 22 22 23 23
REMARK SMILES IDX 24 24
REMARK H PARENT
REMARK Flexibility Score: inf
ROOT
ATOM      1  C   UNL     1      16.951 -22.856 -26.459  1.00  0.00     0.000 C 
ENDROOT
BRANCH   1   2
ATOM      2  C   UNL     1      17.027 -24.079 -25.518  1.00  0.00     0.000 C 
BRANCH   2   3
ATOM      3  C   UNL     1      18.414 -24.753 -25.424  1.00  0.00     0.000 C 
BRANCH   3   4
ATOM      4  C   UNL     1      18.831 -25.616 -26.633  1.00  0.00    -0.000 C 
BRANCH   4   5
ATOM      5  C   UNL     1      17.692 -26.484 -27.195  1.00  0.00    -0.000 C 
BRANCH   5   6
ATOM      6  C   UNL     1      18.193 -27.525 -28.209  1.00  0.00    -0.000 C 
BRANCH   6   7
ATOM      7  C   UNL     1      17.049 -28.381 -28.783  1.00  0.00    -0.000 C 
BRANCH   7   8
ATOM      8  C   UNL     1      16.286 -27.674 -29.913  1.00  0.00    -0.000 C 
BRANCH   8   9
ATOM      9  C   UNL     1      17.218 -27.106 -30.995  1.00  0.00    -0.000 C 
BRANCH   9  10
ATOM     10  C   UNL     1      17.102 -25.576 -31.068  1.00  0.00    -0.000 C 
BRANCH  10  11
ATOM     11  C   UNL     1      18.472 -24.878 -31.047  1.00  0.00    -0.003 C 
ATOM     12  C   UNL     1      18.616 -23.895 -29.885  1.00  0.00     0.004 C 
ENDBRANCH  10  11
ENDBRANCH   9  10
ENDBRANCH   8   9
ENDBRANCH   7   8
ENDBRANCH   6   7
ENDBRANCH   5   6
ENDBRANCH   4   5
ENDBRANCH   3   4
ENDBRANCH   2   3
ENDBRANCH   1   2
BRANCH   1  13
ATOM     13  C   UNL     1      15.602 -22.691 -27.185  1.00  0.00     0.000 C 
BRANCH  13  14
ATOM     14  C   UNL     1      15.340 -23.690 -28.326  1.00  0.00     0.000 C 
BRANCH  14  15
ATOM     15  C   UNL     1      14.118 -23.382 -29.213  1.00  0.00     0.000 C 
BRANCH  15  16
ATOM     16  C   UNL     1      12.842 -24.171 -28.849  1.00  0.00     0.000 C 
BRANCH  16  17
ATOM     17  C   UNL     1      11.709 -23.265 -28.338  1.00  0.00     0.000 C 
BRANCH  17  18
ATOM     18  C   UNL     1      11.634 -23.271 -26.804  1.00  0.00     0.000 C 
BRANCH  18  19
ATOM     19  C   UNL     1      11.976 -21.903 -26.183  1.00  0.00     0.000 C 
BRANCH  19  20
ATOM     20  C   UNL     1      12.081 -20.735 -27.187  1.00  0.00     0.006 C 
BRANCH  20  21
ATOM     21  C   UNL     1      12.757 -19.474 -26.627  1.00  0.00     0.053 C 
BRANCH  21  22
ATOM     22  C   UNL     1      11.917 -18.806 -25.583  1.00  0.00     0.041 C 
ATOM     23  O   UNL     1      10.682 -18.647 -25.770  1.00  0.00    -0.550 OA
ATOM     24  O   UNL     1      12.491 -18.388 -24.389  1.00  0.00    -0.550 OA
ENDBRANCH  21  22
ENDBRANCH  20  21
ENDBRANCH  19  20
ENDBRANCH  18  19
ENDBRANCH  17  18
ENDBRANCH  16  17
ENDBRANCH  15  16
ENDBRANCH  14  15
ENDBRANCH  13  14
ENDBRANCH   1  13
TORSDOF 20
ENDMDL
MODEL 5
REMARK VINA RESULT:    -4.892      1.579      3.588
REMARK INTER + INTRA:         -13.996
REMARK INTER:                 -11.868
REMARK INTRA:                  -2.128
REMARK UNBOUND:                -3.384
REMARK SMILES CCCCCCCCCCCCCCCCCCCCCC(=O)[O-]
REMARK SMILES IDX 12 1 11 2 10 3 9 4 8 5 7 6 6 7 5 8 4 9 3 10 2 11 1 12 13 13
REMARK SMILES IDX 14 14 15 15 16 16 17 17 18 18 19 19 20 20 21 21 22 22 23 23
REMARK SMILES IDX 24 24
REMARK H PARENT
REMARK Flexibility Score: inf
ROOT
ATOM      1  C   UNL     1      15.310 -22.913 -27.193  1.00  0.00     0.000 C 
ENDROOT
BRANCH   1   2
ATOM      2  C   UNL     1      16.752 -23.097 -26.666  1.00  0.00     0.000 C 
BRANCH   2   3
ATOM      3  C   UNL     1      17.649 -21.844 -26.750  1.00  0.00     0.000 C 
BRANCH   3   4
ATOM      4  C   UNL     1      18.847 -21.931 -27.719  1.00  0.00    -0.000 C 
BRANCH   4   5
ATOM      5  C   UNL     1      18.822 -23.176 -28.622  1.00  0.00    -0.000 C 
BRANCH   5   6
ATOM      6  C   UNL     1      20.082 -24.041 -28.461  1.00  0.00    -0.000 C 
BRANCH   6   7
ATOM      7  C   UNL     1      19.752 -25.542 -28.359  1.00  0.00    -0.000 C 
BRANCH   7   8
ATOM      8  C   UNL     1      19.039 -25.906 -27.048  1.00  0.00    -0.000 C 
BRANCH   8   9
ATOM      9  C   UNL     1      17.686 -26.598 -27.279  1.00  0.00    -0.000 C 
BRANCH   9  10
ATOM     10  C   UNL     1      17.719 -27.450 -28.557  1.00  0.00    -0.000 C 
BRANCH  10  11
ATOM     11  C   UNL     1      16.654 -27.023 -29.579  1.00  0.00    -0.003 C 
ATOM     12  C   UNL     1      17.075 -27.297 -31.022  1.00  0.00     0.004 C 
ENDBRANCH  10  11
ENDBRANCH   9  10
ENDBRANCH   8   9
ENDBRANCH   7   8
ENDBRANCH   6   7
ENDBRANCH   5   6
ENDBRANCH   4   5
ENDBRANCH   3   4
ENDBRANCH   2   3
ENDBRANCH   1   2
BRANCH   1  13
ATOM     13  C   UNL     1      15.050 -23.541 -28.575  1.00  0.00     0.000 C 
BRANCH  13  14
ATOM     14  C   UNL     1      13.622 -23.369 -29.121  1.00  0.00     0.000 C 
BRANCH  14  15
ATOM     15  C   UNL     1      12.532 -24.192 -28.407  1.00  0.00     0.000 C 
BRANCH  15  16
ATOM     16  C   UNL     1      11.408 -23.352 -27.764  1.00  0.00     0.000 C 
BRANCH  16  17
ATOM     17  C   UNL     1      11.913 -22.469 -26.611  1.00  0.00     0.000 C 
BRANCH  17  18
ATOM     18  C   UNL     1      12.148 -21.024 -27.074  1.00  0.00     0.000 C 
BRANCH  18  19
ATOM     19  C   UNL     1      11.801 -19.985 -25.990  1.00  0.00     0.000 C 
BRANCH  19  20
ATOM     20  C   UNL     1      11.777 -18.518 -26.471  1.00  0.00     0.006 C 
BRANCH  20  21
ATOM     21  C   UNL     1      10.432 -18.063 -27.057  1.00  0.00     0.053 C 
BRANCH  21  22
ATOM     22  C   UNL     1      10.431 -18.100 -28.554  1.00  0.00     0.041 C 
ATOM     23  O   UNL     1      11.518 -18.181 -29.185  1.00  0.00    -0.550 OA
ATOM     24  O   UNL     1       9.230 -18.080 -29.251  1.00  0.00    -0.550 OA
ENDBRANCH  21  22
ENDBRANCH  20  21
ENDBRANCH  19  20
ENDBRANCH  18  19
ENDBRANCH  17  18
ENDBRANCH  16  17
ENDBRANCH  15  16
ENDBRANCH  14  15
ENDBRANCH  13  14
ENDBRANCH   1  13
TORSDOF 20
ENDMDL
MODEL 6
REMARK VINA RESULT:    -4.859      1.257      3.515
REMARK INTER + INTRA:         -13.924
REMARK INTER:                 -11.224
REMARK INTRA:                  -2.700
REMARK UNBOUND:                -3.384
REMARK SMILES CCCCCCCCCCCCCCCCCCCCCC(=O)[O-]
REMARK SMILES IDX 12 1 11 2 10 3 9 4 8 5 7 6 6 7 5 8 4 9 3 10 2 11 1 12 13 13
REMARK SMILES IDX 14 14 15 15 16 16 17 17 18 18 19 19 20 20 21 21 22 22 23 23
REMARK SMILES IDX 24 24
REMARK H PARENT
REMARK Flexibility Score: inf
ROOT
ATOM      1  C   UNL     1      19.444 -21.826 -26.517  1.00  0.00     0.000 C 
ENDROOT
BRANCH   1   2
ATOM      2  C   UNL     1      19.616 -21.468 -25.024  1.00  0.00     0.000 C 
BRANCH   2   3
ATOM      3  C   UNL     1      18.855 -22.379 -24.036  1.00  0.00     0.000 C 
BRANCH   3   4
ATOM      4  C   UNL     1      19.647 -23.578 -23.472  1.00  0.00    -0.000 C 
BRANCH   4   5
ATOM      5  C   UNL     1      19.103 -24.944 -23.921  1.00  0.00    -0.000 C 
BRANCH   5   6
ATOM      6  C   UNL     1      17.756 -24.827 -24.652  1.00  0.00    -0.000 C 
BRANCH   6   7
ATOM      7  C   UNL     1      17.708 -25.680 -25.933  1.00  0.00    -0.000 C 
BRANCH   7   8
ATOM      8  C   UNL     1      18.967 -25.522 -26.800  1.00  0.00    -0.000 C 
BRANCH   8   9
ATOM      9  C   UNL     1      18.967 -26.451 -28.023  1.00  0.00    -0.000 C 
BRANCH   9  10
ATOM     10  C   UNL     1      17.534 -26.695 -28.524  1.00  0.00    -0.000 C 
BRANCH  10  11
ATOM     11  C   UNL     1      17.230 -28.187 -28.735  1.00  0.00    -0.003 C 
ATOM     12  C   UNL     1      16.616 -28.845 -27.499  1.00  0.00     0.004 C 
ENDBRANCH  10  11
ENDBRANCH   9  10
ENDBRANCH   8   9
ENDBRANCH   7   8
ENDBRANCH   6   7
ENDBRANCH   5   6
ENDBRANCH   4   5
ENDBRANCH   3   4
ENDBRANCH   2   3
ENDBRANCH   1   2
BRANCH   1  13
ATOM     13  C   UNL     1      17.980 -21.903 -26.991  1.00  0.00     0.000 C 
BRANCH  13  14
ATOM     14  C   UNL     1      17.773 -22.459 -28.411  1.00  0.00     0.000 C 
BRANCH  14  15
ATOM     15  C   UNL     1      16.405 -23.115 -28.677  1.00  0.00     0.000 C 
BRANCH  15  16
ATOM     16  C   UNL     1      15.389 -22.979 -27.523  1.00  0.00     0.000 C 
BRANCH  16  17
ATOM     17  C   UNL     1      13.945 -22.798 -28.021  1.00  0.00     0.000 C 
BRANCH  17  18
ATOM     18  C   UNL     1      12.937 -22.903 -26.867  1.00  0.00     0.000 C 
BRANCH  18  19
ATOM     19  C   UNL     1      12.224 -21.570 -26.572  1.00  0.00     0.000 C 
BRANCH  19  20
ATOM     20  C   UNL     1      12.143 -20.592 -27.764  1.00  0.00     0.006 C 
BRANCH  20  21
ATOM     21  C   UNL     1      11.457 -19.255 -27.445  1.00  0.00     0.053 C 
BRANCH  21  22
ATOM     22  C   UNL     1      11.082 -18.507 -28.687  1.00  0.00     0.041 C 
ATOM     23  O   UNL     1       9.874 -18.250 -28.931  1.00  0.00    -0.550 OA
ATOM     24  O   UNL     1      12.070 -18.065 -29.559  1.00  0.00    -0.550 OA
ENDBRANCH  21  22
ENDBRANCH  20  21
ENDBRANCH  19  20
ENDBRANCH  18  19
ENDBRANCH  17  18
ENDBRANCH  16  17
ENDBRANCH  15  16
ENDBRANCH  14  15
ENDBRANCH  13  14
ENDBRANCH   1  13
TORSDOF 20
ENDMDL
MODEL 7
REMARK VINA RESULT:    -4.837      1.939      3.691
REMARK INTER + INTRA:         -13.876
REMARK INTER:                 -10.566
REMARK INTRA:                  -3.310
REMARK UNBOUND:                -3.384
REMARK SMILES CCCCCCCCCCCCCCCCCCCCCC(=O)[O-]
REMARK SMILES IDX 12 1 11 2 10 3 9 4 8 5 7 6 6 7 5 8 4 9 3 10 2 11 1 12 13 13
REMARK SMILES IDX 14 14 15 15 16 16 17 17 18 18 19 19 20 20 21 21 22 22 23 23
REMARK SMILES IDX 24 24
REMARK H PARENT
REMARK Flexibility Score: inf
ROOT
ATOM      1  C   UNL     1      19.248 -25.387 -27.516  1.00  0.00     0.000 C 
ENDROOT
BRANCH   1   2
ATOM      2  C   UNL     1      19.869 -24.847 -28.824  1.00  0.00     0.000 C 
BRANCH   2   3
ATOM      3  C   UNL     1      20.747 -23.587 -28.667  1.00  0.00     0.000 C 
BRANCH   3   4
ATOM      4  C   UNL     1      20.214 -22.302 -29.335  1.00  0.00    -0.000 C 
BRANCH   4   5
ATOM      5  C   UNL     1      18.843 -21.852 -28.803  1.00  0.00    -0.000 C 
BRANCH   5   6
ATOM      6  C   UNL     1      18.935 -21.226 -27.402  1.00  0.00    -0.000 C 
BRANCH   6   7
ATOM      7  C   UNL     1      18.139 -22.024 -26.352  1.00  0.00    -0.000 C 
BRANCH   7   8
ATOM      8  C   UNL     1      18.907 -22.202 -25.033  1.00  0.00    -0.000 C 
BRANCH   8   9
ATOM      9  C   UNL     1      18.287 -23.274 -24.124  1.00  0.00    -0.000 C 
BRANCH   9  10
ATOM     10  C   UNL     1      17.131 -23.993 -24.836  1.00  0.00    -0.000 C 
BRANCH  10  11
ATOM     11  C   UNL     1      16.174 -24.688 -23.854  1.00  0.00    -0.003 C 
ATOM     12  C   UNL     1      16.899 -25.611 -22.876  1.00  0.00     0.004 C 
ENDBRANCH  10  11
ENDBRANCH   9  10
ENDBRANCH   8   9
ENDBRANCH   7   8
ENDBRANCH   6   7
ENDBRANCH   5   6
ENDBRANCH   4   5
ENDBRANCH   3   4
ENDBRANCH   2   3
ENDBRANCH   1   2
BRANCH   1  13
ATOM     13  C   UNL     1      18.161 -26.459 -27.719  1.00  0.00     0.000 C 
BRANCH  13  14
ATOM     14  C   UNL     1      17.693 -26.658 -29.171  1.00  0.00     0.000 C 
BRANCH  14  15
ATOM     15  C   UNL     1      16.348 -26.000 -29.535  1.00  0.00     0.000 C 
BRANCH  15  16
ATOM     16  C   UNL     1      16.468 -24.686 -30.336  1.00  0.00     0.000 C 
BRANCH  16  17
ATOM     17  C   UNL     1      15.952 -23.466 -29.556  1.00  0.00     0.000 C 
BRANCH  17  18
ATOM     18  C   UNL     1      15.411 -23.870 -28.177  1.00  0.00     0.000 C 
BRANCH  18  19
ATOM     19  C   UNL     1      14.741 -22.700 -27.430  1.00  0.00     0.000 C 
BRANCH  19  20
ATOM     20  C   UNL     1      13.200 -22.760 -27.366  1.00  0.00     0.006 C 
BRANCH  20  21
ATOM     21  C   UNL     1      12.536 -23.381 -28.604  1.00  0.00     0.053 C 
BRANCH  21  22
ATOM     22  C   UNL     1      11.768 -22.368 -29.395  1.00  0.00     0.041 C 
ATOM     23  O   UNL     1      11.111 -22.723 -30.410  1.00  0.00    -0.550 OA
ATOM     24  O   UNL     1      11.749 -21.038 -28.994  1.00  0.00    -0.550 OA
ENDBRANCH  21  22
ENDBRANCH  20  21
ENDBRANCH  19  20
ENDBRANCH  18  19
ENDBRANCH  17  18
ENDBRANCH  16  17
ENDBRANCH  15  16
ENDBRANCH  14  15
ENDBRANCH  13  14
ENDBRANCH   1  13
TORSDOF 20
ENDMDL
MODEL 8
REMARK VINA RESULT:    -4.823      2.056      4.538
REMARK INTER + INTRA:         -13.846
REMARK INTER:                 -10.835
REMARK INTRA:                  -3.011
REMARK UNBOUND:                -3.384
REMARK SMILES CCCCCCCCCCCCCCCCCCCCCC(=O)[O-]
REMARK SMILES IDX 12 1 11 2 10 3 9 4 8 5 7 6 6 7 5 8 4 9 3 10 2 11 1 12 13 13
REMARK SMILES IDX 14 14 15 15 16 16 17 17 18 18 19 19 20 20 21 21 22 22 23 23
REMARK SMILES IDX 24 24
REMARK H PARENT
REMARK Flexibility Score: inf
ROOT
ATOM      1  C   UNL     1      18.764 -25.213 -26.733  1.00  0.00     0.000 C 
ENDROOT
BRANCH   1   2
ATOM      2  C   UNL     1      17.525 -25.623 -25.905  1.00  0.00     0.000 C 
BRANCH   2   3
ATOM      3  C   UNL     1      16.853 -24.480 -25.115  1.00  0.00     0.000 C 
BRANCH   3   4
ATOM      4  C   UNL     1      16.887 -24.608 -23.577  1.00  0.00    -0.000 C 
BRANCH   4   5
ATOM      5  C   UNL     1      17.659 -23.475 -22.880  1.00  0.00    -0.000 C 
BRANCH   5   6
ATOM      6  C   UNL     1      19.172 -23.547 -23.145  1.00  0.00    -0.000 C 
BRANCH   6   7
ATOM      7  C   UNL     1      19.758 -22.187 -23.567  1.00  0.00    -0.000 C 
BRANCH   7   8
ATOM      8  C   UNL     1      19.987 -22.081 -25.082  1.00  0.00    -0.000 C 
BRANCH   8   9
ATOM      9  C   UNL     1      19.107 -21.010 -25.744  1.00  0.00    -0.000 C 
BRANCH   9  10
ATOM     10  C   UNL     1      18.343 -21.595 -26.942  1.00  0.00    -0.000 C 
BRANCH  10  11
ATOM     11  C   UNL     1      18.833 -21.032 -28.286  1.00  0.00    -0.003 C 
ATOM     12  C   UNL     1      18.370 -21.866 -29.480  1.00  0.00     0.004 C 
ENDBRANCH  10  11
ENDBRANCH   9  10
ENDBRANCH   8   9
ENDBRANCH   7   8
ENDBRANCH   6   7
ENDBRANCH   5   6
ENDBRANCH   4   5
ENDBRANCH   3   4
ENDBRANCH   2   3
ENDBRANCH   1   2
BRANCH   1  13
ATOM     13  C   UNL     1      19.228 -26.268 -27.755  1.00  0.00     0.000 C 
BRANCH  13  14
ATOM     14  C   UNL     1      18.178 -27.328 -28.132  1.00  0.00     0.000 C 
BRANCH  14  15
ATOM     15  C   UNL     1      17.512 -27.147 -29.510  1.00  0.00     0.000 C 
BRANCH  15  16
ATOM     16  C   UNL     1      16.079 -26.574 -29.462  1.00  0.00     0.000 C 
BRANCH  16  17
ATOM     17  C   UNL     1      16.027 -25.076 -29.803  1.00  0.00     0.000 C 
BRANCH  17  18
ATOM     18  C   UNL     1      15.659 -24.233 -28.573  1.00  0.00     0.000 C 
BRANCH  18  19
ATOM     19  C   UNL     1      14.674 -23.095 -28.901  1.00  0.00     0.000 C 
BRANCH  19  20
ATOM     20  C   UNL     1      13.704 -22.718 -27.760  1.00  0.00     0.006 C 
BRANCH  20  21
ATOM     21  C   UNL     1      12.239 -23.103 -28.018  1.00  0.00     0.053 C 
BRANCH  21  22
ATOM     22  C   UNL     1      11.610 -22.240 -29.068  1.00  0.00     0.041 C 
ATOM     23  O   UNL     1      10.744 -22.720 -29.846  1.00  0.00    -0.550 OA
ATOM     24  O   UNL     1      11.956 -20.898 -29.165  1.00  0.00    -0.550 OA
ENDBRANCH  21  22
ENDBRANCH  20  21
ENDBRANCH  19  20
ENDBRANCH  18  19
ENDBRANCH  17  18
ENDBRANCH  16  17
ENDBRANCH  15  16
ENDBRANCH  14  15
ENDBRANCH  13  14
ENDBRANCH   1  13
TORSDOF 20
ENDMDL
MODEL 9
REMARK VINA RESULT:    -4.788      1.713      4.238
REMARK INTER + INTRA:         -13.770
REMARK INTER:                 -10.594
REMARK INTRA:                  -3.176
REMARK UNBOUND:                -3.384
REMARK SMILES CCCCCCCCCCCCCCCCCCCCCC(=O)[O-]
REMARK SMILES IDX 12 1 11 2 10 3 9 4 8 5 7 6 6 7 5 8 4 9 3 10 2 11 1 12 13 13
REMARK SMILES IDX 14 14 15 15 16 16 17 17 18 18 19 19 20 20 21 21 22 22 23 23
REMARK SMILES IDX 24 24
REMARK H PARENT
REMARK Flexibility Score: inf
ROOT
ATOM      1  C   UNL     1      18.412 -21.602 -26.051  1.00  0.00     0.000 C 
ENDROOT
BRANCH   1   2
ATOM      2  C   UNL     1      19.255 -22.125 -24.866  1.00  0.00     0.000 C 
BRANCH   2   3
ATOM      3  C   UNL     1      18.495 -23.013 -23.857  1.00  0.00     0.000 C 
BRANCH   3   4
ATOM      4  C   UNL     1      18.306 -24.490 -24.263  1.00  0.00    -0.000 C 
BRANCH   4   5
ATOM      5  C   UNL     1      17.058 -24.739 -25.128  1.00  0.00    -0.000 C 
BRANCH   5   6
ATOM      6  C   UNL     1      17.377 -25.542 -26.399  1.00  0.00    -0.000 C 
BRANCH   6   7
ATOM      7  C   UNL     1      18.889 -25.626 -26.675  1.00  0.00    -0.000 C 
BRANCH   7   8
ATOM      8  C   UNL     1      19.214 -26.328 -28.002  1.00  0.00    -0.000 C 
BRANCH   8   9
ATOM      9  C   UNL     1      18.124 -27.323 -28.431  1.00  0.00    -0.000 C 
BRANCH   9  10
ATOM     10  C   UNL     1      17.737 -27.109 -29.903  1.00  0.00    -0.000 C 
BRANCH  10  11
ATOM     11  C   UNL     1      16.216 -27.113 -30.120  1.00  0.00    -0.003 C 
ATOM     12  C   UNL     1      15.469 -27.919 -29.056  1.00  0.00     0.004 C 
ENDBRANCH  10  11
ENDBRANCH   9  10
ENDBRANCH   8   9
ENDBRANCH   7   8
ENDBRANCH   6   7
ENDBRANCH   5   6
ENDBRANCH   4   5
ENDBRANCH   3   4
ENDBRANCH   2   3
ENDBRANCH   1   2
BRANCH   1  13
ATOM     13  C   UNL     1      18.676 -22.320 -27.388  1.00  0.00     0.000 C 
BRANCH  13  14
ATOM     14  C   UNL     1      18.486 -21.459 -28.649  1.00  0.00     0.000 C 
BRANCH  14  15
ATOM     15  C   UNL     1      18.070 -22.223 -29.921  1.00  0.00     0.000 C 
BRANCH  15  16
ATOM     16  C   UNL     1      17.249 -23.505 -29.664  1.00  0.00     0.000 C 
BRANCH  16  17
ATOM     17  C   UNL     1      15.761 -23.338 -30.015  1.00  0.00     0.000 C 
BRANCH  17  18
ATOM     18  C   UNL     1      14.858 -23.827 -28.874  1.00  0.00     0.000 C 
BRANCH  18  19
ATOM     19  C   UNL     1      14.545 -22.724 -27.844  1.00  0.00     0.000 C 
BRANCH  19  20
ATOM     20  C   UNL     1      13.124 -22.771 -27.244  1.00  0.00     0.006 C 
BRANCH  20  21
ATOM     21  C   UNL     1      12.398 -21.418 -27.222  1.00  0.00     0.053 C 
BRANCH  21  22
ATOM     22  C   UNL     1      11.874 -21.041 -28.573  1.00  0.00     0.041 C 
ATOM     23  O   UNL     1      11.353 -21.914 -29.316  1.00  0.00    -0.550 OA
ATOM     24  O   UNL     1      11.931 -19.720 -28.999  1.00  0.00    -0.550 OA
ENDBRANCH  21  22
ENDBRANCH  20  21
ENDBRANCH  19  20
ENDBRANCH  18  19
ENDBRANCH  17  18
ENDBRANCH  16  17
ENDBRANCH  15  16
ENDBRANCH  14  15
ENDBRANCH  13  14
ENDBRANCH   1  13
TORSDOF 20
ENDMDL
