MODEL 1
REMARK VINA RESULT:    84.918      0.000      0.000
REMARK INTER + INTRA:          87.401
REMARK INTER:                  87.401
REMARK INTRA:                   0.000
REMARK UNBOUND:                 0.000
REMARK SMILES CC1(C)CC[C@]2(C)CC[C@]3(C)C(=CC[C@H]4[C@@]5(C)CC[C@H](O)C(C)(C)[C@H]5CC[C@@]43C)[C@@H]2C1
REMARK SMILES IDX 1 1 2 2 4 3 5 4 6 5 8 6 9 7 10 8 12 9 13 10 14 11 15 12
REMARK SMILES IDX 28 13 27 14 26 15 25 16 16 17 18 18 19 19 20 20 22 21 23 22
REMARK SMILES IDX 24 23 17 24 29 25 30 26 31 27 11 28 7 29 3 30 21 31
REMARK H PARENT 21 32
REMARK Flexibility Score: inf
ROOT
ATOM      1  C   UNL     1     -42.123  25.585   5.951  1.00  0.00     0.011 C 
ATOM      2  C   UNL     1     -41.073  24.474   5.708  1.00  0.00    -0.035 C 
ATOM      3  C   UNL     1     -41.415  23.215   6.573  1.00  0.00     0.007 C 
ATOM      4  C   UNL     1     -40.694  23.218   7.936  1.00  0.00     0.008 C 
ATOM      5  C   UNL     1     -39.131  23.150   7.800  1.00  0.00    -0.026 C 
ATOM      6  C   UNL     1     -38.493  23.700   9.122  1.00  0.00     0.008 C 
ATOM      7  C   UNL     1     -37.008  24.151   9.028  1.00  0.00     0.012 C 
ATOM      8  C   UNL     1     -36.700  25.149   7.855  1.00  0.00    -0.006 C 
ATOM      9  C   UNL     1     -37.213  24.424   6.592  1.00  0.00    -0.064 C 
ATOM     10  C   UNL     1     -36.363  23.933   5.651  1.00  0.00    -0.027 C 
ATOM     11  C   UNL     1     -34.861  24.002   5.710  1.00  0.00     0.032 C 
ATOM     12  C   UNL     1     -34.319  24.309   7.126  1.00  0.00     0.006 C 
ATOM     13  C   UNL     1     -35.112  25.519   7.723  1.00  0.00    -0.020 C 
ATOM     14  C   UNL     1     -34.500  25.782   9.125  1.00  0.00     0.008 C 
ATOM     15  C   UNL     1     -33.084  26.338   9.053  1.00  0.00     0.005 C 
ATOM     16  C   UNL     1     -32.085  25.462   8.240  1.00  0.00     0.003 C 
ATOM     17  C   UNL     1     -32.696  24.310   7.283  1.00  0.00    -0.025 C 
ATOM     18  C   UNL     1     -31.975  24.291   5.884  1.00  0.00     0.010 C 
ATOM     19  C   UNL     1     -30.428  24.434   5.902  1.00  0.00     0.033 C 
ATOM     20  C   UNL     1     -29.836  25.349   6.999  1.00  0.00     0.120 C 
ATOM     21  C   UNL     1     -30.874  26.315   7.656  1.00  0.00    -0.006 C 
ATOM     22  C   UNL     1     -31.308  27.398   6.613  1.00  0.00     0.014 C 
ATOM     23  C   UNL     1     -30.152  27.084   8.818  1.00  0.00     0.014 C 
ATOM     24  C   UNL     1     -32.340  22.932   7.935  1.00  0.00     0.012 C 
ATOM     25  C   UNL     1     -34.883  26.759   6.757  1.00  0.00     0.012 C 
ATOM     26  C   UNL     1     -38.672  23.937   6.511  1.00  0.00     0.022 C 
ATOM     27  C   UNL     1     -39.655  25.042   6.060  1.00  0.00     0.015 C 
ATOM     28  C   UNL     1     -37.526  26.461   8.116  1.00  0.00     0.017 C 
ATOM     29  C   UNL     1     -38.697  21.664   7.641  1.00  0.00     0.012 C 
ATOM     30  C   UNL     1     -41.138  24.090   4.208  1.00  0.00     0.011 C 
ENDROOT
BRANCH  20  31
ATOM     31  O   UNL     1     -29.216  24.542   7.973  1.00  0.00    -0.393 OA
ATOM     32  H   UNL     1     -29.688  24.696   8.831  1.00  0.00     0.210 HD
ENDBRANCH  20  31
TORSDOF 1
ENDMDL
MODEL 2
REMARK VINA RESULT:    85.592      2.595      8.150
REMARK INTER + INTRA:          88.094
REMARK INTER:                  88.094
REMARK INTRA:                   0.000
REMARK UNBOUND:                 0.000
REMARK SMILES CC1(C)CC[C@]2(C)CC[C@]3(C)C(=CC[C@H]4[C@@]5(C)CC[C@H](O)C(C)(C)[C@H]5CC[C@@]43C)[C@@H]2C1
REMARK SMILES IDX 1 1 2 2 4 3 5 4 6 5 8 6 9 7 10 8 12 9 13 10 14 11 15 12
REMARK SMILES IDX 28 13 27 14 26 15 25 16 16 17 18 18 19 19 20 20 22 21 23 22
REMARK SMILES IDX 24 23 17 24 29 25 30 26 31 27 11 28 7 29 3 30 21 31
REMARK H PARENT 21 32
REMARK Flexibility Score: inf
ROOT
ATOM      1  C   UNL     1     -30.615  28.029   6.742  1.00  0.00     0.011 C 
ATOM      2  C   UNL     1     -31.190  26.926   7.662  1.00  0.00    -0.035 C 
ATOM      3  C   UNL     1     -30.361  25.607   7.500  1.00  0.00     0.007 C 
ATOM      4  C   UNL     1     -30.960  24.655   6.445  1.00  0.00     0.008 C 
ATOM      5  C   UNL     1     -32.392  24.138   6.831  1.00  0.00    -0.026 C 
ATOM      6  C   UNL     1     -33.117  23.666   5.523  1.00  0.00     0.008 C 
ATOM      7  C   UNL     1     -34.666  23.560   5.602  1.00  0.00     0.012 C 
ATOM      8  C   UNL     1     -35.383  24.845   6.151  1.00  0.00    -0.006 C 
ATOM      9  C   UNL     1     -34.706  25.107   7.514  1.00  0.00    -0.064 C 
ATOM     10  C   UNL     1     -35.362  24.920   8.690  1.00  0.00    -0.027 C 
ATOM     11  C   UNL     1     -36.778  24.429   8.832  1.00  0.00     0.032 C 
ATOM     12  C   UNL     1     -37.319  23.751   7.552  1.00  0.00     0.006 C 
ATOM     13  C   UNL     1     -37.000  24.660   6.319  1.00  0.00    -0.020 C 
ATOM     14  C   UNL     1     -37.591  23.930   5.083  1.00  0.00     0.008 C 
ATOM     15  C   UNL     1     -39.114  23.918   5.080  1.00  0.00     0.005 C 
ATOM     16  C   UNL     1     -39.759  23.312   6.362  1.00  0.00     0.003 C 
ATOM     17  C   UNL     1     -38.817  23.114   7.661  1.00  0.00    -0.025 C 
ATOM     18  C   UNL     1     -39.552  23.579   8.973  1.00  0.00     0.010 C 
ATOM     19  C   UNL     1     -41.039  23.152   9.120  1.00  0.00     0.033 C 
ATOM     20  C   UNL     1     -41.868  23.098   7.816  1.00  0.00     0.120 C 
ATOM     21  C   UNL     1     -41.229  23.869   6.617  1.00  0.00    -0.006 C 
ATOM     22  C   UNL     1     -41.282  25.407   6.901  1.00  0.00     0.014 C 
ATOM     23  C   UNL     1     -42.122  23.622   5.351  1.00  0.00     0.014 C 
ATOM     24  C   UNL     1     -38.603  21.575   7.846  1.00  0.00     0.012 C 
ATOM     25  C   UNL     1     -37.722  26.055   6.559  1.00  0.00     0.012 C 
ATOM     26  C   UNL     1     -33.176  25.267   7.606  1.00  0.00     0.022 C 
ATOM     27  C   UNL     1     -32.698  26.703   7.292  1.00  0.00     0.015 C 
ATOM     28  C   UNL     1     -35.088  26.020   5.150  1.00  0.00     0.017 C 
ATOM     29  C   UNL     1     -32.252  22.908   7.773  1.00  0.00     0.012 C 
ATOM     30  C   UNL     1     -31.067  27.424   9.124  1.00  0.00     0.011 C 
ENDROOT
BRANCH  20  31
ATOM     31  O   UNL     1     -42.094  21.748   7.482  1.00  0.00    -0.393 OA
ATOM     32  H   UNL     1     -42.106  21.231   8.327  1.00  0.00     0.210 HD
ENDBRANCH  20  31
TORSDOF 1
ENDMDL
