MODEL 1
REMARK VINA RESULT:    -4.283      0.000      0.000
REMARK INTER + INTRA:          -8.158
REMARK INTER:                  -6.787
REMARK INTRA:                  -1.372
REMARK UNBOUND:                -1.372
REMARK SMILES CCCCCCCCCCCC(=O)[O-]
REMARK SMILES IDX 7 1 8 2 9 3 10 4 11 5 12 6 13 7 14 8 6 9 5 10 4 11 3 12 2 13
REMARK SMILES IDX 1 14
REMARK H PARENT
REMARK Flexibility Score: inf
ROOT
ATOM      1  C   UNL     1       7.241  10.876   7.918  1.00  0.00     0.000 C 
ENDROOT
BRANCH   1   2
ATOM      2  C   UNL     1       6.731  12.003   8.832  1.00  0.00     0.000 C 
BRANCH   2   3
ATOM      3  C   UNL     1       5.410  12.614   8.334  1.00  0.00     0.000 C 
BRANCH   3   4
ATOM      4  C   UNL     1       4.251  12.408   9.324  1.00  0.00     0.006 C 
BRANCH   4   5
ATOM      5  C   UNL     1       4.115  10.943   9.759  1.00  0.00     0.053 C 
BRANCH   5   6
ATOM      6  C   UNL     1       3.639  10.070   8.639  1.00  0.00     0.041 C 
ATOM      7  O   UNL     1       4.225   8.984   8.390  1.00  0.00    -0.550 OA
ATOM      8  O   UNL     1       2.528  10.440   7.890  1.00  0.00    -0.550 OA
ENDBRANCH   5   6
ENDBRANCH   4   5
ENDBRANCH   3   4
ENDBRANCH   2   3
ENDBRANCH   1   2
BRANCH   1   9
ATOM      9  C   UNL     1       8.552  11.243   7.202  1.00  0.00     0.000 C 
BRANCH   9  10
ATOM     10  C   UNL     1       8.395  11.316   5.676  1.00  0.00    -0.000 C 
BRANCH  10  11
ATOM     11  C   UNL     1       7.980  12.725   5.235  1.00  0.00    -0.000 C 
BRANCH  11  12
ATOM     12  C   UNL     1       6.519  12.746   4.760  1.00  0.00    -0.000 C 
BRANCH  12  13
ATOM     13  C   UNL     1       5.995  11.348   4.400  1.00  0.00    -0.003 C 
ATOM     14  C   UNL     1       4.745  10.963   5.190  1.00  0.00     0.004 C 
ENDBRANCH  12  13
ENDBRANCH  11  12
ENDBRANCH  10  11
ENDBRANCH   9  10
ENDBRANCH   1   9
TORSDOF 10
ENDMDL
MODEL 2
REMARK VINA RESULT:    -4.262      1.059      1.354
REMARK INTER + INTRA:          -8.125
REMARK INTER:                  -6.781
REMARK INTRA:                  -1.344
REMARK UNBOUND:                -1.372
REMARK SMILES CCCCCCCCCCCC(=O)[O-]
REMARK SMILES IDX 7 1 8 2 9 3 10 4 11 5 12 6 13 7 14 8 6 9 5 10 4 11 3 12 2 13
REMARK SMILES IDX 1 14
REMARK H PARENT
REMARK Flexibility Score: inf
ROOT
ATOM      1  C   UNL     1       8.246  11.173   7.517  1.00  0.00     0.000 C 
ENDROOT
BRANCH   1   2
ATOM      2  C   UNL     1       8.253  12.602   8.088  1.00  0.00     0.000 C 
BRANCH   2   3
ATOM      3  C   UNL     1       6.845  13.099   8.453  1.00  0.00     0.000 C 
BRANCH   3   4
ATOM      4  C   UNL     1       6.036  12.059   9.247  1.00  0.00     0.006 C 
BRANCH   4   5
ATOM      5  C   UNL     1       4.531  12.358   9.228  1.00  0.00     0.053 C 
BRANCH   5   6
ATOM      6  C   UNL     1       3.714  11.121   9.443  1.00  0.00     0.041 C 
ATOM      7  O   UNL     1       3.981  10.344  10.397  1.00  0.00    -0.550 OA
ATOM      8  O   UNL     1       2.637  10.843   8.610  1.00  0.00    -0.550 OA
ENDBRANCH   5   6
ENDBRANCH   4   5
ENDBRANCH   3   4
ENDBRANCH   2   3
ENDBRANCH   1   2
BRANCH   1   9
ATOM      9  C   UNL     1       9.006  11.066   6.184  1.00  0.00     0.000 C 
BRANCH   9  10
ATOM     10  C   UNL     1       8.982  12.374   5.380  1.00  0.00    -0.000 C 
BRANCH  10  11
ATOM     11  C   UNL     1       8.006  12.276   4.201  1.00  0.00    -0.000 C 
BRANCH  11  12
ATOM     12  C   UNL     1       6.564  12.553   4.656  1.00  0.00    -0.000 C 
BRANCH  12  13
ATOM     13  C   UNL     1       5.651  11.328   4.501  1.00  0.00    -0.003 C 
ATOM     14  C   UNL     1       4.987  10.914   5.814  1.00  0.00     0.004 C 
ENDBRANCH  12  13
ENDBRANCH  11  12
ENDBRANCH  10  11
ENDBRANCH   9  10
ENDBRANCH   1   9
TORSDOF 10
ENDMDL
MODEL 3
REMARK VINA RESULT:    -4.206     17.070     19.554
REMARK INTER + INTRA:          -8.036
REMARK INTER:                  -7.209
REMARK INTRA:                  -0.827
REMARK UNBOUND:                -1.372
REMARK SMILES CCCCCCCCCCCC(=O)[O-]
REMARK SMILES IDX 7 1 8 2 9 3 10 4 11 5 12 6 13 7 14 8 6 9 5 10 4 11 3 12 2 13
REMARK SMILES IDX 1 14
REMARK H PARENT
REMARK Flexibility Score: inf
ROOT
ATOM      1  C   UNL     1      -6.645   9.739  -6.680  1.00  0.00     0.000 C 
ENDROOT
BRANCH   1   2
ATOM      2  C   UNL     1      -6.103   9.245  -8.032  1.00  0.00     0.000 C 
BRANCH   2   3
ATOM      3  C   UNL     1      -5.601  10.394  -8.923  1.00  0.00     0.000 C 
BRANCH   3   4
ATOM      4  C   UNL     1      -4.069  10.531  -8.906  1.00  0.00     0.006 C 
BRANCH   4   5
ATOM      5  C   UNL     1      -3.617  11.928  -8.461  1.00  0.00     0.053 C 
BRANCH   5   6
ATOM      6  C   UNL     1      -3.383  11.994  -6.982  1.00  0.00     0.041 C 
ATOM      7  O   UNL     1      -2.298  11.583  -6.494  1.00  0.00    -0.550 OA
ATOM      8  O   UNL     1      -4.351  12.539  -6.147  1.00  0.00    -0.550 OA
ENDBRANCH   5   6
ENDBRANCH   4   5
ENDBRANCH   3   4
ENDBRANCH   2   3
ENDBRANCH   1   2
BRANCH   1   9
ATOM      9  C   UNL     1      -7.501  11.010  -6.815  1.00  0.00     0.000 C 
BRANCH   9  10
ATOM     10  C   UNL     1      -8.837  10.908  -6.065  1.00  0.00    -0.000 C 
BRANCH  10  11
ATOM     11  C   UNL     1      -8.937   9.584  -5.299  1.00  0.00    -0.000 C 
BRANCH  11  12
ATOM     12  C   UNL     1     -10.124   8.747  -5.799  1.00  0.00    -0.000 C 
BRANCH  12  13
ATOM     13  C   UNL     1      -9.978   7.255  -5.465  1.00  0.00    -0.003 C 
ATOM     14  C   UNL     1     -10.023   6.363  -6.705  1.00  0.00     0.004 C 
ENDBRANCH  12  13
ENDBRANCH  11  12
ENDBRANCH  10  11
ENDBRANCH   9  10
ENDBRANCH   1   9
TORSDOF 10
ENDMDL
MODEL 4
REMARK VINA RESULT:    -4.135      3.039      5.371
REMARK INTER + INTRA:          -7.923
REMARK INTER:                  -6.716
REMARK INTRA:                  -1.207
REMARK UNBOUND:                -1.372
REMARK SMILES CCCCCCCCCCCC(=O)[O-]
REMARK SMILES IDX 7 1 8 2 9 3 10 4 11 5 12 6 13 7 14 8 6 9 5 10 4 11 3 12 2 13
REMARK SMILES IDX 1 14
REMARK H PARENT
REMARK Flexibility Score: inf
ROOT
ATOM      1  C   UNL     1       7.160  12.299   7.998  1.00  0.00     0.000 C 
ENDROOT
BRANCH   1   2
ATOM      2  C   UNL     1       7.303  10.859   7.476  1.00  0.00     0.000 C 
BRANCH   2   3
ATOM      3  C   UNL     1       6.366  10.564   6.293  1.00  0.00     0.000 C 
BRANCH   3   4
ATOM      4  C   UNL     1       7.100  10.560   4.942  1.00  0.00     0.006 C 
BRANCH   4   5
ATOM      5  C   UNL     1       7.180  11.961   4.322  1.00  0.00     0.053 C 
BRANCH   5   6
ATOM      6  C   UNL     1       8.598  12.401   4.118  1.00  0.00     0.041 C 
ATOM      7  O   UNL     1       8.976  12.816   2.992  1.00  0.00    -0.550 OA
ATOM      8  O   UNL     1       9.493  12.383   5.181  1.00  0.00    -0.550 OA
ENDBRANCH   5   6
ENDBRANCH   4   5
ENDBRANCH   3   4
ENDBRANCH   2   3
ENDBRANCH   1   2
BRANCH   1   9
ATOM      9  C   UNL     1       6.281  12.386   9.258  1.00  0.00     0.000 C 
BRANCH   9  10
ATOM     10  C   UNL     1       4.932  13.071   8.995  1.00  0.00    -0.000 C 
BRANCH  10  11
ATOM     11  C   UNL     1       3.766  12.136   9.338  1.00  0.00    -0.000 C 
BRANCH  11  12
ATOM     12  C   UNL     1       4.277  10.739   9.727  1.00  0.00    -0.000 C 
BRANCH  12  13
ATOM     13  C   UNL     1       3.736   9.635   8.806  1.00  0.00    -0.003 C 
ATOM     14  C   UNL     1       3.061  10.189   7.551  1.00  0.00     0.004 C 
ENDBRANCH  12  13
ENDBRANCH  11  12
ENDBRANCH  10  11
ENDBRANCH   9  10
ENDBRANCH   1   9
TORSDOF 10
ENDMDL
MODEL 5
REMARK VINA RESULT:    -4.006      2.972      5.647
REMARK INTER + INTRA:          -7.719
REMARK INTER:                  -6.971
REMARK INTRA:                  -0.748
REMARK UNBOUND:                -1.372
REMARK SMILES CCCCCCCCCCCC(=O)[O-]
REMARK SMILES IDX 7 1 8 2 9 3 10 4 11 5 12 6 13 7 14 8 6 9 5 10 4 11 3 12 2 13
REMARK SMILES IDX 1 14
REMARK H PARENT
REMARK Flexibility Score: inf
ROOT
ATOM      1  C   UNL     1       4.373  10.537   6.082  1.00  0.00     0.000 C 
ENDROOT
BRANCH   1   2
ATOM      2  C   UNL     1       5.564  11.508   6.156  1.00  0.00     0.000 C 
BRANCH   2   3
ATOM      3  C   UNL     1       5.989  12.030   4.774  1.00  0.00     0.000 C 
BRANCH   3   4
ATOM      4  C   UNL     1       7.410  11.588   4.385  1.00  0.00     0.006 C 
BRANCH   4   5
ATOM      5  C   UNL     1       8.161  10.952   5.562  1.00  0.00     0.053 C 
BRANCH   5   6
ATOM      6  C   UNL     1       9.263  11.835   6.062  1.00  0.00     0.041 C 
ATOM      7  O   UNL     1       9.465  11.955   7.299  1.00  0.00    -0.550 OA
ATOM      8  O   UNL     1      10.088  12.499   5.163  1.00  0.00    -0.550 OA
ENDBRANCH   5   6
ENDBRANCH   4   5
ENDBRANCH   3   4
ENDBRANCH   2   3
ENDBRANCH   1   2
BRANCH   1   9
ATOM      9  C   UNL     1       4.189   9.727   7.376  1.00  0.00     0.000 C 
BRANCH   9  10
ATOM     10  C   UNL     1       5.104  10.207   8.513  1.00  0.00    -0.000 C 
BRANCH  10  11
ATOM     11  C   UNL     1       4.283  10.617   9.742  1.00  0.00    -0.000 C 
BRANCH  11  12
ATOM     12  C   UNL     1       3.325  11.770   9.404  1.00  0.00    -0.000 C 
BRANCH  12  13
ATOM     13  C   UNL     1       1.859  11.427   9.706  1.00  0.00    -0.003 C 
ATOM     14  C   UNL     1       0.957  12.661   9.740  1.00  0.00     0.004 C 
ENDBRANCH  12  13
ENDBRANCH  11  12
ENDBRANCH  10  11
ENDBRANCH   9  10
ENDBRANCH   1   9
TORSDOF 10
ENDMDL
MODEL 6
REMARK VINA RESULT:    -4.000      2.105      4.809
REMARK INTER + INTRA:          -7.711
REMARK INTER:                  -6.807
REMARK INTRA:                  -0.904
REMARK UNBOUND:                -1.372
REMARK SMILES CCCCCCCCCCCC(=O)[O-]
REMARK SMILES IDX 7 1 8 2 9 3 10 4 11 5 12 6 13 7 14 8 6 9 5 10 4 11 3 12 2 13
REMARK SMILES IDX 1 14
REMARK H PARENT
REMARK Flexibility Score: inf
ROOT
ATOM      1  C   UNL     1       6.788  10.728   8.290  1.00  0.00     0.000 C 
ENDROOT
BRANCH   1   2
ATOM      2  C   UNL     1       8.038  10.860   7.404  1.00  0.00     0.000 C 
BRANCH   2   3
ATOM      3  C   UNL     1       8.213  12.278   6.836  1.00  0.00     0.000 C 
BRANCH   3   4
ATOM      4  C   UNL     1       7.817  12.377   5.354  1.00  0.00     0.006 C 
BRANCH   4   5
ATOM      5  C   UNL     1       6.321  12.663   5.171  1.00  0.00     0.053 C 
BRANCH   5   6
ATOM      6  C   UNL     1       5.557  11.429   4.802  1.00  0.00     0.041 C 
ATOM      7  O   UNL     1       5.814  10.823   3.728  1.00  0.00    -0.550 OA
ATOM      8  O   UNL     1       4.584  10.928   5.657  1.00  0.00    -0.550 OA
ENDBRANCH   5   6
ENDBRANCH   4   5
ENDBRANCH   3   4
ENDBRANCH   2   3
ENDBRANCH   1   2
BRANCH   1   9
ATOM      9  C   UNL     1       6.398  12.055   8.963  1.00  0.00     0.000 C 
BRANCH   9  10
ATOM     10  C   UNL     1       4.896  12.359   8.850  1.00  0.00    -0.000 C 
BRANCH  10  11
ATOM     11  C   UNL     1       4.070  11.356   9.664  1.00  0.00    -0.000 C 
BRANCH  11  12
ATOM     12  C   UNL     1       2.695  11.123   9.019  1.00  0.00    -0.000 C 
BRANCH  12  13
ATOM     13  C   UNL     1       1.535  11.419   9.980  1.00  0.00    -0.003 C 
ATOM     14  C   UNL     1       0.806  12.721   9.645  1.00  0.00     0.004 C 
ENDBRANCH  12  13
ENDBRANCH  11  12
ENDBRANCH  10  11
ENDBRANCH   9  10
ENDBRANCH   1   9
TORSDOF 10
ENDMDL
MODEL 7
REMARK VINA RESULT:    -3.928      1.638      3.031
REMARK INTER + INTRA:          -7.596
REMARK INTER:                  -6.553
REMARK INTRA:                  -1.042
REMARK UNBOUND:                -1.372
REMARK SMILES CCCCCCCCCCCC(=O)[O-]
REMARK SMILES IDX 7 1 8 2 9 3 10 4 11 5 12 6 13 7 14 8 6 9 5 10 4 11 3 12 2 13
REMARK SMILES IDX 1 14
REMARK H PARENT
REMARK Flexibility Score: inf
ROOT
ATOM      1  C   UNL     1       6.290  10.882   4.980  1.00  0.00     0.000 C 
ENDROOT
BRANCH   1   2
ATOM      2  C   UNL     1       5.928  12.050   5.914  1.00  0.00     0.000 C 
BRANCH   2   3
ATOM      3  C   UNL     1       5.437  11.573   7.292  1.00  0.00     0.000 C 
BRANCH   3   4
ATOM      4  C   UNL     1       4.663  10.246   7.219  1.00  0.00     0.006 C 
BRANCH   4   5
ATOM      5  C   UNL     1       3.293  10.336   7.905  1.00  0.00     0.053 C 
BRANCH   5   6
ATOM      6  C   UNL     1       3.392  10.940   9.272  1.00  0.00     0.041 C 
ATOM      7  O   UNL     1       3.978  10.319  10.197  1.00  0.00    -0.550 OA
ATOM      8  O   UNL     1       2.865  12.202   9.517  1.00  0.00    -0.550 OA
ENDBRANCH   5   6
ENDBRANCH   4   5
ENDBRANCH   3   4
ENDBRANCH   2   3
ENDBRANCH   1   2
BRANCH   1   9
ATOM      9  C   UNL     1       7.786  10.852   4.626  1.00  0.00     0.000 C 
BRANCH   9  10
ATOM     10  C   UNL     1       8.277  12.168   4.003  1.00  0.00    -0.000 C 
BRANCH  10  11
ATOM     11  C   UNL     1       9.517  12.692   4.736  1.00  0.00    -0.000 C 
BRANCH  11  12
ATOM     12  C   UNL     1       9.883  11.783   5.920  1.00  0.00    -0.000 C 
BRANCH  12  13
ATOM     13  C   UNL     1      10.113  12.569   7.219  1.00  0.00    -0.003 C 
ATOM     14  C   UNL     1       8.871  12.619   8.108  1.00  0.00     0.004 C 
ENDBRANCH  12  13
ENDBRANCH  11  12
ENDBRANCH  10  11
ENDBRANCH   9  10
ENDBRANCH   1   9
TORSDOF 10
ENDMDL
MODEL 8
REMARK VINA RESULT:    -3.912     17.185     19.230
REMARK INTER + INTRA:          -7.571
REMARK INTER:                  -6.570
REMARK INTRA:                  -1.001
REMARK UNBOUND:                -1.372
REMARK SMILES CCCCCCCCCCCC(=O)[O-]
REMARK SMILES IDX 7 1 8 2 9 3 10 4 11 5 12 6 13 7 14 8 6 9 5 10 4 11 3 12 2 13
REMARK SMILES IDX 1 14
REMARK H PARENT
REMARK Flexibility Score: inf
ROOT
ATOM      1  C   UNL     1      -6.074   9.863  -6.641  1.00  0.00     0.000 C 
ENDROOT
BRANCH   1   2
ATOM      2  C   UNL     1      -6.921  11.132  -6.439  1.00  0.00     0.000 C 
BRANCH   2   3
ATOM      3  C   UNL     1      -8.428  10.833  -6.379  1.00  0.00     0.000 C 
BRANCH   3   4
ATOM      4  C   UNL     1      -8.772   9.718  -5.377  1.00  0.00     0.006 C 
BRANCH   4   5
ATOM      5  C   UNL     1     -10.108   9.038  -5.704  1.00  0.00     0.053 C 
BRANCH   5   6
ATOM      6  C   UNL     1      -9.946   7.564  -5.921  1.00  0.00     0.041 C 
ATOM      7  O   UNL     1     -10.121   6.761  -4.967  1.00  0.00    -0.550 OA
ATOM      8  O   UNL     1      -9.634   7.076  -7.183  1.00  0.00    -0.550 OA
ENDBRANCH   5   6
ENDBRANCH   4   5
ENDBRANCH   3   4
ENDBRANCH   2   3
ENDBRANCH   1   2
BRANCH   1   9
ATOM      9  C   UNL     1      -6.188   9.298  -8.067  1.00  0.00     0.000 C 
BRANCH   9  10
ATOM     10  C   UNL     1      -5.571  10.225  -9.124  1.00  0.00    -0.000 C 
BRANCH  10  11
ATOM     11  C   UNL     1      -4.063  10.391  -8.896  1.00  0.00    -0.000 C 
BRANCH  11  12
ATOM     12  C   UNL     1      -3.665  11.875  -8.910  1.00  0.00    -0.000 C 
BRANCH  12  13
ATOM     13  C   UNL     1      -3.525  12.462  -7.497  1.00  0.00    -0.003 C 
ATOM     14  C   UNL     1      -2.781  11.531  -6.540  1.00  0.00     0.004 C 
ENDBRANCH  12  13
ENDBRANCH  11  12
ENDBRANCH  10  11
ENDBRANCH   9  10
ENDBRANCH   1   9
TORSDOF 10
ENDMDL
MODEL 9
REMARK VINA RESULT:    -3.893      2.068      4.548
REMARK INTER + INTRA:          -7.541
REMARK INTER:                  -6.539
REMARK INTRA:                  -1.002
REMARK UNBOUND:                -1.372
REMARK SMILES CCCCCCCCCCCC(=O)[O-]
REMARK SMILES IDX 7 1 8 2 9 3 10 4 11 5 12 6 13 7 14 8 6 9 5 10 4 11 3 12 2 13
REMARK SMILES IDX 1 14
REMARK H PARENT
REMARK Flexibility Score: inf
ROOT
ATOM      1  C   UNL     1       7.581  12.853   8.726  1.00  0.00     0.000 C 
ENDROOT
BRANCH   1   2
ATOM      2  C   UNL     1       8.682  12.317   7.795  1.00  0.00     0.000 C 
BRANCH   2   3
ATOM      3  C   UNL     1       8.297  10.985   7.130  1.00  0.00     0.000 C 
BRANCH   3   4
ATOM      4  C   UNL     1       8.421  11.029   5.598  1.00  0.00     0.006 C 
BRANCH   4   5
ATOM      5  C   UNL     1       7.170  10.479   4.899  1.00  0.00     0.053 C 
BRANCH   5   6
ATOM      6  C   UNL     1       6.105  11.523   4.759  1.00  0.00     0.041 C 
ATOM      7  O   UNL     1       4.890  11.193   4.770  1.00  0.00    -0.550 OA
ATOM      8  O   UNL     1       6.452  12.864   4.649  1.00  0.00    -0.550 OA
ENDBRANCH   5   6
ENDBRANCH   4   5
ENDBRANCH   3   4
ENDBRANCH   2   3
ENDBRANCH   1   2
BRANCH   1   9
ATOM      9  C   UNL     1       6.166  12.555   8.201  1.00  0.00     0.000 C 
BRANCH   9  10
ATOM     10  C   UNL     1       5.087  12.711   9.282  1.00  0.00    -0.000 C 
BRANCH  10  11
ATOM     11  C   UNL     1       4.433  11.362   9.604  1.00  0.00    -0.000 C 
BRANCH  11  12
ATOM     12  C   UNL     1       3.093  11.209   8.867  1.00  0.00    -0.000 C 
BRANCH  12  13
ATOM     13  C   UNL     1       3.170  10.210   7.703  1.00  0.00    -0.003 C 
ATOM     14  C   UNL     1       4.476   9.417   7.689  1.00  0.00     0.004 C 
ENDBRANCH  12  13
ENDBRANCH  11  12
ENDBRANCH  10  11
ENDBRANCH   9  10
ENDBRANCH   1   9
TORSDOF 10
ENDMDL
