MODEL 1
REMARK VINA RESULT:    -3.237      0.000      0.000
REMARK INTER + INTRA:          -6.836
REMARK INTER:                  -5.887
REMARK INTRA:                  -0.949
REMARK UNBOUND:                -0.949
REMARK SMILES CCCCCCCCCCCCCCCC(=O)[O-]
REMARK SMILES IDX 9 1 10 2 11 3 12 4 13 5 14 6 15 7 16 8 17 9 18 10 8 11 7 12
REMARK SMILES IDX 6 13 5 14 4 15 3 16 2 17 1 18
REMARK H PARENT
REMARK Flexibility Score: inf
ROOT
ATOM      1  C   UNL     1       4.547 -34.579  21.993  1.00  0.00     0.000 C 
ENDROOT
BRANCH   1   2
ATOM      2  C   UNL     1       5.131 -34.037  23.309  1.00  0.00     0.000 C 
BRANCH   2   3
ATOM      3  C   UNL     1       6.125 -35.013  23.960  1.00  0.00     0.000 C 
BRANCH   3   4
ATOM      4  C   UNL     1       5.638 -35.537  25.319  1.00  0.00     0.000 C 
BRANCH   4   5
ATOM      5  C   UNL     1       5.275 -37.027  25.233  1.00  0.00     0.000 C 
BRANCH   5   6
ATOM      6  C   UNL     1       5.575 -37.637  23.851  1.00  0.00     0.006 C 
BRANCH   6   7
ATOM      7  C   UNL     1       5.311 -39.148  23.756  1.00  0.00     0.053 C 
BRANCH   7   8
ATOM      8  C   UNL     1       5.821 -39.725  22.472  1.00  0.00     0.041 C 
ATOM      9  O   UNL     1       6.037 -38.977  21.482  1.00  0.00    -0.550 OA
ATOM     10  O   UNL     1       6.029 -41.093  22.359  1.00  0.00    -0.550 OA
ENDBRANCH   7   8
ENDBRANCH   6   7
ENDBRANCH   5   6
ENDBRANCH   4   5
ENDBRANCH   3   4
ENDBRANCH   2   3
ENDBRANCH   1   2
BRANCH   1  11
ATOM     11  C   UNL     1       5.587 -34.649  20.861  1.00  0.00     0.000 C 
BRANCH  11  12
ATOM     12  C   UNL     1       5.124 -35.381  19.585  1.00  0.00    -0.000 C 
BRANCH  12  13
ATOM     13  C   UNL     1       3.826 -36.196  19.735  1.00  0.00    -0.000 C 
BRANCH  13  14
ATOM     14  C   UNL     1       3.430 -36.930  18.445  1.00  0.00    -0.000 C 
BRANCH  14  15
ATOM     15  C   UNL     1       3.829 -36.114  17.206  1.00  0.00    -0.000 C 
BRANCH  15  16
ATOM     16  C   UNL     1       2.801 -36.224  16.068  1.00  0.00    -0.000 C 
BRANCH  16  17
ATOM     17  C   UNL     1       3.338 -35.687  14.733  1.00  0.00    -0.003 C 
ATOM     18  C   UNL     1       4.083 -36.773  13.964  1.00  0.00     0.004 C 
ENDBRANCH  16  17
ENDBRANCH  15  16
ENDBRANCH  14  15
ENDBRANCH  13  14
ENDBRANCH  12  13
ENDBRANCH  11  12
ENDBRANCH   1  11
TORSDOF 14
ENDMDL
MODEL 2
REMARK VINA RESULT:    -3.119      1.768      2.865
REMARK INTER + INTRA:          -6.622
REMARK INTER:                  -5.477
REMARK INTRA:                  -1.145
REMARK UNBOUND:                -0.949
REMARK SMILES CCCCCCCCCCCCCCCC(=O)[O-]
REMARK SMILES IDX 9 1 10 2 11 3 12 4 13 5 14 6 15 7 16 8 17 9 18 10 8 11 7 12
REMARK SMILES IDX 6 13 5 14 4 15 3 16 2 17 1 18
REMARK H PARENT
REMARK Flexibility Score: inf
ROOT
ATOM      1  C   UNL     1       4.310 -35.874  20.206  1.00  0.00     0.000 C 
ENDROOT
BRANCH   1   2
ATOM      2  C   UNL     1       5.452 -36.076  21.217  1.00  0.00     0.000 C 
BRANCH   2   3
ATOM      3  C   UNL     1       5.923 -34.755  21.847  1.00  0.00     0.000 C 
BRANCH   3   4
ATOM      4  C   UNL     1       5.001 -34.275  22.978  1.00  0.00     0.000 C 
BRANCH   4   5
ATOM      5  C   UNL     1       5.820 -33.842  24.204  1.00  0.00     0.000 C 
BRANCH   5   6
ATOM      6  C   UNL     1       6.116 -35.006  25.167  1.00  0.00     0.006 C 
BRANCH   6   7
ATOM      7  C   UNL     1       4.897 -35.885  25.491  1.00  0.00     0.053 C 
BRANCH   7   8
ATOM      8  C   UNL     1       5.244 -37.341  25.504  1.00  0.00     0.041 C 
ATOM      9  O   UNL     1       5.452 -37.934  26.596  1.00  0.00    -0.550 OA
ATOM     10  O   UNL     1       5.368 -38.036  24.308  1.00  0.00    -0.550 OA
ENDBRANCH   7   8
ENDBRANCH   6   7
ENDBRANCH   5   6
ENDBRANCH   4   5
ENDBRANCH   3   4
ENDBRANCH   2   3
ENDBRANCH   1   2
BRANCH   1  11
ATOM     11  C   UNL     1       4.768 -35.163  18.920  1.00  0.00     0.000 C 
BRANCH  11  12
ATOM     12  C   UNL     1       4.275 -35.800  17.605  1.00  0.00    -0.000 C 
BRANCH  12  13
ATOM     13  C   UNL     1       3.001 -36.656  17.730  1.00  0.00    -0.000 C 
BRANCH  13  14
ATOM     14  C   UNL     1       1.960 -36.338  16.648  1.00  0.00    -0.000 C 
BRANCH  14  15
ATOM     15  C   UNL     1       2.524 -35.345  15.620  1.00  0.00    -0.000 C 
BRANCH  15  16
ATOM     16  C   UNL     1       2.711 -35.973  14.229  1.00  0.00    -0.000 C 
BRANCH  16  17
ATOM     17  C   UNL     1       4.173 -36.343  13.940  1.00  0.00    -0.003 C 
ATOM     18  C   UNL     1       4.416 -37.834  14.161  1.00  0.00     0.004 C 
ENDBRANCH  16  17
ENDBRANCH  15  16
ENDBRANCH  14  15
ENDBRANCH  13  14
ENDBRANCH  12  13
ENDBRANCH  11  12
ENDBRANCH   1  11
TORSDOF 14
ENDMDL
MODEL 3
REMARK VINA RESULT:    -3.032      2.691      6.774
REMARK INTER + INTRA:          -6.464
REMARK INTER:                  -5.759
REMARK INTRA:                  -0.705
REMARK UNBOUND:                -0.949
REMARK SMILES CCCCCCCCCCCCCCCC(=O)[O-]
REMARK SMILES IDX 9 1 10 2 11 3 12 4 13 5 14 6 15 7 16 8 17 9 18 10 8 11 7 12
REMARK SMILES IDX 6 13 5 14 4 15 3 16 2 17 1 18
REMARK H PARENT
REMARK Flexibility Score: inf
ROOT
ATOM      1  C   UNL     1       6.019 -35.382  22.818  1.00  0.00     0.000 C 
ENDROOT
BRANCH   1   2
ATOM      2  C   UNL     1       5.531 -34.592  21.591  1.00  0.00     0.000 C 
BRANCH   2   3
ATOM      3  C   UNL     1       5.792 -35.333  20.270  1.00  0.00     0.000 C 
BRANCH   3   4
ATOM      4  C   UNL     1       4.583 -35.303  19.323  1.00  0.00     0.000 C 
BRANCH   4   5
ATOM      5  C   UNL     1       4.077 -36.725  19.035  1.00  0.00     0.000 C 
BRANCH   5   6
ATOM      6  C   UNL     1       3.268 -36.819  17.729  1.00  0.00     0.006 C 
BRANCH   6   7
ATOM      7  C   UNL     1       3.605 -35.731  16.697  1.00  0.00     0.053 C 
BRANCH   7   8
ATOM      8  C   UNL     1       3.560 -36.255  15.296  1.00  0.00     0.041 C 
ATOM      9  O   UNL     1       3.263 -35.489  14.341  1.00  0.00    -0.550 OA
ATOM     10  O   UNL     1       3.818 -37.597  15.047  1.00  0.00    -0.550 OA
ENDBRANCH   7   8
ENDBRANCH   6   7
ENDBRANCH   5   6
ENDBRANCH   4   5
ENDBRANCH   3   4
ENDBRANCH   2   3
ENDBRANCH   1   2
BRANCH   1  11
ATOM     11  C   UNL     1       5.774 -34.638  24.143  1.00  0.00     0.000 C 
BRANCH  11  12
ATOM     12  C   UNL     1       6.017 -35.470  25.419  1.00  0.00    -0.000 C 
BRANCH  12  13
ATOM     13  C   UNL     1       4.920 -36.500  25.746  1.00  0.00    -0.000 C 
BRANCH  13  14
ATOM     14  C   UNL     1       5.356 -37.945  25.467  1.00  0.00    -0.000 C 
BRANCH  14  15
ATOM     15  C   UNL     1       5.394 -38.223  23.956  1.00  0.00    -0.000 C 
BRANCH  15  16
ATOM     16  C   UNL     1       5.271 -39.720  23.626  1.00  0.00    -0.000 C 
BRANCH  16  17
ATOM     17  C   UNL     1       5.876 -40.075  22.260  1.00  0.00    -0.003 C 
ATOM     18  C   UNL     1       5.992 -38.839  21.372  1.00  0.00     0.004 C 
ENDBRANCH  16  17
ENDBRANCH  15  16
ENDBRANCH  14  15
ENDBRANCH  13  14
ENDBRANCH  12  13
ENDBRANCH  11  12
ENDBRANCH   1  11
TORSDOF 14
ENDMDL
MODEL 4
REMARK VINA RESULT:    -2.267      2.865      7.435
REMARK INTER + INTRA:          -5.071
REMARK INTER:                  -4.045
REMARK INTRA:                  -1.026
REMARK UNBOUND:                -0.949
REMARK SMILES CCCCCCCCCCCCCCCC(=O)[O-]
REMARK SMILES IDX 9 1 10 2 11 3 12 4 13 5 14 6 15 7 16 8 17 9 18 10 8 11 7 12
REMARK SMILES IDX 6 13 5 14 4 15 3 16 2 17 1 18
REMARK H PARENT
REMARK Flexibility Score: inf
ROOT
ATOM      1  C   UNL     1       5.270 -38.168  20.934  1.00  0.00     0.000 C 
ENDROOT
BRANCH   1   2
ATOM      2  C   UNL     1       5.516 -36.921  20.067  1.00  0.00     0.000 C 
BRANCH   2   3
ATOM      3  C   UNL     1       4.233 -36.109  19.825  1.00  0.00     0.000 C 
BRANCH   3   4
ATOM      4  C   UNL     1       3.169 -36.897  19.046  1.00  0.00     0.000 C 
BRANCH   4   5
ATOM      5  C   UNL     1       3.532 -36.980  17.555  1.00  0.00     0.000 C 
BRANCH   5   6
ATOM      6  C   UNL     1       2.895 -35.854  16.721  1.00  0.00     0.006 C 
BRANCH   6   7
ATOM      7  C   UNL     1       2.590 -36.240  15.265  1.00  0.00     0.053 C 
BRANCH   7   8
ATOM      8  C   UNL     1       3.833 -36.581  14.504  1.00  0.00     0.041 C 
ATOM      9  O   UNL     1       4.516 -35.671  13.963  1.00  0.00    -0.550 OA
ATOM     10  O   UNL     1       4.222 -37.907  14.366  1.00  0.00    -0.550 OA
ENDBRANCH   7   8
ENDBRANCH   6   7
ENDBRANCH   5   6
ENDBRANCH   4   5
ENDBRANCH   3   4
ENDBRANCH   2   3
ENDBRANCH   1   2
BRANCH   1  11
ATOM     11  C   UNL     1       5.790 -38.006  22.374  1.00  0.00     0.000 C 
BRANCH  11  12
ATOM     12  C   UNL     1       5.303 -39.074  23.374  1.00  0.00    -0.000 C 
BRANCH  12  13
ATOM     13  C   UNL     1       4.805 -38.527  24.724  1.00  0.00    -0.000 C 
BRANCH  13  14
ATOM     14  C   UNL     1       5.744 -37.471  25.323  1.00  0.00    -0.000 C 
BRANCH  14  15
ATOM     15  C   UNL     1       5.024 -36.122  25.476  1.00  0.00    -0.000 C 
BRANCH  15  16
ATOM     16  C   UNL     1       5.883 -34.935  25.009  1.00  0.00    -0.000 C 
BRANCH  16  17
ATOM     17  C   UNL     1       6.125 -34.941  23.493  1.00  0.00    -0.003 C 
ATOM     18  C   UNL     1       5.014 -34.197  22.757  1.00  0.00     0.004 C 
ENDBRANCH  16  17
ENDBRANCH  15  16
ENDBRANCH  14  15
ENDBRANCH  13  14
ENDBRANCH  12  13
ENDBRANCH  11  12
ENDBRANCH   1  11
TORSDOF 14
ENDMDL
MODEL 5
REMARK VINA RESULT:    -1.995      2.768      7.118
REMARK INTER + INTRA:          -4.577
REMARK INTER:                  -3.633
REMARK INTRA:                  -0.943
REMARK UNBOUND:                -0.949
REMARK SMILES CCCCCCCCCCCCCCCC(=O)[O-]
REMARK SMILES IDX 9 1 10 2 11 3 12 4 13 5 14 6 15 7 16 8 17 9 18 10 8 11 7 12
REMARK SMILES IDX 6 13 5 14 4 15 3 16 2 17 1 18
REMARK H PARENT
REMARK Flexibility Score: inf
ROOT
ATOM      1  C   UNL     1       5.386 -38.164  22.393  1.00  0.00     0.000 C 
ENDROOT
BRANCH   1   2
ATOM      2  C   UNL     1       6.016 -38.608  21.063  1.00  0.00     0.000 C 
BRANCH   2   3
ATOM      3  C   UNL     1       5.781 -37.594  19.931  1.00  0.00     0.000 C 
BRANCH   3   4
ATOM      4  C   UNL     1       4.314 -37.152  19.824  1.00  0.00     0.000 C 
BRANCH   4   5
ATOM      5  C   UNL     1       4.100 -36.261  18.590  1.00  0.00     0.000 C 
BRANCH   5   6
ATOM      6  C   UNL     1       3.090 -36.856  17.592  1.00  0.00     0.006 C 
BRANCH   6   7
ATOM      7  C   UNL     1       2.713 -35.914  16.437  1.00  0.00     0.053 C 
BRANCH   7   8
ATOM      8  C   UNL     1       3.444 -36.254  15.176  1.00  0.00     0.041 C 
ATOM      9  O   UNL     1       3.560 -35.398  14.260  1.00  0.00    -0.550 OA
ATOM     10  O   UNL     1       3.970 -37.527  15.000  1.00  0.00    -0.550 OA
ENDBRANCH   7   8
ENDBRANCH   6   7
ENDBRANCH   5   6
ENDBRANCH   4   5
ENDBRANCH   3   4
ENDBRANCH   2   3
ENDBRANCH   1   2
BRANCH   1  11
ATOM     11  C   UNL     1       5.381 -39.279  23.454  1.00  0.00     0.000 C 
BRANCH  11  12
ATOM     12  C   UNL     1       4.904 -38.851  24.857  1.00  0.00    -0.000 C 
BRANCH  12  13
ATOM     13  C   UNL     1       5.727 -37.726  25.512  1.00  0.00    -0.000 C 
BRANCH  13  14
ATOM     14  C   UNL     1       4.965 -36.395  25.587  1.00  0.00    -0.000 C 
BRANCH  14  15
ATOM     15  C   UNL     1       5.854 -35.229  25.126  1.00  0.00    -0.000 C 
BRANCH  15  16
ATOM     16  C   UNL     1       6.028 -35.185  23.599  1.00  0.00    -0.000 C 
BRANCH  16  17
ATOM     17  C   UNL     1       5.303 -33.994  22.956  1.00  0.00    -0.003 C 
ATOM     18  C   UNL     1       4.428 -34.448  21.791  1.00  0.00     0.004 C 
ENDBRANCH  16  17
ENDBRANCH  15  16
ENDBRANCH  14  15
ENDBRANCH  13  14
ENDBRANCH  12  13
ENDBRANCH  11  12
ENDBRANCH   1  11
TORSDOF 14
ENDMDL
MODEL 6
REMARK VINA RESULT:    -1.800      3.130      8.048
REMARK INTER + INTRA:          -4.223
REMARK INTER:                  -3.508
REMARK INTRA:                  -0.715
REMARK UNBOUND:                -0.949
REMARK SMILES CCCCCCCCCCCCCCCC(=O)[O-]
REMARK SMILES IDX 9 1 10 2 11 3 12 4 13 5 14 6 15 7 16 8 17 9 18 10 8 11 7 12
REMARK SMILES IDX 6 13 5 14 4 15 3 16 2 17 1 18
REMARK H PARENT
REMARK Flexibility Score: inf
ROOT
ATOM      1  C   UNL     1       2.692 -36.344  19.874  1.00  0.00     0.000 C 
ENDROOT
BRANCH   1   2
ATOM      2  C   UNL     1       1.890 -37.444  19.158  1.00  0.00     0.000 C 
BRANCH   2   3
ATOM      3  C   UNL     1       1.872 -37.261  17.631  1.00  0.00     0.000 C 
BRANCH   3   4
ATOM      4  C   UNL     1       1.805 -35.785  17.211  1.00  0.00     0.000 C 
BRANCH   4   5
ATOM      5  C   UNL     1       1.872 -35.648  15.682  1.00  0.00     0.000 C 
BRANCH   5   6
ATOM      6  C   UNL     1       3.315 -35.661  15.143  1.00  0.00     0.006 C 
BRANCH   6   7
ATOM      7  C   UNL     1       3.510 -36.514  13.879  1.00  0.00     0.053 C 
BRANCH   7   8
ATOM      8  C   UNL     1       4.734 -37.371  13.966  1.00  0.00     0.041 C 
ATOM      9  O   UNL     1       5.879 -36.852  13.875  1.00  0.00    -0.550 OA
ATOM     10  O   UNL     1       4.612 -38.745  14.117  1.00  0.00    -0.550 OA
ENDBRANCH   7   8
ENDBRANCH   6   7
ENDBRANCH   5   6
ENDBRANCH   4   5
ENDBRANCH   3   4
ENDBRANCH   2   3
ENDBRANCH   1   2
BRANCH   1  11
ATOM     11  C   UNL     1       4.193 -36.667  19.974  1.00  0.00     0.000 C 
BRANCH  11  12
ATOM     12  C   UNL     1       5.117 -35.448  20.172  1.00  0.00    -0.000 C 
BRANCH  12  13
ATOM     13  C   UNL     1       4.943 -34.706  21.510  1.00  0.00    -0.000 C 
BRANCH  13  14
ATOM     14  C   UNL     1       5.980 -35.123  22.563  1.00  0.00    -0.000 C 
BRANCH  14  15
ATOM     15  C   UNL     1       5.631 -34.534  23.939  1.00  0.00    -0.000 C 
BRANCH  15  16
ATOM     16  C   UNL     1       6.085 -35.432  25.101  1.00  0.00    -0.000 C 
BRANCH  16  17
ATOM     17  C   UNL     1       4.977 -36.381  25.582  1.00  0.00    -0.003 C 
ATOM     18  C   UNL     1       5.567 -37.654  26.180  1.00  0.00     0.004 C 
ENDBRANCH  16  17
ENDBRANCH  15  16
ENDBRANCH  14  15
ENDBRANCH  13  14
ENDBRANCH  12  13
ENDBRANCH  11  12
ENDBRANCH   1  11
TORSDOF 14
ENDMDL
MODEL 7
REMARK VINA RESULT:    -1.745      1.898      3.507
REMARK INTER + INTRA:          -4.122
REMARK INTER:                  -2.827
REMARK INTRA:                  -1.295
REMARK UNBOUND:                -0.949
REMARK SMILES CCCCCCCCCCCCCCCC(=O)[O-]
REMARK SMILES IDX 9 1 10 2 11 3 12 4 13 5 14 6 15 7 16 8 17 9 18 10 8 11 7 12
REMARK SMILES IDX 6 13 5 14 4 15 3 16 2 17 1 18
REMARK H PARENT
REMARK Flexibility Score: inf
ROOT
ATOM      1  C   UNL     1       3.755 -36.257  20.233  1.00  0.00     0.000 C 
ENDROOT
BRANCH   1   2
ATOM      2  C   UNL     1       5.258 -36.455  20.495  1.00  0.00     0.000 C 
BRANCH   2   3
ATOM      3  C   UNL     1       5.894 -35.258  21.221  1.00  0.00     0.000 C 
BRANCH   3   4
ATOM      4  C   UNL     1       4.873 -34.444  22.030  1.00  0.00     0.000 C 
BRANCH   4   5
ATOM      5  C   UNL     1       5.412 -34.131  23.434  1.00  0.00     0.000 C 
BRANCH   5   6
ATOM      6  C   UNL     1       6.076 -35.347  24.104  1.00  0.00     0.006 C 
BRANCH   6   7
ATOM      7  C   UNL     1       5.423 -35.775  25.429  1.00  0.00     0.053 C 
BRANCH   7   8
ATOM      8  C   UNL     1       5.454 -37.260  25.614  1.00  0.00     0.041 C 
ATOM      9  O   UNL     1       5.704 -37.752  26.746  1.00  0.00    -0.550 OA
ATOM     10  O   UNL     1       5.237 -38.100  24.531  1.00  0.00    -0.550 OA
ENDBRANCH   7   8
ENDBRANCH   6   7
ENDBRANCH   5   6
ENDBRANCH   4   5
ENDBRANCH   3   4
ENDBRANCH   2   3
ENDBRANCH   1   2
BRANCH   1  11
ATOM     11  C   UNL     1       3.114 -37.451  19.503  1.00  0.00     0.000 C 
BRANCH  11  12
ATOM     12  C   UNL     1       1.700 -37.196  18.940  1.00  0.00    -0.000 C 
BRANCH  12  13
ATOM     13  C   UNL     1       1.659 -36.509  17.564  1.00  0.00    -0.000 C 
BRANCH  13  14
ATOM     14  C   UNL     1       2.838 -36.906  16.663  1.00  0.00    -0.000 C 
BRANCH  14  15
ATOM     15  C   UNL     1       3.137 -35.804  15.635  1.00  0.00    -0.000 C 
BRANCH  15  16
ATOM     16  C   UNL     1       3.675 -34.518  16.283  1.00  0.00    -0.000 C 
BRANCH  16  17
ATOM     17  C   UNL     1       4.706 -34.799  17.386  1.00  0.00    -0.003 C 
ATOM     18  C   UNL     1       5.069 -33.521  18.136  1.00  0.00     0.004 C 
ENDBRANCH  16  17
ENDBRANCH  15  16
ENDBRANCH  14  15
ENDBRANCH  13  14
ENDBRANCH  12  13
ENDBRANCH  11  12
ENDBRANCH   1  11
TORSDOF 14
ENDMDL
MODEL 8
REMARK VINA RESULT:    -1.676      2.237      3.026
REMARK INTER + INTRA:          -3.997
REMARK INTER:                  -3.193
REMARK INTRA:                  -0.805
REMARK UNBOUND:                -0.949
REMARK SMILES CCCCCCCCCCCCCCCC(=O)[O-]
REMARK SMILES IDX 9 1 10 2 11 3 12 4 13 5 14 6 15 7 16 8 17 9 18 10 8 11 7 12
REMARK SMILES IDX 6 13 5 14 4 15 3 16 2 17 1 18
REMARK H PARENT
REMARK Flexibility Score: inf
ROOT
ATOM      1  C   UNL     1       5.307 -34.647  20.897  1.00  0.00     0.000 C 
ENDROOT
BRANCH   1   2
ATOM      2  C   UNL     1       5.784 -35.962  21.536  1.00  0.00     0.000 C 
BRANCH   2   3
ATOM      3  C   UNL     1       5.537 -37.181  20.632  1.00  0.00     0.000 C 
BRANCH   3   4
ATOM      4  C   UNL     1       4.856 -38.342  21.373  1.00  0.00     0.000 C 
BRANCH   4   5
ATOM      5  C   UNL     1       5.806 -38.961  22.411  1.00  0.00     0.000 C 
BRANCH   5   6
ATOM      6  C   UNL     1       5.332 -38.745  23.859  1.00  0.00     0.006 C 
BRANCH   6   7
ATOM      7  C   UNL     1       5.638 -37.348  24.423  1.00  0.00     0.053 C 
BRANCH   7   8
ATOM      8  C   UNL     1       5.232 -37.224  25.859  1.00  0.00     0.041 C 
ATOM      9  O   UNL     1       4.115 -36.727  26.161  1.00  0.00    -0.550 OA
ATOM     10  O   UNL     1       6.100 -37.628  26.864  1.00  0.00    -0.550 OA
ENDBRANCH   7   8
ENDBRANCH   6   7
ENDBRANCH   5   6
ENDBRANCH   4   5
ENDBRANCH   3   4
ENDBRANCH   2   3
ENDBRANCH   1   2
BRANCH   1  11
ATOM     11  C   UNL     1       5.974 -34.366  19.539  1.00  0.00     0.000 C 
BRANCH  11  12
ATOM     12  C   UNL     1       5.020 -33.891  18.423  1.00  0.00    -0.000 C 
BRANCH  12  13
ATOM     13  C   UNL     1       4.678 -34.952  17.361  1.00  0.00    -0.000 C 
BRANCH  13  14
ATOM     14  C   UNL     1       3.754 -36.056  17.895  1.00  0.00    -0.000 C 
BRANCH  14  15
ATOM     15  C   UNL     1       2.778 -36.528  16.806  1.00  0.00    -0.000 C 
BRANCH  15  16
ATOM     16  C   UNL     1       2.609 -35.500  15.675  1.00  0.00    -0.000 C 
BRANCH  16  17
ATOM     17  C   UNL     1       2.807 -36.116  14.283  1.00  0.00    -0.003 C 
ATOM     18  C   UNL     1       4.233 -36.630  14.108  1.00  0.00     0.004 C 
ENDBRANCH  16  17
ENDBRANCH  15  16
ENDBRANCH  14  15
ENDBRANCH  13  14
ENDBRANCH  12  13
ENDBRANCH  11  12
ENDBRANCH   1  11
TORSDOF 14
ENDMDL
