MODEL 1
REMARK VINA RESULT:    -7.095      0.000      0.000
REMARK INTER + INTRA:         -11.305
REMARK INTER:                 -10.206
REMARK INTRA:                  -1.099
REMARK UNBOUND:                -1.099
REMARK SMILES O=c1c(O[C@@H]2O[C@H](CO)[C@@H](O)[C@@H](O)[C@@H]2O)c(-c2ccc(O)cc2)oc2cc(O)cc(O)c12
REMARK SMILES IDX 4 1 3 2 16 3 24 4 2 5 25 6 1 7 32 8 26 9 30 10 27 11 29 12
REMARK SMILES IDX 17 13 18 14 19 15 20 16 23 17 22 18 21 19 31 21 28 23 5 25
REMARK SMILES IDX 14 26 6 27 12 28 7 29 10 30 15 31 13 33 8 35 9 36 11 38
REMARK H PARENT 21 20 31 22 28 24 15 32 13 34 9 37 11 39
REMARK Flexibility Score: inf
ROOT
ATOM      1  O   UNL     1     -37.759   5.864  80.914  1.00  0.00    -0.454 OA
ENDROOT
BRANCH   1   2
ATOM      2  C   UNL     1     -38.572   5.201  79.980  1.00  0.00     0.214 A 
ATOM      3  C   UNL     1     -38.192   5.170  78.626  1.00  0.00     0.180 A 
ATOM      4  O   UNL     1     -38.887   4.442  77.757  1.00  0.00    -0.452 OA
ATOM      5  C   UNL     1     -39.750   4.536  80.364  1.00  0.00     0.239 A 
ATOM      6  C   UNL     1     -39.972   3.750  78.089  1.00  0.00     0.146 A 
ATOM      7  O   UNL     1     -40.171   4.643  81.546  1.00  0.00    -0.285 OA
ATOM      8  C   UNL     1     -40.462   3.771  79.416  1.00  0.00     0.111 A 
ATOM      9  C   UNL     1     -40.634   3.005  77.108  1.00  0.00     0.094 A 
ATOM     10  C   UNL     1     -41.626   3.031  79.736  1.00  0.00     0.134 A 
ATOM     11  C   UNL     1     -41.789   2.283  77.428  1.00  0.00     0.123 A 
ATOM     12  C   UNL     1     -42.278   2.297  78.735  1.00  0.00     0.093 A 
BRANCH   3  13
ATOM     13  C   UNL     1     -37.003   5.904  78.137  1.00  0.00     0.021 A 
ATOM     14  C   UNL     1     -37.123   7.260  77.784  1.00  0.00     0.016 A 
ATOM     15  C   UNL     1     -36.010   7.969  77.319  1.00  0.00     0.047 A 
ATOM     16  C   UNL     1     -34.766   7.339  77.219  1.00  0.00     0.115 A 
ATOM     17  C   UNL     1     -35.742   5.283  78.057  1.00  0.00     0.016 A 
ATOM     18  C   UNL     1     -34.633   5.997  77.594  1.00  0.00     0.047 A 
BRANCH  16  19
ATOM     19  O   UNL     1     -33.670   8.057  76.749  1.00  0.00    -0.508 OA
ATOM     20  H   UNL     1     -33.701   8.576  75.882  1.00  0.00     0.293 HD
ENDBRANCH  16  19
ENDBRANCH   3  13
BRANCH  10  21
ATOM     21  O   UNL     1     -42.132   3.014  81.036  1.00  0.00    -0.507 OA
ATOM     22  H   UNL     1     -41.547   3.216  81.837  1.00  0.00     0.293 HD
ENDBRANCH  10  21
BRANCH  11  23
ATOM     23  O   UNL     1     -42.457   1.546  76.451  1.00  0.00    -0.508 OA
ATOM     24  H   UNL     1     -42.715   0.579  76.604  1.00  0.00     0.293 HD
ENDBRANCH  11  23
ENDBRANCH   1   2
BRANCH   1  25
ATOM     25  C   UNL     1     -36.653   5.271  81.609  1.00  0.00     0.339 C 
ATOM     26  C   UNL     1     -35.780   6.359  82.291  1.00  0.00     0.214 C 
ATOM     27  O   UNL     1     -37.113   4.307  82.543  1.00  0.00    -0.332 OA
ATOM     28  C   UNL     1     -35.305   5.892  83.680  1.00  0.00     0.180 C 
ATOM     29  C   UNL     1     -36.043   3.536  83.061  1.00  0.00     0.179 C 
ATOM     30  C   UNL     1     -34.885   4.415  83.634  1.00  0.00     0.177 C 
BRANCH  26  31
ATOM     31  O   UNL     1     -36.498   7.562  82.423  1.00  0.00    -0.384 OA
ATOM     32  H   UNL     1     -37.380   7.432  81.983  1.00  0.00     0.211 HD
ENDBRANCH  26  31
BRANCH  28  33
ATOM     33  O   UNL     1     -34.225   6.677  84.114  1.00  0.00    -0.387 OA
ATOM     34  H   UNL     1     -34.136   7.425  83.467  1.00  0.00     0.211 HD
ENDBRANCH  28  33
BRANCH  29  35
ATOM     35  C   UNL     1     -36.613   2.583  84.125  1.00  0.00     0.191 C 
BRANCH  35  36
ATOM     36  O   UNL     1     -37.568   1.715  83.574  1.00  0.00    -0.394 OA
ATOM     37  H   UNL     1     -37.241   0.790  83.730  1.00  0.00     0.210 HD
ENDBRANCH  35  36
ENDBRANCH  29  35
BRANCH  30  38
ATOM     38  O   UNL     1     -33.741   4.283  82.826  1.00  0.00    -0.387 OA
ATOM     39  H   UNL     1     -33.763   5.037  82.177  1.00  0.00     0.211 HD
ENDBRANCH  30  38
ENDBRANCH   1  25
TORSDOF 11
ENDMDL
MODEL 2
REMARK VINA RESULT:    -7.009      1.791      3.026
REMARK INTER + INTRA:         -11.181
REMARK INTER:                  -9.820
REMARK INTRA:                  -1.361
REMARK UNBOUND:                -1.099
REMARK SMILES O=c1c(O[C@@H]2O[C@H](CO)[C@@H](O)[C@@H](O)[C@@H]2O)c(-c2ccc(O)cc2)oc2cc(O)cc(O)c12
REMARK SMILES IDX 4 1 3 2 16 3 24 4 2 5 25 6 1 7 32 8 26 9 30 10 27 11 29 12
REMARK SMILES IDX 17 13 18 14 19 15 20 16 23 17 22 18 21 19 31 21 28 23 5 25
REMARK SMILES IDX 14 26 6 27 12 28 7 29 10 30 15 31 13 33 8 35 9 36 11 38
REMARK H PARENT 21 20 31 22 28 24 15 32 13 34 9 37 11 39
REMARK Flexibility Score: inf
ROOT
ATOM      1  O   UNL     1     -37.358   5.112  81.659  1.00  0.00    -0.454 OA
ENDROOT
BRANCH   1   2
ATOM      2  C   UNL     1     -38.148   4.645  80.595  1.00  0.00     0.214 A 
ATOM      3  C   UNL     1     -37.609   4.602  79.297  1.00  0.00     0.180 A 
ATOM      4  O   UNL     1     -38.303   4.047  78.307  1.00  0.00    -0.452 OA
ATOM      5  C   UNL     1     -39.463   4.189  80.794  1.00  0.00     0.239 A 
ATOM      6  C   UNL     1     -39.526   3.550  78.464  1.00  0.00     0.146 A 
ATOM      7  O   UNL     1     -40.007   4.321  81.922  1.00  0.00    -0.285 OA
ATOM      8  C   UNL     1     -40.170   3.605  79.722  1.00  0.00     0.111 A 
ATOM      9  C   UNL     1     -40.176   2.977  77.366  1.00  0.00     0.094 A 
ATOM     10  C   UNL     1     -41.476   3.074  79.854  1.00  0.00     0.134 A 
ATOM     11  C   UNL     1     -41.470   2.463  77.500  1.00  0.00     0.123 A 
ATOM     12  C   UNL     1     -42.112   2.511  78.738  1.00  0.00     0.093 A 
BRANCH   3  13
ATOM     13  C   UNL     1     -36.258   5.129  78.999  1.00  0.00     0.021 A 
ATOM     14  C   UNL     1     -36.113   6.459  78.569  1.00  0.00     0.016 A 
ATOM     15  C   UNL     1     -34.844   6.973  78.282  1.00  0.00     0.047 A 
ATOM     16  C   UNL     1     -33.708   6.173  78.440  1.00  0.00     0.115 A 
ATOM     17  C   UNL     1     -35.108   4.336  79.180  1.00  0.00     0.016 A 
ATOM     18  C   UNL     1     -33.842   4.857  78.895  1.00  0.00     0.047 A 
BRANCH  16  19
ATOM     19  O   UNL     1     -32.453   6.699  78.146  1.00  0.00    -0.508 OA
ATOM     20  H   UNL     1     -31.973   7.326  78.778  1.00  0.00     0.293 HD
ENDBRANCH  16  19
ENDBRANCH   3  13
BRANCH  10  21
ATOM     21  O   UNL     1     -42.140   3.096  81.081  1.00  0.00    -0.507 OA
ATOM     22  H   UNL     1     -41.655   3.306  81.945  1.00  0.00     0.293 HD
ENDBRANCH  10  21
BRANCH  11  23
ATOM     23  O   UNL     1     -42.125   1.899  76.407  1.00  0.00    -0.508 OA
ATOM     24  H   UNL     1     -42.922   1.286  76.527  1.00  0.00     0.293 HD
ENDBRANCH  11  23
ENDBRANCH   1   2
BRANCH   1  25
ATOM     25  C   UNL     1     -37.462   6.414  82.251  1.00  0.00     0.339 C 
ATOM     26  C   UNL     1     -36.063   6.954  82.650  1.00  0.00     0.214 C 
ATOM     27  O   UNL     1     -38.137   7.304  81.377  1.00  0.00    -0.332 OA
ATOM     28  C   UNL     1     -35.945   8.460  82.344  1.00  0.00     0.180 C 
ATOM     29  C   UNL     1     -38.471   8.518  82.029  1.00  0.00     0.179 C 
ATOM     30  C   UNL     1     -37.244   9.187  82.729  1.00  0.00     0.177 C 
BRANCH  26  31
ATOM     31  O   UNL     1     -35.048   6.259  81.966  1.00  0.00    -0.384 OA
ATOM     32  H   UNL     1     -35.080   5.313  82.268  1.00  0.00     0.211 HD
ENDBRANCH  26  31
BRANCH  28  33
ATOM     33  O   UNL     1     -34.866   9.018  83.048  1.00  0.00    -0.387 OA
ATOM     34  H   UNL     1     -35.245   9.447  83.859  1.00  0.00     0.211 HD
ENDBRANCH  28  33
BRANCH  29  35
ATOM     35  C   UNL     1     -39.115   9.455  80.993  1.00  0.00     0.191 C 
BRANCH  35  36
ATOM     36  O   UNL     1     -39.773   8.729  79.989  1.00  0.00    -0.394 OA
ATOM     37  H   UNL     1     -39.120   8.072  79.632  1.00  0.00     0.210 HD
ENDBRANCH  35  36
ENDBRANCH  29  35
BRANCH  30  38
ATOM     38  O   UNL     1     -37.406   9.138  84.125  1.00  0.00    -0.387 OA
ATOM     39  H   UNL     1     -37.349   8.180  84.385  1.00  0.00     0.211 HD
ENDBRANCH  30  38
ENDBRANCH   1  25
TORSDOF 11
ENDMDL
MODEL 3
REMARK VINA RESULT:    -6.933      2.784      5.344
REMARK INTER + INTRA:         -11.071
REMARK INTER:                 -10.371
REMARK INTRA:                  -0.700
REMARK UNBOUND:                -1.099
REMARK SMILES O=c1c(O[C@@H]2O[C@H](CO)[C@@H](O)[C@@H](O)[C@@H]2O)c(-c2ccc(O)cc2)oc2cc(O)cc(O)c12
REMARK SMILES IDX 4 1 3 2 16 3 24 4 2 5 25 6 1 7 32 8 26 9 30 10 27 11 29 12
REMARK SMILES IDX 17 13 18 14 19 15 20 16 23 17 22 18 21 19 31 21 28 23 5 25
REMARK SMILES IDX 14 26 6 27 12 28 7 29 10 30 15 31 13 33 8 35 9 36 11 38
REMARK H PARENT 21 20 31 22 28 24 15 32 13 34 9 37 11 39
REMARK Flexibility Score: inf
ROOT
ATOM      1  O   UNL     1     -36.987   5.536  78.379  1.00  0.00    -0.454 OA
ENDROOT
BRANCH   1   2
ATOM      2  C   UNL     1     -37.978   5.102  79.274  1.00  0.00     0.214 A 
ATOM      3  C   UNL     1     -39.299   5.562  79.126  1.00  0.00     0.180 A 
ATOM      4  O   UNL     1     -40.267   5.062  79.889  1.00  0.00    -0.452 OA
ATOM      5  C   UNL     1     -37.695   4.190  80.307  1.00  0.00     0.239 A 
ATOM      6  C   UNL     1     -40.053   4.155  80.836  1.00  0.00     0.146 A 
ATOM      7  O   UNL     1     -36.504   3.850  80.531  1.00  0.00    -0.285 OA
ATOM      8  C   UNL     1     -38.747   3.679  81.096  1.00  0.00     0.111 A 
ATOM      9  C   UNL     1     -41.136   3.681  81.584  1.00  0.00     0.094 A 
ATOM     10  C   UNL     1     -38.551   2.719  82.119  1.00  0.00     0.134 A 
ATOM     11  C   UNL     1     -40.935   2.739  82.599  1.00  0.00     0.123 A 
ATOM     12  C   UNL     1     -39.651   2.263  82.861  1.00  0.00     0.093 A 
BRANCH   3  13
ATOM     13  C   UNL     1     -39.658   6.574  78.107  1.00  0.00     0.021 A 
ATOM     14  C   UNL     1     -40.512   7.635  78.455  1.00  0.00     0.016 A 
ATOM     15  C   UNL     1     -40.863   8.599  77.504  1.00  0.00     0.047 A 
ATOM     16  C   UNL     1     -40.351   8.526  76.205  1.00  0.00     0.115 A 
ATOM     17  C   UNL     1     -39.126   6.520  76.804  1.00  0.00     0.016 A 
ATOM     18  C   UNL     1     -39.478   7.489  75.859  1.00  0.00     0.047 A 
BRANCH  16  19
ATOM     19  O   UNL     1     -40.714   9.491  75.270  1.00  0.00    -0.508 OA
ATOM     20  H   UNL     1     -41.665   9.586  74.938  1.00  0.00     0.293 HD
ENDBRANCH  16  19
ENDBRANCH   3  13
BRANCH  10  21
ATOM     21  O   UNL     1     -37.281   2.214  82.397  1.00  0.00    -0.507 OA
ATOM     22  H   UNL     1     -37.151   1.381  82.956  1.00  0.00     0.293 HD
ENDBRANCH  10  21
BRANCH  11  23
ATOM     23  O   UNL     1     -42.010   2.270  83.352  1.00  0.00    -0.508 OA
ATOM     24  H   UNL     1     -42.248   1.286  83.376  1.00  0.00     0.293 HD
ENDBRANCH  11  23
ENDBRANCH   1   2
BRANCH   1  25
ATOM     25  C   UNL     1     -36.069   6.610  78.626  1.00  0.00     0.339 C 
ATOM     26  C   UNL     1     -34.619   6.076  78.775  1.00  0.00     0.214 C 
ATOM     27  O   UNL     1     -36.165   7.590  77.605  1.00  0.00    -0.332 OA
ATOM     28  C   UNL     1     -33.612   7.020  78.089  1.00  0.00     0.180 C 
ATOM     29  C   UNL     1     -35.457   8.769  77.950  1.00  0.00     0.179 C 
ATOM     30  C   UNL     1     -33.977   8.486  78.368  1.00  0.00     0.177 C 
BRANCH  26  31
ATOM     31  O   UNL     1     -34.504   4.788  78.219  1.00  0.00    -0.384 OA
ATOM     32  H   UNL     1     -33.546   4.529  78.265  1.00  0.00     0.211 HD
ENDBRANCH  26  31
BRANCH  28  33
ATOM     33  O   UNL     1     -32.311   6.761  78.550  1.00  0.00    -0.387 OA
ATOM     34  H   UNL     1     -32.223   5.775  78.619  1.00  0.00     0.211 HD
ENDBRANCH  28  33
BRANCH  29  35
ATOM     35  C   UNL     1     -35.535   9.738  76.759  1.00  0.00     0.191 C 
BRANCH  35  36
ATOM     36  O   UNL     1     -34.287   9.882  76.135  1.00  0.00    -0.394 OA
ATOM     37  H   UNL     1     -33.719   9.131  76.448  1.00  0.00     0.210 HD
ENDBRANCH  35  36
ENDBRANCH  29  35
BRANCH  30  38
ATOM     38  O   UNL     1     -33.810   8.753  79.739  1.00  0.00    -0.387 OA
ATOM     39  H   UNL     1     -34.575   9.327  80.012  1.00  0.00     0.211 HD
ENDBRANCH  30  38
ENDBRANCH   1  25
TORSDOF 11
ENDMDL
MODEL 4
REMARK VINA RESULT:    -6.868      2.706      6.787
REMARK INTER + INTRA:         -10.978
REMARK INTER:                 -10.035
REMARK INTRA:                  -0.942
REMARK UNBOUND:                -1.099
REMARK SMILES O=c1c(O[C@@H]2O[C@H](CO)[C@@H](O)[C@@H](O)[C@@H]2O)c(-c2ccc(O)cc2)oc2cc(O)cc(O)c12
REMARK SMILES IDX 4 1 3 2 16 3 24 4 2 5 25 6 1 7 32 8 26 9 30 10 27 11 29 12
REMARK SMILES IDX 17 13 18 14 19 15 20 16 23 17 22 18 21 19 31 21 28 23 5 25
REMARK SMILES IDX 14 26 6 27 12 28 7 29 10 30 15 31 13 33 8 35 9 36 11 38
REMARK H PARENT 21 20 31 22 28 24 15 32 13 34 9 37 11 39
REMARK Flexibility Score: inf
ROOT
ATOM      1  O   UNL     1     -39.087   5.006  77.637  1.00  0.00    -0.454 OA
ENDROOT
BRANCH   1   2
ATOM      2  C   UNL     1     -37.939   5.788  77.852  1.00  0.00     0.214 A 
ATOM      3  C   UNL     1     -38.040   7.191  77.829  1.00  0.00     0.180 A 
ATOM      4  O   UNL     1     -36.989   7.938  78.153  1.00  0.00    -0.452 OA
ATOM      5  C   UNL     1     -36.687   5.207  78.119  1.00  0.00     0.239 A 
ATOM      6  C   UNL     1     -35.803   7.429  78.471  1.00  0.00     0.146 A 
ATOM      7  O   UNL     1     -36.547   3.958  78.033  1.00  0.00    -0.285 OA
ATOM      8  C   UNL     1     -35.594   6.030  78.461  1.00  0.00     0.111 A 
ATOM      9  C   UNL     1     -34.756   8.293  78.807  1.00  0.00     0.094 A 
ATOM     10  C   UNL     1     -34.316   5.519  78.795  1.00  0.00     0.134 A 
ATOM     11  C   UNL     1     -33.493   7.783  79.127  1.00  0.00     0.123 A 
ATOM     12  C   UNL     1     -33.279   6.405  79.121  1.00  0.00     0.093 A 
BRANCH   3  13
ATOM     13  C   UNL     1     -39.309   7.872  77.487  1.00  0.00     0.021 A 
ATOM     14  C   UNL     1     -39.534   8.294  76.165  1.00  0.00     0.016 A 
ATOM     15  C   UNL     1     -40.727   8.941  75.824  1.00  0.00     0.047 A 
ATOM     16  C   UNL     1     -41.712   9.156  76.792  1.00  0.00     0.115 A 
ATOM     17  C   UNL     1     -40.316   8.070  78.452  1.00  0.00     0.016 A 
ATOM     18  C   UNL     1     -41.508   8.714  78.104  1.00  0.00     0.047 A 
BRANCH  16  19
ATOM     19  O   UNL     1     -42.891   9.805  76.437  1.00  0.00    -0.508 OA
ATOM     20  H   UNL     1     -43.651   9.934  77.093  1.00  0.00     0.293 HD
ENDBRANCH  16  19
ENDBRANCH   3  13
BRANCH  10  21
ATOM     21  O   UNL     1     -34.073   4.145  78.810  1.00  0.00    -0.507 OA
ATOM     22  H   UNL     1     -34.677   3.493  78.328  1.00  0.00     0.293 HD
ENDBRANCH  10  21
BRANCH  11  23
ATOM     23  O   UNL     1     -32.445   8.642  79.454  1.00  0.00    -0.508 OA
ATOM     24  H   UNL     1     -32.321   8.987  80.398  1.00  0.00     0.293 HD
ENDBRANCH  11  23
ENDBRANCH   1   2
BRANCH   1  25
ATOM     25  C   UNL     1     -39.938   4.493  78.671  1.00  0.00     0.339 C 
ATOM     26  C   UNL     1     -40.922   3.435  78.104  1.00  0.00     0.214 C 
ATOM     27  O   UNL     1     -39.162   3.969  79.737  1.00  0.00    -0.332 OA
ATOM     28  C   UNL     1     -41.096   2.262  79.088  1.00  0.00     0.180 C 
ATOM     29  C   UNL     1     -39.965   3.685  80.870  1.00  0.00     0.179 C 
ATOM     30  C   UNL     1     -41.196   2.783  80.530  1.00  0.00     0.177 C 
BRANCH  26  31
ATOM     31  O   UNL     1     -40.465   2.943  76.867  1.00  0.00    -0.384 OA
ATOM     32  H   UNL     1     -40.861   2.040  76.742  1.00  0.00     0.211 HD
ENDBRANCH  26  31
BRANCH  28  33
ATOM     33  O   UNL     1     -42.250   1.528  78.771  1.00  0.00    -0.387 OA
ATOM     34  H   UNL     1     -41.967   0.802  78.155  1.00  0.00     0.211 HD
ENDBRANCH  28  33
BRANCH  29  35
ATOM     35  C   UNL     1     -39.068   3.041  81.941  1.00  0.00     0.191 C 
BRANCH  35  36
ATOM     36  O   UNL     1     -38.537   1.821  81.495  1.00  0.00    -0.394 OA
ATOM     37  H   UNL     1     -39.192   1.115  81.737  1.00  0.00     0.210 HD
ENDBRANCH  35  36
ENDBRANCH  29  35
BRANCH  30  38
ATOM     38  O   UNL     1     -42.383   3.523  80.675  1.00  0.00    -0.387 OA
ATOM     39  H   UNL     1     -42.817   3.543  79.780  1.00  0.00     0.211 HD
ENDBRANCH  30  38
ENDBRANCH   1  25
TORSDOF 11
ENDMDL
MODEL 5
REMARK VINA RESULT:    -6.757      1.802      2.874
REMARK INTER + INTRA:         -10.818
REMARK INTER:                  -9.735
REMARK INTRA:                  -1.083
REMARK UNBOUND:                -1.099
REMARK SMILES O=c1c(O[C@@H]2O[C@H](CO)[C@@H](O)[C@@H](O)[C@@H]2O)c(-c2ccc(O)cc2)oc2cc(O)cc(O)c12
REMARK SMILES IDX 4 1 3 2 16 3 24 4 2 5 25 6 1 7 32 8 26 9 30 10 27 11 29 12
REMARK SMILES IDX 17 13 18 14 19 15 20 16 23 17 22 18 21 19 31 21 28 23 5 25
REMARK SMILES IDX 14 26 6 27 12 28 7 29 10 30 15 31 13 33 8 35 9 36 11 38
REMARK H PARENT 21 20 31 22 28 24 15 32 13 34 9 37 11 39
REMARK Flexibility Score: inf
ROOT
ATOM      1  O   UNL     1     -37.292   5.182  81.686  1.00  0.00    -0.454 OA
ENDROOT
BRANCH   1   2
ATOM      2  C   UNL     1     -38.094   4.721  80.629  1.00  0.00     0.214 A 
ATOM      3  C   UNL     1     -37.569   4.681  79.325  1.00  0.00     0.180 A 
ATOM      4  O   UNL     1     -38.275   4.132  78.340  1.00  0.00    -0.452 OA
ATOM      5  C   UNL     1     -39.408   4.267  80.840  1.00  0.00     0.239 A 
ATOM      6  C   UNL     1     -39.497   3.637  78.508  1.00  0.00     0.146 A 
ATOM      7  O   UNL     1     -39.940   4.397  81.974  1.00  0.00    -0.285 OA
ATOM      8  C   UNL     1     -40.128   3.688  79.773  1.00  0.00     0.111 A 
ATOM      9  C   UNL     1     -40.160   3.070  77.415  1.00  0.00     0.094 A 
ATOM     10  C   UNL     1     -41.434   3.161  79.917  1.00  0.00     0.134 A 
ATOM     11  C   UNL     1     -41.454   2.558  77.560  1.00  0.00     0.123 A 
ATOM     12  C   UNL     1     -42.083   2.604  78.805  1.00  0.00     0.093 A 
BRANCH   3  13
ATOM     13  C   UNL     1     -36.220   5.205  79.015  1.00  0.00     0.021 A 
ATOM     14  C   UNL     1     -36.088   6.483  78.442  1.00  0.00     0.016 A 
ATOM     15  C   UNL     1     -34.821   6.994  78.142  1.00  0.00     0.047 A 
ATOM     16  C   UNL     1     -33.675   6.246  78.427  1.00  0.00     0.115 A 
ATOM     17  C   UNL     1     -35.061   4.468  79.323  1.00  0.00     0.016 A 
ATOM     18  C   UNL     1     -33.796   4.986  79.023  1.00  0.00     0.047 A 
BRANCH  16  19
ATOM     19  O   UNL     1     -32.422   6.767  78.118  1.00  0.00    -0.508 OA
ATOM     20  H   UNL     1     -31.862   6.404  77.357  1.00  0.00     0.293 HD
ENDBRANCH  16  19
ENDBRANCH   3  13
BRANCH  10  21
ATOM     21  O   UNL     1     -42.085   3.180  81.151  1.00  0.00    -0.507 OA
ATOM     22  H   UNL     1     -41.764   3.764  81.912  1.00  0.00     0.293 HD
ENDBRANCH  10  21
BRANCH  11  23
ATOM     23  O   UNL     1     -42.122   2.000  76.472  1.00  0.00    -0.508 OA
ATOM     24  H   UNL     1     -43.093   2.213  76.282  1.00  0.00     0.293 HD
ENDBRANCH  11  23
ENDBRANCH   1   2
BRANCH   1  25
ATOM     25  C   UNL     1     -36.814   6.526  81.830  1.00  0.00     0.339 C 
ATOM     26  C   UNL     1     -37.784   7.370  82.699  1.00  0.00     0.214 C 
ATOM     27  O   UNL     1     -35.497   6.531  82.359  1.00  0.00    -0.332 OA
ATOM     28  C   UNL     1     -37.005   8.307  83.642  1.00  0.00     0.180 C 
ATOM     29  C   UNL     1     -34.912   7.819  82.279  1.00  0.00     0.179 C 
ATOM     30  C   UNL     1     -35.810   8.933  82.907  1.00  0.00     0.177 C 
BRANCH  26  31
ATOM     31  O   UNL     1     -38.623   6.535  83.460  1.00  0.00    -0.384 OA
ATOM     32  H   UNL     1     -39.448   6.377  82.928  1.00  0.00     0.211 HD
ENDBRANCH  26  31
BRANCH  28  33
ATOM     33  O   UNL     1     -37.847   9.322  84.125  1.00  0.00    -0.387 OA
ATOM     34  H   UNL     1     -38.629   9.359  83.515  1.00  0.00     0.211 HD
ENDBRANCH  28  33
BRANCH  29  35
ATOM     35  C   UNL     1     -33.530   7.757  82.951  1.00  0.00     0.191 C 
BRANCH  35  36
ATOM     36  O   UNL     1     -33.361   8.804  83.869  1.00  0.00    -0.394 OA
ATOM     37  H   UNL     1     -32.402   9.060  83.843  1.00  0.00     0.210 HD
ENDBRANCH  35  36
ENDBRANCH  29  35
BRANCH  30  38
ATOM     38  O   UNL     1     -36.283   9.790  81.897  1.00  0.00    -0.387 OA
ATOM     39  H   UNL     1     -35.910   9.452  81.039  1.00  0.00     0.211 HD
ENDBRANCH  30  38
ENDBRANCH   1  25
TORSDOF 11
ENDMDL
MODEL 6
REMARK VINA RESULT:    -6.690      2.099      6.529
REMARK INTER + INTRA:         -10.722
REMARK INTER:                  -9.453
REMARK INTRA:                  -1.268
REMARK UNBOUND:                -1.099
REMARK SMILES O=c1c(O[C@@H]2O[C@H](CO)[C@@H](O)[C@@H](O)[C@@H]2O)c(-c2ccc(O)cc2)oc2cc(O)cc(O)c12
REMARK SMILES IDX 4 1 3 2 16 3 24 4 2 5 25 6 1 7 32 8 26 9 30 10 27 11 29 12
REMARK SMILES IDX 17 13 18 14 19 15 20 16 23 17 22 18 21 19 31 21 28 23 5 25
REMARK SMILES IDX 14 26 6 27 12 28 7 29 10 30 15 31 13 33 8 35 9 36 11 38
REMARK H PARENT 21 20 31 22 28 24 15 32 13 34 9 37 11 39
REMARK Flexibility Score: inf
ROOT
ATOM      1  O   UNL     1     -37.416   4.085  80.389  1.00  0.00    -0.454 OA
ENDROOT
BRANCH   1   2
ATOM      2  C   UNL     1     -36.395   4.975  80.765  1.00  0.00     0.214 A 
ATOM      3  C   UNL     1     -36.240   6.188  80.071  1.00  0.00     0.180 A 
ATOM      4  O   UNL     1     -35.360   7.090  80.497  1.00  0.00    -0.452 OA
ATOM      5  C   UNL     1     -35.534   4.700  81.843  1.00  0.00     0.239 A 
ATOM      6  C   UNL     1     -34.568   6.896  81.547  1.00  0.00     0.146 A 
ATOM      7  O   UNL     1     -35.579   3.576  82.408  1.00  0.00    -0.285 OA
ATOM      8  C   UNL     1     -34.614   5.681  82.269  1.00  0.00     0.111 A 
ATOM      9  C   UNL     1     -33.679   7.906  81.927  1.00  0.00     0.094 A 
ATOM     10  C   UNL     1     -33.751   5.502  83.377  1.00  0.00     0.134 A 
ATOM     11  C   UNL     1     -32.822   7.720  83.017  1.00  0.00     0.123 A 
ATOM     12  C   UNL     1     -32.862   6.526  83.736  1.00  0.00     0.093 A 
BRANCH   3  13
ATOM     13  C   UNL     1     -37.063   6.514  78.885  1.00  0.00     0.021 A 
ATOM     14  C   UNL     1     -36.593   6.179  77.603  1.00  0.00     0.016 A 
ATOM     15  C   UNL     1     -37.357   6.480  76.470  1.00  0.00     0.047 A 
ATOM     16  C   UNL     1     -38.603   7.101  76.606  1.00  0.00     0.115 A 
ATOM     17  C   UNL     1     -38.329   7.116  79.016  1.00  0.00     0.016 A 
ATOM     18  C   UNL     1     -39.090   7.412  77.881  1.00  0.00     0.047 A 
BRANCH  16  19
ATOM     19  O   UNL     1     -39.348   7.398  75.469  1.00  0.00    -0.508 OA
ATOM     20  H   UNL     1     -40.093   6.796  75.143  1.00  0.00     0.293 HD
ENDBRANCH  16  19
ENDBRANCH   3  13
BRANCH  10  21
ATOM     21  O   UNL     1     -33.775   4.324  84.124  1.00  0.00    -0.507 OA
ATOM     22  H   UNL     1     -32.940   3.771  84.272  1.00  0.00     0.293 HD
ENDBRANCH  10  21
BRANCH  11  23
ATOM     23  O   UNL     1     -31.928   8.721  83.394  1.00  0.00    -0.508 OA
ATOM     24  H   UNL     1     -31.164   9.001  82.792  1.00  0.00     0.293 HD
ENDBRANCH  11  23
ENDBRANCH   1   2
BRANCH   1  25
ATOM     25  C   UNL     1     -38.626   3.863  81.125  1.00  0.00     0.339 C 
ATOM     26  C   UNL     1     -39.863   3.924  80.190  1.00  0.00     0.214 C 
ATOM     27  O   UNL     1     -38.560   2.633  81.829  1.00  0.00    -0.332 OA
ATOM     28  C   UNL     1     -40.894   2.844  80.570  1.00  0.00     0.180 C 
ATOM     29  C   UNL     1     -39.628   2.508  82.753  1.00  0.00     0.179 C 
ATOM     30  C   UNL     1     -41.027   2.746  82.098  1.00  0.00     0.177 C 
BRANCH  26  31
ATOM     31  O   UNL     1     -39.479   3.750  78.847  1.00  0.00    -0.384 OA
ATOM     32  H   UNL     1     -38.504   3.933  78.790  1.00  0.00     0.211 HD
ENDBRANCH  26  31
BRANCH  28  33
ATOM     33  O   UNL     1     -42.144   3.144  80.006  1.00  0.00    -0.387 OA
ATOM     34  H   UNL     1     -42.056   4.033  79.571  1.00  0.00     0.211 HD
ENDBRANCH  28  33
BRANCH  29  35
ATOM     35  C   UNL     1     -39.535   1.117  83.404  1.00  0.00     0.191 C 
BRANCH  35  36
ATOM     36  O   UNL     1     -38.522   0.345  82.814  1.00  0.00    -0.394 OA
ATOM     37  H   UNL     1     -37.987  -0.043  83.554  1.00  0.00     0.210 HD
ENDBRANCH  35  36
ENDBRANCH  29  35
BRANCH  30  38
ATOM     38  O   UNL     1     -41.589   3.936  82.592  1.00  0.00    -0.387 OA
ATOM     39  H   UNL     1     -42.185   4.289  81.877  1.00  0.00     0.211 HD
ENDBRANCH  30  38
ENDBRANCH   1  25
TORSDOF 11
ENDMDL
MODEL 7
REMARK VINA RESULT:    -6.599      2.366      7.750
REMARK INTER + INTRA:         -10.591
REMARK INTER:                  -9.613
REMARK INTRA:                  -0.978
REMARK UNBOUND:                -1.099
REMARK SMILES O=c1c(O[C@@H]2O[C@H](CO)[C@@H](O)[C@@H](O)[C@@H]2O)c(-c2ccc(O)cc2)oc2cc(O)cc(O)c12
REMARK SMILES IDX 4 1 3 2 16 3 24 4 2 5 25 6 1 7 32 8 26 9 30 10 27 11 29 12
REMARK SMILES IDX 17 13 18 14 19 15 20 16 23 17 22 18 21 19 31 21 28 23 5 25
REMARK SMILES IDX 14 26 6 27 12 28 7 29 10 30 15 31 13 33 8 35 9 36 11 38
REMARK H PARENT 21 20 31 22 28 24 15 32 13 34 9 37 11 39
REMARK Flexibility Score: inf
ROOT
ATOM      1  O   UNL     1     -36.646   3.750  79.454  1.00  0.00    -0.454 OA
ENDROOT
BRANCH   1   2
ATOM      2  C   UNL     1     -36.003   4.878  79.991  1.00  0.00     0.214 A 
ATOM      3  C   UNL     1     -36.372   5.347  81.264  1.00  0.00     0.180 A 
ATOM      4  O   UNL     1     -35.687   6.336  81.833  1.00  0.00    -0.452 OA
ATOM      5  C   UNL     1     -34.975   5.543  79.300  1.00  0.00     0.239 A 
ATOM      6  C   UNL     1     -34.669   6.952  81.240  1.00  0.00     0.146 A 
ATOM      7  O   UNL     1     -34.703   5.214  78.115  1.00  0.00    -0.285 OA
ATOM      8  C   UNL     1     -34.268   6.586  79.934  1.00  0.00     0.111 A 
ATOM      9  C   UNL     1     -34.002   7.976  81.919  1.00  0.00     0.094 A 
ATOM     10  C   UNL     1     -33.186   7.269  79.326  1.00  0.00     0.134 A 
ATOM     11  C   UNL     1     -32.940   8.653  81.311  1.00  0.00     0.123 A 
ATOM     12  C   UNL     1     -32.536   8.298  80.023  1.00  0.00     0.093 A 
BRANCH   3  13
ATOM     13  C   UNL     1     -37.491   4.742  82.021  1.00  0.00     0.021 A 
ATOM     14  C   UNL     1     -38.797   5.224  81.829  1.00  0.00     0.016 A 
ATOM     15  C   UNL     1     -39.867   4.664  82.535  1.00  0.00     0.047 A 
ATOM     16  C   UNL     1     -39.648   3.608  83.424  1.00  0.00     0.115 A 
ATOM     17  C   UNL     1     -37.280   3.661  82.899  1.00  0.00     0.016 A 
ATOM     18  C   UNL     1     -38.354   3.104  83.600  1.00  0.00     0.047 A 
BRANCH  16  19
ATOM     19  O   UNL     1     -40.722   3.066  84.123  1.00  0.00    -0.508 OA
ATOM     20  H   UNL     1     -41.021   2.109  83.989  1.00  0.00     0.293 HD
ENDBRANCH  16  19
ENDBRANCH   3  13
BRANCH  10  21
ATOM     21  O   UNL     1     -32.750   6.929  78.045  1.00  0.00    -0.507 OA
ATOM     22  H   UNL     1     -32.274   7.596  77.451  1.00  0.00     0.293 HD
ENDBRANCH  10  21
BRANCH  11  23
ATOM     23  O   UNL     1     -32.278   9.680  81.981  1.00  0.00    -0.508 OA
ATOM     24  H   UNL     1     -31.851  10.449  81.479  1.00  0.00     0.293 HD
ENDBRANCH  11  23
ENDBRANCH   1   2
BRANCH   1  25
ATOM     25  C   UNL     1     -37.839   3.783  78.660  1.00  0.00     0.339 C 
ATOM     26  C   UNL     1     -38.812   2.646  79.073  1.00  0.00     0.214 C 
ATOM     27  O   UNL     1     -38.456   5.057  78.743  1.00  0.00    -0.332 OA
ATOM     28  C   UNL     1     -40.271   3.139  79.062  1.00  0.00     0.180 C 
ATOM     29  C   UNL     1     -39.489   5.196  77.783  1.00  0.00     0.179 C 
ATOM     30  C   UNL     1     -40.526   4.028  77.835  1.00  0.00     0.177 C 
BRANCH  26  31
ATOM     31  O   UNL     1     -38.493   2.162  80.356  1.00  0.00    -0.384 OA
ATOM     32  H   UNL     1     -38.377   1.178  80.283  1.00  0.00     0.211 HD
ENDBRANCH  26  31
BRANCH  28  33
ATOM     33  O   UNL     1     -41.154   2.047  79.045  1.00  0.00    -0.387 OA
ATOM     34  H   UNL     1     -40.889   1.476  78.278  1.00  0.00     0.211 HD
ENDBRANCH  28  33
BRANCH  29  35
ATOM     35  C   UNL     1     -40.161   6.563  78.000  1.00  0.00     0.191 C 
BRANCH  35  36
ATOM     36  O   UNL     1     -40.790   6.628  79.253  1.00  0.00    -0.394 OA
ATOM     37  H   UNL     1     -40.352   7.362  79.758  1.00  0.00     0.210 HD
ENDBRANCH  35  36
ENDBRANCH  29  35
BRANCH  30  38
ATOM     38  O   UNL     1     -40.424   3.249  76.668  1.00  0.00    -0.387 OA
ATOM     39  H   UNL     1     -40.815   2.360  76.885  1.00  0.00     0.211 HD
ENDBRANCH  30  38
ENDBRANCH   1  25
TORSDOF 11
ENDMDL
MODEL 8
REMARK VINA RESULT:    -6.555      1.766      6.011
REMARK INTER + INTRA:         -10.527
REMARK INTER:                  -9.916
REMARK INTRA:                  -0.611
REMARK UNBOUND:                -1.099
REMARK SMILES O=c1c(O[C@@H]2O[C@H](CO)[C@@H](O)[C@@H](O)[C@@H]2O)c(-c2ccc(O)cc2)oc2cc(O)cc(O)c12
REMARK SMILES IDX 4 1 3 2 16 3 24 4 2 5 25 6 1 7 32 8 26 9 30 10 27 11 29 12
REMARK SMILES IDX 17 13 18 14 19 15 20 16 23 17 22 18 21 19 31 21 28 23 5 25
REMARK SMILES IDX 14 26 6 27 12 28 7 29 10 30 15 31 13 33 8 35 9 36 11 38
REMARK H PARENT 21 20 31 22 28 24 15 32 13 34 9 37 11 39
REMARK Flexibility Score: inf
ROOT
ATOM      1  O   UNL     1     -38.153   5.785  81.184  1.00  0.00    -0.454 OA
ENDROOT
BRANCH   1   2
ATOM      2  C   UNL     1     -37.312   6.227  80.149  1.00  0.00     0.214 A 
ATOM      3  C   UNL     1     -37.493   5.729  78.846  1.00  0.00     0.180 A 
ATOM      4  O   UNL     1     -36.786   6.232  77.838  1.00  0.00    -0.452 OA
ATOM      5  C   UNL     1     -36.304   7.182  80.371  1.00  0.00     0.239 A 
ATOM      6  C   UNL     1     -35.865   7.178  77.994  1.00  0.00     0.146 A 
ATOM      7  O   UNL     1     -36.048   7.559  81.545  1.00  0.00    -0.285 OA
ATOM      8  C   UNL     1     -35.574   7.695  79.278  1.00  0.00     0.111 A 
ATOM      9  C   UNL     1     -35.177   7.653  76.873  1.00  0.00     0.094 A 
ATOM     10  C   UNL     1     -34.581   8.696  79.413  1.00  0.00     0.134 A 
ATOM     11  C   UNL     1     -34.190   8.635  77.013  1.00  0.00     0.123 A 
ATOM     12  C   UNL     1     -33.898   9.152  78.275  1.00  0.00     0.093 A 
BRANCH   3  13
ATOM     13  C   UNL     1     -38.487   4.673  78.550  1.00  0.00     0.021 A 
ATOM     14  C   UNL     1     -39.839   5.021  78.385  1.00  0.00     0.016 A 
ATOM     15  C   UNL     1     -40.792   4.037  78.106  1.00  0.00     0.047 A 
ATOM     16  C   UNL     1     -40.405   2.701  77.969  1.00  0.00     0.115 A 
ATOM     17  C   UNL     1     -38.099   3.329  78.386  1.00  0.00     0.016 A 
ATOM     18  C   UNL     1     -39.057   2.350  78.103  1.00  0.00     0.047 A 
BRANCH  16  19
ATOM     19  O   UNL     1     -41.366   1.732  77.695  1.00  0.00    -0.508 OA
ATOM     20  H   UNL     1     -41.239   1.040  76.969  1.00  0.00     0.293 HD
ENDBRANCH  16  19
ENDBRANCH   3  13
BRANCH  10  21
ATOM     21  O   UNL     1     -34.275   9.241  80.660  1.00  0.00    -0.507 OA
ATOM     22  H   UNL     1     -34.955   9.772  81.189  1.00  0.00     0.293 HD
ENDBRANCH  10  21
BRANCH  11  23
ATOM     23  O   UNL     1     -33.496   9.105  75.900  1.00  0.00    -0.508 OA
ATOM     24  H   UNL     1     -33.177   8.477  75.172  1.00  0.00     0.293 HD
ENDBRANCH  11  23
ENDBRANCH   1   2
BRANCH   1  25
ATOM     25  C   UNL     1     -38.391   4.411  81.520  1.00  0.00     0.339 C 
ATOM     26  C   UNL     1     -37.278   3.870  82.458  1.00  0.00     0.214 C 
ATOM     27  O   UNL     1     -39.680   4.256  82.092  1.00  0.00    -0.332 OA
ATOM     28  C   UNL     1     -37.872   2.952  83.543  1.00  0.00     0.180 C 
ATOM     29  C   UNL     1     -40.035   2.888  82.203  1.00  0.00     0.179 C 
ATOM     30  C   UNL     1     -38.950   2.038  82.940  1.00  0.00     0.177 C 
BRANCH  26  31
ATOM     31  O   UNL     1     -36.586   4.931  83.072  1.00  0.00    -0.384 OA
ATOM     32  H   UNL     1     -37.210   5.702  83.123  1.00  0.00     0.211 HD
ENDBRANCH  26  31
BRANCH  28  33
ATOM     33  O   UNL     1     -36.862   2.169  84.125  1.00  0.00    -0.387 OA
ATOM     34  H   UNL     1     -36.060   2.750  84.205  1.00  0.00     0.211 HD
ENDBRANCH  28  33
BRANCH  29  35
ATOM     35  C   UNL     1     -41.399   2.806  82.910  1.00  0.00     0.191 C 
BRANCH  35  36
ATOM     36  O   UNL     1     -42.416   3.365  82.123  1.00  0.00    -0.394 OA
ATOM     37  H   UNL     1     -42.702   4.203  82.573  1.00  0.00     0.210 HD
ENDBRANCH  35  36
ENDBRANCH  29  35
BRANCH  30  38
ATOM     38  O   UNL     1     -38.349   1.145  82.035  1.00  0.00    -0.387 OA
ATOM     39  H   UNL     1     -37.682   1.670  81.517  1.00  0.00     0.211 HD
ENDBRANCH  30  38
ENDBRANCH   1  25
TORSDOF 11
ENDMDL
MODEL 9
REMARK VINA RESULT:    -6.310      2.814      5.640
REMARK INTER + INTRA:         -10.175
REMARK INTER:                  -8.794
REMARK INTRA:                  -1.381
REMARK UNBOUND:                -1.099
REMARK SMILES O=c1c(O[C@@H]2O[C@H](CO)[C@@H](O)[C@@H](O)[C@@H]2O)c(-c2ccc(O)cc2)oc2cc(O)cc(O)c12
REMARK SMILES IDX 4 1 3 2 16 3 24 4 2 5 25 6 1 7 32 8 26 9 30 10 27 11 29 12
REMARK SMILES IDX 17 13 18 14 19 15 20 16 23 17 22 18 21 19 31 21 28 23 5 25
REMARK SMILES IDX 14 26 6 27 12 28 7 29 10 30 15 31 13 33 8 35 9 36 11 38
REMARK H PARENT 21 20 31 22 28 24 15 32 13 34 9 37 11 39
REMARK Flexibility Score: inf
ROOT
ATOM      1  O   UNL     1     -38.468   6.780  79.984  1.00  0.00    -0.454 OA
ENDROOT
BRANCH   1   2
ATOM      2  C   UNL     1     -38.439   5.500  80.563  1.00  0.00     0.214 A 
ATOM      3  C   UNL     1     -37.214   4.821  80.686  1.00  0.00     0.180 A 
ATOM      4  O   UNL     1     -37.157   3.666  81.344  1.00  0.00    -0.452 OA
ATOM      5  C   UNL     1     -39.603   4.883  81.054  1.00  0.00     0.239 A 
ATOM      6  C   UNL     1     -38.223   3.077  81.875  1.00  0.00     0.146 A 
ATOM      7  O   UNL     1     -40.726   5.418  80.855  1.00  0.00    -0.285 OA
ATOM      8  C   UNL     1     -39.506   3.659  81.748  1.00  0.00     0.111 A 
ATOM      9  C   UNL     1     -38.065   1.866  82.557  1.00  0.00     0.094 A 
ATOM     10  C   UNL     1     -40.623   3.001  82.317  1.00  0.00     0.134 A 
ATOM     11  C   UNL     1     -39.174   1.216  83.110  1.00  0.00     0.123 A 
ATOM     12  C   UNL     1     -40.443   1.784  82.990  1.00  0.00     0.093 A 
BRANCH   3  13
ATOM     13  C   UNL     1     -35.959   5.377  80.132  1.00  0.00     0.021 A 
ATOM     14  C   UNL     1     -35.404   4.811  78.971  1.00  0.00     0.016 A 
ATOM     15  C   UNL     1     -34.218   5.323  78.434  1.00  0.00     0.047 A 
ATOM     16  C   UNL     1     -33.586   6.414  79.037  1.00  0.00     0.115 A 
ATOM     17  C   UNL     1     -35.331   6.492  80.720  1.00  0.00     0.016 A 
ATOM     18  C   UNL     1     -34.147   7.002  80.176  1.00  0.00     0.047 A 
BRANCH  16  19
ATOM     19  O   UNL     1     -32.404   6.908  78.492  1.00  0.00    -0.508 OA
ATOM     20  H   UNL     1     -32.400   7.527  77.692  1.00  0.00     0.293 HD
ENDBRANCH  16  19
ENDBRANCH   3  13
BRANCH  10  21
ATOM     21  O   UNL     1     -41.903   3.549  82.225  1.00  0.00    -0.507 OA
ATOM     22  H   UNL     1     -42.522   3.329  81.455  1.00  0.00     0.293 HD
ENDBRANCH  10  21
BRANCH  11  23
ATOM     23  O   UNL     1     -39.023   0.005  83.783  1.00  0.00    -0.508 OA
ATOM     24  H   UNL     1     -39.766  -0.379  84.352  1.00  0.00     0.293 HD
ENDBRANCH  11  23
ENDBRANCH   1   2
BRANCH   1  25
ATOM     25  C   UNL     1     -38.423   7.046  78.575  1.00  0.00     0.339 C 
ATOM     26  C   UNL     1     -39.829   7.420  78.036  1.00  0.00     0.214 C 
ATOM     27  O   UNL     1     -37.467   8.056  78.291  1.00  0.00    -0.332 OA
ATOM     28  C   UNL     1     -39.738   8.555  76.999  1.00  0.00     0.180 C 
ATOM     29  C   UNL     1     -37.225   8.162  76.899  1.00  0.00     0.179 C 
ATOM     30  C   UNL     1     -38.537   8.333  76.067  1.00  0.00     0.177 C 
BRANCH  26  31
ATOM     31  O   UNL     1     -40.675   7.817  79.089  1.00  0.00    -0.384 OA
ATOM     32  H   UNL     1     -41.436   7.178  79.116  1.00  0.00     0.211 HD
ENDBRANCH  26  31
BRANCH  28  33
ATOM     33  O   UNL     1     -40.918   8.619  76.241  1.00  0.00    -0.387 OA
ATOM     34  H   UNL     1     -41.630   8.188  76.783  1.00  0.00     0.211 HD
ENDBRANCH  28  33
BRANCH  29  35
ATOM     35  C   UNL     1     -36.252   9.332  76.672  1.00  0.00     0.191 C 
BRANCH  35  36
ATOM     36  O   UNL     1     -34.937   8.973  77.003  1.00  0.00    -0.394 OA
ATOM     37  H   UNL     1     -34.861   7.993  76.864  1.00  0.00     0.210 HD
ENDBRANCH  35  36
ENDBRANCH  29  35
BRANCH  30  38
ATOM     38  O   UNL     1     -38.760   7.183  75.289  1.00  0.00    -0.387 OA
ATOM     39  H   UNL     1     -37.942   6.622  75.368  1.00  0.00     0.211 HD
ENDBRANCH  30  38
ENDBRANCH   1  25
TORSDOF 11
ENDMDL
