MODEL 1
REMARK VINA RESULT:    -5.145      0.000      0.000
REMARK INTER + INTRA:          -6.340
REMARK INTER:                  -6.047
REMARK INTRA:                  -0.293
REMARK UNBOUND:                -0.293
REMARK SMILES O=c1cc(-c2ccc(O)c(O)c2)oc2cc(O)cc(O)c12
REMARK SMILES IDX 4 1 3 2 2 3 1 4 21 5 19 6 18 7 16 8 15 9 14 10 13 11 5 12
REMARK SMILES IDX 6 13 7 14 8 15 12 16 10 17 9 18 11 20 20 22 17 24
REMARK H PARENT 9 19 11 21 20 23 17 25
REMARK Flexibility Score: inf
ROOT
ATOM      1  C   UNL     1      -4.863 -18.253  -6.957  1.00  0.00     0.138 A 
ATOM      2  C   UNL     1      -4.187 -19.335  -6.376  1.00  0.00     0.100 A 
ATOM      3  C   UNL     1      -3.389 -19.125  -5.251  1.00  0.00     0.197 A 
ATOM      4  O   UNL     1      -2.846 -20.125  -4.714  1.00  0.00    -0.289 OA
ATOM      5  C   UNL     1      -3.242 -17.820  -4.725  1.00  0.00     0.107 A 
ATOM      6  C   UNL     1      -2.423 -17.481  -3.607  1.00  0.00     0.134 A 
ATOM      7  C   UNL     1      -2.447 -16.173  -3.105  1.00  0.00     0.093 A 
ATOM      8  C   UNL     1      -3.215 -15.180  -3.718  1.00  0.00     0.123 A 
ATOM      9  C   UNL     1      -3.977 -15.489  -4.842  1.00  0.00     0.094 A 
ATOM     10  C   UNL     1      -4.000 -16.791  -5.346  1.00  0.00     0.146 A 
ATOM     11  O   UNL     1      -4.752 -17.046  -6.412  1.00  0.00    -0.456 OA
ENDROOT
BRANCH   1  12
ATOM     12  C   UNL     1      -5.724 -18.419  -8.156  1.00  0.00     0.021 A 
ATOM     13  C   UNL     1      -5.291 -19.141  -9.282  1.00  0.00     0.016 A 
ATOM     14  C   UNL     1      -6.119 -19.272 -10.398  1.00  0.00     0.051 A 
ATOM     15  C   UNL     1      -7.387 -18.684 -10.422  1.00  0.00     0.157 A 
ATOM     16  C   UNL     1      -6.993 -17.816  -8.186  1.00  0.00     0.062 A 
ATOM     17  C   UNL     1      -7.829 -17.944  -9.302  1.00  0.00     0.158 A 
BRANCH  15  18
ATOM     18  O   UNL     1      -8.165 -18.856 -11.569  1.00  0.00    -0.504 OA
ATOM     19  H   UNL     1      -8.708 -18.121 -11.999  1.00  0.00     0.293 HD
ENDBRANCH  15  18
BRANCH  17  20
ATOM     20  O   UNL     1      -9.080 -17.323  -9.254  1.00  0.00    -0.504 OA
ATOM     21  H   UNL     1      -9.286 -16.435  -9.687  1.00  0.00     0.293 HD
ENDBRANCH  17  20
ENDBRANCH   1  12
BRANCH   6  22
ATOM     22  O   UNL     1      -1.556 -18.376  -2.975  1.00  0.00    -0.507 OA
ATOM     23  H   UNL     1      -1.309 -18.347  -1.996  1.00  0.00     0.293 HD
ENDBRANCH   6  22
BRANCH   8  24
ATOM     24  O   UNL     1      -3.220 -13.879  -3.219  1.00  0.00    -0.508 OA
ATOM     25  H   UNL     1      -2.886 -13.098  -3.771  1.00  0.00     0.293 HD
ENDBRANCH   8  24
TORSDOF 5
ENDMDL
MODEL 2
REMARK VINA RESULT:    -5.045      1.710      1.908
REMARK INTER + INTRA:          -6.222
REMARK INTER:                  -5.906
REMARK INTRA:                  -0.316
REMARK UNBOUND:                -0.293
REMARK SMILES O=c1cc(-c2ccc(O)c(O)c2)oc2cc(O)cc(O)c12
REMARK SMILES IDX 4 1 3 2 2 3 1 4 21 5 19 6 18 7 16 8 15 9 14 10 13 11 5 12
REMARK SMILES IDX 6 13 7 14 8 15 12 16 10 17 9 18 11 20 20 22 17 24
REMARK H PARENT 9 19 11 21 20 23 17 25
REMARK Flexibility Score: inf
ROOT
ATOM      1  C   UNL     1      -5.432 -17.828  -7.164  1.00  0.00     0.138 A 
ATOM      2  C   UNL     1      -4.216 -18.253  -6.612  1.00  0.00     0.100 A 
ATOM      3  C   UNL     1      -3.789 -17.720  -5.395  1.00  0.00     0.197 A 
ATOM      4  O   UNL     1      -2.724 -18.166  -4.893  1.00  0.00    -0.289 OA
ATOM      5  C   UNL     1      -4.568 -16.734  -4.745  1.00  0.00     0.107 A 
ATOM      6  C   UNL     1      -4.211 -16.091  -3.523  1.00  0.00     0.134 A 
ATOM      7  C   UNL     1      -5.118 -15.214  -2.914  1.00  0.00     0.093 A 
ATOM      8  C   UNL     1      -6.341 -14.911  -3.516  1.00  0.00     0.123 A 
ATOM      9  C   UNL     1      -6.676 -15.492  -4.736  1.00  0.00     0.094 A 
ATOM     10  C   UNL     1      -5.808 -16.397  -5.351  1.00  0.00     0.146 A 
ATOM     11  O   UNL     1      -6.172 -16.940  -6.508  1.00  0.00    -0.456 OA
ENDROOT
BRANCH   1  12
ATOM     12  C   UNL     1      -5.935 -18.361  -8.457  1.00  0.00     0.021 A 
ATOM     13  C   UNL     1      -5.103 -19.081  -9.332  1.00  0.00     0.016 A 
ATOM     14  C   UNL     1      -5.600 -19.561 -10.545  1.00  0.00     0.051 A 
ATOM     15  C   UNL     1      -6.928 -19.330 -10.916  1.00  0.00     0.157 A 
ATOM     16  C   UNL     1      -7.265 -18.117  -8.836  1.00  0.00     0.062 A 
ATOM     17  C   UNL     1      -7.772 -18.597 -10.051  1.00  0.00     0.158 A 
BRANCH  15  18
ATOM     18  O   UNL     1      -7.362 -19.841 -12.141  1.00  0.00    -0.504 OA
ATOM     19  H   UNL     1      -7.898 -20.691 -12.240  1.00  0.00     0.293 HD
ENDBRANCH  15  18
BRANCH  17  20
ATOM     20  O   UNL     1      -9.107 -18.321 -10.354  1.00  0.00    -0.504 OA
ATOM     21  H   UNL     1      -9.853 -18.324  -9.672  1.00  0.00     0.293 HD
ENDBRANCH  17  20
ENDBRANCH   1  12
BRANCH   6  22
ATOM     22  O   UNL     1      -2.980 -16.258  -2.883  1.00  0.00    -0.507 OA
ATOM     23  H   UNL     1      -2.429 -15.511  -2.486  1.00  0.00     0.293 HD
ENDBRANCH   6  22
BRANCH   8  24
ATOM     24  O   UNL     1      -7.230 -14.025  -2.909  1.00  0.00    -0.508 OA
ATOM     25  H   UNL     1      -7.533 -13.176  -3.373  1.00  0.00     0.293 HD
ENDBRANCH   8  24
TORSDOF 5
ENDMDL
MODEL 3
REMARK VINA RESULT:    -4.730      2.958      6.702
REMARK INTER + INTRA:          -5.852
REMARK INTER:                  -5.536
REMARK INTRA:                  -0.317
REMARK UNBOUND:                -0.293
REMARK SMILES O=c1cc(-c2ccc(O)c(O)c2)oc2cc(O)cc(O)c12
REMARK SMILES IDX 4 1 3 2 2 3 1 4 21 5 19 6 18 7 16 8 15 9 14 10 13 11 5 12
REMARK SMILES IDX 6 13 7 14 8 15 12 16 10 17 9 18 11 20 20 22 17 24
REMARK H PARENT 9 19 11 21 20 23 17 25
REMARK Flexibility Score: inf
ROOT
ATOM      1  C   UNL     1      -7.255 -17.097  -7.203  1.00  0.00     0.138 A 
ATOM      2  C   UNL     1      -8.252 -17.624  -8.036  1.00  0.00     0.100 A 
ATOM      3  C   UNL     1      -7.896 -18.471  -9.086  1.00  0.00     0.197 A 
ATOM      4  O   UNL     1      -8.818 -18.978  -9.777  1.00  0.00    -0.289 OA
ATOM      5  C   UNL     1      -6.533 -18.766  -9.322  1.00  0.00     0.107 A 
ATOM      6  C   UNL     1      -6.051 -19.584 -10.388  1.00  0.00     0.134 A 
ATOM      7  C   UNL     1      -4.688 -19.900 -10.452  1.00  0.00     0.093 A 
ATOM      8  C   UNL     1      -3.782 -19.377  -9.526  1.00  0.00     0.123 A 
ATOM      9  C   UNL     1      -4.235 -18.535  -8.514  1.00  0.00     0.094 A 
ATOM     10  C   UNL     1      -5.593 -18.228  -8.402  1.00  0.00     0.146 A 
ATOM     11  O   UNL     1      -5.986 -17.432  -7.413  1.00  0.00    -0.456 OA
ENDROOT
BRANCH   1  12
ATOM     12  C   UNL     1      -7.576 -16.189  -6.072  1.00  0.00     0.021 A 
ATOM     13  C   UNL     1      -8.850 -15.613  -5.927  1.00  0.00     0.016 A 
ATOM     14  C   UNL     1      -9.121 -14.756  -4.859  1.00  0.00     0.051 A 
ATOM     15  C   UNL     1      -8.132 -14.448  -3.920  1.00  0.00     0.157 A 
ATOM     16  C   UNL     1      -6.579 -15.869  -5.137  1.00  0.00     0.062 A 
ATOM     17  C   UNL     1      -6.843 -15.010  -4.062  1.00  0.00     0.158 A 
BRANCH  15  18
ATOM     18  O   UNL     1      -8.470 -13.586  -2.875  1.00  0.00    -0.504 OA
ATOM     19  H   UNL     1      -8.418 -12.579  -2.935  1.00  0.00     0.293 HD
ENDBRANCH  15  18
BRANCH  17  20
ATOM     20  O   UNL     1      -5.802 -14.746  -3.168  1.00  0.00    -0.504 OA
ATOM     21  H   UNL     1      -4.885 -14.429  -3.448  1.00  0.00     0.293 HD
ENDBRANCH  17  20
ENDBRANCH   1  12
BRANCH   6  22
ATOM     22  O   UNL     1      -6.857 -20.087 -11.412  1.00  0.00    -0.507 OA
ATOM     23  H   UNL     1      -7.288 -19.529 -12.135  1.00  0.00     0.293 HD
ENDBRANCH   6  22
BRANCH   8  24
ATOM     24  O   UNL     1      -2.425 -19.685  -9.608  1.00  0.00    -0.508 OA
ATOM     25  H   UNL     1      -1.845 -19.752  -8.780  1.00  0.00     0.293 HD
ENDBRANCH   8  24
TORSDOF 5
ENDMDL
MODEL 4
REMARK VINA RESULT:    -4.524      1.884      3.121
REMARK INTER + INTRA:          -5.610
REMARK INTER:                  -5.315
REMARK INTRA:                  -0.295
REMARK UNBOUND:                -0.293
REMARK SMILES O=c1cc(-c2ccc(O)c(O)c2)oc2cc(O)cc(O)c12
REMARK SMILES IDX 4 1 3 2 2 3 1 4 21 5 19 6 18 7 16 8 15 9 14 10 13 11 5 12
REMARK SMILES IDX 6 13 7 14 8 15 12 16 10 17 9 18 11 20 20 22 17 24
REMARK H PARENT 9 19 11 21 20 23 17 25
REMARK Flexibility Score: inf
ROOT
ATOM      1  C   UNL     1      -6.260 -17.237  -7.315  1.00  0.00     0.138 A 
ATOM      2  C   UNL     1      -7.408 -16.620  -6.798  1.00  0.00     0.100 A 
ATOM      3  C   UNL     1      -7.331 -15.919  -5.594  1.00  0.00     0.197 A 
ATOM      4  O   UNL     1      -8.362 -15.324  -5.186  1.00  0.00    -0.289 OA
ATOM      5  C   UNL     1      -6.105 -15.863  -4.888  1.00  0.00     0.107 A 
ATOM      6  C   UNL     1      -5.919 -15.213  -3.632  1.00  0.00     0.134 A 
ATOM      7  C   UNL     1      -4.632 -15.123  -3.086  1.00  0.00     0.093 A 
ATOM      8  C   UNL     1      -3.537 -15.713  -3.721  1.00  0.00     0.123 A 
ATOM      9  C   UNL     1      -3.717 -16.397  -4.921  1.00  0.00     0.094 A 
ATOM     10  C   UNL     1      -4.982 -16.474  -5.509  1.00  0.00     0.146 A 
ATOM     11  O   UNL     1      -5.108 -17.124  -6.661  1.00  0.00    -0.456 OA
ENDROOT
BRANCH   1  12
ATOM     12  C   UNL     1      -6.286 -17.996  -8.591  1.00  0.00     0.021 A 
ATOM     13  C   UNL     1      -5.144 -18.652  -9.084  1.00  0.00     0.016 A 
ATOM     14  C   UNL     1      -5.195 -19.350 -10.292  1.00  0.00     0.051 A 
ATOM     15  C   UNL     1      -6.377 -19.404 -11.037  1.00  0.00     0.157 A 
ATOM     16  C   UNL     1      -7.469 -18.039  -9.347  1.00  0.00     0.062 A 
ATOM     17  C   UNL     1      -7.529 -18.739 -10.560  1.00  0.00     0.158 A 
BRANCH  15  18
ATOM     18  O   UNL     1      -6.360 -20.122 -12.234  1.00  0.00    -0.504 OA
ATOM     19  H   UNL     1      -5.516 -20.400 -12.714  1.00  0.00     0.293 HD
ENDBRANCH  15  18
BRANCH  17  20
ATOM     20  O   UNL     1      -8.743 -18.743 -11.250  1.00  0.00    -0.504 OA
ATOM     21  H   UNL     1      -9.632 -18.968 -10.826  1.00  0.00     0.293 HD
ENDBRANCH  17  20
ENDBRANCH   1  12
BRANCH   6  22
ATOM     22  O   UNL     1      -6.957 -14.664  -2.875  1.00  0.00    -0.507 OA
ATOM     23  H   UNL     1      -6.964 -14.596  -1.868  1.00  0.00     0.293 HD
ENDBRANCH   6  22
BRANCH   8  24
ATOM     24  O   UNL     1      -2.263 -15.632  -3.161  1.00  0.00    -0.508 OA
ATOM     25  H   UNL     1      -1.774 -16.456  -2.833  1.00  0.00     0.293 HD
ENDBRANCH   8  24
TORSDOF 5
ENDMDL
MODEL 5
REMARK VINA RESULT:    -3.035      2.256      2.919
REMARK INTER + INTRA:          -3.859
REMARK INTER:                  -3.542
REMARK INTRA:                  -0.317
REMARK UNBOUND:                -0.293
REMARK SMILES O=c1cc(-c2ccc(O)c(O)c2)oc2cc(O)cc(O)c12
REMARK SMILES IDX 4 1 3 2 2 3 1 4 21 5 19 6 18 7 16 8 15 9 14 10 13 11 5 12
REMARK SMILES IDX 6 13 7 14 8 15 12 16 10 17 9 18 11 20 20 22 17 24
REMARK H PARENT 9 19 11 21 20 23 17 25
REMARK Flexibility Score: inf
ROOT
ATOM      1  C   UNL     1      -7.142 -18.678  -7.923  1.00  0.00     0.138 A 
ATOM      2  C   UNL     1      -7.638 -19.486  -6.891  1.00  0.00     0.100 A 
ATOM      3  C   UNL     1      -7.199 -19.278  -5.582  1.00  0.00     0.197 A 
ATOM      4  O   UNL     1      -7.709 -19.977  -4.668  1.00  0.00    -0.289 OA
ATOM      5  C   UNL     1      -6.235 -18.278  -5.313  1.00  0.00     0.107 A 
ATOM      6  C   UNL     1      -5.685 -18.005  -4.025  1.00  0.00     0.134 A 
ATOM      7  C   UNL     1      -4.824 -16.913  -3.860  1.00  0.00     0.093 A 
ATOM      8  C   UNL     1      -4.446 -16.123  -4.948  1.00  0.00     0.123 A 
ATOM      9  C   UNL     1      -4.936 -16.414  -6.219  1.00  0.00     0.094 A 
ATOM     10  C   UNL     1      -5.823 -17.475  -6.410  1.00  0.00     0.146 A 
ATOM     11  O   UNL     1      -6.278 -17.710  -7.636  1.00  0.00    -0.456 OA
ENDROOT
BRANCH   1  12
ATOM     12  C   UNL     1      -7.573 -18.856  -9.334  1.00  0.00     0.021 A 
ATOM     13  C   UNL     1      -8.312 -19.980  -9.744  1.00  0.00     0.016 A 
ATOM     14  C   UNL     1      -8.695 -20.125 -11.079  1.00  0.00     0.051 A 
ATOM     15  C   UNL     1      -8.346 -19.163 -12.032  1.00  0.00     0.157 A 
ATOM     16  C   UNL     1      -7.211 -17.898 -10.294  1.00  0.00     0.062 A 
ATOM     17  C   UNL     1      -7.592 -18.036 -11.635  1.00  0.00     0.158 A 
BRANCH  15  18
ATOM     18  O   UNL     1      -8.764 -19.369 -13.348  1.00  0.00    -0.504 OA
ATOM     19  H   UNL     1      -9.123 -18.639 -13.947  1.00  0.00     0.293 HD
ENDBRANCH  15  18
BRANCH  17  20
ATOM     20  O   UNL     1      -7.201 -17.037 -12.530  1.00  0.00    -0.504 OA
ATOM     21  H   UNL     1      -6.320 -16.547 -12.480  1.00  0.00     0.293 HD
ENDBRANCH  17  20
ENDBRANCH   1  12
BRANCH   6  22
ATOM     22  O   UNL     1      -5.930 -18.783  -2.890  1.00  0.00    -0.507 OA
ATOM     23  H   UNL     1      -6.609 -18.564  -2.176  1.00  0.00     0.293 HD
ENDBRANCH   6  22
BRANCH   8  24
ATOM     24  O   UNL     1      -3.576 -15.047  -4.776  1.00  0.00    -0.508 OA
ATOM     25  H   UNL     1      -2.758 -14.928  -5.361  1.00  0.00     0.293 HD
ENDBRANCH   8  24
TORSDOF 5
ENDMDL
