MODEL 1
REMARK VINA RESULT:     4.365      0.000      0.000
REMARK INTER + INTRA:           9.416
REMARK INTER:                  11.511
REMARK INTRA:                  -2.095
REMARK UNBOUND:                -2.095
REMARK SMILES CCCCCCCCCCCCCCCCCCCCCCCCCCCCCC(=O)[O-]
REMARK SMILES IDX 16 1 17 2 18 3 19 4 20 5 21 6 22 7 23 8 24 9 25 10 26 11
REMARK SMILES IDX 27 12 28 13 29 14 30 15 31 16 32 17 15 18 14 19 13 20 12 21
REMARK SMILES IDX 11 22 10 23 9 24 8 25 7 26 6 27 5 28 4 29 3 30 2 31 1 32
REMARK H PARENT
REMARK Flexibility Score: inf
ROOT
ATOM      1  C   UNL     1       1.217  31.971  28.999  1.00  0.00     0.000 C 
ENDROOT
BRANCH   1   2
ATOM      2  C   UNL     1       0.230  33.098  28.636  1.00  0.00     0.000 C 
BRANCH   2   3
ATOM      3  C   UNL     1      -1.222  32.874  29.105  1.00  0.00     0.000 C 
BRANCH   3   4
ATOM      4  C   UNL     1      -2.297  33.114  28.026  1.00  0.00     0.000 C 
BRANCH   4   5
ATOM      5  C   UNL     1      -3.493  32.141  28.073  1.00  0.00     0.000 C 
BRANCH   5   6
ATOM      6  C   UNL     1      -4.182  31.883  26.719  1.00  0.00     0.000 C 
BRANCH   6   7
ATOM      7  C   UNL     1      -3.863  32.909  25.617  1.00  0.00     0.000 C 
BRANCH   7   8
ATOM      8  C   UNL     1      -2.929  32.347  24.531  1.00  0.00     0.000 C 
BRANCH   8   9
ATOM      9  C   UNL     1      -2.252  31.035  24.958  1.00  0.00     0.000 C 
BRANCH   9  10
ATOM     10  C   UNL     1      -0.899  31.260  25.651  1.00  0.00     0.000 C 
BRANCH  10  11
ATOM     11  C   UNL     1       0.151  30.265  25.134  1.00  0.00     0.000 C 
BRANCH  11  12
ATOM     12  C   UNL     1       1.260  30.940  24.311  1.00  0.00     0.000 C 
BRANCH  12  13
ATOM     13  C   UNL     1       1.031  30.824  22.797  1.00  0.00     0.006 C 
BRANCH  13  14
ATOM     14  C   UNL     1       1.231  29.381  22.323  1.00  0.00     0.053 C 
BRANCH  14  15
ATOM     15  C   UNL     1       1.303  29.317  20.830  1.00  0.00     0.041 C 
ATOM     16  O   UNL     1       2.385  29.013  20.260  1.00  0.00    -0.550 OA
ATOM     17  O   UNL     1       0.181  29.617  20.064  1.00  0.00    -0.550 OA
ENDBRANCH  14  15
ENDBRANCH  13  14
ENDBRANCH  12  13
ENDBRANCH  11  12
ENDBRANCH  10  11
ENDBRANCH   9  10
ENDBRANCH   8   9
ENDBRANCH   7   8
ENDBRANCH   6   7
ENDBRANCH   5   6
ENDBRANCH   4   5
ENDBRANCH   3   4
ENDBRANCH   2   3
ENDBRANCH   1   2
BRANCH   1  18
ATOM     18  C   UNL     1       2.543  31.983  28.218  1.00  0.00     0.000 C 
BRANCH  18  19
ATOM     19  C   UNL     1       3.309  30.653  28.322  1.00  0.00     0.000 C 
BRANCH  19  20
ATOM     20  C   UNL     1       2.401  29.465  28.688  1.00  0.00     0.000 C 
BRANCH  20  21
ATOM     21  C   UNL     1       2.452  28.272  27.714  1.00  0.00     0.000 C 
BRANCH  21  22
ATOM     22  C   UNL     1       2.420  26.882  28.382  1.00  0.00     0.000 C 
BRANCH  22  23
ATOM     23  C   UNL     1       1.104  26.100  28.197  1.00  0.00     0.000 C 
BRANCH  23  24
ATOM     24  C   UNL     1       1.221  24.576  28.382  1.00  0.00    -0.000 C 
BRANCH  24  25
ATOM     25  C   UNL     1       0.386  23.785  27.364  1.00  0.00    -0.000 C 
BRANCH  25  26
ATOM     26  C   UNL     1      -0.287  22.577  28.033  1.00  0.00    -0.000 C 
BRANCH  26  27
ATOM     27  C   UNL     1      -1.103  21.728  27.045  1.00  0.00    -0.000 C 
BRANCH  27  28
ATOM     28  C   UNL     1      -2.610  22.031  27.113  1.00  0.00    -0.000 C 
BRANCH  28  29
ATOM     29  C   UNL     1      -3.466  20.766  27.300  1.00  0.00    -0.000 C 
BRANCH  29  30
ATOM     30  C   UNL     1      -4.939  21.017  27.686  1.00  0.00    -0.000 C 
BRANCH  30  31
ATOM     31  C   UNL     1      -5.808  19.751  27.797  1.00  0.00    -0.003 C 
ATOM     32  C   UNL     1      -5.082  18.489  27.334  1.00  0.00     0.004 C 
ENDBRANCH  30  31
ENDBRANCH  29  30
ENDBRANCH  28  29
ENDBRANCH  27  28
ENDBRANCH  26  27
ENDBRANCH  25  26
ENDBRANCH  24  25
ENDBRANCH  23  24
ENDBRANCH  22  23
ENDBRANCH  21  22
ENDBRANCH  20  21
ENDBRANCH  19  20
ENDBRANCH  18  19
ENDBRANCH   1  18
TORSDOF 28
ENDMDL
MODEL 2
REMARK VINA RESULT:     4.759      1.378      2.619
REMARK INTER + INTRA:          10.454
REMARK INTER:                  12.637
REMARK INTRA:                  -2.183
REMARK UNBOUND:                -2.095
REMARK SMILES CCCCCCCCCCCCCCCCCCCCCCCCCCCCCC(=O)[O-]
REMARK SMILES IDX 16 1 17 2 18 3 19 4 20 5 21 6 22 7 23 8 24 9 25 10 26 11
REMARK SMILES IDX 27 12 28 13 29 14 30 15 31 16 32 17 15 18 14 19 13 20 12 21
REMARK SMILES IDX 11 22 10 23 9 24 8 25 7 26 6 27 5 28 4 29 3 30 2 31 1 32
REMARK H PARENT
REMARK Flexibility Score: inf
ROOT
ATOM      1  C   UNL     1       2.652  30.363  27.417  1.00  0.00     0.000 C 
ENDROOT
BRANCH   1   2
ATOM      2  C   UNL     1       1.866  31.652  27.102  1.00  0.00     0.000 C 
BRANCH   2   3
ATOM      3  C   UNL     1       1.826  32.690  28.241  1.00  0.00     0.000 C 
BRANCH   3   4
ATOM      4  C   UNL     1       0.486  32.768  29.001  1.00  0.00     0.000 C 
BRANCH   4   5
ATOM      5  C   UNL     1      -0.767  32.829  28.105  1.00  0.00     0.000 C 
BRANCH   5   6
ATOM      6  C   UNL     1      -2.087  33.124  28.843  1.00  0.00     0.000 C 
BRANCH   6   7
ATOM      7  C   UNL     1      -3.027  31.916  29.009  1.00  0.00     0.000 C 
BRANCH   7   8
ATOM      8  C   UNL     1      -3.946  31.704  27.794  1.00  0.00     0.000 C 
BRANCH   8   9
ATOM      9  C   UNL     1      -3.886  30.265  27.254  1.00  0.00     0.000 C 
BRANCH   9  10
ATOM     10  C   UNL     1      -3.150  30.164  25.909  1.00  0.00     0.000 C 
BRANCH  10  11
ATOM     11  C   UNL     1      -2.930  31.558  25.301  1.00  0.00     0.000 C 
BRANCH  11  12
ATOM     12  C   UNL     1      -1.499  31.763  24.780  1.00  0.00     0.000 C 
BRANCH  12  13
ATOM     13  C   UNL     1      -0.811  30.445  24.395  1.00  0.00     0.006 C 
BRANCH  13  14
ATOM     14  C   UNL     1       0.667  30.676  24.063  1.00  0.00     0.053 C 
BRANCH  14  15
ATOM     15  C   UNL     1       0.980  30.204  22.678  1.00  0.00     0.041 C 
ATOM     16  O   UNL     1       1.590  30.960  21.875  1.00  0.00    -0.550 OA
ATOM     17  O   UNL     1       0.578  28.939  22.264  1.00  0.00    -0.550 OA
ENDBRANCH  14  15
ENDBRANCH  13  14
ENDBRANCH  12  13
ENDBRANCH  11  12
ENDBRANCH  10  11
ENDBRANCH   9  10
ENDBRANCH   8   9
ENDBRANCH   7   8
ENDBRANCH   6   7
ENDBRANCH   5   6
ENDBRANCH   4   5
ENDBRANCH   3   4
ENDBRANCH   2   3
ENDBRANCH   1   2
BRANCH   1  18
ATOM     18  C   UNL     1       1.789  29.119  27.691  1.00  0.00     0.000 C 
BRANCH  18  19
ATOM     19  C   UNL     1       2.625  27.887  28.080  1.00  0.00     0.000 C 
BRANCH  19  20
ATOM     20  C   UNL     1       2.776  26.876  26.929  1.00  0.00     0.000 C 
BRANCH  20  21
ATOM     21  C   UNL     1       3.265  25.475  27.344  1.00  0.00     0.000 C 
BRANCH  21  22
ATOM     22  C   UNL     1       3.234  24.414  26.225  1.00  0.00     0.000 C 
BRANCH  22  23
ATOM     23  C   UNL     1       2.400  23.157  26.541  1.00  0.00     0.000 C 
BRANCH  23  24
ATOM     24  C   UNL     1       0.875  23.366  26.523  1.00  0.00    -0.000 C 
BRANCH  24  25
ATOM     25  C   UNL     1       0.097  22.149  27.046  1.00  0.00    -0.000 C 
BRANCH  25  26
ATOM     26  C   UNL     1      -1.380  22.229  26.637  1.00  0.00    -0.000 C 
BRANCH  26  27
ATOM     27  C   UNL     1      -2.338  21.992  27.816  1.00  0.00    -0.000 C 
BRANCH  27  28
ATOM     28  C   UNL     1      -3.811  21.935  27.376  1.00  0.00    -0.000 C 
BRANCH  28  29
ATOM     29  C   UNL     1      -4.341  20.496  27.248  1.00  0.00    -0.000 C 
BRANCH  29  30
ATOM     30  C   UNL     1      -5.602  20.180  28.080  1.00  0.00    -0.000 C 
BRANCH  30  31
ATOM     31  C   UNL     1      -5.734  18.715  28.531  1.00  0.00    -0.003 C 
ATOM     32  C   UNL     1      -5.999  17.756  27.371  1.00  0.00     0.004 C 
ENDBRANCH  30  31
ENDBRANCH  29  30
ENDBRANCH  28  29
ENDBRANCH  27  28
ENDBRANCH  26  27
ENDBRANCH  25  26
ENDBRANCH  24  25
ENDBRANCH  23  24
ENDBRANCH  22  23
ENDBRANCH  21  22
ENDBRANCH  20  21
ENDBRANCH  19  20
ENDBRANCH  18  19
ENDBRANCH   1  18
TORSDOF 28
ENDMDL
MODEL 3
REMARK VINA RESULT:     5.027     11.207     15.190
REMARK INTER + INTRA:          11.160
REMARK INTER:                  12.200
REMARK INTRA:                  -1.040
REMARK UNBOUND:                -2.095
REMARK SMILES CCCCCCCCCCCCCCCCCCCCCCCCCCCCCC(=O)[O-]
REMARK SMILES IDX 16 1 17 2 18 3 19 4 20 5 21 6 22 7 23 8 24 9 25 10 26 11
REMARK SMILES IDX 27 12 28 13 29 14 30 15 31 16 32 17 15 18 14 19 13 20 12 21
REMARK SMILES IDX 11 22 10 23 9 24 8 25 7 26 6 27 5 28 4 29 3 30 2 31 1 32
REMARK H PARENT
REMARK Flexibility Score: inf
ROOT
ATOM      1  C   UNL     1       7.568  18.646  23.521  1.00  0.00     0.000 C 
ENDROOT
BRANCH   1   2
ATOM      2  C   UNL     1       7.001  17.692  22.450  1.00  0.00     0.000 C 
BRANCH   2   3
ATOM      3  C   UNL     1       5.463  17.601  22.401  1.00  0.00     0.000 C 
BRANCH   3   4
ATOM      4  C   UNL     1       4.900  16.725  21.264  1.00  0.00     0.000 C 
BRANCH   4   5
ATOM      5  C   UNL     1       5.903  16.396  20.140  1.00  0.00     0.000 C 
BRANCH   5   6
ATOM      6  C   UNL     1       5.919  14.923  19.686  1.00  0.00     0.000 C 
BRANCH   6   7
ATOM      7  C   UNL     1       5.312  14.661  18.295  1.00  0.00     0.000 C 
BRANCH   7   8
ATOM      8  C   UNL     1       5.918  13.429  17.602  1.00  0.00     0.000 C 
BRANCH   8   9
ATOM      9  C   UNL     1       7.248  13.745  16.898  1.00  0.00     0.000 C 
BRANCH   9  10
ATOM     10  C   UNL     1       7.155  13.630  15.368  1.00  0.00     0.000 C 
BRANCH  10  11
ATOM     11  C   UNL     1       5.777  14.092  14.870  1.00  0.00     0.000 C 
BRANCH  11  12
ATOM     12  C   UNL     1       5.297  13.312  13.635  1.00  0.00     0.000 C 
BRANCH  12  13
ATOM     13  C   UNL     1       4.058  13.942  12.980  1.00  0.00     0.006 C 
BRANCH  13  14
ATOM     14  C   UNL     1       3.582  13.101  11.790  1.00  0.00     0.053 C 
BRANCH  14  15
ATOM     15  C   UNL     1       4.072  13.681  10.500  1.00  0.00     0.041 C 
ATOM     16  O   UNL     1       3.262  14.229   9.705  1.00  0.00    -0.550 OA
ATOM     17  O   UNL     1       5.418  13.597  10.164  1.00  0.00    -0.550 OA
ENDBRANCH  14  15
ENDBRANCH  13  14
ENDBRANCH  12  13
ENDBRANCH  11  12
ENDBRANCH  10  11
ENDBRANCH   9  10
ENDBRANCH   8   9
ENDBRANCH   7   8
ENDBRANCH   6   7
ENDBRANCH   5   6
ENDBRANCH   4   5
ENDBRANCH   3   4
ENDBRANCH   2   3
ENDBRANCH   1   2
BRANCH   1  18
ATOM     18  C   UNL     1       7.366  18.191  24.977  1.00  0.00     0.000 C 
BRANCH  18  19
ATOM     19  C   UNL     1       5.889  18.211  25.409  1.00  0.00     0.000 C 
BRANCH  19  20
ATOM     20  C   UNL     1       5.273  19.621  25.373  1.00  0.00     0.000 C 
BRANCH  20  21
ATOM     21  C   UNL     1       4.692  20.120  26.711  1.00  0.00     0.000 C 
BRANCH  21  22
ATOM     22  C   UNL     1       4.839  21.634  26.962  1.00  0.00     0.000 C 
BRANCH  22  23
ATOM     23  C   UNL     1       4.090  22.536  25.960  1.00  0.00     0.000 C 
BRANCH  23  24
ATOM     24  C   UNL     1       3.847  23.979  26.439  1.00  0.00    -0.000 C 
BRANCH  24  25
ATOM     25  C   UNL     1       2.376  24.405  26.330  1.00  0.00    -0.000 C 
BRANCH  25  26
ATOM     26  C   UNL     1       1.443  23.210  26.574  1.00  0.00    -0.000 C 
BRANCH  26  27
ATOM     27  C   UNL     1       0.519  23.414  27.785  1.00  0.00    -0.000 C 
BRANCH  27  28
ATOM     28  C   UNL     1      -0.672  22.440  27.790  1.00  0.00    -0.000 C 
BRANCH  28  29
ATOM     29  C   UNL     1      -1.117  22.034  26.373  1.00  0.00    -0.000 C 
BRANCH  29  30
ATOM     30  C   UNL     1      -2.110  20.855  26.307  1.00  0.00    -0.000 C 
BRANCH  30  31
ATOM     31  C   UNL     1      -3.596  21.257  26.277  1.00  0.00    -0.003 C 
ATOM     32  C   UNL     1      -4.231  21.295  27.666  1.00  0.00     0.004 C 
ENDBRANCH  30  31
ENDBRANCH  29  30
ENDBRANCH  28  29
ENDBRANCH  27  28
ENDBRANCH  26  27
ENDBRANCH  25  26
ENDBRANCH  24  25
ENDBRANCH  23  24
ENDBRANCH  22  23
ENDBRANCH  21  22
ENDBRANCH  20  21
ENDBRANCH  19  20
ENDBRANCH  18  19
ENDBRANCH   1  18
TORSDOF 28
ENDMDL
MODEL 4
REMARK VINA RESULT:     5.153     12.754     17.759
REMARK INTER + INTRA:          11.493
REMARK INTER:                  12.881
REMARK INTRA:                  -1.389
REMARK UNBOUND:                -2.095
REMARK SMILES CCCCCCCCCCCCCCCCCCCCCCCCCCCCCC(=O)[O-]
REMARK SMILES IDX 16 1 17 2 18 3 19 4 20 5 21 6 22 7 23 8 24 9 25 10 26 11
REMARK SMILES IDX 27 12 28 13 29 14 30 15 31 16 32 17 15 18 14 19 13 20 12 21
REMARK SMILES IDX 11 22 10 23 9 24 8 25 7 26 6 27 5 28 4 29 3 30 2 31 1 32
REMARK H PARENT
REMARK Flexibility Score: inf
ROOT
ATOM      1  C   UNL     1       7.702  13.663  15.999  1.00  0.00     0.000 C 
ENDROOT
BRANCH   1   2
ATOM      2  C   UNL     1       7.071  14.080  14.656  1.00  0.00     0.000 C 
BRANCH   2   3
ATOM      3  C   UNL     1       5.591  13.688  14.477  1.00  0.00     0.000 C 
BRANCH   3   4
ATOM      4  C   UNL     1       5.046  13.843  13.043  1.00  0.00     0.000 C 
BRANCH   4   5
ATOM      5  C   UNL     1       3.544  13.534  12.881  1.00  0.00     0.000 C 
BRANCH   5   6
ATOM      6  C   UNL     1       2.592  14.533  13.567  1.00  0.00     0.000 C 
BRANCH   6   7
ATOM      7  C   UNL     1       2.429  14.344  15.086  1.00  0.00     0.000 C 
BRANCH   7   8
ATOM      8  C   UNL     1       1.643  13.072  15.448  1.00  0.00     0.000 C 
BRANCH   8   9
ATOM      9  C   UNL     1       0.238  13.051  14.825  1.00  0.00     0.000 C 
BRANCH   9  10
ATOM     10  C   UNL     1      -0.633  14.234  15.278  1.00  0.00     0.000 C 
BRANCH  10  11
ATOM     11  C   UNL     1      -2.125  13.877  15.191  1.00  0.00     0.000 C 
BRANCH  11  12
ATOM     12  C   UNL     1      -3.014  14.821  16.017  1.00  0.00     0.000 C 
BRANCH  12  13
ATOM     13  C   UNL     1      -2.514  14.997  17.459  1.00  0.00     0.006 C 
BRANCH  13  14
ATOM     14  C   UNL     1      -2.423  16.481  17.829  1.00  0.00     0.053 C 
BRANCH  14  15
ATOM     15  C   UNL     1      -3.192  17.318  16.855  1.00  0.00     0.041 C 
ATOM     16  O   UNL     1      -2.591  17.916  15.922  1.00  0.00    -0.550 OA
ATOM     17  O   UNL     1      -4.569  17.459  16.990  1.00  0.00    -0.550 OA
ENDBRANCH  14  15
ENDBRANCH  13  14
ENDBRANCH  12  13
ENDBRANCH  11  12
ENDBRANCH  10  11
ENDBRANCH   9  10
ENDBRANCH   8   9
ENDBRANCH   7   8
ENDBRANCH   6   7
ENDBRANCH   5   6
ENDBRANCH   4   5
ENDBRANCH   3   4
ENDBRANCH   2   3
ENDBRANCH   1   2
BRANCH   1  18
ATOM     18  C   UNL     1       6.729  13.039  17.015  1.00  0.00     0.000 C 
BRANCH  18  19
ATOM     19  C   UNL     1       5.813  14.081  17.681  1.00  0.00     0.000 C 
BRANCH  19  20
ATOM     20  C   UNL     1       5.970  14.127  19.212  1.00  0.00     0.000 C 
BRANCH  20  21
ATOM     21  C   UNL     1       5.194  15.256  19.919  1.00  0.00     0.000 C 
BRANCH  21  22
ATOM     22  C   UNL     1       5.565  16.684  19.469  1.00  0.00     0.000 C 
BRANCH  22  23
ATOM     23  C   UNL     1       6.388  17.495  20.491  1.00  0.00     0.000 C 
BRANCH  23  24
ATOM     24  C   UNL     1       6.186  17.086  21.961  1.00  0.00    -0.000 C 
BRANCH  24  25
ATOM     25  C   UNL     1       4.979  17.777  22.614  1.00  0.00    -0.000 C 
BRANCH  25  26
ATOM     26  C   UNL     1       5.307  19.238  22.955  1.00  0.00    -0.000 C 
BRANCH  26  27
ATOM     27  C   UNL     1       5.400  19.489  24.468  1.00  0.00    -0.000 C 
BRANCH  27  28
ATOM     28  C   UNL     1       5.808  18.229  25.251  1.00  0.00    -0.000 C 
BRANCH  28  29
ATOM     29  C   UNL     1       7.068  18.441  26.110  1.00  0.00    -0.000 C 
BRANCH  29  30
ATOM     30  C   UNL     1       8.253  17.508  25.784  1.00  0.00    -0.000 C 
BRANCH  30  31
ATOM     31  C   UNL     1       8.484  17.247  24.285  1.00  0.00    -0.003 C 
ATOM     32  C   UNL     1       8.915  18.500  23.523  1.00  0.00     0.004 C 
ENDBRANCH  30  31
ENDBRANCH  29  30
ENDBRANCH  28  29
ENDBRANCH  27  28
ENDBRANCH  26  27
ENDBRANCH  25  26
ENDBRANCH  24  25
ENDBRANCH  23  24
ENDBRANCH  22  23
ENDBRANCH  21  22
ENDBRANCH  20  21
ENDBRANCH  19  20
ENDBRANCH  18  19
ENDBRANCH   1  18
TORSDOF 28
ENDMDL
MODEL 5
REMARK VINA RESULT:     5.334      9.649     13.636
REMARK INTER + INTRA:          11.970
REMARK INTER:                  13.246
REMARK INTRA:                  -1.276
REMARK UNBOUND:                -2.095
REMARK SMILES CCCCCCCCCCCCCCCCCCCCCCCCCCCCCC(=O)[O-]
REMARK SMILES IDX 16 1 17 2 18 3 19 4 20 5 21 6 22 7 23 8 24 9 25 10 26 11
REMARK SMILES IDX 27 12 28 13 29 14 30 15 31 16 32 17 15 18 14 19 13 20 12 21
REMARK SMILES IDX 11 22 10 23 9 24 8 25 7 26 6 27 5 28 4 29 3 30 2 31 1 32
REMARK H PARENT
REMARK Flexibility Score: inf
ROOT
ATOM      1  C   UNL     1       5.443  20.131  26.427  1.00  0.00     0.000 C 
ENDROOT
BRANCH   1   2
ATOM      2  C   UNL     1       5.035  19.509  25.076  1.00  0.00     0.000 C 
BRANCH   2   3
ATOM      3  C   UNL     1       6.202  18.984  24.217  1.00  0.00     0.000 C 
BRANCH   3   4
ATOM      4  C   UNL     1       5.913  17.672  23.459  1.00  0.00     0.000 C 
BRANCH   4   5
ATOM      5  C   UNL     1       7.059  17.179  22.554  1.00  0.00     0.000 C 
BRANCH   5   6
ATOM      6  C   UNL     1       6.690  16.995  21.069  1.00  0.00     0.000 C 
BRANCH   6   7
ATOM      7  C   UNL     1       5.214  16.649  20.801  1.00  0.00     0.000 C 
BRANCH   7   8
ATOM      8  C   UNL     1       4.980  16.088  19.388  1.00  0.00     0.000 C 
BRANCH   8   9
ATOM      9  C   UNL     1       5.915  14.912  19.059  1.00  0.00     0.000 C 
BRANCH   9  10
ATOM     10  C   UNL     1       5.563  14.223  17.732  1.00  0.00     0.000 C 
BRANCH  10  11
ATOM     11  C   UNL     1       6.789  13.503  17.149  1.00  0.00     0.000 C 
BRANCH  11  12
ATOM     12  C   UNL     1       6.843  13.563  15.614  1.00  0.00     0.000 C 
BRANCH  12  13
ATOM     13  C   UNL     1       5.609  14.242  15.002  1.00  0.00     0.006 C 
BRANCH  13  14
ATOM     14  C   UNL     1       5.300  13.666  13.615  1.00  0.00     0.053 C 
BRANCH  14  15
ATOM     15  C   UNL     1       3.831  13.712  13.337  1.00  0.00     0.041 C 
ATOM     16  O   UNL     1       3.051  14.288  14.143  1.00  0.00    -0.550 OA
ATOM     17  O   UNL     1       3.316  13.099  12.200  1.00  0.00    -0.550 OA
ENDBRANCH  14  15
ENDBRANCH  13  14
ENDBRANCH  12  13
ENDBRANCH  11  12
ENDBRANCH  10  11
ENDBRANCH   9  10
ENDBRANCH   8   9
ENDBRANCH   7   8
ENDBRANCH   6   7
ENDBRANCH   5   6
ENDBRANCH   4   5
ENDBRANCH   3   4
ENDBRANCH   2   3
ENDBRANCH   1   2
BRANCH   1  18
ATOM     18  C   UNL     1       4.529  21.262  26.931  1.00  0.00     0.000 C 
BRANCH  18  19
ATOM     19  C   UNL     1       4.387  22.411  25.917  1.00  0.00     0.000 C 
BRANCH  19  20
ATOM     20  C   UNL     1       3.666  23.640  26.500  1.00  0.00     0.000 C 
BRANCH  20  21
ATOM     21  C   UNL     1       2.177  23.769  26.124  1.00  0.00     0.000 C 
BRANCH  21  22
ATOM     22  C   UNL     1       1.186  23.431  27.256  1.00  0.00     0.000 C 
BRANCH  22  23
ATOM     23  C   UNL     1      -0.249  23.111  26.791  1.00  0.00     0.000 C 
BRANCH  23  24
ATOM     24  C   UNL     1      -0.971  22.024  27.609  1.00  0.00    -0.000 C 
BRANCH  24  25
ATOM     25  C   UNL     1      -1.263  20.756  26.792  1.00  0.00    -0.000 C 
BRANCH  25  26
ATOM     26  C   UNL     1      -2.717  20.749  26.299  1.00  0.00    -0.000 C 
BRANCH  26  27
ATOM     27  C   UNL     1      -3.551  21.899  26.887  1.00  0.00    -0.000 C 
BRANCH  27  28
ATOM     28  C   UNL     1      -4.509  21.426  27.994  1.00  0.00    -0.000 C 
BRANCH  28  29
ATOM     29  C   UNL     1      -5.628  20.511  27.466  1.00  0.00    -0.000 C 
BRANCH  29  30
ATOM     30  C   UNL     1      -5.869  19.225  28.283  1.00  0.00    -0.000 C 
BRANCH  30  31
ATOM     31  C   UNL     1      -5.826  17.919  27.469  1.00  0.00    -0.003 C 
ATOM     32  C   UNL     1      -5.740  16.673  28.348  1.00  0.00     0.004 C 
ENDBRANCH  30  31
ENDBRANCH  29  30
ENDBRANCH  28  29
ENDBRANCH  27  28
ENDBRANCH  26  27
ENDBRANCH  25  26
ENDBRANCH  24  25
ENDBRANCH  23  24
ENDBRANCH  22  23
ENDBRANCH  21  22
ENDBRANCH  20  21
ENDBRANCH  19  20
ENDBRANCH  18  19
ENDBRANCH   1  18
TORSDOF 28
ENDMDL
MODEL 6
REMARK VINA RESULT:     5.370      4.692      6.084
REMARK INTER + INTRA:          12.064
REMARK INTER:                  14.308
REMARK INTRA:                  -2.244
REMARK UNBOUND:                -2.095
REMARK SMILES CCCCCCCCCCCCCCCCCCCCCCCCCCCCCC(=O)[O-]
REMARK SMILES IDX 16 1 17 2 18 3 19 4 20 5 21 6 22 7 23 8 24 9 25 10 26 11
REMARK SMILES IDX 27 12 28 13 29 14 30 15 31 16 32 17 15 18 14 19 13 20 12 21
REMARK SMILES IDX 11 22 10 23 9 24 8 25 7 26 6 27 5 28 4 29 3 30 2 31 1 32
REMARK H PARENT
REMARK Flexibility Score: inf
ROOT
ATOM      1  C   UNL     1       2.486  29.986  27.400  1.00  0.00     0.000 C 
ENDROOT
BRANCH   1   2
ATOM      2  C   UNL     1       1.670  31.255  27.082  1.00  0.00     0.000 C 
BRANCH   2   3
ATOM      3  C   UNL     1       1.734  32.362  28.153  1.00  0.00     0.000 C 
BRANCH   3   4
ATOM      4  C   UNL     1       0.424  32.585  28.936  1.00  0.00     0.000 C 
BRANCH   4   5
ATOM      5  C   UNL     1      -0.860  32.522  28.084  1.00  0.00     0.000 C 
BRANCH   5   6
ATOM      6  C   UNL     1      -2.116  33.123  28.745  1.00  0.00     0.000 C 
BRANCH   6   7
ATOM      7  C   UNL     1      -3.258  32.125  29.007  1.00  0.00     0.000 C 
BRANCH   7   8
ATOM      8  C   UNL     1      -4.063  31.795  27.738  1.00  0.00     0.000 C 
BRANCH   8   9
ATOM      9  C   UNL     1      -3.928  30.322  27.321  1.00  0.00     0.000 C 
BRANCH   9  10
ATOM     10  C   UNL     1      -3.260  30.150  25.948  1.00  0.00     0.000 C 
BRANCH  10  11
ATOM     11  C   UNL     1      -3.062  31.512  25.264  1.00  0.00     0.000 C 
BRANCH  11  12
ATOM     12  C   UNL     1      -1.688  31.647  24.589  1.00  0.00     0.000 C 
BRANCH  12  13
ATOM     13  C   UNL     1      -1.042  30.288  24.277  1.00  0.00     0.006 C 
BRANCH  13  14
ATOM     14  C   UNL     1       0.471  30.434  24.086  1.00  0.00     0.053 C 
BRANCH  14  15
ATOM     15  C   UNL     1       0.841  30.274  22.645  1.00  0.00     0.041 C 
ATOM     16  O   UNL     1       1.164  29.141  22.196  1.00  0.00    -0.550 OA
ATOM     17  O   UNL     1       0.854  31.379  21.801  1.00  0.00    -0.550 OA
ENDBRANCH  14  15
ENDBRANCH  13  14
ENDBRANCH  12  13
ENDBRANCH  11  12
ENDBRANCH  10  11
ENDBRANCH   9  10
ENDBRANCH   8   9
ENDBRANCH   7   8
ENDBRANCH   6   7
ENDBRANCH   5   6
ENDBRANCH   4   5
ENDBRANCH   3   4
ENDBRANCH   2   3
ENDBRANCH   1   2
BRANCH   1  18
ATOM     18  C   UNL     1       1.671  28.682  27.470  1.00  0.00     0.000 C 
BRANCH  18  19
ATOM     19  C   UNL     1       2.456  27.522  28.108  1.00  0.00     0.000 C 
BRANCH  19  20
ATOM     20  C   UNL     1       3.180  26.645  27.071  1.00  0.00     0.000 C 
BRANCH  20  21
ATOM     21  C   UNL     1       2.897  25.133  27.176  1.00  0.00     0.000 C 
BRANCH  21  22
ATOM     22  C   UNL     1       3.636  24.258  26.144  1.00  0.00     0.000 C 
BRANCH  22  23
ATOM     23  C   UNL     1       3.488  22.737  26.355  1.00  0.00     0.000 C 
BRANCH  23  24
ATOM     24  C   UNL     1       4.795  21.933  26.232  1.00  0.00    -0.000 C 
BRANCH  24  25
ATOM     25  C   UNL     1       4.576  20.416  26.342  1.00  0.00    -0.000 C 
BRANCH  25  26
ATOM     26  C   UNL     1       5.606  19.655  25.496  1.00  0.00    -0.000 C 
BRANCH  26  27
ATOM     27  C   UNL     1       5.074  19.284  24.102  1.00  0.00    -0.000 C 
BRANCH  27  28
ATOM     28  C   UNL     1       6.153  19.396  23.010  1.00  0.00    -0.000 C 
BRANCH  28  29
ATOM     29  C   UNL     1       6.852  18.056  22.721  1.00  0.00    -0.000 C 
BRANCH  29  30
ATOM     30  C   UNL     1       8.236  17.879  23.378  1.00  0.00    -0.000 C 
BRANCH  30  31
ATOM     31  C   UNL     1       8.208  17.607  24.893  1.00  0.00    -0.003 C 
ATOM     32  C   UNL     1       7.321  16.420  25.268  1.00  0.00     0.004 C 
ENDBRANCH  30  31
ENDBRANCH  29  30
ENDBRANCH  28  29
ENDBRANCH  27  28
ENDBRANCH  26  27
ENDBRANCH  25  26
ENDBRANCH  24  25
ENDBRANCH  23  24
ENDBRANCH  22  23
ENDBRANCH  21  22
ENDBRANCH  20  21
ENDBRANCH  19  20
ENDBRANCH  18  19
ENDBRANCH   1  18
TORSDOF 28
ENDMDL
MODEL 7
REMARK VINA RESULT:     5.512     10.282     13.993
REMARK INTER + INTRA:          12.439
REMARK INTER:                  14.185
REMARK INTRA:                  -1.746
REMARK UNBOUND:                -2.095
REMARK SMILES CCCCCCCCCCCCCCCCCCCCCCCCCCCCCC(=O)[O-]
REMARK SMILES IDX 16 1 17 2 18 3 19 4 20 5 21 6 22 7 23 8 24 9 25 10 26 11
REMARK SMILES IDX 27 12 28 13 29 14 30 15 31 16 32 17 15 18 14 19 13 20 12 21
REMARK SMILES IDX 11 22 10 23 9 24 8 25 7 26 6 27 5 28 4 29 3 30 2 31 1 32
REMARK H PARENT
REMARK Flexibility Score: inf
ROOT
ATOM      1  C   UNL     1       8.162  17.303  25.190  1.00  0.00     0.000 C 
ENDROOT
BRANCH   1   2
ATOM      2  C   UNL     1       7.381  18.217  26.156  1.00  0.00     0.000 C 
BRANCH   2   3
ATOM      3  C   UNL     1       5.889  18.405  25.816  1.00  0.00     0.000 C 
BRANCH   3   4
ATOM      4  C   UNL     1       5.481  19.849  25.459  1.00  0.00     0.000 C 
BRANCH   4   5
ATOM      5  C   UNL     1       4.389  20.458  26.361  1.00  0.00     0.000 C 
BRANCH   5   6
ATOM      6  C   UNL     1       4.579  21.947  26.707  1.00  0.00     0.000 C 
BRANCH   6   7
ATOM      7  C   UNL     1       3.791  22.930  25.822  1.00  0.00     0.000 C 
BRANCH   7   8
ATOM      8  C   UNL     1       2.779  23.771  26.618  1.00  0.00     0.000 C 
BRANCH   8   9
ATOM      9  C   UNL     1       1.344  23.230  26.502  1.00  0.00     0.000 C 
BRANCH   9  10
ATOM     10  C   UNL     1       0.626  23.149  27.859  1.00  0.00     0.000 C 
BRANCH  10  11
ATOM     11  C   UNL     1      -0.821  22.666  27.681  1.00  0.00     0.000 C 
BRANCH  11  12
ATOM     12  C   UNL     1      -0.943  21.495  26.693  1.00  0.00     0.000 C 
BRANCH  12  13
ATOM     13  C   UNL     1      -2.384  21.276  26.207  1.00  0.00     0.006 C 
BRANCH  13  14
ATOM     14  C   UNL     1      -3.388  21.560  27.329  1.00  0.00     0.053 C 
BRANCH  14  15
ATOM     15  C   UNL     1      -4.524  20.587  27.284  1.00  0.00     0.041 C 
ATOM     16  O   UNL     1      -4.323  19.367  27.527  1.00  0.00    -0.550 OA
ATOM     17  O   UNL     1      -5.802  21.021  26.949  1.00  0.00    -0.550 OA
ENDBRANCH  14  15
ENDBRANCH  13  14
ENDBRANCH  12  13
ENDBRANCH  11  12
ENDBRANCH  10  11
ENDBRANCH   9  10
ENDBRANCH   8   9
ENDBRANCH   7   8
ENDBRANCH   6   7
ENDBRANCH   5   6
ENDBRANCH   4   5
ENDBRANCH   3   4
ENDBRANCH   2   3
ENDBRANCH   1   2
BRANCH   1  18
ATOM     18  C   UNL     1       7.487  17.057  23.829  1.00  0.00     0.000 C 
BRANCH  18  19
ATOM     19  C   UNL     1       7.602  18.262  22.879  1.00  0.00     0.000 C 
BRANCH  19  20
ATOM     20  C   UNL     1       6.292  18.563  22.131  1.00  0.00     0.000 C 
BRANCH  20  21
ATOM     21  C   UNL     1       5.109  17.637  22.475  1.00  0.00     0.000 C 
BRANCH  21  22
ATOM     22  C   UNL     1       4.702  16.656  21.357  1.00  0.00     0.000 C 
BRANCH  22  23
ATOM     23  C   UNL     1       5.868  16.129  20.496  1.00  0.00     0.000 C 
BRANCH  23  24
ATOM     24  C   UNL     1       5.455  15.512  19.148  1.00  0.00    -0.000 C 
BRANCH  24  25
ATOM     25  C   UNL     1       6.089  14.135  18.901  1.00  0.00    -0.000 C 
BRANCH  25  26
ATOM     26  C   UNL     1       5.905  13.705  17.439  1.00  0.00    -0.000 C 
BRANCH  26  27
ATOM     27  C   UNL     1       7.240  13.529  16.697  1.00  0.00    -0.000 C 
BRANCH  27  28
ATOM     28  C   UNL     1       7.155  13.952  15.221  1.00  0.00    -0.000 C 
BRANCH  28  29
ATOM     29  C   UNL     1       5.938  13.351  14.496  1.00  0.00    -0.000 C 
BRANCH  29  30
ATOM     30  C   UNL     1       4.980  14.376  13.854  1.00  0.00    -0.000 C 
BRANCH  30  31
ATOM     31  C   UNL     1       3.639  13.798  13.366  1.00  0.00    -0.003 C 
ATOM     32  C   UNL     1       2.437  14.365  14.120  1.00  0.00     0.004 C 
ENDBRANCH  30  31
ENDBRANCH  29  30
ENDBRANCH  28  29
ENDBRANCH  27  28
ENDBRANCH  26  27
ENDBRANCH  25  26
ENDBRANCH  24  25
ENDBRANCH  23  24
ENDBRANCH  22  23
ENDBRANCH  21  22
ENDBRANCH  20  21
ENDBRANCH  19  20
ENDBRANCH  18  19
ENDBRANCH   1  18
TORSDOF 28
ENDMDL
MODEL 8
REMARK VINA RESULT:     5.573      5.915      7.822
REMARK INTER + INTRA:          12.601
REMARK INTER:                  12.743
REMARK INTRA:                  -0.142
REMARK UNBOUND:                -2.095
REMARK SMILES CCCCCCCCCCCCCCCCCCCCCCCCCCCCCC(=O)[O-]
REMARK SMILES IDX 16 1 17 2 18 3 19 4 20 5 21 6 22 7 23 8 24 9 25 10 26 11
REMARK SMILES IDX 27 12 28 13 29 14 30 15 31 16 32 17 15 18 14 19 13 20 12 21
REMARK SMILES IDX 11 22 10 23 9 24 8 25 7 26 6 27 5 28 4 29 3 30 2 31 1 32
REMARK H PARENT
REMARK Flexibility Score: inf
ROOT
ATOM      1  C   UNL     1       2.336  25.924  27.291  1.00  0.00     0.000 C 
ENDROOT
BRANCH   1   2
ATOM      2  C   UNL     1       2.527  27.077  28.298  1.00  0.00     0.000 C 
BRANCH   2   3
ATOM      3  C   UNL     1       2.268  28.488  27.734  1.00  0.00     0.000 C 
BRANCH   3   4
ATOM      4  C   UNL     1       2.566  29.643  28.712  1.00  0.00     0.000 C 
BRANCH   4   5
ATOM      5  C   UNL     1       2.249  31.051  28.170  1.00  0.00     0.000 C 
BRANCH   5   6
ATOM      6  C   UNL     1       1.438  31.953  29.122  1.00  0.00     0.000 C 
BRANCH   6   7
ATOM      7  C   UNL     1       0.439  32.900  28.432  1.00  0.00     0.000 C 
BRANCH   7   8
ATOM      8  C   UNL     1      -0.979  32.800  29.018  1.00  0.00     0.000 C 
BRANCH   8   9
ATOM      9  C   UNL     1      -2.069  32.872  27.937  1.00  0.00     0.000 C 
BRANCH   9  10
ATOM     10  C   UNL     1      -3.229  31.897  28.193  1.00  0.00     0.000 C 
BRANCH  10  11
ATOM     11  C   UNL     1      -3.864  31.445  26.869  1.00  0.00     0.000 C 
BRANCH  11  12
ATOM     12  C   UNL     1      -2.935  30.547  26.037  1.00  0.00     0.000 C 
BRANCH  12  13
ATOM     13  C   UNL     1      -1.597  31.224  25.702  1.00  0.00     0.006 C 
BRANCH  13  14
ATOM     14  C   UNL     1      -1.157  30.888  24.273  1.00  0.00     0.053 C 
BRANCH  14  15
ATOM     15  C   UNL     1       0.315  30.625  24.219  1.00  0.00     0.041 C 
ATOM     16  O   UNL     1       1.038  30.863  25.224  1.00  0.00    -0.550 OA
ATOM     17  O   UNL     1       0.895  30.139  23.052  1.00  0.00    -0.550 OA
ENDBRANCH  14  15
ENDBRANCH  13  14
ENDBRANCH  12  13
ENDBRANCH  11  12
ENDBRANCH  10  11
ENDBRANCH   9  10
ENDBRANCH   8   9
ENDBRANCH   7   8
ENDBRANCH   6   7
ENDBRANCH   5   6
ENDBRANCH   4   5
ENDBRANCH   3   4
ENDBRANCH   2   3
ENDBRANCH   1   2
BRANCH   1  18
ATOM     18  C   UNL     1       3.629  25.210  26.859  1.00  0.00     0.000 C 
BRANCH  18  19
ATOM     19  C   UNL     1       3.373  23.798  26.304  1.00  0.00     0.000 C 
BRANCH  19  20
ATOM     20  C   UNL     1       4.566  22.848  26.506  1.00  0.00     0.000 C 
BRANCH  20  21
ATOM     21  C   UNL     1       4.321  21.384  26.089  1.00  0.00     0.000 C 
BRANCH  21  22
ATOM     22  C   UNL     1       5.234  20.865  24.960  1.00  0.00     0.000 C 
BRANCH  22  23
ATOM     23  C   UNL     1       4.754  19.568  24.278  1.00  0.00     0.000 C 
BRANCH  23  24
ATOM     24  C   UNL     1       5.420  18.278  24.792  1.00  0.00    -0.000 C 
BRANCH  24  25
ATOM     25  C   UNL     1       6.668  18.549  25.645  1.00  0.00    -0.000 C 
BRANCH  25  26
ATOM     26  C   UNL     1       7.884  17.797  25.085  1.00  0.00    -0.000 C 
BRANCH  26  27
ATOM     27  C   UNL     1       7.500  16.744  24.034  1.00  0.00    -0.000 C 
BRANCH  27  28
ATOM     28  C   UNL     1       7.595  17.283  22.596  1.00  0.00    -0.000 C 
BRANCH  28  29
ATOM     29  C   UNL     1       6.216  17.537  21.961  1.00  0.00    -0.000 C 
BRANCH  29  30
ATOM     30  C   UNL     1       6.173  17.445  20.421  1.00  0.00    -0.000 C 
BRANCH  30  31
ATOM     31  C   UNL     1       5.245  16.353  19.860  1.00  0.00    -0.003 C 
ATOM     32  C   UNL     1       5.931  14.993  19.741  1.00  0.00     0.004 C 
ENDBRANCH  30  31
ENDBRANCH  29  30
ENDBRANCH  28  29
ENDBRANCH  27  28
ENDBRANCH  26  27
ENDBRANCH  25  26
ENDBRANCH  24  25
ENDBRANCH  23  24
ENDBRANCH  22  23
ENDBRANCH  21  22
ENDBRANCH  20  21
ENDBRANCH  19  20
ENDBRANCH  18  19
ENDBRANCH   1  18
TORSDOF 28
ENDMDL
MODEL 9
REMARK VINA RESULT:     5.722     10.656     14.319
REMARK INTER + INTRA:          12.992
REMARK INTER:                  13.890
REMARK INTRA:                  -0.898
REMARK UNBOUND:                -2.095
REMARK SMILES CCCCCCCCCCCCCCCCCCCCCCCCCCCCCC(=O)[O-]
REMARK SMILES IDX 16 1 17 2 18 3 19 4 20 5 21 6 22 7 23 8 24 9 25 10 26 11
REMARK SMILES IDX 27 12 28 13 29 14 30 15 31 16 32 17 15 18 14 19 13 20 12 21
REMARK SMILES IDX 11 22 10 23 9 24 8 25 7 26 6 27 5 28 4 29 3 30 2 31 1 32
REMARK H PARENT
REMARK Flexibility Score: inf
ROOT
ATOM      1  C   UNL     1       6.390  18.501  25.138  1.00  0.00     0.000 C 
ENDROOT
BRANCH   1   2
ATOM      2  C   UNL     1       5.237  19.466  25.480  1.00  0.00     0.000 C 
BRANCH   2   3
ATOM      3  C   UNL     1       5.439  20.300  26.760  1.00  0.00     0.000 C 
BRANCH   3   4
ATOM      4  C   UNL     1       4.317  21.315  27.059  1.00  0.00     0.000 C 
BRANCH   4   5
ATOM      5  C   UNL     1       4.167  22.443  26.018  1.00  0.00     0.000 C 
BRANCH   5   6
ATOM      6  C   UNL     1       3.217  23.587  26.423  1.00  0.00     0.000 C 
BRANCH   6   7
ATOM      7  C   UNL     1       1.797  23.495  25.837  1.00  0.00     0.000 C 
BRANCH   7   8
ATOM      8  C   UNL     1       0.735  23.154  26.897  1.00  0.00     0.000 C 
BRANCH   8   9
ATOM      9  C   UNL     1      -0.535  22.544  26.283  1.00  0.00     0.000 C 
BRANCH   9  10
ATOM     10  C   UNL     1      -1.596  22.189  27.337  1.00  0.00     0.000 C 
BRANCH  10  11
ATOM     11  C   UNL     1      -2.599  21.169  26.779  1.00  0.00     0.000 C 
BRANCH  11  12
ATOM     12  C   UNL     1      -4.061  21.561  27.046  1.00  0.00     0.000 C 
BRANCH  12  13
ATOM     13  C   UNL     1      -4.506  21.250  28.483  1.00  0.00     0.006 C 
BRANCH  13  14
ATOM     14  C   UNL     1      -5.942  20.716  28.507  1.00  0.00     0.053 C 
BRANCH  14  15
ATOM     15  C   UNL     1      -6.005  19.337  27.929  1.00  0.00     0.041 C 
ATOM     16  O   UNL     1      -5.928  18.330  28.683  1.00  0.00    -0.550 OA
ATOM     17  O   UNL     1      -6.125  19.161  26.554  1.00  0.00    -0.550 OA
ENDBRANCH  14  15
ENDBRANCH  13  14
ENDBRANCH  12  13
ENDBRANCH  11  12
ENDBRANCH  10  11
ENDBRANCH   9  10
ENDBRANCH   8   9
ENDBRANCH   7   8
ENDBRANCH   6   7
ENDBRANCH   5   6
ENDBRANCH   4   5
ENDBRANCH   3   4
ENDBRANCH   2   3
ENDBRANCH   1   2
BRANCH   1  18
ATOM     18  C   UNL     1       7.100  18.775  23.800  1.00  0.00     0.000 C 
BRANCH  18  19
ATOM     19  C   UNL     1       7.308  17.500  22.964  1.00  0.00     0.000 C 
BRANCH  19  20
ATOM     20  C   UNL     1       6.245  17.323  21.864  1.00  0.00     0.000 C 
BRANCH  20  21
ATOM     21  C   UNL     1       6.740  16.639  20.574  1.00  0.00     0.000 C 
BRANCH  21  22
ATOM     22  C   UNL     1       5.641  16.323  19.540  1.00  0.00     0.000 C 
BRANCH  22  23
ATOM     23  C   UNL     1       5.220  14.841  19.470  1.00  0.00     0.000 C 
BRANCH  23  24
ATOM     24  C   UNL     1       5.616  14.112  18.173  1.00  0.00    -0.000 C 
BRANCH  24  25
ATOM     25  C   UNL     1       4.719  14.481  16.982  1.00  0.00    -0.000 C 
BRANCH  25  26
ATOM     26  C   UNL     1       3.349  13.799  17.101  1.00  0.00    -0.000 C 
BRANCH  26  27
ATOM     27  C   UNL     1       2.502  13.938  15.825  1.00  0.00    -0.000 C 
BRANCH  27  28
ATOM     28  C   UNL     1       3.360  14.174  14.570  1.00  0.00    -0.000 C 
BRANCH  28  29
ATOM     29  C   UNL     1       2.702  13.639  13.287  1.00  0.00    -0.000 C 
BRANCH  29  30
ATOM     30  C   UNL     1       3.672  13.036  12.250  1.00  0.00    -0.000 C 
BRANCH  30  31
ATOM     31  C   UNL     1       4.054  13.976  11.092  1.00  0.00    -0.003 C 
ATOM     32  C   UNL     1       4.645  13.235   9.894  1.00  0.00     0.004 C 
ENDBRANCH  30  31
ENDBRANCH  29  30
ENDBRANCH  28  29
ENDBRANCH  27  28
ENDBRANCH  26  27
ENDBRANCH  25  26
ENDBRANCH  24  25
ENDBRANCH  23  24
ENDBRANCH  22  23
ENDBRANCH  21  22
ENDBRANCH  20  21
ENDBRANCH  19  20
ENDBRANCH  18  19
ENDBRANCH   1  18
TORSDOF 28
ENDMDL
