MODEL 1
REMARK VINA RESULT:    -4.682      0.000      0.000
REMARK INTER + INTRA:          -9.926
REMARK INTER:                  -9.061
REMARK INTRA:                  -0.865
REMARK UNBOUND:                -0.865
REMARK SMILES CCCCCCCCCCCCCCCCCC(=O)[O-]
REMARK SMILES IDX 10 1 11 2 12 3 13 4 14 5 15 6 16 7 17 8 18 9 19 10 20 11
REMARK SMILES IDX 9 12 8 13 7 14 6 15 5 16 4 17 3 18 2 19 1 20
REMARK H PARENT
REMARK Flexibility Score: inf
ROOT
ATOM      1  C   UNL     1      -6.399 -12.826   1.640  1.00  0.00     0.000 C 
ENDROOT
BRANCH   1   2
ATOM      2  C   UNL     1      -6.035 -12.664   0.157  1.00  0.00     0.000 C 
BRANCH   2   3
ATOM      3  C   UNL     1      -5.971 -11.192  -0.282  1.00  0.00     0.000 C 
BRANCH   3   4
ATOM      4  C   UNL     1      -5.795 -10.226   0.902  1.00  0.00     0.000 C 
BRANCH   4   5
ATOM      5  C   UNL     1      -7.019  -9.304   1.091  1.00  0.00     0.000 C 
BRANCH   5   6
ATOM      6  C   UNL     1      -7.857  -9.119  -0.189  1.00  0.00     0.000 C 
BRANCH   6   7
ATOM      7  C   UNL     1      -9.259  -8.523   0.036  1.00  0.00     0.006 C 
BRANCH   7   8
ATOM      8  C   UNL     1      -9.256  -7.060   0.507  1.00  0.00     0.053 C 
BRANCH   8   9
ATOM      9  C   UNL     1     -10.635  -6.574   0.833  1.00  0.00     0.041 C 
ATOM     10  O   UNL     1     -10.930  -6.252   2.015  1.00  0.00    -0.550 OA
ATOM     11  O   UNL     1     -11.603  -6.509  -0.161  1.00  0.00    -0.550 OA
ENDBRANCH   8   9
ENDBRANCH   7   8
ENDBRANCH   6   7
ENDBRANCH   5   6
ENDBRANCH   4   5
ENDBRANCH   3   4
ENDBRANCH   2   3
ENDBRANCH   1   2
BRANCH   1  12
ATOM     12  C   UNL     1      -6.661 -14.301   1.981  1.00  0.00     0.000 C 
BRANCH  12  13
ATOM     13  C   UNL     1      -6.268 -15.253   0.839  1.00  0.00    -0.000 C 
BRANCH  13  14
ATOM     14  C   UNL     1      -5.437 -16.452   1.329  1.00  0.00    -0.000 C 
BRANCH  14  15
ATOM     15  C   UNL     1      -5.514 -17.655   0.373  1.00  0.00    -0.000 C 
BRANCH  15  16
ATOM     16  C   UNL     1      -6.776 -18.506   0.595  1.00  0.00    -0.000 C 
BRANCH  16  17
ATOM     17  C   UNL     1      -6.545 -19.995   0.291  1.00  0.00    -0.000 C 
BRANCH  17  18
ATOM     18  C   UNL     1      -7.605 -20.575  -0.663  1.00  0.00    -0.000 C 
BRANCH  18  19
ATOM     19  C   UNL     1      -7.003 -21.039  -1.999  1.00  0.00    -0.003 C 
ATOM     20  C   UNL     1      -5.573 -20.543  -2.209  1.00  0.00     0.004 C 
ENDBRANCH  18  19
ENDBRANCH  17  18
ENDBRANCH  16  17
ENDBRANCH  15  16
ENDBRANCH  14  15
ENDBRANCH  13  14
ENDBRANCH  12  13
ENDBRANCH   1  12
TORSDOF 16
ENDMDL
MODEL 2
REMARK VINA RESULT:    -4.564      4.819     10.385
REMARK INTER + INTRA:          -9.697
REMARK INTER:                  -8.610
REMARK INTRA:                  -1.087
REMARK UNBOUND:                -0.865
REMARK SMILES CCCCCCCCCCCCCCCCCC(=O)[O-]
REMARK SMILES IDX 10 1 11 2 12 3 13 4 14 5 15 6 16 7 17 8 18 9 19 10 20 11
REMARK SMILES IDX 9 12 8 13 7 14 6 15 5 16 4 17 3 18 2 19 1 20
REMARK H PARENT
REMARK Flexibility Score: inf
ROOT
ATOM      1  C   UNL     1      -5.088 -11.112   0.767  1.00  0.00     0.000 C 
ENDROOT
BRANCH   1   2
ATOM      2  C   UNL     1      -5.492 -12.150  -0.292  1.00  0.00     0.000 C 
BRANCH   2   3
ATOM      3  C   UNL     1      -5.303 -13.597   0.192  1.00  0.00     0.000 C 
BRANCH   3   4
ATOM      4  C   UNL     1      -6.637 -14.340   0.378  1.00  0.00     0.000 C 
BRANCH   4   5
ATOM      5  C   UNL     1      -6.507 -15.542   1.339  1.00  0.00     0.000 C 
BRANCH   5   6
ATOM      6  C   UNL     1      -5.890 -16.793   0.684  1.00  0.00     0.000 C 
BRANCH   6   7
ATOM      7  C   UNL     1      -6.736 -18.074   0.810  1.00  0.00     0.006 C 
BRANCH   7   8
ATOM      8  C   UNL     1      -6.184 -19.275   0.026  1.00  0.00     0.053 C 
BRANCH   8   9
ATOM      9  C   UNL     1      -7.235 -20.314  -0.217  1.00  0.00     0.041 C 
ATOM     10  O   UNL     1      -7.660 -20.525  -1.384  1.00  0.00    -0.550 OA
ATOM     11  O   UNL     1      -7.770 -21.027   0.849  1.00  0.00    -0.550 OA
ENDBRANCH   8   9
ENDBRANCH   7   8
ENDBRANCH   6   7
ENDBRANCH   5   6
ENDBRANCH   4   5
ENDBRANCH   3   4
ENDBRANCH   2   3
ENDBRANCH   1   2
BRANCH   1  12
ATOM     12  C   UNL     1      -6.125 -11.055   1.898  1.00  0.00     0.000 C 
BRANCH  12  13
ATOM     13  C   UNL     1      -6.773  -9.667   2.041  1.00  0.00    -0.000 C 
BRANCH  13  14
ATOM     14  C   UNL     1      -6.054  -8.591   1.210  1.00  0.00    -0.000 C 
BRANCH  14  15
ATOM     15  C   UNL     1      -7.003  -7.856   0.248  1.00  0.00    -0.000 C 
BRANCH  15  16
ATOM     16  C   UNL     1      -8.111  -8.771  -0.303  1.00  0.00    -0.000 C 
BRANCH  16  17
ATOM     17  C   UNL     1      -9.518  -8.309   0.110  1.00  0.00    -0.000 C 
BRANCH  17  18
ATOM     18  C   UNL     1      -9.497  -7.369   1.329  1.00  0.00    -0.000 C 
BRANCH  18  19
ATOM     19  C   UNL     1     -10.745  -6.476   1.404  1.00  0.00    -0.003 C 
ATOM     20  C   UNL     1     -11.302  -6.118   0.027  1.00  0.00     0.004 C 
ENDBRANCH  18  19
ENDBRANCH  17  18
ENDBRANCH  16  17
ENDBRANCH  15  16
ENDBRANCH  14  15
ENDBRANCH  13  14
ENDBRANCH  12  13
ENDBRANCH   1  12
TORSDOF 16
ENDMDL
MODEL 3
REMARK VINA RESULT:    -4.484      1.924      4.563
REMARK INTER + INTRA:          -9.542
REMARK INTER:                  -8.197
REMARK INTRA:                  -1.346
REMARK UNBOUND:                -0.865
REMARK SMILES CCCCCCCCCCCCCCCCCC(=O)[O-]
REMARK SMILES IDX 10 1 11 2 12 3 13 4 14 5 15 6 16 7 17 8 18 9 19 10 20 11
REMARK SMILES IDX 9 12 8 13 7 14 6 15 5 16 4 17 3 18 2 19 1 20
REMARK H PARENT
REMARK Flexibility Score: inf
ROOT
ATOM      1  C   UNL     1      -8.142  -8.664  -0.208  1.00  0.00     0.000 C 
ENDROOT
BRANCH   1   2
ATOM      2  C   UNL     1      -7.392  -7.345   0.033  1.00  0.00     0.000 C 
BRANCH   2   3
ATOM      3  C   UNL     1      -6.772  -7.262   1.437  1.00  0.00     0.000 C 
BRANCH   3   4
ATOM      4  C   UNL     1      -6.534  -5.813   1.897  1.00  0.00     0.000 C 
BRANCH   4   5
ATOM      5  C   UNL     1      -7.603  -5.337   2.905  1.00  0.00     0.000 C 
BRANCH   5   6
ATOM      6  C   UNL     1      -8.786  -4.597   2.249  1.00  0.00     0.000 C 
BRANCH   6   7
ATOM      7  C   UNL     1     -10.175  -5.173   2.582  1.00  0.00     0.006 C 
BRANCH   7   8
ATOM      8  C   UNL     1     -10.510  -6.480   1.845  1.00  0.00     0.053 C 
BRANCH   8   9
ATOM      9  C   UNL     1     -11.087  -6.223   0.487  1.00  0.00     0.041 C 
ATOM     10  O   UNL     1     -11.319  -7.183  -0.295  1.00  0.00    -0.550 OA
ATOM     11  O   UNL     1     -11.339  -4.921   0.073  1.00  0.00    -0.550 OA
ENDBRANCH   8   9
ENDBRANCH   7   8
ENDBRANCH   6   7
ENDBRANCH   5   6
ENDBRANCH   4   5
ENDBRANCH   3   4
ENDBRANCH   2   3
ENDBRANCH   1   2
BRANCH   1  12
ATOM     12  C   UNL     1      -7.389  -9.844   0.426  1.00  0.00     0.000 C 
BRANCH  12  13
ATOM     13  C   UNL     1      -6.498 -10.591  -0.580  1.00  0.00    -0.000 C 
BRANCH  13  14
ATOM     14  C   UNL     1      -5.290 -11.269   0.089  1.00  0.00    -0.000 C 
BRANCH  14  15
ATOM     15  C   UNL     1      -4.894 -12.586  -0.600  1.00  0.00    -0.000 C 
BRANCH  15  16
ATOM     16  C   UNL     1      -4.957 -13.793   0.352  1.00  0.00    -0.000 C 
BRANCH  16  17
ATOM     17  C   UNL     1      -6.308 -13.904   1.077  1.00  0.00    -0.000 C 
BRANCH  17  18
ATOM     18  C   UNL     1      -6.987 -15.268   0.856  1.00  0.00    -0.000 C 
BRANCH  18  19
ATOM     19  C   UNL     1      -5.986 -16.434   0.881  1.00  0.00    -0.003 C 
ATOM     20  C   UNL     1      -6.660 -17.798   0.732  1.00  0.00     0.004 C 
ENDBRANCH  18  19
ENDBRANCH  17  18
ENDBRANCH  16  17
ENDBRANCH  15  16
ENDBRANCH  14  15
ENDBRANCH  13  14
ENDBRANCH  12  13
ENDBRANCH   1  12
TORSDOF 16
ENDMDL
MODEL 4
REMARK VINA RESULT:    -4.379      4.359      6.631
REMARK INTER + INTRA:          -9.340
REMARK INTER:                  -7.255
REMARK INTRA:                  -2.086
REMARK UNBOUND:                -0.865
REMARK SMILES CCCCCCCCCCCCCCCCCC(=O)[O-]
REMARK SMILES IDX 10 1 11 2 12 3 13 4 14 5 15 6 16 7 17 8 18 9 19 10 20 11
REMARK SMILES IDX 9 12 8 13 7 14 6 15 5 16 4 17 3 18 2 19 1 20
REMARK H PARENT
REMARK Flexibility Score: inf
ROOT
ATOM      1  C   UNL     1      -9.360  -8.371   0.162  1.00  0.00     0.000 C 
ENDROOT
BRANCH   1   2
ATOM      2  C   UNL     1      -9.371  -8.016   1.657  1.00  0.00     0.000 C 
BRANCH   2   3
ATOM      3  C   UNL     1     -10.375  -6.902   1.995  1.00  0.00     0.000 C 
BRANCH   3   4
ATOM      4  C   UNL     1      -9.872  -5.506   1.589  1.00  0.00     0.000 C 
BRANCH   4   5
ATOM      5  C   UNL     1      -9.088  -4.814   2.724  1.00  0.00     0.000 C 
BRANCH   5   6
ATOM      6  C   UNL     1      -7.673  -4.361   2.312  1.00  0.00     0.000 C 
BRANCH   6   7
ATOM      7  C   UNL     1      -6.821  -5.445   1.626  1.00  0.00     0.006 C 
BRANCH   7   8
ATOM      8  C   UNL     1      -5.380  -5.011   1.312  1.00  0.00     0.053 C 
BRANCH   8   9
ATOM      9  C   UNL     1      -5.229  -4.566  -0.110  1.00  0.00     0.041 C 
ATOM     10  O   UNL     1      -5.119  -3.341  -0.383  1.00  0.00    -0.550 OA
ATOM     11  O   UNL     1      -5.242  -5.501  -1.137  1.00  0.00    -0.550 OA
ENDBRANCH   8   9
ENDBRANCH   7   8
ENDBRANCH   6   7
ENDBRANCH   5   6
ENDBRANCH   4   5
ENDBRANCH   3   4
ENDBRANCH   2   3
ENDBRANCH   1   2
BRANCH   1  12
ATOM     12  C   UNL     1      -7.935  -8.294  -0.407  1.00  0.00     0.000 C 
BRANCH  12  13
ATOM     13  C   UNL     1      -7.050  -9.469   0.044  1.00  0.00    -0.000 C 
BRANCH  13  14
ATOM     14  C   UNL     1      -5.947  -9.035   1.025  1.00  0.00    -0.000 C 
BRANCH  14  15
ATOM     15  C   UNL     1      -5.992  -9.816   2.349  1.00  0.00    -0.000 C 
BRANCH  15  16
ATOM     16  C   UNL     1      -6.895 -11.061   2.270  1.00  0.00    -0.000 C 
BRANCH  16  17
ATOM     17  C   UNL     1      -6.096 -12.373   2.326  1.00  0.00    -0.000 C 
BRANCH  17  18
ATOM     18  C   UNL     1      -6.372 -13.285   1.116  1.00  0.00    -0.000 C 
BRANCH  18  19
ATOM     19  C   UNL     1      -5.125 -13.499   0.245  1.00  0.00    -0.003 C 
ATOM     20  C   UNL     1      -4.875 -12.346  -0.727  1.00  0.00     0.004 C 
ENDBRANCH  18  19
ENDBRANCH  17  18
ENDBRANCH  16  17
ENDBRANCH  15  16
ENDBRANCH  14  15
ENDBRANCH  13  14
ENDBRANCH  12  13
ENDBRANCH   1  12
TORSDOF 16
ENDMDL
MODEL 5
REMARK VINA RESULT:    -4.378      4.471     10.061
REMARK INTER + INTRA:          -9.338
REMARK INTER:                  -7.492
REMARK INTRA:                  -1.846
REMARK UNBOUND:                -0.865
REMARK SMILES CCCCCCCCCCCCCCCCCC(=O)[O-]
REMARK SMILES IDX 10 1 11 2 12 3 13 4 14 5 15 6 16 7 17 8 18 9 19 10 20 11
REMARK SMILES IDX 9 12 8 13 7 14 6 15 5 16 4 17 3 18 2 19 1 20
REMARK H PARENT
REMARK Flexibility Score: inf
ROOT
ATOM      1  C   UNL     1      -7.959  -7.949  -0.237  1.00  0.00     0.000 C 
ENDROOT
BRANCH   1   2
ATOM      2  C   UNL     1      -6.763  -8.837   0.142  1.00  0.00     0.000 C 
BRANCH   2   3
ATOM      3  C   UNL     1      -6.927 -10.289  -0.333  1.00  0.00     0.000 C 
BRANCH   3   4
ATOM      4  C   UNL     1      -5.696 -11.158  -0.025  1.00  0.00     0.000 C 
BRANCH   4   5
ATOM      5  C   UNL     1      -5.253 -11.041   1.450  1.00  0.00     0.000 C 
BRANCH   5   6
ATOM      6  C   UNL     1      -6.285 -11.595   2.451  1.00  0.00     0.000 C 
BRANCH   6   7
ATOM      7  C   UNL     1      -6.072 -13.067   2.853  1.00  0.00     0.006 C 
BRANCH   7   8
ATOM      8  C   UNL     1      -7.132 -14.032   2.298  1.00  0.00     0.053 C 
BRANCH   8   9
ATOM      9  C   UNL     1      -6.598 -14.859   1.169  1.00  0.00     0.041 C 
ATOM     10  O   UNL     1      -7.221 -15.885   0.786  1.00  0.00    -0.550 OA
ATOM     11  O   UNL     1      -5.398 -14.516   0.562  1.00  0.00    -0.550 OA
ENDBRANCH   8   9
ENDBRANCH   7   8
ENDBRANCH   6   7
ENDBRANCH   5   6
ENDBRANCH   4   5
ENDBRANCH   3   4
ENDBRANCH   2   3
ENDBRANCH   1   2
BRANCH   1  12
ATOM     12  C   UNL     1      -9.199  -8.322   0.590  1.00  0.00     0.000 C 
BRANCH  12  13
ATOM     13  C   UNL     1     -10.472  -7.606   0.107  1.00  0.00    -0.000 C 
BRANCH  13  14
ATOM     14  C   UNL     1     -10.487  -6.113   0.477  1.00  0.00    -0.000 C 
BRANCH  14  15
ATOM     15  C   UNL     1     -10.337  -5.876   1.989  1.00  0.00    -0.000 C 
BRANCH  15  16
ATOM     16  C   UNL     1      -9.065  -5.085   2.339  1.00  0.00    -0.000 C 
BRANCH  16  17
ATOM     17  C   UNL     1      -8.040  -5.928   3.116  1.00  0.00    -0.000 C 
BRANCH  17  18
ATOM     18  C   UNL     1      -6.684  -6.024   2.394  1.00  0.00    -0.000 C 
BRANCH  18  19
ATOM     19  C   UNL     1      -6.349  -4.750   1.602  1.00  0.00    -0.003 C 
ATOM     20  C   UNL     1      -5.515  -5.031   0.352  1.00  0.00     0.004 C 
ENDBRANCH  18  19
ENDBRANCH  17  18
ENDBRANCH  16  17
ENDBRANCH  15  16
ENDBRANCH  14  15
ENDBRANCH  13  14
ENDBRANCH  12  13
ENDBRANCH   1  12
TORSDOF 16
ENDMDL
MODEL 6
REMARK VINA RESULT:    -4.355      4.660     10.501
REMARK INTER + INTRA:          -9.293
REMARK INTER:                  -7.888
REMARK INTRA:                  -1.405
REMARK UNBOUND:                -0.865
REMARK SMILES CCCCCCCCCCCCCCCCCC(=O)[O-]
REMARK SMILES IDX 10 1 11 2 12 3 13 4 14 5 15 6 16 7 17 8 18 9 19 10 20 11
REMARK SMILES IDX 9 12 8 13 7 14 6 15 5 16 4 17 3 18 2 19 1 20
REMARK H PARENT
REMARK Flexibility Score: inf
ROOT
ATOM      1  C   UNL     1      -6.425 -10.674  -0.561  1.00  0.00     0.000 C 
ENDROOT
BRANCH   1   2
ATOM      2  C   UNL     1      -5.784 -11.834   0.217  1.00  0.00     0.000 C 
BRANCH   2   3
ATOM      3  C   UNL     1      -6.473 -12.099   1.565  1.00  0.00     0.000 C 
BRANCH   3   4
ATOM      4  C   UNL     1      -6.555 -13.596   1.907  1.00  0.00     0.000 C 
BRANCH   4   5
ATOM      5  C   UNL     1      -6.395 -14.490   0.658  1.00  0.00     0.000 C 
BRANCH   5   6
ATOM      6  C   UNL     1      -5.297 -15.563   0.801  1.00  0.00     0.000 C 
BRANCH   6   7
ATOM      7  C   UNL     1      -5.738 -16.849   1.525  1.00  0.00     0.006 C 
BRANCH   7   8
ATOM      8  C   UNL     1      -6.851 -17.628   0.805  1.00  0.00     0.053 C 
BRANCH   8   9
ATOM      9  C   UNL     1      -6.336 -18.891   0.185  1.00  0.00     0.041 C 
ATOM     10  O   UNL     1      -6.940 -19.981   0.373  1.00  0.00    -0.550 OA
ATOM     11  O   UNL     1      -5.172 -18.871  -0.572  1.00  0.00    -0.550 OA
ENDBRANCH   8   9
ENDBRANCH   7   8
ENDBRANCH   6   7
ENDBRANCH   5   6
ENDBRANCH   4   5
ENDBRANCH   3   4
ENDBRANCH   2   3
ENDBRANCH   1   2
BRANCH   1  12
ATOM     12  C   UNL     1      -7.408  -9.898   0.329  1.00  0.00     0.000 C 
BRANCH  12  13
ATOM     13  C   UNL     1      -7.933  -8.617  -0.341  1.00  0.00    -0.000 C 
BRANCH  13  14
ATOM     14  C   UNL     1      -6.948  -7.441  -0.218  1.00  0.00    -0.000 C 
BRANCH  14  15
ATOM     15  C   UNL     1      -6.424  -7.256   1.215  1.00  0.00    -0.000 C 
BRANCH  15  16
ATOM     16  C   UNL     1      -7.537  -6.868   2.206  1.00  0.00    -0.000 C 
BRANCH  16  17
ATOM     17  C   UNL     1      -8.265  -5.577   1.798  1.00  0.00    -0.000 C 
BRANCH  17  18
ATOM     18  C   UNL     1      -9.716  -5.530   2.311  1.00  0.00    -0.000 C 
BRANCH  18  19
ATOM     19  C   UNL     1     -10.596  -6.623   1.684  1.00  0.00    -0.003 C 
ATOM     20  C   UNL     1     -10.914  -6.358   0.213  1.00  0.00     0.004 C 
ENDBRANCH  18  19
ENDBRANCH  17  18
ENDBRANCH  16  17
ENDBRANCH  15  16
ENDBRANCH  14  15
ENDBRANCH  13  14
ENDBRANCH  12  13
ENDBRANCH   1  12
TORSDOF 16
ENDMDL
MODEL 7
REMARK VINA RESULT:    -4.330     20.123     23.149
REMARK INTER + INTRA:          -9.244
REMARK INTER:                  -6.701
REMARK INTRA:                  -2.543
REMARK UNBOUND:                -0.865
REMARK SMILES CCCCCCCCCCCCCCCCCC(=O)[O-]
REMARK SMILES IDX 10 1 11 2 12 3 13 4 14 5 15 6 16 7 17 8 18 9 19 10 20 11
REMARK SMILES IDX 9 12 8 13 7 14 6 15 5 16 4 17 3 18 2 19 1 20
REMARK H PARENT
REMARK Flexibility Score: inf
ROOT
ATOM      1  C   UNL     1     -22.170  -4.024 -12.318  1.00  0.00     0.000 C 
ENDROOT
BRANCH   1   2
ATOM      2  C   UNL     1     -23.419  -3.217 -12.705  1.00  0.00     0.000 C 
BRANCH   2   3
ATOM      3  C   UNL     1     -24.167  -3.818 -13.906  1.00  0.00     0.000 C 
BRANCH   3   4
ATOM      4  C   UNL     1     -23.420  -5.005 -14.537  1.00  0.00     0.000 C 
BRANCH   4   5
ATOM      5  C   UNL     1     -23.870  -5.273 -15.990  1.00  0.00     0.000 C 
BRANCH   5   6
ATOM      6  C   UNL     1     -23.179  -6.490 -16.637  1.00  0.00     0.000 C 
BRANCH   6   7
ATOM      7  C   UNL     1     -23.853  -7.845 -16.352  1.00  0.00     0.006 C 
BRANCH   7   8
ATOM      8  C   UNL     1     -22.907  -9.053 -16.448  1.00  0.00     0.053 C 
BRANCH   8   9
ATOM      9  C   UNL     1     -23.530 -10.296 -15.889  1.00  0.00     0.041 C 
ATOM     10  O   UNL     1     -22.807 -11.192 -15.378  1.00  0.00    -0.550 OA
ATOM     11  O   UNL     1     -24.905 -10.479 -15.962  1.00  0.00    -0.550 OA
ENDBRANCH   8   9
ENDBRANCH   7   8
ENDBRANCH   6   7
ENDBRANCH   5   6
ENDBRANCH   4   5
ENDBRANCH   3   4
ENDBRANCH   2   3
ENDBRANCH   1   2
BRANCH   1  12
ATOM     12  C   UNL     1     -20.901  -3.172 -12.469  1.00  0.00     0.000 C 
BRANCH  12  13
ATOM     13  C   UNL     1     -20.984  -2.185 -13.645  1.00  0.00    -0.000 C 
BRANCH  13  14
ATOM     14  C   UNL     1     -20.331  -2.735 -14.925  1.00  0.00    -0.000 C 
BRANCH  14  15
ATOM     15  C   UNL     1     -19.455  -3.970 -14.658  1.00  0.00    -0.000 C 
BRANCH  15  16
ATOM     16  C   UNL     1     -19.913  -5.203 -15.458  1.00  0.00    -0.000 C 
BRANCH  16  17
ATOM     17  C   UNL     1     -19.491  -6.526 -14.797  1.00  0.00    -0.000 C 
BRANCH  17  18
ATOM     18  C   UNL     1     -20.273  -6.816 -13.503  1.00  0.00    -0.000 C 
BRANCH  18  19
ATOM     19  C   UNL     1     -20.887  -8.224 -13.490  1.00  0.00    -0.003 C 
ATOM     20  C   UNL     1     -19.833  -9.331 -13.486  1.00  0.00     0.004 C 
ENDBRANCH  18  19
ENDBRANCH  17  18
ENDBRANCH  16  17
ENDBRANCH  15  16
ENDBRANCH  14  15
ENDBRANCH  13  14
ENDBRANCH  12  13
ENDBRANCH   1  12
TORSDOF 16
ENDMDL
MODEL 8
REMARK VINA RESULT:    -4.309      1.215      2.171
REMARK INTER + INTRA:          -9.205
REMARK INTER:                  -7.908
REMARK INTRA:                  -1.297
REMARK UNBOUND:                -0.865
REMARK SMILES CCCCCCCCCCCCCCCCCC(=O)[O-]
REMARK SMILES IDX 10 1 11 2 12 3 13 4 14 5 15 6 16 7 17 8 18 9 19 10 20 11
REMARK SMILES IDX 9 12 8 13 7 14 6 15 5 16 4 17 3 18 2 19 1 20
REMARK H PARENT
REMARK Flexibility Score: inf
ROOT
ATOM      1  C   UNL     1      -6.749 -11.384   1.982  1.00  0.00     0.000 C 
ENDROOT
BRANCH   1   2
ATOM      2  C   UNL     1      -6.227 -10.050   2.539  1.00  0.00     0.000 C 
BRANCH   2   3
ATOM      3  C   UNL     1      -5.569  -9.174   1.460  1.00  0.00     0.000 C 
BRANCH   3   4
ATOM      4  C   UNL     1      -6.245  -7.800   1.317  1.00  0.00     0.000 C 
BRANCH   4   5
ATOM      5  C   UNL     1      -6.812  -7.572  -0.101  1.00  0.00     0.000 C 
BRANCH   5   6
ATOM      6  C   UNL     1      -7.970  -8.523  -0.464  1.00  0.00     0.000 C 
BRANCH   6   7
ATOM      7  C   UNL     1      -9.135  -8.539   0.544  1.00  0.00     0.006 C 
BRANCH   7   8
ATOM      8  C   UNL     1     -10.196  -7.454   0.300  1.00  0.00     0.053 C 
BRANCH   8   9
ATOM      9  C   UNL     1     -10.275  -6.485   1.440  1.00  0.00     0.041 C 
ATOM     10  O   UNL     1     -11.280  -6.482   2.200  1.00  0.00    -0.550 OA
ATOM     11  O   UNL     1      -9.256  -5.563   1.642  1.00  0.00    -0.550 OA
ENDBRANCH   8   9
ENDBRANCH   7   8
ENDBRANCH   6   7
ENDBRANCH   5   6
ENDBRANCH   4   5
ENDBRANCH   3   4
ENDBRANCH   2   3
ENDBRANCH   1   2
BRANCH   1  12
ATOM     12  C   UNL     1      -6.410 -11.524   0.491  1.00  0.00     0.000 C 
BRANCH  12  13
ATOM     13  C   UNL     1      -5.851 -12.912   0.135  1.00  0.00    -0.000 C 
BRANCH  13  14
ATOM     14  C   UNL     1      -6.171 -13.969   1.206  1.00  0.00    -0.000 C 
BRANCH  14  15
ATOM     15  C   UNL     1      -5.621 -15.360   0.846  1.00  0.00    -0.000 C 
BRANCH  15  16
ATOM     16  C   UNL     1      -6.718 -16.439   0.817  1.00  0.00    -0.000 C 
BRANCH  16  17
ATOM     17  C   UNL     1      -6.154 -17.859   0.986  1.00  0.00    -0.000 C 
BRANCH  17  18
ATOM     18  C   UNL     1      -7.011 -18.924   0.278  1.00  0.00    -0.000 C 
BRANCH  18  19
ATOM     19  C   UNL     1      -6.240 -19.660  -0.828  1.00  0.00    -0.003 C 
ATOM     20  C   UNL     1      -5.800 -21.063  -0.412  1.00  0.00     0.004 C 
ENDBRANCH  18  19
ENDBRANCH  17  18
ENDBRANCH  16  17
ENDBRANCH  15  16
ENDBRANCH  14  15
ENDBRANCH  13  14
ENDBRANCH  12  13
ENDBRANCH   1  12
TORSDOF 16
ENDMDL
MODEL 9
REMARK VINA RESULT:    -4.241     20.729     23.879
REMARK INTER + INTRA:          -9.072
REMARK INTER:                  -6.368
REMARK INTRA:                  -2.705
REMARK UNBOUND:                -0.865
REMARK SMILES CCCCCCCCCCCCCCCCCC(=O)[O-]
REMARK SMILES IDX 10 1 11 2 12 3 13 4 14 5 15 6 16 7 17 8 18 9 19 10 20 11
REMARK SMILES IDX 9 12 8 13 7 14 6 15 5 16 4 17 3 18 2 19 1 20
REMARK H PARENT
REMARK Flexibility Score: inf
ROOT
ATOM      1  C   UNL     1     -20.308  -6.436 -12.793  1.00  0.00     0.000 C 
ENDROOT
BRANCH   1   2
ATOM      2  C   UNL     1     -19.929  -7.190 -14.077  1.00  0.00     0.000 C 
BRANCH   2   3
ATOM      3  C   UNL     1     -19.642  -6.247 -15.257  1.00  0.00     0.000 C 
BRANCH   3   4
ATOM      4  C   UNL     1     -20.821  -6.151 -16.240  1.00  0.00     0.000 C 
BRANCH   4   5
ATOM      5  C   UNL     1     -21.936  -7.169 -15.917  1.00  0.00     0.000 C 
BRANCH   5   6
ATOM      6  C   UNL     1     -23.191  -7.013 -16.800  1.00  0.00     0.000 C 
BRANCH   6   7
ATOM      7  C   UNL     1     -24.086  -8.263 -16.880  1.00  0.00     0.006 C 
BRANCH   7   8
ATOM      8  C   UNL     1     -23.316  -9.581 -17.056  1.00  0.00     0.053 C 
BRANCH   8   9
ATOM      9  C   UNL     1     -23.557 -10.525 -15.918  1.00  0.00     0.041 C 
ATOM     10  O   UNL     1     -22.589 -10.952 -15.232  1.00  0.00    -0.550 OA
ATOM     11  O   UNL     1     -24.845 -10.960 -15.634  1.00  0.00    -0.550 OA
ENDBRANCH   8   9
ENDBRANCH   7   8
ENDBRANCH   6   7
ENDBRANCH   5   6
ENDBRANCH   4   5
ENDBRANCH   3   4
ENDBRANCH   2   3
ENDBRANCH   1   2
BRANCH   1  12
ATOM     12  C   UNL     1     -19.902  -4.957 -12.888  1.00  0.00     0.000 C 
BRANCH  12  13
ATOM     13  C   UNL     1     -21.070  -4.000 -12.595  1.00  0.00    -0.000 C 
BRANCH  13  14
ATOM     14  C   UNL     1     -22.442  -4.647 -12.850  1.00  0.00    -0.000 C 
BRANCH  14  15
ATOM     15  C   UNL     1     -23.444  -3.673 -13.493  1.00  0.00    -0.000 C 
BRANCH  15  16
ATOM     16  C   UNL     1     -23.633  -3.929 -14.999  1.00  0.00    -0.000 C 
BRANCH  16  17
ATOM     17  C   UNL     1     -22.750  -3.018 -15.868  1.00  0.00    -0.000 C 
BRANCH  17  18
ATOM     18  C   UNL     1     -22.376  -1.705 -15.157  1.00  0.00    -0.000 C 
BRANCH  18  19
ATOM     19  C   UNL     1     -20.889  -1.355 -15.312  1.00  0.00    -0.003 C 
ATOM     20  C   UNL     1     -20.049  -2.535 -15.801  1.00  0.00     0.004 C 
ENDBRANCH  18  19
ENDBRANCH  17  18
ENDBRANCH  16  17
ENDBRANCH  15  16
ENDBRANCH  14  15
ENDBRANCH  13  14
ENDBRANCH  12  13
ENDBRANCH   1  12
TORSDOF 16
ENDMDL
