MODEL 1
REMARK VINA RESULT:    -3.272      0.000      0.000
REMARK INTER + INTRA:          -6.250
REMARK INTER:                  -5.186
REMARK INTRA:                  -1.065
REMARK UNBOUND:                -1.065
REMARK SMILES CCCCCCCCCCCC(=O)[O-]
REMARK SMILES IDX 7 1 8 2 9 3 10 4 11 5 12 6 13 7 14 8 6 9 5 10 4 11 3 12 2 13
REMARK SMILES IDX 1 14
REMARK H PARENT
REMARK Flexibility Score: inf
ROOT
ATOM      1  C   UNL     1      -7.008  17.078 -13.646  1.00  0.00     0.000 C 
ENDROOT
BRANCH   1   2
ATOM      2  C   UNL     1      -8.259  16.404 -14.234  1.00  0.00     0.000 C 
BRANCH   2   3
ATOM      3  C   UNL     1      -7.926  15.177 -15.103  1.00  0.00     0.000 C 
BRANCH   3   4
ATOM      4  C   UNL     1      -8.289  13.813 -14.480  1.00  0.00     0.006 C 
BRANCH   4   5
ATOM      5  C   UNL     1      -7.095  12.870 -14.268  1.00  0.00     0.053 C 
BRANCH   5   6
ATOM      6  C   UNL     1      -6.303  13.231 -13.050  1.00  0.00     0.041 C 
ATOM      7  O   UNL     1      -5.114  12.833 -12.926  1.00  0.00    -0.550 OA
ATOM      8  O   UNL     1      -6.888  13.978 -12.035  1.00  0.00    -0.550 OA
ENDBRANCH   5   6
ENDBRANCH   4   5
ENDBRANCH   3   4
ENDBRANCH   2   3
ENDBRANCH   1   2
BRANCH   1   9
ATOM      9  C   UNL     1      -5.721  16.681 -14.387  1.00  0.00     0.000 C 
BRANCH   9  10
ATOM     10  C   UNL     1      -5.002  17.883 -15.018  1.00  0.00    -0.000 C 
BRANCH  10  11
ATOM     11  C   UNL     1      -5.940  19.098 -15.106  1.00  0.00    -0.000 C 
BRANCH  11  12
ATOM     12  C   UNL     1      -5.277  20.403 -14.630  1.00  0.00    -0.000 C 
BRANCH  12  13
ATOM     13  C   UNL     1      -5.544  20.763 -13.158  1.00  0.00    -0.003 C 
ATOM     14  C   UNL     1      -7.033  20.826 -12.817  1.00  0.00     0.004 C 
ENDBRANCH  12  13
ENDBRANCH  11  12
ENDBRANCH  10  11
ENDBRANCH   9  10
ENDBRANCH   1   9
TORSDOF 10
ENDMDL
MODEL 2
REMARK VINA RESULT:    -3.248      2.960      5.418
REMARK INTER + INTRA:          -6.211
REMARK INTER:                  -4.906
REMARK INTRA:                  -1.305
REMARK UNBOUND:                -1.065
REMARK SMILES CCCCCCCCCCCC(=O)[O-]
REMARK SMILES IDX 7 1 8 2 9 3 10 4 11 5 12 6 13 7 14 8 6 9 5 10 4 11 3 12 2 13
REMARK SMILES IDX 1 14
REMARK H PARENT
REMARK Flexibility Score: inf
ROOT
ATOM      1  C   UNL     1      -5.605  14.664 -14.658  1.00  0.00     0.000 C 
ENDROOT
BRANCH   1   2
ATOM      2  C   UNL     1      -4.942  16.011 -14.995  1.00  0.00     0.000 C 
BRANCH   2   3
ATOM      3  C   UNL     1      -5.519  17.183 -14.180  1.00  0.00     0.000 C 
BRANCH   3   4
ATOM      4  C   UNL     1      -6.246  18.263 -15.007  1.00  0.00     0.006 C 
BRANCH   4   5
ATOM      5  C   UNL     1      -5.666  19.678 -14.860  1.00  0.00     0.053 C 
BRANCH   5   6
ATOM      6  C   UNL     1      -6.115  20.341 -13.594  1.00  0.00     0.041 C 
ATOM      7  O   UNL     1      -5.306  20.507 -12.644  1.00  0.00    -0.550 OA
ATOM      8  O   UNL     1      -7.436  20.745 -13.450  1.00  0.00    -0.550 OA
ENDBRANCH   5   6
ENDBRANCH   4   5
ENDBRANCH   3   4
ENDBRANCH   2   3
ENDBRANCH   1   2
BRANCH   1   9
ATOM      9  C   UNL     1      -7.068  14.594 -15.125  1.00  0.00     0.000 C 
BRANCH   9  10
ATOM     10  C   UNL     1      -8.028  14.153 -14.010  1.00  0.00    -0.000 C 
BRANCH  10  11
ATOM     11  C   UNL     1      -7.325  14.171 -12.643  1.00  0.00    -0.000 C 
BRANCH  11  12
ATOM     12  C   UNL     1      -7.768  15.349 -11.756  1.00  0.00    -0.000 C 
BRANCH  12  13
ATOM     13  C   UNL     1      -8.921  16.191 -12.329  1.00  0.00    -0.003 C 
ATOM     14  C   UNL     1      -8.654  17.695 -12.263  1.00  0.00     0.004 C 
ENDBRANCH  12  13
ENDBRANCH  11  12
ENDBRANCH  10  11
ENDBRANCH   9  10
ENDBRANCH   1   9
TORSDOF 10
ENDMDL
MODEL 3
REMARK VINA RESULT:    -3.180      3.120      5.738
REMARK INTER + INTRA:          -6.103
REMARK INTER:                  -5.017
REMARK INTRA:                  -1.086
REMARK UNBOUND:                -1.065
REMARK SMILES CCCCCCCCCCCC(=O)[O-]
REMARK SMILES IDX 7 1 8 2 9 3 10 4 11 5 12 6 13 7 14 8 6 9 5 10 4 11 3 12 2 13
REMARK SMILES IDX 1 14
REMARK H PARENT
REMARK Flexibility Score: inf
ROOT
ATOM      1  C   UNL     1      -7.492  14.839 -12.567  1.00  0.00     0.000 C 
ENDROOT
BRANCH   1   2
ATOM      2  C   UNL     1      -7.889  16.106 -11.791  1.00  0.00     0.000 C 
BRANCH   2   3
ATOM      3  C   UNL     1      -9.005  16.909 -12.484  1.00  0.00     0.000 C 
BRANCH   3   4
ATOM      4  C   UNL     1      -8.639  18.363 -12.849  1.00  0.00     0.006 C 
BRANCH   4   5
ATOM      5  C   UNL     1      -7.316  18.515 -13.615  1.00  0.00     0.053 C 
BRANCH   5   6
ATOM      6  C   UNL     1      -6.804  19.922 -13.576  1.00  0.00     0.041 C 
ATOM      7  O   UNL     1      -6.487  20.451 -12.477  1.00  0.00    -0.550 OA
ATOM      8  O   UNL     1      -6.707  20.661 -14.748  1.00  0.00    -0.550 OA
ENDBRANCH   5   6
ENDBRANCH   4   5
ENDBRANCH   3   4
ENDBRANCH   2   3
ENDBRANCH   1   2
BRANCH   1   9
ATOM      9  C   UNL     1      -8.280  14.680 -13.878  1.00  0.00     0.000 C 
BRANCH   9  10
ATOM     10  C   UNL     1      -7.409  14.892 -15.125  1.00  0.00    -0.000 C 
BRANCH  10  11
ATOM     11  C   UNL     1      -5.987  15.322 -14.734  1.00  0.00    -0.000 C 
BRANCH  11  12
ATOM     12  C   UNL     1      -4.923  14.264 -15.078  1.00  0.00    -0.000 C 
BRANCH  12  13
ATOM     13  C   UNL     1      -5.409  12.806 -14.989  1.00  0.00    -0.003 C 
ATOM     14  C   UNL     1      -5.128  12.164 -13.631  1.00  0.00     0.004 C 
ENDBRANCH  12  13
ENDBRANCH  11  12
ENDBRANCH  10  11
ENDBRANCH   9  10
ENDBRANCH   1   9
TORSDOF 10
ENDMDL
MODEL 4
REMARK VINA RESULT:    -3.142      1.301      1.726
REMARK INTER + INTRA:          -6.043
REMARK INTER:                  -5.080
REMARK INTRA:                  -0.963
REMARK UNBOUND:                -1.065
REMARK SMILES CCCCCCCCCCCC(=O)[O-]
REMARK SMILES IDX 7 1 8 2 9 3 10 4 11 5 12 6 13 7 14 8 6 9 5 10 4 11 3 12 2 13
REMARK SMILES IDX 1 14
REMARK H PARENT
REMARK Flexibility Score: inf
ROOT
ATOM      1  C   UNL     1      -8.689  17.180 -12.790  1.00  0.00     0.000 C 
ENDROOT
BRANCH   1   2
ATOM      2  C   UNL     1      -7.581  16.316 -12.164  1.00  0.00     0.000 C 
BRANCH   2   3
ATOM      3  C   UNL     1      -7.887  14.808 -12.231  1.00  0.00     0.000 C 
BRANCH   3   4
ATOM      4  C   UNL     1      -7.902  14.203 -13.650  1.00  0.00     0.006 C 
BRANCH   4   5
ATOM      5  C   UNL     1      -7.016  12.960 -13.824  1.00  0.00     0.053 C 
BRANCH   5   6
ATOM      6  C   UNL     1      -5.566  13.271 -13.618  1.00  0.00     0.041 C 
ATOM      7  O   UNL     1      -4.877  12.580 -12.821  1.00  0.00    -0.550 OA
ATOM      8  O   UNL     1      -4.983  14.345 -14.279  1.00  0.00    -0.550 OA
ENDBRANCH   5   6
ENDBRANCH   4   5
ENDBRANCH   3   4
ENDBRANCH   2   3
ENDBRANCH   1   2
BRANCH   1   9
ATOM      9  C   UNL     1      -8.204  17.960 -14.022  1.00  0.00     0.000 C 
BRANCH   9  10
ATOM     10  C   UNL     1      -6.790  17.553 -14.465  1.00  0.00    -0.000 C 
BRANCH  10  11
ATOM     11  C   UNL     1      -5.976  18.782 -14.899  1.00  0.00    -0.000 C 
BRANCH  11  12
ATOM     12  C   UNL     1      -5.028  19.293 -13.799  1.00  0.00    -0.000 C 
BRANCH  12  13
ATOM     13  C   UNL     1      -5.289  20.739 -13.341  1.00  0.00    -0.003 C 
ATOM     14  C   UNL     1      -6.630  20.908 -12.627  1.00  0.00     0.004 C 
ENDBRANCH  12  13
ENDBRANCH  11  12
ENDBRANCH  10  11
ENDBRANCH   9  10
ENDBRANCH   1   9
TORSDOF 10
ENDMDL
MODEL 5
REMARK VINA RESULT:    -3.080      2.969      5.974
REMARK INTER + INTRA:          -5.945
REMARK INTER:                  -5.352
REMARK INTRA:                  -0.593
REMARK UNBOUND:                -1.065
REMARK SMILES CCCCCCCCCCCC(=O)[O-]
REMARK SMILES IDX 7 1 8 2 9 3 10 4 11 5 12 6 13 7 14 8 6 9 5 10 4 11 3 12 2 13
REMARK SMILES IDX 1 14
REMARK H PARENT
REMARK Flexibility Score: inf
ROOT
ATOM      1  C   UNL     1      -8.253  16.086 -12.631  1.00  0.00     0.000 C 
ENDROOT
BRANCH   1   2
ATOM      2  C   UNL     1      -9.088  17.328 -12.988  1.00  0.00     0.000 C 
BRANCH   2   3
ATOM      3  C   UNL     1      -8.290  18.640 -12.873  1.00  0.00     0.000 C 
BRANCH   3   4
ATOM      4  C   UNL     1      -8.052  19.383 -14.203  1.00  0.00     0.006 C 
BRANCH   4   5
ATOM      5  C   UNL     1      -7.240  20.681 -14.073  1.00  0.00     0.053 C 
BRANCH   5   6
ATOM      6  C   UNL     1      -5.956  20.468 -13.332  1.00  0.00     0.041 C 
ATOM      7  O   UNL     1      -4.993  19.877 -13.889  1.00  0.00    -0.550 OA
ATOM      8  O   UNL     1      -5.834  20.892 -12.015  1.00  0.00    -0.550 OA
ENDBRANCH   5   6
ENDBRANCH   4   5
ENDBRANCH   3   4
ENDBRANCH   2   3
ENDBRANCH   1   2
BRANCH   1   9
ATOM      9  C   UNL     1      -6.850  16.118 -13.258  1.00  0.00     0.000 C 
BRANCH   9  10
ATOM     10  C   UNL     1      -6.817  15.522 -14.673  1.00  0.00    -0.000 C 
BRANCH  10  11
ATOM     11  C   UNL     1      -5.736  14.435 -14.784  1.00  0.00    -0.000 C 
BRANCH  11  12
ATOM     12  C   UNL     1      -6.322  13.013 -14.871  1.00  0.00    -0.000 C 
BRANCH  12  13
ATOM     13  C   UNL     1      -7.673  12.827 -14.158  1.00  0.00    -0.003 C 
ATOM     14  C   UNL     1      -8.856  12.772 -15.124  1.00  0.00     0.004 C 
ENDBRANCH  12  13
ENDBRANCH  11  12
ENDBRANCH  10  11
ENDBRANCH   9  10
ENDBRANCH   1   9
TORSDOF 10
ENDMDL
MODEL 6
REMARK VINA RESULT:    -2.978      2.858      6.195
REMARK INTER + INTRA:          -5.784
REMARK INTER:                  -5.059
REMARK INTRA:                  -0.725
REMARK UNBOUND:                -1.065
REMARK SMILES CCCCCCCCCCCC(=O)[O-]
REMARK SMILES IDX 7 1 8 2 9 3 10 4 11 5 12 6 13 7 14 8 6 9 5 10 4 11 3 12 2 13
REMARK SMILES IDX 1 14
REMARK H PARENT
REMARK Flexibility Score: inf
ROOT
ATOM      1  C   UNL     1      -6.747  16.822 -14.395  1.00  0.00     0.000 C 
ENDROOT
BRANCH   1   2
ATOM      2  C   UNL     1      -7.817  17.811 -14.891  1.00  0.00     0.000 C 
BRANCH   2   3
ATOM      3  C   UNL     1      -7.972  19.036 -13.971  1.00  0.00     0.000 C 
BRANCH   3   4
ATOM      4  C   UNL     1      -7.797  20.403 -14.663  1.00  0.00     0.006 C 
BRANCH   4   5
ATOM      5  C   UNL     1      -6.448  21.087 -14.395  1.00  0.00     0.053 C 
BRANCH   5   6
ATOM      6  C   UNL     1      -5.789  20.563 -13.157  1.00  0.00     0.041 C 
ATOM      7  O   UNL     1      -6.036  21.086 -12.038  1.00  0.00    -0.550 OA
ATOM      8  O   UNL     1      -4.877  19.518 -13.241  1.00  0.00    -0.550 OA
ENDBRANCH   5   6
ENDBRANCH   4   5
ENDBRANCH   3   4
ENDBRANCH   2   3
ENDBRANCH   1   2
BRANCH   1   9
ATOM      9  C   UNL     1      -7.246  15.948 -13.234  1.00  0.00     0.000 C 
BRANCH   9  10
ATOM     10  C   UNL     1      -8.374  14.992 -13.650  1.00  0.00    -0.000 C 
BRANCH  10  11
ATOM     11  C   UNL     1      -7.808  13.746 -14.348  1.00  0.00    -0.000 C 
BRANCH  11  12
ATOM     12  C   UNL     1      -6.823  12.959 -13.464  1.00  0.00    -0.000 C 
BRANCH  12  13
ATOM     13  C   UNL     1      -5.511  12.557 -14.159  1.00  0.00    -0.003 C 
ATOM     14  C   UNL     1      -4.901  13.688 -14.987  1.00  0.00     0.004 C 
ENDBRANCH  12  13
ENDBRANCH  11  12
ENDBRANCH  10  11
ENDBRANCH   9  10
ENDBRANCH   1   9
TORSDOF 10
ENDMDL
MODEL 7
REMARK VINA RESULT:    -2.893      1.561      2.118
REMARK INTER + INTRA:          -5.648
REMARK INTER:                  -4.889
REMARK INTRA:                  -0.759
REMARK UNBOUND:                -1.065
REMARK SMILES CCCCCCCCCCCC(=O)[O-]
REMARK SMILES IDX 7 1 8 2 9 3 10 4 11 5 12 6 13 7 14 8 6 9 5 10 4 11 3 12 2 13
REMARK SMILES IDX 1 14
REMARK H PARENT
REMARK Flexibility Score: inf
ROOT
ATOM      1  C   UNL     1      -8.281  16.562 -12.131  1.00  0.00     0.000 C 
ENDROOT
BRANCH   1   2
ATOM      2  C   UNL     1      -7.549  15.276 -12.551  1.00  0.00     0.000 C 
BRANCH   2   3
ATOM      3  C   UNL     1      -8.050  14.713 -13.894  1.00  0.00     0.000 C 
BRANCH   3   4
ATOM      4  C   UNL     1      -7.042  14.798 -15.059  1.00  0.00     0.006 C 
BRANCH   4   5
ATOM      5  C   UNL     1      -5.581  14.540 -14.660  1.00  0.00     0.053 C 
BRANCH   5   6
ATOM      6  C   UNL     1      -5.351  13.115 -14.261  1.00  0.00     0.041 C 
ATOM      7  O   UNL     1      -5.436  12.196 -15.118  1.00  0.00    -0.550 OA
ATOM      8  O   UNL     1      -5.077  12.797 -12.937  1.00  0.00    -0.550 OA
ENDBRANCH   5   6
ENDBRANCH   4   5
ENDBRANCH   3   4
ENDBRANCH   2   3
ENDBRANCH   1   2
BRANCH   1   9
ATOM      9  C   UNL     1      -8.881  17.317 -13.328  1.00  0.00     0.000 C 
BRANCH   9  10
ATOM     10  C   UNL     1      -8.198  18.670 -13.581  1.00  0.00    -0.000 C 
BRANCH  10  11
ATOM     11  C   UNL     1      -6.737  18.474 -14.014  1.00  0.00    -0.000 C 
BRANCH  11  12
ATOM     12  C   UNL     1      -6.148  19.710 -14.718  1.00  0.00    -0.000 C 
BRANCH  12  13
ATOM     13  C   UNL     1      -6.422  21.048 -14.010  1.00  0.00    -0.003 C 
ATOM     14  C   UNL     1      -5.828  21.113 -12.602  1.00  0.00     0.004 C 
ENDBRANCH  12  13
ENDBRANCH  11  12
ENDBRANCH  10  11
ENDBRANCH   9  10
ENDBRANCH   1   9
TORSDOF 10
ENDMDL
