MODEL 1
REMARK VINA RESULT:    -5.426      0.000      0.000
REMARK INTER + INTRA:          -6.787
REMARK INTER:                  -6.536
REMARK INTRA:                  -0.251
REMARK UNBOUND:                -0.251
REMARK SMILES O=c1c(O)c(-c2ccc(O)cc2O)oc2cc(O)cc(O)c12
REMARK SMILES IDX 5 1 3 2 2 3 1 4 22 5 20 6 19 7 17 8 16 9 15 10 14 11 6 12
REMARK SMILES IDX 8 13 7 14 9 15 11 16 12 17 10 18 13 20 4 22 21 24 18 26
REMARK H PARENT 10 19 13 21 4 23 21 25 18 27
REMARK Flexibility Score: inf
ROOT
ATOM      1  C   UNL     1      19.807  27.397  42.666  1.00  0.00     0.184 A 
ATOM      2  C   UNL     1      18.877  28.085  43.463  1.00  0.00     0.208 A 
ATOM      3  C   UNL     1      17.508  27.868  43.249  1.00  0.00     0.238 A 
ATOM      4  O   UNL     1      16.664  28.482  43.956  1.00  0.00    -0.285 OA
ATOM      5  C   UNL     1      17.095  26.962  42.249  1.00  0.00     0.111 A 
ATOM      6  C   UNL     1      15.735  26.683  41.971  1.00  0.00     0.134 A 
ATOM      7  C   UNL     1      15.405  25.766  40.962  1.00  0.00     0.093 A 
ATOM      8  C   UNL     1      16.408  25.125  40.227  1.00  0.00     0.123 A 
ATOM      9  C   UNL     1      17.751  25.396  40.498  1.00  0.00     0.094 A 
ATOM     10  C   UNL     1      18.100  26.307  41.498  1.00  0.00     0.146 A 
ATOM     11  O   UNL     1      19.385  26.549  41.733  1.00  0.00    -0.451 OA
ENDROOT
BRANCH   1  12
ATOM     12  C   UNL     1      21.262  27.598  42.832  1.00  0.00     0.063 A 
ATOM     13  C   UNL     1      23.165  29.116  42.872  1.00  0.00     0.047 A 
ATOM     14  C   UNL     1      21.789  28.901  42.772  1.00  0.00     0.020 A 
ATOM     15  C   UNL     1      24.036  28.034  43.025  1.00  0.00     0.119 A 
ATOM     16  C   UNL     1      23.523  26.733  43.084  1.00  0.00     0.093 A 
ATOM     17  C   UNL     1      22.144  26.505  42.996  1.00  0.00     0.130 A 
BRANCH  15  18
ATOM     18  O   UNL     1      25.407  28.263  43.118  1.00  0.00    -0.508 OA
ATOM     19  H   UNL     1      25.776  29.184  43.326  1.00  0.00     0.293 HD
ENDBRANCH  15  18
BRANCH  17  20
ATOM     20  O   UNL     1      21.685  25.190  43.096  1.00  0.00    -0.507 OA
ATOM     21  H   UNL     1      20.704  24.952  43.164  1.00  0.00     0.293 HD
ENDBRANCH  17  20
ENDBRANCH   1  12
BRANCH   2  22
ATOM     22  O   UNL     1      19.320  28.958  44.460  1.00  0.00    -0.502 OA
ATOM     23  H   UNL     1      18.735  29.231  45.240  1.00  0.00     0.293 HD
ENDBRANCH   2  22
BRANCH   6  24
ATOM     24  O   UNL     1      14.712  27.308  42.687  1.00  0.00    -0.507 OA
ATOM     25  H   UNL     1      14.875  28.150  43.225  1.00  0.00     0.293 HD
ENDBRANCH   6  24
BRANCH   8  26
ATOM     26  O   UNL     1      16.082  24.213  39.225  1.00  0.00    -0.508 OA
ATOM     27  H   UNL     1      16.369  24.358  38.264  1.00  0.00     0.293 HD
ENDBRANCH   8  26
TORSDOF 6
ENDMDL
MODEL 2
REMARK VINA RESULT:    -5.355      4.243      6.278
REMARK INTER + INTRA:          -6.701
REMARK INTER:                  -6.320
REMARK INTRA:                  -0.381
REMARK UNBOUND:                -0.251
REMARK SMILES O=c1c(O)c(-c2ccc(O)cc2O)oc2cc(O)cc(O)c12
REMARK SMILES IDX 5 1 3 2 2 3 1 4 22 5 20 6 19 7 17 8 16 9 15 10 14 11 6 12
REMARK SMILES IDX 8 13 7 14 9 15 11 16 12 17 10 18 13 20 4 22 21 24 18 26
REMARK H PARENT 10 19 13 21 4 23 21 25 18 27
REMARK Flexibility Score: inf
ROOT
ATOM      1  C   UNL     1      21.260  26.287  39.992  1.00  0.00     0.184 A 
ATOM      2  C   UNL     1      22.298  25.359  40.178  1.00  0.00     0.208 A 
ATOM      3  C   UNL     1      22.859  24.734  39.053  1.00  0.00     0.238 A 
ATOM      4  O   UNL     1      23.790  23.898  39.208  1.00  0.00    -0.285 OA
ATOM      5  C   UNL     1      22.376  25.053  37.767  1.00  0.00     0.111 A 
ATOM      6  C   UNL     1      22.889  24.472  36.582  1.00  0.00     0.134 A 
ATOM      7  C   UNL     1      22.358  24.844  35.339  1.00  0.00     0.093 A 
ATOM      8  C   UNL     1      21.325  25.785  35.258  1.00  0.00     0.123 A 
ATOM      9  C   UNL     1      20.817  26.363  36.423  1.00  0.00     0.094 A 
ATOM     10  C   UNL     1      21.333  26.004  37.672  1.00  0.00     0.146 A 
ATOM     11  O   UNL     1      20.829  26.566  38.765  1.00  0.00    -0.451 OA
ENDROOT
BRANCH   1  12
ATOM     12  C   UNL     1      20.617  26.964  41.138  1.00  0.00     0.063 A 
ATOM     13  C   UNL     1      20.723  28.653  42.887  1.00  0.00     0.047 A 
ATOM     14  C   UNL     1      21.281  28.031  41.769  1.00  0.00     0.020 A 
ATOM     15  C   UNL     1      19.498  28.214  43.397  1.00  0.00     0.119 A 
ATOM     16  C   UNL     1      18.829  27.151  42.779  1.00  0.00     0.093 A 
ATOM     17  C   UNL     1      19.374  26.526  41.651  1.00  0.00     0.130 A 
BRANCH  15  18
ATOM     18  O   UNL     1      18.956  28.842  44.517  1.00  0.00    -0.508 OA
ATOM     19  H   UNL     1      18.005  28.660  44.816  1.00  0.00     0.293 HD
ENDBRANCH  15  18
BRANCH  17  20
ATOM     20  O   UNL     1      18.647  25.494  41.053  1.00  0.00    -0.507 OA
ATOM     21  H   UNL     1      18.180  25.592  40.161  1.00  0.00     0.293 HD
ENDBRANCH  17  20
ENDBRANCH   1  12
BRANCH   2  22
ATOM     22  O   UNL     1      22.769  25.083  41.464  1.00  0.00    -0.502 OA
ATOM     23  H   UNL     1      23.284  24.239  41.683  1.00  0.00     0.293 HD
ENDBRANCH   2  22
BRANCH   6  24
ATOM     24  O   UNL     1      23.917  23.529  36.630  1.00  0.00    -0.507 OA
ATOM     25  H   UNL     1      23.905  22.696  36.054  1.00  0.00     0.293 HD
ENDBRANCH   6  24
BRANCH   8  26
ATOM     26  O   UNL     1      20.798  26.157  34.023  1.00  0.00    -0.508 OA
ATOM     27  H   UNL     1      21.397  26.365  33.232  1.00  0.00     0.293 HD
ENDBRANCH   8  26
TORSDOF 6
ENDMDL
MODEL 3
REMARK VINA RESULT:    -5.347      8.947     10.674
REMARK INTER + INTRA:          -6.692
REMARK INTER:                  -6.317
REMARK INTRA:                  -0.375
REMARK UNBOUND:                -0.251
REMARK SMILES O=c1c(O)c(-c2ccc(O)cc2O)oc2cc(O)cc(O)c12
REMARK SMILES IDX 5 1 3 2 2 3 1 4 22 5 20 6 19 7 17 8 16 9 15 10 14 11 6 12
REMARK SMILES IDX 8 13 7 14 9 15 11 16 12 17 10 18 13 20 4 22 21 24 18 26
REMARK H PARENT 10 19 13 21 4 23 21 25 18 27
REMARK Flexibility Score: inf
ROOT
ATOM      1  C   UNL     1      14.968  28.812  33.214  1.00  0.00     0.184 A 
ATOM      2  C   UNL     1      13.626  29.225  33.222  1.00  0.00     0.208 A 
ATOM      3  C   UNL     1      12.690  28.475  33.951  1.00  0.00     0.238 A 
ATOM      4  O   UNL     1      11.481  28.835  33.964  1.00  0.00    -0.285 OA
ATOM      5  C   UNL     1      13.115  27.334  34.662  1.00  0.00     0.111 A 
ATOM      6  C   UNL     1      12.237  26.526  35.425  1.00  0.00     0.134 A 
ATOM      7  C   UNL     1      12.738  25.407  36.107  1.00  0.00     0.093 A 
ATOM      8  C   UNL     1      14.098  25.082  36.042  1.00  0.00     0.123 A 
ATOM      9  C   UNL     1      14.967  25.877  35.292  1.00  0.00     0.094 A 
ATOM     10  C   UNL     1      14.488  26.995  34.604  1.00  0.00     0.146 A 
ATOM     11  O   UNL     1      15.336  27.731  33.896  1.00  0.00    -0.451 OA
ENDROOT
BRANCH   1  12
ATOM     12  C   UNL     1      15.996  29.550  32.449  1.00  0.00     0.063 A 
ATOM     13  C   UNL     1      17.332  31.563  32.159  1.00  0.00     0.047 A 
ATOM     14  C   UNL     1      16.403  30.821  32.892  1.00  0.00     0.020 A 
ATOM     15  C   UNL     1      17.862  31.052  30.973  1.00  0.00     0.119 A 
ATOM     16  C   UNL     1      17.462  29.789  30.521  1.00  0.00     0.093 A 
ATOM     17  C   UNL     1      16.539  29.029  31.251  1.00  0.00     0.130 A 
BRANCH  15  18
ATOM     18  O   UNL     1      18.784  31.806  30.250  1.00  0.00    -0.508 OA
ATOM     19  H   UNL     1      18.768  32.820  30.267  1.00  0.00     0.293 HD
ENDBRANCH  15  18
BRANCH  17  20
ATOM     20  O   UNL     1      16.203  27.762  30.773  1.00  0.00    -0.507 OA
ATOM     21  H   UNL     1      16.656  27.334  29.976  1.00  0.00     0.293 HD
ENDBRANCH  17  20
ENDBRANCH   1  12
BRANCH   2  22
ATOM     22  O   UNL     1      13.241  30.374  32.526  1.00  0.00    -0.502 OA
ATOM     23  H   UNL     1      13.906  31.085  32.246  1.00  0.00     0.293 HD
ENDBRANCH   2  22
BRANCH   6  24
ATOM     24  O   UNL     1      10.876  26.823  35.508  1.00  0.00    -0.507 OA
ATOM     25  H   UNL     1      10.505  27.713  35.200  1.00  0.00     0.293 HD
ENDBRANCH   6  24
BRANCH   8  26
ATOM     26  O   UNL     1      14.596  23.972  36.720  1.00  0.00    -0.508 OA
ATOM     27  H   UNL     1      15.554  23.663  36.598  1.00  0.00     0.293 HD
ENDBRANCH   8  26
TORSDOF 6
ENDMDL
MODEL 4
REMARK VINA RESULT:    -5.336      9.832     12.655
REMARK INTER + INTRA:          -6.678
REMARK INTER:                  -6.284
REMARK INTRA:                  -0.395
REMARK UNBOUND:                -0.251
REMARK SMILES O=c1c(O)c(-c2ccc(O)cc2O)oc2cc(O)cc(O)c12
REMARK SMILES IDX 5 1 3 2 2 3 1 4 22 5 20 6 19 7 17 8 16 9 15 10 14 11 6 12
REMARK SMILES IDX 8 13 7 14 9 15 11 16 12 17 10 18 13 20 4 22 21 24 18 26
REMARK H PARENT 10 19 13 21 4 23 21 25 18 27
REMARK Flexibility Score: inf
ROOT
ATOM      1  C   UNL     1      15.770  29.585  32.692  1.00  0.00     0.184 A 
ATOM      2  C   UNL     1      16.441  29.258  31.502  1.00  0.00     0.208 A 
ATOM      3  C   UNL     1      17.324  30.194  30.942  1.00  0.00     0.238 A 
ATOM      4  O   UNL     1      17.930  29.913  29.873  1.00  0.00    -0.285 OA
ATOM      5  C   UNL     1      17.525  31.433  31.586  1.00  0.00     0.111 A 
ATOM      6  C   UNL     1      18.399  32.430  31.090  1.00  0.00     0.134 A 
ATOM      7  C   UNL     1      18.547  33.636  31.791  1.00  0.00     0.093 A 
ATOM      8  C   UNL     1      17.838  33.864  32.975  1.00  0.00     0.123 A 
ATOM      9  C   UNL     1      16.974  32.883  33.468  1.00  0.00     0.094 A 
ATOM     10  C   UNL     1      16.812  31.675  32.784  1.00  0.00     0.146 A 
ATOM     11  O   UNL     1      15.983  30.761  33.274  1.00  0.00    -0.451 OA
ENDROOT
BRANCH   1  12
ATOM     12  C   UNL     1      14.814  28.647  33.319  1.00  0.00     0.063 A 
ATOM     13  C   UNL     1      14.393  26.851  34.906  1.00  0.00     0.047 A 
ATOM     14  C   UNL     1      15.261  27.784  34.335  1.00  0.00     0.020 A 
ATOM     15  C   UNL     1      13.070  26.762  34.468  1.00  0.00     0.119 A 
ATOM     16  C   UNL     1      12.614  27.615  33.456  1.00  0.00     0.093 A 
ATOM     17  C   UNL     1      13.471  28.562  32.882  1.00  0.00     0.130 A 
BRANCH  15  18
ATOM     18  O   UNL     1      12.217  25.823  35.045  1.00  0.00    -0.508 OA
ATOM     19  H   UNL     1      12.545  25.172  35.749  1.00  0.00     0.293 HD
ENDBRANCH  15  18
BRANCH  17  20
ATOM     20  O   UNL     1      12.955  29.410  31.901  1.00  0.00    -0.507 OA
ATOM     21  H   UNL     1      12.702  30.373  32.082  1.00  0.00     0.293 HD
ENDBRANCH  17  20
ENDBRANCH   1  12
BRANCH   2  22
ATOM     22  O   UNL     1      16.237  28.012  30.902  1.00  0.00    -0.502 OA
ATOM     23  H   UNL     1      15.464  27.409  31.154  1.00  0.00     0.293 HD
ENDBRANCH   2  22
BRANCH   6  24
ATOM     24  O   UNL     1      19.120  32.232  29.911  1.00  0.00    -0.507 OA
ATOM     25  H   UNL     1      18.765  32.533  29.012  1.00  0.00     0.293 HD
ENDBRANCH   6  24
BRANCH   8  26
ATOM     26  O   UNL     1      17.984  35.061  33.672  1.00  0.00    -0.508 OA
ATOM     27  H   UNL     1      17.209  35.703  33.790  1.00  0.00     0.293 HD
ENDBRANCH   8  26
TORSDOF 6
ENDMDL
MODEL 5
REMARK VINA RESULT:    -5.324      3.611      4.635
REMARK INTER + INTRA:          -6.664
REMARK INTER:                  -6.247
REMARK INTRA:                  -0.417
REMARK UNBOUND:                -0.251
REMARK SMILES O=c1c(O)c(-c2ccc(O)cc2O)oc2cc(O)cc(O)c12
REMARK SMILES IDX 5 1 3 2 2 3 1 4 22 5 20 6 19 7 17 8 16 9 15 10 14 11 6 12
REMARK SMILES IDX 8 13 7 14 9 15 11 16 12 17 10 18 13 20 4 22 21 24 18 26
REMARK H PARENT 10 19 13 21 4 23 21 25 18 27
REMARK Flexibility Score: inf
ROOT
ATOM      1  C   UNL     1      21.208  26.312  40.182  1.00  0.00     0.184 A 
ATOM      2  C   UNL     1      21.873  27.057  41.170  1.00  0.00     0.208 A 
ATOM      3  C   UNL     1      21.128  27.585  42.236  1.00  0.00     0.238 A 
ATOM      4  O   UNL     1      21.713  28.257  43.129  1.00  0.00    -0.285 OA
ATOM      5  C   UNL     1      19.739  27.352  42.297  1.00  0.00     0.111 A 
ATOM      6  C   UNL     1      18.916  27.845  43.339  1.00  0.00     0.134 A 
ATOM      7  C   UNL     1      17.541  27.567  43.330  1.00  0.00     0.093 A 
ATOM      8  C   UNL     1      16.974  26.808  42.301  1.00  0.00     0.123 A 
ATOM      9  C   UNL     1      17.781  26.318  41.272  1.00  0.00     0.094 A 
ATOM     10  C   UNL     1      19.153  26.585  41.262  1.00  0.00     0.146 A 
ATOM     11  O   UNL     1      19.897  26.110  40.270  1.00  0.00    -0.451 OA
ENDROOT
BRANCH   1  12
ATOM     12  C   UNL     1      21.936  25.746  39.025  1.00  0.00     0.063 A 
ATOM     13  C   UNL     1      22.651  25.955  36.708  1.00  0.00     0.047 A 
ATOM     14  C   UNL     1      22.017  26.488  37.833  1.00  0.00     0.020 A 
ATOM     15  C   UNL     1      23.205  24.674  36.755  1.00  0.00     0.119 A 
ATOM     16  C   UNL     1      23.128  23.926  37.935  1.00  0.00     0.093 A 
ATOM     17  C   UNL     1      22.504  24.452  39.073  1.00  0.00     0.130 A 
BRANCH  15  18
ATOM     18  O   UNL     1      23.830  24.154  35.623  1.00  0.00    -0.508 OA
ATOM     19  H   UNL     1      23.306  23.933  34.784  1.00  0.00     0.293 HD
ENDBRANCH  15  18
BRANCH  17  20
ATOM     20  O   UNL     1      22.486  23.677  40.234  1.00  0.00    -0.507 OA
ATOM     21  H   UNL     1      23.310  23.226  40.609  1.00  0.00     0.293 HD
ENDBRANCH  17  20
ENDBRANCH   1  12
BRANCH   2  22
ATOM     22  O   UNL     1      23.255  27.249  41.093  1.00  0.00    -0.502 OA
ATOM     23  H   UNL     1      23.774  27.108  40.235  1.00  0.00     0.293 HD
ENDBRANCH   2  22
BRANCH   6  24
ATOM     24  O   UNL     1      19.452  28.607  44.378  1.00  0.00    -0.507 OA
ATOM     25  H   UNL     1      19.876  29.512  44.214  1.00  0.00     0.293 HD
ENDBRANCH   6  24
BRANCH   8  26
ATOM     26  O   UNL     1      15.609  26.531  42.292  1.00  0.00    -0.508 OA
ATOM     27  H   UNL     1      14.965  27.024  42.899  1.00  0.00     0.293 HD
ENDBRANCH   8  26
TORSDOF 6
ENDMDL
MODEL 6
REMARK VINA RESULT:    -5.281      4.287      6.357
REMARK INTER + INTRA:          -6.613
REMARK INTER:                  -6.197
REMARK INTRA:                  -0.416
REMARK UNBOUND:                -0.251
REMARK SMILES O=c1c(O)c(-c2ccc(O)cc2O)oc2cc(O)cc(O)c12
REMARK SMILES IDX 5 1 3 2 2 3 1 4 22 5 20 6 19 7 17 8 16 9 15 10 14 11 6 12
REMARK SMILES IDX 8 13 7 14 9 15 11 16 12 17 10 18 13 20 4 22 21 24 18 26
REMARK H PARENT 10 19 13 21 4 23 21 25 18 27
REMARK Flexibility Score: inf
ROOT
ATOM      1  C   UNL     1      21.223  26.295  40.044  1.00  0.00     0.184 A 
ATOM      2  C   UNL     1      22.231  25.340  40.255  1.00  0.00     0.208 A 
ATOM      3  C   UNL     1      22.806  24.704  39.144  1.00  0.00     0.238 A 
ATOM      4  O   UNL     1      23.710  23.843  39.320  1.00  0.00    -0.285 OA
ATOM      5  C   UNL     1      22.368  25.041  37.846  1.00  0.00     0.111 A 
ATOM      6  C   UNL     1      22.898  24.450  36.673  1.00  0.00     0.134 A 
ATOM      7  C   UNL     1      22.412  24.841  35.417  1.00  0.00     0.093 A 
ATOM      8  C   UNL     1      21.407  25.810  35.311  1.00  0.00     0.123 A 
ATOM      9  C   UNL     1      20.882  26.396  36.465  1.00  0.00     0.094 A 
ATOM     10  C   UNL     1      21.353  26.019  37.726  1.00  0.00     0.146 A 
ATOM     11  O   UNL     1      20.834  26.590  38.807  1.00  0.00    -0.451 OA
ENDROOT
BRANCH   1  12
ATOM     12  C   UNL     1      20.566  26.984  41.175  1.00  0.00     0.063 A 
ATOM     13  C   UNL     1      18.741  27.078  42.783  1.00  0.00     0.047 A 
ATOM     14  C   UNL     1      19.412  26.421  41.749  1.00  0.00     0.020 A 
ATOM     15  C   UNL     1      19.207  28.308  43.253  1.00  0.00     0.119 A 
ATOM     16  C   UNL     1      20.353  28.879  42.688  1.00  0.00     0.093 A 
ATOM     17  C   UNL     1      21.041  28.226  41.657  1.00  0.00     0.130 A 
BRANCH  15  18
ATOM     18  O   UNL     1      18.524  28.954  44.281  1.00  0.00    -0.508 OA
ATOM     19  H   UNL     1      18.669  29.938  44.477  1.00  0.00     0.293 HD
ENDBRANCH  15  18
BRANCH  17  20
ATOM     20  O   UNL     1      22.198  28.824  41.155  1.00  0.00    -0.507 OA
ATOM     21  H   UNL     1      22.965  29.122  41.742  1.00  0.00     0.293 HD
ENDBRANCH  17  20
ENDBRANCH   1  12
BRANCH   2  22
ATOM     22  O   UNL     1      22.658  25.046  41.553  1.00  0.00    -0.502 OA
ATOM     23  H   UNL     1      23.512  24.536  41.739  1.00  0.00     0.293 HD
ENDBRANCH   2  22
BRANCH   6  24
ATOM     24  O   UNL     1      23.900  23.481  36.746  1.00  0.00    -0.507 OA
ATOM     25  H   UNL     1      23.949  22.820  37.512  1.00  0.00     0.293 HD
ENDBRANCH   6  24
BRANCH   8  26
ATOM     26  O   UNL     1      20.924  26.199  34.064  1.00  0.00    -0.508 OA
ATOM     27  H   UNL     1      21.129  25.666  33.227  1.00  0.00     0.293 HD
ENDBRANCH   8  26
TORSDOF 6
ENDMDL
MODEL 7
REMARK VINA RESULT:    -5.236      1.693      7.451
REMARK INTER + INTRA:          -6.558
REMARK INTER:                  -6.271
REMARK INTRA:                  -0.287
REMARK UNBOUND:                -0.251
REMARK SMILES O=c1c(O)c(-c2ccc(O)cc2O)oc2cc(O)cc(O)c12
REMARK SMILES IDX 5 1 3 2 2 3 1 4 22 5 20 6 19 7 17 8 16 9 15 10 14 11 6 12
REMARK SMILES IDX 8 13 7 14 9 15 11 16 12 17 10 18 13 20 4 22 21 24 18 26
REMARK H PARENT 10 19 13 21 4 23 21 25 18 27
REMARK Flexibility Score: inf
ROOT
ATOM      1  C   UNL     1      21.564  27.484  42.438  1.00  0.00     0.184 A 
ATOM      2  C   UNL     1      22.505  26.441  42.462  1.00  0.00     0.208 A 
ATOM      3  C   UNL     1      23.871  26.761  42.491  1.00  0.00     0.238 A 
ATOM      4  O   UNL     1      24.726  25.833  42.510  1.00  0.00    -0.285 OA
ATOM      5  C   UNL     1      24.269  28.114  42.503  1.00  0.00     0.111 A 
ATOM      6  C   UNL     1      25.624  28.522  42.535  1.00  0.00     0.134 A 
ATOM      7  C   UNL     1      25.939  29.889  42.549  1.00  0.00     0.093 A 
ATOM      8  C   UNL     1      24.926  30.854  42.530  1.00  0.00     0.123 A 
ATOM      9  C   UNL     1      23.588  30.456  42.499  1.00  0.00     0.094 A 
ATOM     10  C   UNL     1      23.253  29.099  42.484  1.00  0.00     0.146 A 
ATOM     11  O   UNL     1      21.973  28.749  42.451  1.00  0.00    -0.451 OA
ENDROOT
BRANCH   1  12
ATOM     12  C   UNL     1      20.112  27.209  42.389  1.00  0.00     0.063 A 
ATOM     13  C   UNL     1      18.219  26.205  41.235  1.00  0.00     0.047 A 
ATOM     14  C   UNL     1      19.593  26.434  41.336  1.00  0.00     0.020 A 
ATOM     15  C   UNL     1      17.344  26.751  42.177  1.00  0.00     0.119 A 
ATOM     16  C   UNL     1      17.849  27.527  43.227  1.00  0.00     0.093 A 
ATOM     17  C   UNL     1      19.226  27.756  43.346  1.00  0.00     0.130 A 
BRANCH  15  18
ATOM     18  O   UNL     1      15.975  26.518  42.059  1.00  0.00    -0.508 OA
ATOM     19  H   UNL     1      15.454  26.048  42.791  1.00  0.00     0.293 HD
ENDBRANCH  15  18
BRANCH  17  20
ATOM     20  O   UNL     1      19.678  28.507  44.432  1.00  0.00    -0.507 OA
ATOM     21  H   UNL     1      20.615  28.884  44.491  1.00  0.00     0.293 HD
ENDBRANCH  17  20
ENDBRANCH   1  12
BRANCH   2  22
ATOM     22  O   UNL     1      22.077  25.111  42.473  1.00  0.00    -0.502 OA
ATOM     23  H   UNL     1      22.441  24.430  43.128  1.00  0.00     0.293 HD
ENDBRANCH   2  22
BRANCH   6  24
ATOM     24  O   UNL     1      26.657  27.584  42.553  1.00  0.00    -0.507 OA
ATOM     25  H   UNL     1      27.573  27.790  42.172  1.00  0.00     0.293 HD
ENDBRANCH   6  24
BRANCH   8  26
ATOM     26  O   UNL     1      25.237  32.211  42.545  1.00  0.00    -0.508 OA
ATOM     27  H   UNL     1      24.532  32.914  42.732  1.00  0.00     0.293 HD
ENDBRANCH   8  26
TORSDOF 6
ENDMDL
MODEL 8
REMARK VINA RESULT:    -5.221      1.771      6.558
REMARK INTER + INTRA:          -6.540
REMARK INTER:                  -6.136
REMARK INTRA:                  -0.404
REMARK UNBOUND:                -0.251
REMARK SMILES O=c1c(O)c(-c2ccc(O)cc2O)oc2cc(O)cc(O)c12
REMARK SMILES IDX 5 1 3 2 2 3 1 4 22 5 20 6 19 7 17 8 16 9 15 10 14 11 6 12
REMARK SMILES IDX 8 13 7 14 9 15 11 16 12 17 10 18 13 20 4 22 21 24 18 26
REMARK H PARENT 10 19 13 21 4 23 21 25 18 27
REMARK Flexibility Score: inf
ROOT
ATOM      1  C   UNL     1      17.131  26.031  40.600  1.00  0.00     0.184 A 
ATOM      2  C   UNL     1      16.313  26.925  41.311  1.00  0.00     0.208 A 
ATOM      3  C   UNL     1      16.884  27.703  42.329  1.00  0.00     0.238 A 
ATOM      4  O   UNL     1      16.159  28.507  42.976  1.00  0.00    -0.285 OA
ATOM      5  C   UNL     1      18.260  27.579  42.611  1.00  0.00     0.111 A 
ATOM      6  C   UNL     1      18.915  28.328  43.618  1.00  0.00     0.134 A 
ATOM      7  C   UNL     1      20.289  28.150  43.836  1.00  0.00     0.093 A 
ATOM      8  C   UNL     1      21.020  27.237  43.067  1.00  0.00     0.123 A 
ATOM      9  C   UNL     1      20.379  26.496  42.072  1.00  0.00     0.094 A 
ATOM     10  C   UNL     1      19.010  26.659  41.840  1.00  0.00     0.146 A 
ATOM     11  O   UNL     1      18.425  25.939  40.890  1.00  0.00    -0.451 OA
ENDROOT
BRANCH   1  12
ATOM     12  C   UNL     1      16.583  25.171  39.529  1.00  0.00     0.063 A 
ATOM     13  C   UNL     1      15.990  24.883  37.186  1.00  0.00     0.047 A 
ATOM     14  C   UNL     1      16.551  25.652  38.208  1.00  0.00     0.020 A 
ATOM     15  C   UNL     1      15.446  23.628  37.469  1.00  0.00     0.119 A 
ATOM     16  C   UNL     1      15.469  23.141  38.780  1.00  0.00     0.093 A 
ATOM     17  C   UNL     1      16.038  23.897  39.813  1.00  0.00     0.130 A 
BRANCH  15  18
ATOM     18  O   UNL     1      14.884  22.875  36.439  1.00  0.00    -0.508 OA
ATOM     19  H   UNL     1      15.288  22.866  35.510  1.00  0.00     0.293 HD
ENDBRANCH  15  18
BRANCH  17  20
ATOM     20  O   UNL     1      16.066  23.347  41.095  1.00  0.00    -0.507 OA
ATOM     21  H   UNL     1      15.257  22.928  41.534  1.00  0.00     0.293 HD
ENDBRANCH  17  20
ENDBRANCH   1  12
BRANCH   2  22
ATOM     22  O   UNL     1      14.957  27.040  40.991  1.00  0.00    -0.502 OA
ATOM     23  H   UNL     1      14.229  26.626  41.559  1.00  0.00     0.293 HD
ENDBRANCH   2  22
BRANCH   6  24
ATOM     24  O   UNL     1      18.213  29.245  44.402  1.00  0.00    -0.507 OA
ATOM     25  H   UNL     1      18.425  29.381  45.384  1.00  0.00     0.293 HD
ENDBRANCH   6  24
BRANCH   8  26
ATOM     26  O   UNL     1      22.385  27.059  43.282  1.00  0.00    -0.508 OA
ATOM     27  H   UNL     1      22.950  27.779  43.718  1.00  0.00     0.293 HD
ENDBRANCH   8  26
TORSDOF 6
ENDMDL
MODEL 9
REMARK VINA RESULT:    -5.212      1.892      6.797
REMARK INTER + INTRA:          -6.529
REMARK INTER:                  -6.196
REMARK INTRA:                  -0.333
REMARK UNBOUND:                -0.251
REMARK SMILES O=c1c(O)c(-c2ccc(O)cc2O)oc2cc(O)cc(O)c12
REMARK SMILES IDX 5 1 3 2 2 3 1 4 22 5 20 6 19 7 17 8 16 9 15 10 14 11 6 12
REMARK SMILES IDX 8 13 7 14 9 15 11 16 12 17 10 18 13 20 4 22 21 24 18 26
REMARK H PARENT 10 19 13 21 4 23 21 25 18 27
REMARK Flexibility Score: inf
ROOT
ATOM      1  C   UNL     1      20.306  28.202  42.587  1.00  0.00     0.184 A 
ATOM      2  C   UNL     1      21.059  27.198  43.218  1.00  0.00     0.208 A 
ATOM      3  C   UNL     1      22.439  27.129  42.969  1.00  0.00     0.238 A 
ATOM      4  O   UNL     1      23.125  26.231  43.528  1.00  0.00    -0.285 OA
ATOM      5  C   UNL     1      23.038  28.066  42.103  1.00  0.00     0.111 A 
ATOM      6  C   UNL     1      24.421  28.068  41.802  1.00  0.00     0.134 A 
ATOM      7  C   UNL     1      24.942  29.037  40.932  1.00  0.00     0.093 A 
ATOM      8  C   UNL     1      24.108  30.003  40.358  1.00  0.00     0.123 A 
ATOM      9  C   UNL     1      22.743  30.005  40.652  1.00  0.00     0.094 A 
ATOM     10  C   UNL     1      22.204  29.048  41.516  1.00  0.00     0.146 A 
ATOM     11  O   UNL     1      20.902  29.071  41.776  1.00  0.00    -0.451 OA
ENDROOT
BRANCH   1  12
ATOM     12  C   UNL     1      18.846  28.314  42.795  1.00  0.00     0.063 A 
ATOM     13  C   UNL     1      16.980  29.387  43.930  1.00  0.00     0.047 A 
ATOM     14  C   UNL     1      18.349  29.294  43.673  1.00  0.00     0.020 A 
ATOM     15  C   UNL     1      16.088  28.501  43.321  1.00  0.00     0.119 A 
ATOM     16  C   UNL     1      16.572  27.520  42.447  1.00  0.00     0.093 A 
ATOM     17  C   UNL     1      17.942  27.422  42.173  1.00  0.00     0.130 A 
BRANCH  15  18
ATOM     18  O   UNL     1      14.725  28.603  43.591  1.00  0.00    -0.508 OA
ATOM     19  H   UNL     1      14.038  28.615  42.846  1.00  0.00     0.293 HD
ENDBRANCH  15  18
BRANCH  17  20
ATOM     20  O   UNL     1      18.366  26.448  41.267  1.00  0.00    -0.507 OA
ATOM     21  H   UNL     1      17.726  25.901  40.706  1.00  0.00     0.293 HD
ENDBRANCH  17  20
ENDBRANCH   1  12
BRANCH   2  22
ATOM     22  O   UNL     1      20.439  26.299  44.089  1.00  0.00    -0.502 OA
ATOM     23  H   UNL     1      20.959  25.610  44.617  1.00  0.00     0.293 HD
ENDBRANCH   2  22
BRANCH   6  24
ATOM     24  O   UNL     1      25.279  27.118  42.357  1.00  0.00    -0.507 OA
ATOM     25  H   UNL     1      25.975  27.367  43.050  1.00  0.00     0.293 HD
ENDBRANCH   6  24
BRANCH   8  26
ATOM     26  O   UNL     1      24.625  30.966  39.494  1.00  0.00    -0.508 OA
ATOM     27  H   UNL     1      25.525  30.846  39.045  1.00  0.00     0.293 HD
ENDBRANCH   8  26
TORSDOF 6
ENDMDL
