MODEL 1
REMARK VINA RESULT:    -5.847      0.000      0.000
REMARK INTER + INTRA:         -11.474
REMARK INTER:                 -10.633
REMARK INTRA:                  -0.842
REMARK UNBOUND:                -0.842
REMARK SMILES CCCCCCCCCCCCCCCC(=O)[O-]
REMARK SMILES IDX 9 1 10 2 11 3 12 4 13 5 14 6 15 7 16 8 17 9 18 10 8 11 7 12
REMARK SMILES IDX 6 13 5 14 4 15 3 16 2 17 1 18
REMARK H PARENT
REMARK Flexibility Score: inf
ROOT
ATOM      1  C   UNL     1      -0.070 -28.646   4.970  1.00  0.00     0.000 C 
ENDROOT
BRANCH   1   2
ATOM      2  C   UNL     1       0.962 -29.639   4.408  1.00  0.00     0.000 C 
BRANCH   2   3
ATOM      3  C   UNL     1       1.315 -29.364   2.939  1.00  0.00     0.000 C 
BRANCH   3   4
ATOM      4  C   UNL     1       0.119 -29.650   2.023  1.00  0.00     0.000 C 
BRANCH   4   5
ATOM      5  C   UNL     1      -0.322 -28.378   1.282  1.00  0.00     0.000 C 
BRANCH   5   6
ATOM      6  C   UNL     1      -1.716 -27.889   1.713  1.00  0.00     0.006 C 
BRANCH   6   7
ATOM      7  C   UNL     1      -1.736 -26.468   2.295  1.00  0.00     0.053 C 
BRANCH   7   8
ATOM      8  C   UNL     1      -1.988 -25.433   1.242  1.00  0.00     0.041 C 
ATOM      9  O   UNL     1      -2.546 -25.753   0.159  1.00  0.00    -0.550 OA
ATOM     10  O   UNL     1      -1.636 -24.108   1.470  1.00  0.00    -0.550 OA
ENDBRANCH   7   8
ENDBRANCH   6   7
ENDBRANCH   5   6
ENDBRANCH   4   5
ENDBRANCH   3   4
ENDBRANCH   2   3
ENDBRANCH   1   2
BRANCH   1  11
ATOM     11  C   UNL     1      -0.167 -28.603   6.510  1.00  0.00     0.000 C 
BRANCH  11  12
ATOM     12  C   UNL     1      -0.490 -27.223   7.110  1.00  0.00    -0.000 C 
BRANCH  12  13
ATOM     13  C   UNL     1       0.495 -26.807   8.216  1.00  0.00    -0.000 C 
BRANCH  13  14
ATOM     14  C   UNL     1      -0.197 -26.550   9.567  1.00  0.00    -0.000 C 
BRANCH  14  15
ATOM     15  C   UNL     1      -1.731 -26.715   9.564  1.00  0.00    -0.000 C 
BRANCH  15  16
ATOM     16  C   UNL     1      -2.465 -26.020  10.725  1.00  0.00    -0.000 C 
BRANCH  16  17
ATOM     17  C   UNL     1      -3.876 -25.553  10.342  1.00  0.00    -0.003 C 
ATOM     18  C   UNL     1      -4.135 -24.129  10.829  1.00  0.00     0.004 C 
ENDBRANCH  16  17
ENDBRANCH  15  16
ENDBRANCH  14  15
ENDBRANCH  13  14
ENDBRANCH  12  13
ENDBRANCH  11  12
ENDBRANCH   1  11
TORSDOF 14
ENDMDL
MODEL 2
REMARK VINA RESULT:    -5.818      1.412      2.158
REMARK INTER + INTRA:         -11.421
REMARK INTER:                 -10.349
REMARK INTRA:                  -1.072
REMARK UNBOUND:                -0.842
REMARK SMILES CCCCCCCCCCCCCCCC(=O)[O-]
REMARK SMILES IDX 9 1 10 2 11 3 12 4 13 5 14 6 15 7 16 8 17 9 18 10 8 11 7 12
REMARK SMILES IDX 6 13 5 14 4 15 3 16 2 17 1 18
REMARK H PARENT
REMARK Flexibility Score: inf
ROOT
ATOM      1  C   UNL     1      -0.490 -27.837   6.515  1.00  0.00     0.000 C 
ENDROOT
BRANCH   1   2
ATOM      2  C   UNL     1      -0.109 -29.200   5.911  1.00  0.00     0.000 C 
BRANCH   2   3
ATOM      3  C   UNL     1       1.370 -29.281   5.507  1.00  0.00     0.000 C 
BRANCH   3   4
ATOM      4  C   UNL     1       1.532 -29.147   3.988  1.00  0.00     0.000 C 
BRANCH   4   5
ATOM      5  C   UNL     1       0.506 -30.017   3.246  1.00  0.00     0.000 C 
BRANCH   5   6
ATOM      6  C   UNL     1       0.332 -29.608   1.772  1.00  0.00     0.006 C 
BRANCH   6   7
ATOM      7  C   UNL     1       0.008 -28.122   1.562  1.00  0.00     0.053 C 
BRANCH   7   8
ATOM      8  C   UNL     1      -1.318 -27.747   2.150  1.00  0.00     0.041 C 
ATOM      9  O   UNL     1      -2.382 -28.206   1.658  1.00  0.00    -0.550 OA
ATOM     10  O   UNL     1      -1.375 -26.917   3.263  1.00  0.00    -0.550 OA
ENDBRANCH   7   8
ENDBRANCH   6   7
ENDBRANCH   5   6
ENDBRANCH   4   5
ENDBRANCH   3   4
ENDBRANCH   2   3
ENDBRANCH   1   2
BRANCH   1  11
ATOM     11  C   UNL     1       0.685 -27.031   7.109  1.00  0.00     0.000 C 
BRANCH  11  12
ATOM     12  C   UNL     1       0.562 -26.694   8.606  1.00  0.00    -0.000 C 
BRANCH  12  13
ATOM     13  C   UNL     1      -0.876 -26.835   9.133  1.00  0.00    -0.000 C 
BRANCH  13  14
ATOM     14  C   UNL     1      -1.005 -26.464  10.622  1.00  0.00    -0.000 C 
BRANCH  14  15
ATOM     15  C   UNL     1      -2.311 -25.739  11.010  1.00  0.00    -0.000 C 
BRANCH  15  16
ATOM     16  C   UNL     1      -3.561 -26.183  10.230  1.00  0.00    -0.000 C 
BRANCH  16  17
ATOM     17  C   UNL     1      -4.665 -25.116  10.220  1.00  0.00    -0.003 C 
ATOM     18  C   UNL     1      -4.316 -23.955  11.148  1.00  0.00     0.004 C 
ENDBRANCH  16  17
ENDBRANCH  15  16
ENDBRANCH  14  15
ENDBRANCH  13  14
ENDBRANCH  12  13
ENDBRANCH  11  12
ENDBRANCH   1  11
TORSDOF 14
ENDMDL
MODEL 3
REMARK VINA RESULT:    -5.815      3.340      7.658
REMARK INTER + INTRA:         -11.415
REMARK INTER:                  -9.947
REMARK INTRA:                  -1.468
REMARK UNBOUND:                -0.842
REMARK SMILES CCCCCCCCCCCCCCCC(=O)[O-]
REMARK SMILES IDX 9 1 10 2 11 3 12 4 13 5 14 6 15 7 16 8 17 9 18 10 8 11 7 12
REMARK SMILES IDX 6 13 5 14 4 15 3 16 2 17 1 18
REMARK H PARENT
REMARK Flexibility Score: inf
ROOT
ATOM      1  C   UNL     1      -0.412 -28.608   6.513  1.00  0.00     0.000 C 
ENDROOT
BRANCH   1   2
ATOM      2  C   UNL     1       0.070 -27.152   6.633  1.00  0.00     0.000 C 
BRANCH   2   3
ATOM      3  C   UNL     1       0.394 -26.748   8.079  1.00  0.00     0.000 C 
BRANCH   3   4
ATOM      4  C   UNL     1      -0.253 -27.715   9.078  1.00  0.00     0.000 C 
BRANCH   4   5
ATOM      5  C   UNL     1      -0.886 -26.952  10.251  1.00  0.00     0.000 C 
BRANCH   5   6
ATOM      6  C   UNL     1      -2.317 -26.473   9.948  1.00  0.00     0.006 C 
BRANCH   6   7
ATOM      7  C   UNL     1      -2.837 -25.389  10.904  1.00  0.00     0.053 C 
BRANCH   7   8
ATOM      8  C   UNL     1      -4.256 -25.012  10.606  1.00  0.00     0.041 C 
ATOM      9  O   UNL     1      -4.706 -23.895  10.972  1.00  0.00    -0.550 OA
ATOM     10  O   UNL     1      -5.072 -25.884   9.894  1.00  0.00    -0.550 OA
ENDBRANCH   7   8
ENDBRANCH   6   7
ENDBRANCH   5   6
ENDBRANCH   4   5
ENDBRANCH   3   4
ENDBRANCH   2   3
ENDBRANCH   1   2
BRANCH   1  11
ATOM     11  C   UNL     1       0.141 -29.384   5.299  1.00  0.00     0.000 C 
BRANCH  11  12
ATOM     12  C   UNL     1       1.531 -28.938   4.811  1.00  0.00    -0.000 C 
BRANCH  12  13
ATOM     13  C   UNL     1       1.797 -29.310   3.342  1.00  0.00    -0.000 C 
BRANCH  13  14
ATOM     14  C   UNL     1       0.683 -30.183   2.736  1.00  0.00    -0.000 C 
BRANCH  14  15
ATOM     15  C   UNL     1      -0.092 -29.543   1.566  1.00  0.00    -0.000 C 
BRANCH  15  16
ATOM     16  C   UNL     1      -0.192 -28.008   1.611  1.00  0.00    -0.000 C 
BRANCH  16  17
ATOM     17  C   UNL     1      -1.537 -27.515   2.164  1.00  0.00    -0.003 C 
ATOM     18  C   UNL     1      -1.332 -26.517   3.301  1.00  0.00     0.004 C 
ENDBRANCH  16  17
ENDBRANCH  15  16
ENDBRANCH  14  15
ENDBRANCH  13  14
ENDBRANCH  12  13
ENDBRANCH  11  12
ENDBRANCH   1  11
TORSDOF 14
ENDMDL
MODEL 4
REMARK VINA RESULT:    -5.739      1.764      2.283
REMARK INTER + INTRA:         -11.278
REMARK INTER:                 -10.497
REMARK INTRA:                  -0.782
REMARK UNBOUND:                -0.842
REMARK SMILES CCCCCCCCCCCCCCCC(=O)[O-]
REMARK SMILES IDX 9 1 10 2 11 3 12 4 13 5 14 6 15 7 16 8 17 9 18 10 8 11 7 12
REMARK SMILES IDX 6 13 5 14 4 15 3 16 2 17 1 18
REMARK H PARENT
REMARK Flexibility Score: inf
ROOT
ATOM      1  C   UNL     1      -0.510 -27.123   6.011  1.00  0.00     0.000 C 
ENDROOT
BRANCH   1   2
ATOM      2  C   UNL     1      -0.427 -27.052   4.476  1.00  0.00     0.000 C 
BRANCH   2   3
ATOM      3  C   UNL     1      -0.839 -25.681   3.920  1.00  0.00     0.000 C 
BRANCH   3   4
ATOM      4  C   UNL     1      -0.368 -25.512   2.470  1.00  0.00     0.000 C 
BRANCH   4   5
ATOM      5  C   UNL     1      -0.540 -26.819   1.681  1.00  0.00     0.000 C 
BRANCH   5   6
ATOM      6  C   UNL     1      -1.943 -26.962   1.063  1.00  0.00     0.006 C 
BRANCH   6   7
ATOM      7  C   UNL     1      -2.609 -25.630   0.690  1.00  0.00     0.053 C 
BRANCH   7   8
ATOM      8  C   UNL     1      -2.453 -25.313  -0.766  1.00  0.00     0.041 C 
ATOM      9  O   UNL     1      -1.447 -24.675  -1.172  1.00  0.00    -0.550 OA
ATOM     10  O   UNL     1      -3.404 -25.753  -1.679  1.00  0.00    -0.550 OA
ENDBRANCH   7   8
ENDBRANCH   6   7
ENDBRANCH   5   6
ENDBRANCH   4   5
ENDBRANCH   3   4
ENDBRANCH   2   3
ENDBRANCH   1   2
BRANCH   1  11
ATOM     11  C   UNL     1       0.848 -27.090   6.743  1.00  0.00     0.000 C 
BRANCH  11  12
ATOM     12  C   UNL     1       0.787 -26.678   8.225  1.00  0.00    -0.000 C 
BRANCH  12  13
ATOM     13  C   UNL     1      -0.603 -26.888   8.847  1.00  0.00    -0.000 C 
BRANCH  13  14
ATOM     14  C   UNL     1      -0.622 -26.641  10.367  1.00  0.00    -0.000 C 
BRANCH  14  15
ATOM     15  C   UNL     1      -1.965 -26.139  10.937  1.00  0.00    -0.000 C 
BRANCH  15  16
ATOM     16  C   UNL     1      -3.102 -26.008   9.909  1.00  0.00    -0.000 C 
BRANCH  16  17
ATOM     17  C   UNL     1      -4.414 -25.510  10.534  1.00  0.00    -0.003 C 
ATOM     18  C   UNL     1      -4.277 -24.070  11.022  1.00  0.00     0.004 C 
ENDBRANCH  16  17
ENDBRANCH  15  16
ENDBRANCH  14  15
ENDBRANCH  13  14
ENDBRANCH  12  13
ENDBRANCH  11  12
ENDBRANCH   1  11
TORSDOF 14
ENDMDL
MODEL 5
REMARK VINA RESULT:    -5.706      2.064      3.879
REMARK INTER + INTRA:         -11.217
REMARK INTER:                  -9.565
REMARK INTRA:                  -1.653
REMARK UNBOUND:                -0.842
REMARK SMILES CCCCCCCCCCCCCCCC(=O)[O-]
REMARK SMILES IDX 9 1 10 2 11 3 12 4 13 5 14 6 15 7 16 8 17 9 18 10 8 11 7 12
REMARK SMILES IDX 6 13 5 14 4 15 3 16 2 17 1 18
REMARK H PARENT
REMARK Flexibility Score: inf
ROOT
ATOM      1  C   UNL     1       0.079 -29.342   1.612  1.00  0.00     0.000 C 
ENDROOT
BRANCH   1   2
ATOM      2  C   UNL     1      -0.169 -27.837   1.812  1.00  0.00     0.000 C 
BRANCH   2   3
ATOM      3  C   UNL     1      -1.589 -27.527   2.306  1.00  0.00     0.000 C 
BRANCH   3   4
ATOM      4  C   UNL     1      -1.643 -26.162   3.003  1.00  0.00     0.000 C 
BRANCH   4   5
ATOM      5  C   UNL     1      -0.534 -25.235   2.482  1.00  0.00     0.000 C 
BRANCH   5   6
ATOM      6  C   UNL     1      -1.045 -24.220   1.443  1.00  0.00     0.006 C 
BRANCH   6   7
ATOM      7  C   UNL     1      -0.752 -24.604  -0.015  1.00  0.00     0.053 C 
BRANCH   7   8
ATOM      8  C   UNL     1      -2.006 -24.747  -0.821  1.00  0.00     0.041 C 
ATOM      9  O   UNL     1      -2.768 -25.733  -0.638  1.00  0.00    -0.550 OA
ATOM     10  O   UNL     1      -2.350 -23.773  -1.750  1.00  0.00    -0.550 OA
ENDBRANCH   7   8
ENDBRANCH   6   7
ENDBRANCH   5   6
ENDBRANCH   4   5
ENDBRANCH   3   4
ENDBRANCH   2   3
ENDBRANCH   1   2
BRANCH   1  11
ATOM     11  C   UNL     1       0.755 -30.059   2.800  1.00  0.00     0.000 C 
BRANCH  11  12
ATOM     12  C   UNL     1       1.959 -29.322   3.414  1.00  0.00    -0.000 C 
BRANCH  12  13
ATOM     13  C   UNL     1       1.742 -28.949   4.891  1.00  0.00    -0.000 C 
BRANCH  13  14
ATOM     14  C   UNL     1       0.299 -29.201   5.365  1.00  0.00    -0.000 C 
BRANCH  14  15
ATOM     15  C   UNL     1      -0.455 -27.954   5.872  1.00  0.00    -0.000 C 
BRANCH  15  16
ATOM     16  C   UNL     1       0.276 -27.146   6.959  1.00  0.00    -0.000 C 
BRANCH  16  17
ATOM     17  C   UNL     1      -0.568 -26.956   8.227  1.00  0.00    -0.003 C 
ATOM     18  C   UNL     1       0.308 -26.579   9.419  1.00  0.00     0.004 C 
ENDBRANCH  16  17
ENDBRANCH  15  16
ENDBRANCH  14  15
ENDBRANCH  13  14
ENDBRANCH  12  13
ENDBRANCH  11  12
ENDBRANCH   1  11
TORSDOF 14
ENDMDL
MODEL 6
REMARK VINA RESULT:    -5.679      3.366      7.197
REMARK INTER + INTRA:         -11.168
REMARK INTER:                  -9.499
REMARK INTRA:                  -1.669
REMARK UNBOUND:                -0.842
REMARK SMILES CCCCCCCCCCCCCCCC(=O)[O-]
REMARK SMILES IDX 9 1 10 2 11 3 12 4 13 5 14 6 15 7 16 8 17 9 18 10 8 11 7 12
REMARK SMILES IDX 6 13 5 14 4 15 3 16 2 17 1 18
REMARK H PARENT
REMARK Flexibility Score: inf
ROOT
ATOM      1  C   UNL     1       1.753 -28.264   4.731  1.00  0.00     0.000 C 
ENDROOT
BRANCH   1   2
ATOM      2  C   UNL     1       0.773 -29.188   5.475  1.00  0.00     0.000 C 
BRANCH   2   3
ATOM      3  C   UNL     1      -0.445 -28.438   6.036  1.00  0.00     0.000 C 
BRANCH   3   4
ATOM      4  C   UNL     1      -0.061 -27.020   6.477  1.00  0.00     0.000 C 
BRANCH   4   5
ATOM      5  C   UNL     1       0.072 -26.938   8.006  1.00  0.00     0.000 C 
BRANCH   5   6
ATOM      6  C   UNL     1      -1.149 -27.515   8.743  1.00  0.00     0.006 C 
BRANCH   6   7
ATOM      7  C   UNL     1      -1.141 -27.280  10.261  1.00  0.00     0.053 C 
BRANCH   7   8
ATOM      8  C   UNL     1      -2.145 -26.248  10.675  1.00  0.00     0.041 C 
ATOM      9  O   UNL     1      -3.256 -26.172  10.088  1.00  0.00    -0.550 OA
ATOM     10  O   UNL     1      -1.864 -25.391  11.732  1.00  0.00    -0.550 OA
ENDBRANCH   7   8
ENDBRANCH   6   7
ENDBRANCH   5   6
ENDBRANCH   4   5
ENDBRANCH   3   4
ENDBRANCH   2   3
ENDBRANCH   1   2
BRANCH   1  11
ATOM     11  C   UNL     1       1.939 -28.577   3.232  1.00  0.00     0.000 C 
BRANCH  11  12
ATOM     12  C   UNL     1       1.385 -29.936   2.770  1.00  0.00    -0.000 C 
BRANCH  12  13
ATOM     13  C   UNL     1       0.182 -29.800   1.821  1.00  0.00    -0.000 C 
BRANCH  13  14
ATOM     14  C   UNL     1      -0.219 -28.335   1.569  1.00  0.00    -0.000 C 
BRANCH  14  15
ATOM     15  C   UNL     1      -1.716 -28.018   1.761  1.00  0.00    -0.000 C 
BRANCH  15  16
ATOM     16  C   UNL     1      -2.047 -26.531   1.977  1.00  0.00    -0.000 C 
BRANCH  16  17
ATOM     17  C   UNL     1      -1.593 -26.015   3.350  1.00  0.00    -0.003 C 
ATOM     18  C   UNL     1      -0.311 -25.194   3.233  1.00  0.00     0.004 C 
ENDBRANCH  16  17
ENDBRANCH  15  16
ENDBRANCH  14  15
ENDBRANCH  13  14
ENDBRANCH  12  13
ENDBRANCH  11  12
ENDBRANCH   1  11
TORSDOF 14
ENDMDL
MODEL 7
REMARK VINA RESULT:    -5.638      1.263      1.867
REMARK INTER + INTRA:         -11.094
REMARK INTER:                 -10.011
REMARK INTRA:                  -1.082
REMARK UNBOUND:                -0.842
REMARK SMILES CCCCCCCCCCCCCCCC(=O)[O-]
REMARK SMILES IDX 9 1 10 2 11 3 12 4 13 5 14 6 15 7 16 8 17 9 18 10 8 11 7 12
REMARK SMILES IDX 6 13 5 14 4 15 3 16 2 17 1 18
REMARK H PARENT
REMARK Flexibility Score: inf
ROOT
ATOM      1  C   UNL     1      -0.509 -28.736   7.238  1.00  0.00     0.000 C 
ENDROOT
BRANCH   1   2
ATOM      2  C   UNL     1      -0.191 -28.978   5.753  1.00  0.00     0.000 C 
BRANCH   2   3
ATOM      3  C   UNL     1       1.022 -28.173   5.263  1.00  0.00     0.000 C 
BRANCH   3   4
ATOM      4  C   UNL     1       0.772 -27.598   3.864  1.00  0.00     0.000 C 
BRANCH   4   5
ATOM      5  C   UNL     1       0.300 -26.138   3.945  1.00  0.00     0.000 C 
BRANCH   5   6
ATOM      6  C   UNL     1      -1.221 -25.992   3.756  1.00  0.00     0.006 C 
BRANCH   6   7
ATOM      7  C   UNL     1      -1.745 -26.518   2.412  1.00  0.00     0.053 C 
BRANCH   7   8
ATOM      8  C   UNL     1      -1.968 -25.413   1.425  1.00  0.00     0.041 C 
ATOM      9  O   UNL     1      -2.799 -25.555   0.490  1.00  0.00    -0.550 OA
ATOM     10  O   UNL     1      -1.281 -24.212   1.560  1.00  0.00    -0.550 OA
ENDBRANCH   7   8
ENDBRANCH   6   7
ENDBRANCH   5   6
ENDBRANCH   4   5
ENDBRANCH   3   4
ENDBRANCH   2   3
ENDBRANCH   1   2
BRANCH   1  11
ATOM     11  C   UNL     1      -0.538 -27.254   7.670  1.00  0.00     0.000 C 
BRANCH  11  12
ATOM     12  C   UNL     1       0.615 -26.814   8.590  1.00  0.00    -0.000 C 
BRANCH  12  13
ATOM     13  C   UNL     1       0.140 -26.429  10.001  1.00  0.00    -0.000 C 
BRANCH  13  14
ATOM     14  C   UNL     1      -1.253 -26.992  10.337  1.00  0.00    -0.000 C 
BRANCH  14  15
ATOM     15  C   UNL     1      -2.288 -25.952  10.815  1.00  0.00    -0.000 C 
BRANCH  15  16
ATOM     16  C   UNL     1      -3.707 -26.134  10.247  1.00  0.00    -0.000 C 
BRANCH  16  17
ATOM     17  C   UNL     1      -4.651 -24.984  10.626  1.00  0.00    -0.003 C 
ATOM     18  C   UNL     1      -3.928 -23.934  11.467  1.00  0.00     0.004 C 
ENDBRANCH  16  17
ENDBRANCH  15  16
ENDBRANCH  14  15
ENDBRANCH  13  14
ENDBRANCH  12  13
ENDBRANCH  11  12
ENDBRANCH   1  11
TORSDOF 14
ENDMDL
MODEL 8
REMARK VINA RESULT:    -5.555      3.461      7.583
REMARK INTER + INTRA:         -10.944
REMARK INTER:                  -9.927
REMARK INTRA:                  -1.017
REMARK UNBOUND:                -0.842
REMARK SMILES CCCCCCCCCCCCCCCC(=O)[O-]
REMARK SMILES IDX 9 1 10 2 11 3 12 4 13 5 14 6 15 7 16 8 17 9 18 10 8 11 7 12
REMARK SMILES IDX 6 13 5 14 4 15 3 16 2 17 1 18
REMARK H PARENT
REMARK Flexibility Score: inf
ROOT
ATOM      1  C   UNL     1      -0.288 -29.074   6.033  1.00  0.00     0.000 C 
ENDROOT
BRANCH   1   2
ATOM      2  C   UNL     1       0.737 -28.967   7.175  1.00  0.00     0.000 C 
BRANCH   2   3
ATOM      3  C   UNL     1       0.921 -27.527   7.678  1.00  0.00     0.000 C 
BRANCH   3   4
ATOM      4  C   UNL     1      -0.433 -26.867   7.962  1.00  0.00     0.000 C 
BRANCH   4   5
ATOM      5  C   UNL     1      -0.650 -26.685   9.472  1.00  0.00     0.000 C 
BRANCH   5   6
ATOM      6  C   UNL     1      -2.132 -26.789   9.878  1.00  0.00     0.006 C 
BRANCH   6   7
ATOM      7  C   UNL     1      -2.597 -25.702  10.858  1.00  0.00     0.053 C 
BRANCH   7   8
ATOM      8  C   UNL     1      -3.983 -25.223  10.547  1.00  0.00     0.041 C 
ATOM      9  O   UNL     1      -4.854 -26.030  10.128  1.00  0.00    -0.550 OA
ATOM     10  O   UNL     1      -4.320 -23.891  10.752  1.00  0.00    -0.550 OA
ENDBRANCH   7   8
ENDBRANCH   6   7
ENDBRANCH   5   6
ENDBRANCH   4   5
ENDBRANCH   3   4
ENDBRANCH   2   3
ENDBRANCH   1   2
BRANCH   1  11
ATOM     11  C   UNL     1       0.317 -29.258   4.625  1.00  0.00     0.000 C 
BRANCH  11  12
ATOM     12  C   UNL     1       0.015 -28.127   3.626  1.00  0.00    -0.000 C 
BRANCH  12  13
ATOM     13  C   UNL     1      -0.447 -26.830   4.313  1.00  0.00    -0.000 C 
BRANCH  13  14
ATOM     14  C   UNL     1      -1.544 -26.094   3.523  1.00  0.00    -0.000 C 
BRANCH  14  15
ATOM     15  C   UNL     1      -1.874 -26.691   2.139  1.00  0.00    -0.000 C 
BRANCH  15  16
ATOM     16  C   UNL     1      -2.276 -25.666   1.064  1.00  0.00    -0.000 C 
BRANCH  16  17
ATOM     17  C   UNL     1      -1.111 -25.287   0.138  1.00  0.00    -0.003 C 
ATOM     18  C   UNL     1      -0.710 -23.826   0.330  1.00  0.00     0.004 C 
ENDBRANCH  16  17
ENDBRANCH  15  16
ENDBRANCH  14  15
ENDBRANCH  13  14
ENDBRANCH  12  13
ENDBRANCH  11  12
ENDBRANCH   1  11
TORSDOF 14
ENDMDL
MODEL 9
REMARK VINA RESULT:    -5.364      3.366      7.937
REMARK INTER + INTRA:         -10.595
REMARK INTER:                  -9.603
REMARK INTRA:                  -0.992
REMARK UNBOUND:                -0.842
REMARK SMILES CCCCCCCCCCCCCCCC(=O)[O-]
REMARK SMILES IDX 9 1 10 2 11 3 12 4 13 5 14 6 15 7 16 8 17 9 18 10 8 11 7 12
REMARK SMILES IDX 6 13 5 14 4 15 3 16 2 17 1 18
REMARK H PARENT
REMARK Flexibility Score: inf
ROOT
ATOM      1  C   UNL     1      -0.147 -27.119   6.429  1.00  0.00     0.000 C 
ENDROOT
BRANCH   1   2
ATOM      2  C   UNL     1       1.234 -27.166   7.104  1.00  0.00     0.000 C 
BRANCH   2   3
ATOM      3  C   UNL     1       1.158 -27.011   8.630  1.00  0.00     0.000 C 
BRANCH   3   4
ATOM      4  C   UNL     1      -0.190 -26.417   9.055  1.00  0.00     0.000 C 
BRANCH   4   5
ATOM      5  C   UNL     1      -0.993 -27.422   9.895  1.00  0.00     0.000 C 
BRANCH   5   6
ATOM      6  C   UNL     1      -2.460 -26.997  10.091  1.00  0.00     0.006 C 
BRANCH   6   7
ATOM      7  C   UNL     1      -2.638 -25.623  10.753  1.00  0.00     0.053 C 
BRANCH   7   8
ATOM      8  C   UNL     1      -3.996 -25.047  10.494  1.00  0.00     0.041 C 
ATOM      9  O   UNL     1      -4.241 -23.846  10.783  1.00  0.00    -0.550 OA
ATOM     10  O   UNL     1      -4.981 -25.829   9.904  1.00  0.00    -0.550 OA
ENDBRANCH   7   8
ENDBRANCH   6   7
ENDBRANCH   5   6
ENDBRANCH   4   5
ENDBRANCH   3   4
ENDBRANCH   2   3
ENDBRANCH   1   2
BRANCH   1  11
ATOM     11  C   UNL     1      -0.122 -26.986   4.892  1.00  0.00     0.000 C 
BRANCH  11  12
ATOM     12  C   UNL     1      -1.182 -26.042   4.295  1.00  0.00    -0.000 C 
BRANCH  12  13
ATOM     13  C   UNL     1      -0.765 -25.460   2.934  1.00  0.00    -0.000 C 
BRANCH  13  14
ATOM     14  C   UNL     1      -1.831 -25.670   1.843  1.00  0.00    -0.000 C 
BRANCH  14  15
ATOM     15  C   UNL     1      -1.804 -27.049   1.151  1.00  0.00    -0.000 C 
BRANCH  15  16
ATOM     16  C   UNL     1      -0.458 -27.791   1.227  1.00  0.00    -0.000 C 
BRANCH  16  17
ATOM     17  C   UNL     1      -0.580 -29.182   1.865  1.00  0.00    -0.003 C 
ATOM     18  C   UNL     1       0.793 -29.745   2.223  1.00  0.00     0.004 C 
ENDBRANCH  16  17
ENDBRANCH  15  16
ENDBRANCH  14  15
ENDBRANCH  13  14
ENDBRANCH  12  13
ENDBRANCH  11  12
ENDBRANCH   1  11
TORSDOF 14
ENDMDL
