MODEL 1
REMARK VINA RESULT:    27.999      0.000      0.000
REMARK INTER + INTRA:          45.285
REMARK INTER:                  46.004
REMARK INTRA:                  -0.720
REMARK UNBOUND:                -0.720
REMARK SMILES C[C@H]1O[C@H](OC[C@@H]2O[C@@H](Oc3c(-c4ccc(O)c(O)c4)oc4cc(O)cc(O)c4c3=O)[C@H](O)[C@H](O)[C@H]2O)[C@@H](O)[C@H](O)[C@H]1O
REMARK SMILES IDX 7 1 36 2 34 3 32 4 9 5 8 6 6 7 5 8 4 9 1 10 2 11 42 12 3 13
REMARK SMILES IDX 40 14 38 15 43 16 41 18 39 20 37 22 35 24 10 26 11 27 12 28
REMARK SMILES IDX 30 29 21 30 29 31 31 32 22 33 27 34 23 35 26 36 24 37 13 38
REMARK SMILES IDX 20 39 14 40 18 41 15 42 16 43 19 44 17 46 28 48 25 50 33 52
REMARK H PARENT 43 17 41 19 39 21 37 23 35 25 19 45 17 47 28 49 25 51 33 53
REMARK Flexibility Score: inf
ROOT
ATOM      1  C   UNL     1      93.714  99.855  98.365  1.00  0.00     0.180 C 
ATOM      2  C   UNL     1      94.208  98.718  99.291  1.00  0.00     0.177 C 
ATOM      3  C   UNL     1      95.032  99.313 100.440  1.00  0.00     0.180 C 
ATOM      4  C   UNL     1      96.116 100.264  99.898  1.00  0.00     0.214 C 
ATOM      5  C   UNL     1      95.505 101.278  98.900  1.00  0.00     0.339 C 
ATOM      6  O   UNL     1      94.810 100.602  97.864  1.00  0.00    -0.332 OA
ENDROOT
BRANCH   1   7
ATOM      7  C   UNL     1      92.911  99.319  97.171  1.00  0.00     0.198 C 
BRANCH   7   8
ATOM      8  O   UNL     1      93.227  97.960  96.934  1.00  0.00    -0.347 OA
BRANCH   8   9
ATOM      9  C   UNL     1      93.460  97.737  95.554  1.00  0.00     0.281 C 
ATOM     10  C   UNL     1      97.000  98.764  95.479  1.00  0.00     0.041 C 
ATOM     11  C   UNL     1      95.785  97.902  95.832  1.00  0.00     0.150 C 
ATOM     12  C   UNL     1      96.044  96.406  95.515  1.00  0.00     0.174 C 
ATOM     13  O   UNL     1      94.653  98.383  95.125  1.00  0.00    -0.344 OA
ATOM     14  C   UNL     1      94.790  95.561  95.821  1.00  0.00     0.179 C 
ATOM     15  C   UNL     1      93.508  96.214  95.265  1.00  0.00     0.202 C 
BRANCH  12  16
ATOM     16  O   UNL     1      96.480  96.190  94.194  1.00  0.00    -0.388 OA
ATOM     17  H   UNL     1      95.986  96.799  93.591  1.00  0.00     0.211 HD
ENDBRANCH  12  16
BRANCH  14  18
ATOM     18  O   UNL     1      94.650  95.403  97.211  1.00  0.00    -0.387 OA
ATOM     19  H   UNL     1      95.530  95.095  97.559  1.00  0.00     0.211 HD
ENDBRANCH  14  18
BRANCH  15  20
ATOM     20  O   UNL     1      93.363  95.920  93.893  1.00  0.00    -0.385 OA
ATOM     21  H   UNL     1      94.165  96.235  93.405  1.00  0.00     0.211 HD
ENDBRANCH  15  20
ENDBRANCH   8   9
ENDBRANCH   7   8
ENDBRANCH   1   7
BRANCH   2  22
ATOM     22  O   UNL     1      93.118  98.017  99.828  1.00  0.00    -0.387 OA
ATOM     23  H   UNL     1      92.330  98.227  99.263  1.00  0.00     0.211 HD
ENDBRANCH   2  22
BRANCH   3  24
ATOM     24  O   UNL     1      95.613  98.272 101.182  1.00  0.00    -0.387 OA
ATOM     25  H   UNL     1      95.323  98.397 102.124  1.00  0.00     0.211 HD
ENDBRANCH   3  24
BRANCH   5  26
ATOM     26  O   UNL     1      94.636 102.213  99.554  1.00  0.00    -0.454 OA
BRANCH  26  27
ATOM     27  C   UNL     1      94.943 103.499 100.049  1.00  0.00     0.214 A 
ATOM     28  C   UNL     1      94.739 103.740 101.422  1.00  0.00     0.180 A 
ATOM     29  C   UNL     1      95.404 104.572  99.248  1.00  0.00     0.239 A 
ATOM     30  O   UNL     1      94.991 104.934 101.942  1.00  0.00    -0.452 OA
ATOM     31  C   UNL     1      95.681 105.822  99.845  1.00  0.00     0.111 A 
ATOM     32  O   UNL     1      95.548 104.427  98.006  1.00  0.00    -0.285 OA
ATOM     33  C   UNL     1      95.454 105.954 101.234  1.00  0.00     0.146 A 
ATOM     34  C   UNL     1      96.162 106.939  99.118  1.00  0.00     0.134 A 
ATOM     35  C   UNL     1      95.714 107.165 101.880  1.00  0.00     0.094 A 
ATOM     36  C   UNL     1      96.415 108.147  99.784  1.00  0.00     0.093 A 
ATOM     37  C   UNL     1      96.197 108.261 101.159  1.00  0.00     0.123 A 
BRANCH  28  38
ATOM     38  C   UNL     1      94.229 102.689 102.324  1.00  0.00     0.025 A 
ATOM     39  C   UNL     1      94.517 102.752 103.697  1.00  0.00     0.062 A 
ATOM     40  C   UNL     1      93.508 101.594 101.823  1.00  0.00     0.016 A 
ATOM     41  C   UNL     1      94.066 101.752 104.566  1.00  0.00     0.158 A 
ATOM     42  C   UNL     1      93.056 100.594 102.686  1.00  0.00     0.051 A 
ATOM     43  C   UNL     1      93.330 100.666 104.059  1.00  0.00     0.157 A 
BRANCH  41  44
ATOM     44  O   UNL     1      94.359 101.854 105.924  1.00  0.00    -0.504 OA
ATOM     45  H   UNL     1      93.725 102.292 106.580  1.00  0.00     0.293 HD
ENDBRANCH  41  44
BRANCH  43  46
ATOM     46  O   UNL     1      92.880  99.664 104.916  1.00  0.00    -0.504 OA
ATOM     47  H   UNL     1      91.998  99.749 105.407  1.00  0.00     0.293 HD
ENDBRANCH  43  46
ENDBRANCH  28  38
BRANCH  34  48
ATOM     48  O   UNL     1      96.393 106.858  97.744  1.00  0.00    -0.507 OA
ATOM     49  H   UNL     1      96.113 107.602  97.114  1.00  0.00     0.293 HD
ENDBRANCH  34  48
BRANCH  37  50
ATOM     50  O   UNL     1      96.464 109.470 101.798  1.00  0.00    -0.508 OA
ATOM     51  H   UNL     1      95.924 110.303 101.602  1.00  0.00     0.293 HD
ENDBRANCH  37  50
ENDBRANCH  26  27
ENDBRANCH   5  26
BRANCH   4  52
ATOM     52  O   UNL     1      97.124  99.519  99.264  1.00  0.00    -0.384 OA
ATOM     53  H   UNL     1      96.673  98.907  98.627  1.00  0.00     0.211 HD
ENDBRANCH   4  52
TORSDOF 16
ENDMDL
