MODEL 1
REMARK VINA RESULT:    92.167      0.000      0.000
REMARK INTER + INTRA:          94.861
REMARK INTER:                  94.861
REMARK INTRA:                   0.000
REMARK UNBOUND:                 0.000
REMARK SMILES CC1(C)CC[C@@]2(C)CC[C@@]3(C)C(=CC[C@@H]4[C@]5(C)CC[C@@H](O)C(C)(C)[C@@H]5CC[C@@]43C)[C@H]2C1
REMARK SMILES IDX 1 1 2 2 4 3 5 4 6 5 8 6 9 7 10 8 12 9 13 10 14 11 15 12
REMARK SMILES IDX 28 13 27 14 26 15 25 16 16 17 18 18 19 19 20 20 22 21 23 22
REMARK SMILES IDX 24 23 17 24 29 25 30 26 31 27 11 28 7 29 3 30 21 31
REMARK H PARENT 21 32
REMARK Flexibility Score: inf
ROOT
ATOM      1  C   UNL     1       0.352  48.123  50.117  1.00  0.00     0.011 C 
ATOM      2  C   UNL     1       0.161  47.092  48.979  1.00  0.00    -0.035 C 
ATOM      3  C   UNL     1      -1.119  46.249  49.179  1.00  0.00     0.007 C 
ATOM      4  C   UNL     1      -1.039  45.345  50.414  1.00  0.00     0.008 C 
ATOM      5  C   UNL     1       0.193  44.384  50.421  1.00  0.00    -0.026 C 
ATOM      6  C   UNL     1      -0.065  43.157  49.467  1.00  0.00     0.008 C 
ATOM      7  C   UNL     1       1.016  42.852  48.397  1.00  0.00     0.012 C 
ATOM      8  C   UNL     1       2.526  42.999  48.829  1.00  0.00    -0.006 C 
ATOM      9  C   UNL     1       2.652  44.158  49.827  1.00  0.00    -0.064 C 
ATOM     10  C   UNL     1       3.804  44.320  50.497  1.00  0.00    -0.027 C 
ATOM     11  C   UNL     1       4.924  43.333  50.372  1.00  0.00     0.032 C 
ATOM     12  C   UNL     1       4.388  41.884  50.471  1.00  0.00     0.006 C 
ATOM     13  C   UNL     1       3.162  41.619  49.459  1.00  0.00    -0.020 C 
ATOM     14  C   UNL     1       3.594  40.614  48.334  1.00  0.00     0.008 C 
ATOM     15  C   UNL     1       5.062  40.754  47.912  1.00  0.00     0.005 C 
ATOM     16  C   UNL     1       6.078  40.392  49.030  1.00  0.00     0.003 C 
ATOM     17  C   UNL     1       5.548  40.771  50.497  1.00  0.00    -0.025 C 
ATOM     18  C   UNL     1       6.680  41.174  51.521  1.00  0.00     0.010 C 
ATOM     19  C   UNL     1       7.937  41.774  50.911  1.00  0.00     0.033 C 
ATOM     20  C   UNL     1       8.512  40.827  49.856  1.00  0.00     0.120 C 
ATOM     21  C   UNL     1       7.582  40.757  48.616  1.00  0.00    -0.006 C 
ATOM     22  C   UNL     1       7.719  42.092  47.823  1.00  0.00     0.014 C 
ATOM     23  C   UNL     1       8.135  39.656  47.667  1.00  0.00     0.014 C 
ATOM     24  C   UNL     1       4.960  39.464  51.134  1.00  0.00     0.012 C 
ATOM     25  C   UNL     1       2.059  40.874  50.277  1.00  0.00     0.012 C 
ATOM     26  C   UNL     1       1.506  45.149  50.063  1.00  0.00     0.022 C 
ATOM     27  C   UNL     1       1.372  46.139  48.875  1.00  0.00     0.015 C 
ATOM     28  C   UNL     1       3.275  43.472  47.535  1.00  0.00     0.017 C 
ATOM     29  C   UNL     1       0.322  43.881  51.887  1.00  0.00     0.012 C 
ATOM     30  C   UNL     1       0.028  47.875  47.654  1.00  0.00     0.011 C 
ENDROOT
BRANCH  20  31
ATOM     31  O   UNL     1       8.703  39.544  50.407  1.00  0.00    -0.393 OA
ATOM     32  H   UNL     1       8.344  39.570  51.332  1.00  0.00     0.210 HD
ENDBRANCH  20  31
TORSDOF 1
ENDMDL
