MODEL 1
REMARK VINA RESULT:    -3.696      0.000      0.000
REMARK INTER + INTRA:          -7.502
REMARK INTER:                  -6.290
REMARK INTRA:                  -1.213
REMARK UNBOUND:                -1.213
REMARK SMILES CCCCCCCCCCCCCC(=O)[O-]
REMARK SMILES IDX 8 1 9 2 10 3 11 4 12 5 13 6 14 7 15 8 16 9 7 10 6 11 5 12
REMARK SMILES IDX 4 13 3 14 2 15 1 16
REMARK H PARENT
REMARK Flexibility Score: inf
ROOT
ATOM      1  C   UNL     1       1.319  -1.404   8.823  1.00  0.00     0.000 C 
ENDROOT
BRANCH   1   2
ATOM      2  C   UNL     1       0.008  -1.187   8.046  1.00  0.00     0.000 C 
BRANCH   2   3
ATOM      3  C   UNL     1      -0.236   0.288   7.692  1.00  0.00     0.000 C 
BRANCH   3   4
ATOM      4  C   UNL     1      -1.548   0.829   8.286  1.00  0.00     0.000 C 
BRANCH   4   5
ATOM      5  C   UNL     1      -2.468  -0.287   8.814  1.00  0.00     0.006 C 
BRANCH   5   6
ATOM      6  C   UNL     1      -3.948  -0.120   8.437  1.00  0.00     0.053 C 
BRANCH   6   7
ATOM      7  C   UNL     1      -4.702   0.680   9.455  1.00  0.00     0.041 C 
ATOM      8  O   UNL     1      -5.012   0.165  10.561  1.00  0.00    -0.550 OA
ATOM      9  O   UNL     1      -5.089   1.983   9.170  1.00  0.00    -0.550 OA
ENDBRANCH   6   7
ENDBRANCH   5   6
ENDBRANCH   4   5
ENDBRANCH   3   4
ENDBRANCH   2   3
ENDBRANCH   1   2
BRANCH   1  10
ATOM     10  C   UNL     1       1.865  -0.107   9.447  1.00  0.00     0.000 C 
BRANCH  10  11
ATOM     11  C   UNL     1       3.399   0.023   9.442  1.00  0.00    -0.000 C 
BRANCH  11  12
ATOM     12  C   UNL     1       3.882   1.402   8.962  1.00  0.00    -0.000 C 
BRANCH  12  13
ATOM     13  C   UNL     1       2.722   2.385   8.729  1.00  0.00    -0.000 C 
BRANCH  13  14
ATOM     14  C   UNL     1       3.025   3.410   7.621  1.00  0.00    -0.000 C 
BRANCH  14  15
ATOM     15  C   UNL     1       1.764   3.830   6.848  1.00  0.00    -0.003 C 
ATOM     16  C   UNL     1       0.538   3.967   7.749  1.00  0.00     0.004 C 
ENDBRANCH  14  15
ENDBRANCH  13  14
ENDBRANCH  12  13
ENDBRANCH  11  12
ENDBRANCH  10  11
ENDBRANCH   1  10
TORSDOF 12
ENDMDL
MODEL 2
REMARK VINA RESULT:    -3.667      4.537      7.484
REMARK INTER + INTRA:          -7.452
REMARK INTER:                  -6.671
REMARK INTRA:                  -0.781
REMARK UNBOUND:                -1.213
REMARK SMILES CCCCCCCCCCCCCC(=O)[O-]
REMARK SMILES IDX 8 1 9 2 10 3 11 4 12 5 13 6 14 7 15 8 16 9 7 10 6 11 5 12
REMARK SMILES IDX 4 13 3 14 2 15 1 16
REMARK H PARENT
REMARK Flexibility Score: inf
ROOT
ATOM      1  C   UNL     1       2.155  -0.445   9.349  1.00  0.00     0.000 C 
ENDROOT
BRANCH   1   2
ATOM      2  C   UNL     1       3.596  -0.828   9.734  1.00  0.00     0.000 C 
BRANCH   2   3
ATOM      3  C   UNL     1       4.579   0.345   9.594  1.00  0.00     0.000 C 
BRANCH   3   4
ATOM      4  C   UNL     1       3.881   1.656   9.196  1.00  0.00     0.000 C 
BRANCH   4   5
ATOM      5  C   UNL     1       4.440   2.259   7.895  1.00  0.00     0.006 C 
BRANCH   5   6
ATOM      6  C   UNL     1       5.974   2.230   7.791  1.00  0.00     0.053 C 
BRANCH   6   7
ATOM      7  C   UNL     1       6.548   3.593   7.555  1.00  0.00     0.041 C 
ATOM      8  O   UNL     1       5.803   4.608   7.589  1.00  0.00    -0.550 OA
ATOM      9  O   UNL     1       7.898   3.740   7.265  1.00  0.00    -0.550 OA
ENDBRANCH   6   7
ENDBRANCH   5   6
ENDBRANCH   4   5
ENDBRANCH   3   4
ENDBRANCH   2   3
ENDBRANCH   1   2
BRANCH   1  10
ATOM     10  C   UNL     1       1.351  -1.633   8.790  1.00  0.00     0.000 C 
BRANCH  10  11
ATOM     11  C   UNL     1       0.099  -1.249   7.981  1.00  0.00    -0.000 C 
BRANCH  11  12
ATOM     12  C   UNL     1      -0.035   0.268   7.768  1.00  0.00    -0.000 C 
BRANCH  12  13
ATOM     13  C   UNL     1      -1.472   0.770   7.988  1.00  0.00    -0.000 C 
BRANCH  13  14
ATOM     14  C   UNL     1      -2.307  -0.184   8.862  1.00  0.00    -0.000 C 
BRANCH  14  15
ATOM     15  C   UNL     1      -3.789  -0.207   8.455  1.00  0.00    -0.003 C 
ATOM     16  C   UNL     1      -4.703  -0.691   9.581  1.00  0.00     0.004 C 
ENDBRANCH  14  15
ENDBRANCH  13  14
ENDBRANCH  12  13
ENDBRANCH  11  12
ENDBRANCH  10  11
ENDBRANCH   1  10
TORSDOF 12
ENDMDL
MODEL 3
REMARK VINA RESULT:    -3.629      2.468      4.676
REMARK INTER + INTRA:          -7.387
REMARK INTER:                  -5.918
REMARK INTRA:                  -1.469
REMARK UNBOUND:                -1.213
REMARK SMILES CCCCCCCCCCCCCC(=O)[O-]
REMARK SMILES IDX 8 1 9 2 10 3 11 4 12 5 13 6 14 7 15 8 16 9 7 10 6 11 5 12
REMARK SMILES IDX 4 13 3 14 2 15 1 16
REMARK H PARENT
REMARK Flexibility Score: inf
ROOT
ATOM      1  C   UNL     1      -2.128   1.392   9.599  1.00  0.00     0.000 C 
ENDROOT
BRANCH   1   2
ATOM      2  C   UNL     1      -3.527   2.035   9.598  1.00  0.00     0.000 C 
BRANCH   2   3
ATOM      3  C   UNL     1      -4.624   1.067   9.128  1.00  0.00     0.000 C 
BRANCH   3   4
ATOM      4  C   UNL     1      -4.059  -0.137   8.357  1.00  0.00     0.000 C 
BRANCH   4   5
ATOM      5  C   UNL     1      -4.504  -1.487   8.948  1.00  0.00     0.006 C 
BRANCH   5   6
ATOM      6  C   UNL     1      -3.357  -2.343   9.509  1.00  0.00     0.053 C 
BRANCH   6   7
ATOM      7  C   UNL     1      -2.894  -1.855  10.848  1.00  0.00     0.041 C 
ATOM      8  O   UNL     1      -3.721  -1.378  11.669  1.00  0.00    -0.550 OA
ATOM      9  O   UNL     1      -1.545  -1.897  11.176  1.00  0.00    -0.550 OA
ENDBRANCH   6   7
ENDBRANCH   5   6
ENDBRANCH   4   5
ENDBRANCH   3   4
ENDBRANCH   2   3
ENDBRANCH   1   2
BRANCH   1  10
ATOM     10  C   UNL     1      -1.052   2.302   8.978  1.00  0.00     0.000 C 
BRANCH  10  11
ATOM     11  C   UNL     1      -0.078   1.597   8.016  1.00  0.00    -0.000 C 
BRANCH  11  12
ATOM     12  C   UNL     1      -0.461   0.133   7.742  1.00  0.00    -0.000 C 
BRANCH  12  13
ATOM     13  C   UNL     1       0.517  -0.863   8.386  1.00  0.00    -0.000 C 
BRANCH  13  14
ATOM     14  C   UNL     1       0.122  -2.330   8.135  1.00  0.00    -0.000 C 
BRANCH  14  15
ATOM     15  C   UNL     1       1.143  -3.321   8.717  1.00  0.00    -0.003 C 
ATOM     16  C   UNL     1       2.347  -2.625   9.350  1.00  0.00     0.004 C 
ENDBRANCH  14  15
ENDBRANCH  13  14
ENDBRANCH  12  13
ENDBRANCH  11  12
ENDBRANCH  10  11
ENDBRANCH   1  10
TORSDOF 12
ENDMDL
MODEL 4
REMARK VINA RESULT:    -3.613      3.241      5.945
REMARK INTER + INTRA:          -7.360
REMARK INTER:                  -6.053
REMARK INTRA:                  -1.306
REMARK UNBOUND:                -1.213
REMARK SMILES CCCCCCCCCCCCCC(=O)[O-]
REMARK SMILES IDX 8 1 9 2 10 3 11 4 12 5 13 6 14 7 15 8 16 9 7 10 6 11 5 12
REMARK SMILES IDX 4 13 3 14 2 15 1 16
REMARK H PARENT
REMARK Flexibility Score: inf
ROOT
ATOM      1  C   UNL     1       1.951  -2.310   9.717  1.00  0.00     0.000 C 
ENDROOT
BRANCH   1   2
ATOM      2  C   UNL     1       3.095  -1.290   9.567  1.00  0.00     0.000 C 
BRANCH   2   3
ATOM      3  C   UNL     1       2.674   0.136   9.953  1.00  0.00     0.000 C 
BRANCH   3   4
ATOM      4  C   UNL     1       2.866   1.140   8.803  1.00  0.00     0.000 C 
BRANCH   4   5
ATOM      5  C   UNL     1       2.060   2.436   9.003  1.00  0.00     0.006 C 
BRANCH   5   6
ATOM      6  C   UNL     1       1.540   3.066   7.701  1.00  0.00     0.053 C 
BRANCH   6   7
ATOM      7  C   UNL     1       2.463   4.126   7.180  1.00  0.00     0.041 C 
ATOM      8  O   UNL     1       2.111   5.335   7.196  1.00  0.00    -0.550 OA
ATOM      9  O   UNL     1       3.697   3.775   6.648  1.00  0.00    -0.550 OA
ENDBRANCH   6   7
ENDBRANCH   5   6
ENDBRANCH   4   5
ENDBRANCH   3   4
ENDBRANCH   2   3
ENDBRANCH   1   2
BRANCH   1  10
ATOM     10  C   UNL     1       0.991  -2.313   8.514  1.00  0.00     0.000 C 
BRANCH  10  11
ATOM     11  C   UNL     1      -0.282  -1.466   8.694  1.00  0.00    -0.000 C 
BRANCH  11  12
ATOM     12  C   UNL     1      -0.356  -0.280   7.717  1.00  0.00    -0.000 C 
BRANCH  12  13
ATOM     13  C   UNL     1      -1.293   0.834   8.212  1.00  0.00    -0.000 C 
BRANCH  13  14
ATOM     14  C   UNL     1      -2.444   0.298   9.085  1.00  0.00    -0.000 C 
BRANCH  14  15
ATOM     15  C   UNL     1      -3.713   0.006   8.269  1.00  0.00    -0.003 C 
ATOM     16  C   UNL     1      -4.454  -1.239   8.754  1.00  0.00     0.004 C 
ENDBRANCH  14  15
ENDBRANCH  13  14
ENDBRANCH  12  13
ENDBRANCH  11  12
ENDBRANCH  10  11
ENDBRANCH   1  10
TORSDOF 12
ENDMDL
MODEL 5
REMARK VINA RESULT:    -3.584      3.100      5.665
REMARK INTER + INTRA:          -7.310
REMARK INTER:                  -5.608
REMARK INTRA:                  -1.702
REMARK UNBOUND:                -1.213
REMARK SMILES CCCCCCCCCCCCCC(=O)[O-]
REMARK SMILES IDX 8 1 9 2 10 3 11 4 12 5 13 6 14 7 15 8 16 9 7 10 6 11 5 12
REMARK SMILES IDX 4 13 3 14 2 15 1 16
REMARK H PARENT
REMARK Flexibility Score: inf
ROOT
ATOM      1  C   UNL     1       1.363  -2.160   8.921  1.00  0.00     0.000 C 
ENDROOT
BRANCH   1   2
ATOM      2  C   UNL     1       1.118  -0.650   8.748  1.00  0.00     0.000 C 
BRANCH   2   3
ATOM      3  C   UNL     1       0.069  -0.338   7.670  1.00  0.00     0.000 C 
BRANCH   3   4
ATOM      4  C   UNL     1      -0.806   0.875   8.031  1.00  0.00     0.000 C 
BRANCH   4   5
ATOM      5  C   UNL     1      -0.194   1.740   9.148  1.00  0.00     0.006 C 
BRANCH   5   6
ATOM      6  C   UNL     1       0.168   3.170   8.717  1.00  0.00     0.053 C 
BRANCH   6   7
ATOM      7  C   UNL     1       1.404   3.207   7.871  1.00  0.00     0.041 C 
ATOM      8  O   UNL     1       1.407   3.838   6.781  1.00  0.00    -0.550 OA
ATOM      9  O   UNL     1       2.543   2.518   8.270  1.00  0.00    -0.550 OA
ENDBRANCH   6   7
ENDBRANCH   5   6
ENDBRANCH   4   5
ENDBRANCH   3   4
ENDBRANCH   2   3
ENDBRANCH   1   2
BRANCH   1  10
ATOM     10  C   UNL     1       0.336  -3.022   8.165  1.00  0.00     0.000 C 
BRANCH  10  11
ATOM     11  C   UNL     1      -0.779  -3.626   9.038  1.00  0.00    -0.000 C 
BRANCH  11  12
ATOM     12  C   UNL     1      -0.798  -3.053  10.466  1.00  0.00    -0.000 C 
BRANCH  12  13
ATOM     13  C   UNL     1      -1.884  -1.982  10.657  1.00  0.00    -0.000 C 
BRANCH  13  14
ATOM     14  C   UNL     1      -2.823  -1.864   9.442  1.00  0.00    -0.000 C 
BRANCH  14  15
ATOM     15  C   UNL     1      -3.878  -0.761   9.620  1.00  0.00    -0.003 C 
ATOM     16  C   UNL     1      -4.317  -0.145   8.293  1.00  0.00     0.004 C 
ENDBRANCH  14  15
ENDBRANCH  13  14
ENDBRANCH  12  13
ENDBRANCH  11  12
ENDBRANCH  10  11
ENDBRANCH   1  10
TORSDOF 12
ENDMDL
MODEL 6
REMARK VINA RESULT:    -3.576      2.918      5.456
REMARK INTER + INTRA:          -7.297
REMARK INTER:                  -5.882
REMARK INTRA:                  -1.415
REMARK UNBOUND:                -1.213
REMARK SMILES CCCCCCCCCCCCCC(=O)[O-]
REMARK SMILES IDX 8 1 9 2 10 3 11 4 12 5 13 6 14 7 15 8 16 9 7 10 6 11 5 12
REMARK SMILES IDX 4 13 3 14 2 15 1 16
REMARK H PARENT
REMARK Flexibility Score: inf
ROOT
ATOM      1  C   UNL     1       1.849   0.495   9.419  1.00  0.00     0.000 C 
ENDROOT
BRANCH   1   2
ATOM      2  C   UNL     1       3.347   0.760   9.186  1.00  0.00     0.000 C 
BRANCH   2   3
ATOM      3  C   UNL     1       3.674   2.257   9.068  1.00  0.00     0.000 C 
BRANCH   3   4
ATOM      4  C   UNL     1       4.166   2.644   7.663  1.00  0.00     0.000 C 
BRANCH   4   5
ATOM      5  C   UNL     1       3.328   3.768   7.026  1.00  0.00     0.006 C 
BRANCH   5   6
ATOM      6  C   UNL     1       1.809   3.582   7.166  1.00  0.00     0.053 C 
BRANCH   6   7
ATOM      7  C   UNL     1       1.084   4.893   7.221  1.00  0.00     0.041 C 
ATOM      8  O   UNL     1       1.296   5.693   8.170  1.00  0.00    -0.550 OA
ATOM      9  O   UNL     1       0.152   5.216   6.244  1.00  0.00    -0.550 OA
ENDBRANCH   6   7
ENDBRANCH   5   6
ENDBRANCH   4   5
ENDBRANCH   3   4
ENDBRANCH   2   3
ENDBRANCH   1   2
BRANCH   1  10
ATOM     10  C   UNL     1       1.397  -0.880   8.895  1.00  0.00     0.000 C 
BRANCH  10  11
ATOM     11  C   UNL     1       0.200  -0.849   7.927  1.00  0.00    -0.000 C 
BRANCH  11  12
ATOM     12  C   UNL     1      -0.442   0.545   7.814  1.00  0.00    -0.000 C 
BRANCH  12  13
ATOM     13  C   UNL     1      -1.906   0.559   8.283  1.00  0.00    -0.000 C 
BRANCH  13  14
ATOM     14  C   UNL     1      -2.158   1.574   9.413  1.00  0.00    -0.000 C 
BRANCH  14  15
ATOM     15  C   UNL     1      -1.140   2.726   9.406  1.00  0.00    -0.003 C 
ATOM     16  C   UNL     1      -1.804   4.101   9.392  1.00  0.00     0.004 C 
ENDBRANCH  14  15
ENDBRANCH  13  14
ENDBRANCH  12  13
ENDBRANCH  11  12
ENDBRANCH  10  11
ENDBRANCH   1  10
TORSDOF 12
ENDMDL
MODEL 7
REMARK VINA RESULT:    -3.555      5.073      7.490
REMARK INTER + INTRA:          -7.262
REMARK INTER:                  -5.873
REMARK INTRA:                  -1.389
REMARK UNBOUND:                -1.213
REMARK SMILES CCCCCCCCCCCCCC(=O)[O-]
REMARK SMILES IDX 8 1 9 2 10 3 11 4 12 5 13 6 14 7 15 8 16 9 7 10 6 11 5 12
REMARK SMILES IDX 4 13 3 14 2 15 1 16
REMARK H PARENT
REMARK Flexibility Score: inf
ROOT
ATOM      1  C   UNL     1       2.340   0.337  10.463  1.00  0.00     0.000 C 
ENDROOT
BRANCH   1   2
ATOM      2  C   UNL     1       3.293   0.615   9.287  1.00  0.00     0.000 C 
BRANCH   2   3
ATOM      3  C   UNL     1       3.932   2.011   9.357  1.00  0.00     0.000 C 
BRANCH   3   4
ATOM      4  C   UNL     1       4.275   2.574   7.967  1.00  0.00     0.000 C 
BRANCH   4   5
ATOM      5  C   UNL     1       5.516   1.909   7.344  1.00  0.00     0.006 C 
BRANCH   5   6
ATOM      6  C   UNL     1       6.698   1.740   8.312  1.00  0.00     0.053 C 
BRANCH   6   7
ATOM      7  C   UNL     1       7.834   2.657   7.978  1.00  0.00     0.041 C 
ATOM      8  O   UNL     1       8.975   2.458   8.472  1.00  0.00    -0.550 OA
ATOM      9  O   UNL     1       7.626   3.751   7.146  1.00  0.00    -0.550 OA
ENDBRANCH   6   7
ENDBRANCH   5   6
ENDBRANCH   4   5
ENDBRANCH   3   4
ENDBRANCH   2   3
ENDBRANCH   1   2
BRANCH   1  10
ATOM     10  C   UNL     1       1.670  -1.045  10.375  1.00  0.00     0.000 C 
BRANCH  10  11
ATOM     11  C   UNL     1       1.836  -1.766   9.025  1.00  0.00    -0.000 C 
BRANCH  11  12
ATOM     12  C   UNL     1       0.492  -2.132   8.372  1.00  0.00    -0.000 C 
BRANCH  12  13
ATOM     13  C   UNL     1      -0.557  -1.018   8.519  1.00  0.00    -0.000 C 
BRANCH  13  14
ATOM     14  C   UNL     1      -0.262   0.198   7.621  1.00  0.00    -0.000 C 
BRANCH  14  15
ATOM     15  C   UNL     1      -0.535   1.533   8.333  1.00  0.00    -0.003 C 
ATOM     16  C   UNL     1       0.469   2.620   7.954  1.00  0.00     0.004 C 
ENDBRANCH  14  15
ENDBRANCH  13  14
ENDBRANCH  12  13
ENDBRANCH  11  12
ENDBRANCH  10  11
ENDBRANCH   1  10
TORSDOF 12
ENDMDL
MODEL 8
REMARK VINA RESULT:    -3.537     11.904     12.949
REMARK INTER + INTRA:          -7.231
REMARK INTER:                  -5.351
REMARK INTRA:                  -1.881
REMARK UNBOUND:                -1.213
REMARK SMILES CCCCCCCCCCCCCC(=O)[O-]
REMARK SMILES IDX 8 1 9 2 10 3 11 4 12 5 13 6 14 7 15 8 16 9 7 10 6 11 5 12
REMARK SMILES IDX 4 13 3 14 2 15 1 16
REMARK H PARENT
REMARK Flexibility Score: inf
ROOT
ATOM      1  C   UNL     1       1.229  -1.343  -5.352  1.00  0.00     0.000 C 
ENDROOT
BRANCH   1   2
ATOM      2  C   UNL     1       0.499  -2.119  -4.241  1.00  0.00     0.000 C 
BRANCH   2   3
ATOM      3  C   UNL     1       0.945  -1.701  -2.832  1.00  0.00     0.000 C 
BRANCH   3   4
ATOM      4  C   UNL     1       0.834  -2.847  -1.812  1.00  0.00     0.000 C 
BRANCH   4   5
ATOM      5  C   UNL     1       0.768  -4.233  -2.479  1.00  0.00     0.006 C 
BRANCH   5   6
ATOM      6  C   UNL     1       1.023  -5.409  -1.523  1.00  0.00     0.053 C 
BRANCH   6   7
ATOM      7  C   UNL     1      -0.186  -5.737  -0.701  1.00  0.00     0.041 C 
ATOM      8  O   UNL     1      -1.340  -5.533  -1.162  1.00  0.00    -0.550 OA
ATOM      9  O   UNL     1      -0.039  -6.239   0.586  1.00  0.00    -0.550 OA
ENDBRANCH   6   7
ENDBRANCH   5   6
ENDBRANCH   4   5
ENDBRANCH   3   4
ENDBRANCH   2   3
ENDBRANCH   1   2
BRANCH   1  10
ATOM     10  C   UNL     1       2.099  -0.195  -4.807  1.00  0.00     0.000 C 
BRANCH  10  11
ATOM     11  C   UNL     1       3.452  -0.008  -5.516  1.00  0.00    -0.000 C 
BRANCH  11  12
ATOM     12  C   UNL     1       4.648  -0.059  -4.550  1.00  0.00    -0.000 C 
BRANCH  12  13
ATOM     13  C   UNL     1       4.280  -0.673  -3.189  1.00  0.00    -0.000 C 
BRANCH  13  14
ATOM     14  C   UNL     1       5.139  -1.902  -2.840  1.00  0.00    -0.000 C 
BRANCH  14  15
ATOM     15  C   UNL     1       4.329  -3.208  -2.850  1.00  0.00    -0.003 C 
ATOM     16  C   UNL     1       3.953  -3.658  -4.261  1.00  0.00     0.004 C 
ENDBRANCH  14  15
ENDBRANCH  13  14
ENDBRANCH  12  13
ENDBRANCH  11  12
ENDBRANCH  10  11
ENDBRANCH   1  10
TORSDOF 12
ENDMDL
MODEL 9
REMARK VINA RESULT:    -3.499     12.168     13.127
REMARK INTER + INTRA:          -7.166
REMARK INTER:                  -5.439
REMARK INTRA:                  -1.727
REMARK UNBOUND:                -1.213
REMARK SMILES CCCCCCCCCCCCCC(=O)[O-]
REMARK SMILES IDX 8 1 9 2 10 3 11 4 12 5 13 6 14 7 15 8 16 9 7 10 6 11 5 12
REMARK SMILES IDX 4 13 3 14 2 15 1 16
REMARK H PARENT
REMARK Flexibility Score: inf
ROOT
ATOM      1  C   UNL     1       3.795  -0.758  -2.900  1.00  0.00     0.000 C 
ENDROOT
BRANCH   1   2
ATOM      2  C   UNL     1       2.886  -0.749  -4.142  1.00  0.00     0.000 C 
BRANCH   2   3
ATOM      3  C   UNL     1       1.751  -1.781  -4.055  1.00  0.00     0.000 C 
BRANCH   3   4
ATOM      4  C   UNL     1       1.282  -2.021  -2.610  1.00  0.00     0.000 C 
BRANCH   4   5
ATOM      5  C   UNL     1       0.389  -3.268  -2.474  1.00  0.00     0.006 C 
BRANCH   5   6
ATOM      6  C   UNL     1       0.852  -4.264  -1.398  1.00  0.00     0.053 C 
BRANCH   6   7
ATOM      7  C   UNL     1      -0.300  -4.848  -0.639  1.00  0.00     0.041 C 
ATOM      8  O   UNL     1      -0.208  -5.037   0.603  1.00  0.00    -0.550 OA
ATOM      9  O   UNL     1      -1.463  -5.211  -1.306  1.00  0.00    -0.550 OA
ENDBRANCH   6   7
ENDBRANCH   5   6
ENDBRANCH   4   5
ENDBRANCH   3   4
ENDBRANCH   2   3
ENDBRANCH   1   2
BRANCH   1  10
ATOM     10  C   UNL     1       5.292  -0.715  -3.254  1.00  0.00     0.000 C 
BRANCH  10  11
ATOM     11  C   UNL     1       5.604  -0.484  -4.744  1.00  0.00    -0.000 C 
BRANCH  11  12
ATOM     12  C   UNL     1       6.394  -1.642  -5.377  1.00  0.00    -0.000 C 
BRANCH  12  13
ATOM     13  C   UNL     1       6.318  -2.933  -4.544  1.00  0.00    -0.000 C 
BRANCH  13  14
ATOM     14  C   UNL     1       5.197  -3.878  -5.016  1.00  0.00    -0.000 C 
BRANCH  14  15
ATOM     15  C   UNL     1       4.288  -4.332  -3.863  1.00  0.00    -0.003 C 
ATOM     16  C   UNL     1       5.002  -4.335  -2.513  1.00  0.00     0.004 C 
ENDBRANCH  14  15
ENDBRANCH  13  14
ENDBRANCH  12  13
ENDBRANCH  11  12
ENDBRANCH  10  11
ENDBRANCH   1  10
TORSDOF 12
ENDMDL
