MODEL 1
REMARK VINA RESULT:     0.676      0.000      0.000
REMARK INTER + INTRA:          -0.135
REMARK INTER:                   1.703
REMARK INTRA:                  -1.838
REMARK UNBOUND:                -1.838
REMARK SMILES CCCCCCCCCCCCCCCCCCCCCCCCCCCC(=O)[O-]
REMARK SMILES IDX 15 1 16 2 17 3 18 4 19 5 20 6 21 7 22 8 23 9 24 10 25 11
REMARK SMILES IDX 26 12 27 13 28 14 29 15 30 16 14 17 13 18 12 19 11 20 10 21
REMARK SMILES IDX 9 22 8 23 7 24 6 25 5 26 4 27 3 28 2 29 1 30
REMARK H PARENT
REMARK Flexibility Score: inf
ROOT
ATOM      1  C   UNL     1      52.468  80.268  38.452  1.00  0.00     0.000 C 
ENDROOT
BRANCH   1   2
ATOM      2  C   UNL     1      50.938  80.265  38.286  1.00  0.00     0.000 C 
BRANCH   2   3
ATOM      3  C   UNL     1      50.194  79.899  39.581  1.00  0.00     0.000 C 
BRANCH   3   4
ATOM      4  C   UNL     1      48.669  80.066  39.461  1.00  0.00     0.000 C 
BRANCH   4   5
ATOM      5  C   UNL     1      48.031  81.033  40.475  1.00  0.00     0.000 C 
BRANCH   5   6
ATOM      6  C   UNL     1      48.889  82.280  40.736  1.00  0.00     0.000 C 
BRANCH   6   7
ATOM      7  C   UNL     1      48.242  83.179  41.800  1.00  0.00     0.000 C 
BRANCH   7   8
ATOM      8  C   UNL     1      49.228  83.617  42.899  1.00  0.00     0.000 C 
BRANCH   8   9
ATOM      9  C   UNL     1      48.655  84.610  43.928  1.00  0.00     0.000 C 
BRANCH   9  10
ATOM     10  C   UNL     1      49.182  84.370  45.349  1.00  0.00     0.000 C 
BRANCH  10  11
ATOM     11  C   UNL     1      48.255  83.429  46.128  1.00  0.00     0.000 C 
BRANCH  11  12
ATOM     12  C   UNL     1      48.854  82.020  46.220  1.00  0.00     0.006 C 
BRANCH  12  13
ATOM     13  C   UNL     1      49.175  81.651  47.671  1.00  0.00     0.053 C 
BRANCH  13  14
ATOM     14  C   UNL     1      49.208  80.165  47.845  1.00  0.00     0.041 C 
ATOM     15  O   UNL     1      49.464  79.663  48.972  1.00  0.00    -0.550 OA
ATOM     16  O   UNL     1      48.981  79.331  46.755  1.00  0.00    -0.550 OA
ENDBRANCH  13  14
ENDBRANCH  12  13
ENDBRANCH  11  12
ENDBRANCH  10  11
ENDBRANCH   9  10
ENDBRANCH   8   9
ENDBRANCH   7   8
ENDBRANCH   6   7
ENDBRANCH   5   6
ENDBRANCH   4   5
ENDBRANCH   3   4
ENDBRANCH   2   3
ENDBRANCH   1   2
BRANCH   1  17
ATOM     17  C   UNL     1      53.268  80.477  37.153  1.00  0.00     0.000 C 
BRANCH  17  18
ATOM     18  C   UNL     1      53.446  79.186  36.340  1.00  0.00     0.000 C 
BRANCH  18  19
ATOM     19  C   UNL     1      53.378  79.473  34.832  1.00  0.00     0.000 C 
BRANCH  19  20
ATOM     20  C   UNL     1      53.890  80.878  34.469  1.00  0.00     0.000 C 
BRANCH  20  21
ATOM     21  C   UNL     1      53.696  81.272  32.993  1.00  0.00     0.000 C 
BRANCH  21  22
ATOM     22  C   UNL     1      55.020  81.493  32.229  1.00  0.00    -0.000 C 
BRANCH  22  23
ATOM     23  C   UNL     1      55.549  82.929  32.383  1.00  0.00    -0.000 C 
BRANCH  23  24
ATOM     24  C   UNL     1      56.110  83.500  31.072  1.00  0.00    -0.000 C 
BRANCH  24  25
ATOM     25  C   UNL     1      55.104  83.425  29.913  1.00  0.00    -0.000 C 
BRANCH  25  26
ATOM     26  C   UNL     1      53.907  84.350  30.163  1.00  0.00    -0.000 C 
BRANCH  26  27
ATOM     27  C   UNL     1      52.585  83.581  30.044  1.00  0.00    -0.000 C 
BRANCH  27  28
ATOM     28  C   UNL     1      51.614  83.975  31.166  1.00  0.00    -0.000 C 
BRANCH  28  29
ATOM     29  C   UNL     1      50.664  82.831  31.558  1.00  0.00    -0.003 C 
ATOM     30  C   UNL     1      49.496  83.305  32.420  1.00  0.00     0.004 C 
ENDBRANCH  28  29
ENDBRANCH  27  28
ENDBRANCH  26  27
ENDBRANCH  25  26
ENDBRANCH  24  25
ENDBRANCH  23  24
ENDBRANCH  22  23
ENDBRANCH  21  22
ENDBRANCH  20  21
ENDBRANCH  19  20
ENDBRANCH  18  19
ENDBRANCH  17  18
ENDBRANCH   1  17
TORSDOF 26
ENDMDL
MODEL 2
REMARK VINA RESULT:     0.695      4.214     12.773
REMARK INTER + INTRA:          -0.088
REMARK INTER:                   1.815
REMARK INTRA:                  -1.903
REMARK UNBOUND:                -1.838
REMARK SMILES CCCCCCCCCCCCCCCCCCCCCCCCCCCC(=O)[O-]
REMARK SMILES IDX 15 1 16 2 17 3 18 4 19 5 20 6 21 7 22 8 23 9 24 10 25 11
REMARK SMILES IDX 26 12 27 13 28 14 29 15 30 16 14 17 13 18 12 19 11 20 10 21
REMARK SMILES IDX 9 22 8 23 7 24 6 25 5 26 4 27 3 28 2 29 1 30
REMARK H PARENT
REMARK Flexibility Score: inf
ROOT
ATOM      1  C   UNL     1      53.772  80.095  37.193  1.00  0.00     0.000 C 
ENDROOT
BRANCH   1   2
ATOM      2  C   UNL     1      53.121  79.094  36.221  1.00  0.00     0.000 C 
BRANCH   2   3
ATOM      3  C   UNL     1      53.495  79.353  34.753  1.00  0.00     0.000 C 
BRANCH   3   4
ATOM      4  C   UNL     1      53.733  80.844  34.451  1.00  0.00     0.000 C 
BRANCH   4   5
ATOM      5  C   UNL     1      53.795  81.211  32.957  1.00  0.00     0.000 C 
BRANCH   5   6
ATOM      6  C   UNL     1      55.199  81.636  32.502  1.00  0.00     0.000 C 
BRANCH   6   7
ATOM      7  C   UNL     1      55.203  82.016  31.014  1.00  0.00     0.000 C 
BRANCH   7   8
ATOM      8  C   UNL     1      53.836  81.808  30.337  1.00  0.00     0.000 C 
BRANCH   8   9
ATOM      9  C   UNL     1      53.567  82.718  29.123  1.00  0.00     0.000 C 
BRANCH   9  10
ATOM     10  C   UNL     1      52.568  83.843  29.429  1.00  0.00     0.000 C 
BRANCH  10  11
ATOM     11  C   UNL     1      52.778  84.396  30.844  1.00  0.00     0.000 C 
BRANCH  11  12
ATOM     12  C   UNL     1      51.448  84.481  31.603  1.00  0.00     0.006 C 
BRANCH  12  13
ATOM     13  C   UNL     1      50.893  83.084  31.897  1.00  0.00     0.053 C 
BRANCH  13  14
ATOM     14  C   UNL     1      49.423  83.030  31.620  1.00  0.00     0.041 C 
ATOM     15  O   UNL     1      48.598  83.414  32.492  1.00  0.00    -0.550 OA
ATOM     16  O   UNL     1      48.961  82.530  30.407  1.00  0.00    -0.550 OA
ENDBRANCH  13  14
ENDBRANCH  12  13
ENDBRANCH  11  12
ENDBRANCH  10  11
ENDBRANCH   9  10
ENDBRANCH   8   9
ENDBRANCH   7   8
ENDBRANCH   6   7
ENDBRANCH   5   6
ENDBRANCH   4   5
ENDBRANCH   3   4
ENDBRANCH   2   3
ENDBRANCH   1   2
BRANCH   1  17
ATOM     17  C   UNL     1      52.831  80.675  38.264  1.00  0.00     0.000 C 
BRANCH  17  18
ATOM     18  C   UNL     1      51.415  80.084  38.208  1.00  0.00     0.000 C 
BRANCH  18  19
ATOM     19  C   UNL     1      50.645  80.379  39.505  1.00  0.00     0.000 C 
BRANCH  19  20
ATOM     20  C   UNL     1      49.179  79.917  39.446  1.00  0.00     0.000 C 
BRANCH  20  21
ATOM     21  C   UNL     1      48.182  80.844  40.165  1.00  0.00     0.000 C 
BRANCH  21  22
ATOM     22  C   UNL     1      48.828  82.121  40.747  1.00  0.00    -0.000 C 
BRANCH  22  23
ATOM     23  C   UNL     1      48.011  82.706  41.911  1.00  0.00    -0.000 C 
BRANCH  23  24
ATOM     24  C   UNL     1      48.016  81.803  43.155  1.00  0.00    -0.000 C 
BRANCH  24  25
ATOM     25  C   UNL     1      47.876  82.595  44.464  1.00  0.00    -0.000 C 
BRANCH  25  26
ATOM     26  C   UNL     1      49.219  83.204  44.885  1.00  0.00    -0.000 C 
BRANCH  26  27
ATOM     27  C   UNL     1      49.161  83.711  46.331  1.00  0.00    -0.000 C 
BRANCH  27  28
ATOM     28  C   UNL     1      48.943  82.552  47.315  1.00  0.00    -0.000 C 
BRANCH  28  29
ATOM     29  C   UNL     1      49.698  81.277  46.904  1.00  0.00    -0.003 C 
ATOM     30  C   UNL     1      48.951  80.001  47.288  1.00  0.00     0.004 C 
ENDBRANCH  28  29
ENDBRANCH  27  28
ENDBRANCH  26  27
ENDBRANCH  25  26
ENDBRANCH  24  25
ENDBRANCH  23  24
ENDBRANCH  22  23
ENDBRANCH  21  22
ENDBRANCH  20  21
ENDBRANCH  19  20
ENDBRANCH  18  19
ENDBRANCH  17  18
ENDBRANCH   1  17
TORSDOF 26
ENDMDL
MODEL 3
REMARK VINA RESULT:     0.783      4.083     11.962
REMARK INTER + INTRA:           0.136
REMARK INTER:                   1.978
REMARK INTRA:                  -1.842
REMARK UNBOUND:                -1.838
REMARK SMILES CCCCCCCCCCCCCCCCCCCCCCCCCCCC(=O)[O-]
REMARK SMILES IDX 15 1 16 2 17 3 18 4 19 5 20 6 21 7 22 8 23 9 24 10 25 11
REMARK SMILES IDX 26 12 27 13 28 14 29 15 30 16 14 17 13 18 12 19 11 20 10 21
REMARK SMILES IDX 9 22 8 23 7 24 6 25 5 26 4 27 3 28 2 29 1 30
REMARK H PARENT
REMARK Flexibility Score: inf
ROOT
ATOM      1  C   UNL     1      54.039  80.586  34.133  1.00  0.00     0.000 C 
ENDROOT
BRANCH   1   2
ATOM      2  C   UNL     1      53.428  81.454  33.017  1.00  0.00     0.000 C 
BRANCH   2   3
ATOM      3  C   UNL     1      54.474  82.305  32.278  1.00  0.00     0.000 C 
BRANCH   3   4
ATOM      4  C   UNL     1      55.329  81.482  31.297  1.00  0.00     0.000 C 
BRANCH   4   5
ATOM      5  C   UNL     1      55.349  82.000  29.848  1.00  0.00     0.000 C 
BRANCH   5   6
ATOM      6  C   UNL     1      54.457  81.179  28.905  1.00  0.00     0.000 C 
BRANCH   6   7
ATOM      7  C   UNL     1      53.044  81.022  29.485  1.00  0.00     0.000 C 
BRANCH   7   8
ATOM      8  C   UNL     1      52.058  82.082  28.962  1.00  0.00     0.000 C 
BRANCH   8   9
ATOM      9  C   UNL     1      52.183  83.468  29.623  1.00  0.00     0.000 C 
BRANCH   9  10
ATOM     10  C   UNL     1      50.838  84.019  30.117  1.00  0.00     0.000 C 
BRANCH  10  11
ATOM     11  C   UNL     1      49.679  83.115  29.681  1.00  0.00     0.000 C 
BRANCH  11  12
ATOM     12  C   UNL     1      48.699  82.883  30.838  1.00  0.00     0.006 C 
BRANCH  12  13
ATOM     13  C   UNL     1      48.377  84.197  31.557  1.00  0.00     0.053 C 
BRANCH  13  14
ATOM     14  C   UNL     1      48.700  84.094  33.015  1.00  0.00     0.041 C 
ATOM     15  O   UNL     1      47.911  83.502  33.800  1.00  0.00    -0.550 OA
ATOM     16  O   UNL     1      49.861  84.674  33.514  1.00  0.00    -0.550 OA
ENDBRANCH  13  14
ENDBRANCH  12  13
ENDBRANCH  11  12
ENDBRANCH  10  11
ENDBRANCH   9  10
ENDBRANCH   8   9
ENDBRANCH   7   8
ENDBRANCH   6   7
ENDBRANCH   5   6
ENDBRANCH   4   5
ENDBRANCH   3   4
ENDBRANCH   2   3
ENDBRANCH   1   2
BRANCH   1  17
ATOM     17  C   UNL     1      53.119  79.479  34.679  1.00  0.00     0.000 C 
BRANCH  17  18
ATOM     18  C   UNL     1      53.308  79.225  36.182  1.00  0.00     0.000 C 
BRANCH  18  19
ATOM     19  C   UNL     1      53.549  80.543  36.935  1.00  0.00     0.000 C 
BRANCH  19  20
ATOM     20  C   UNL     1      52.784  80.616  38.268  1.00  0.00     0.000 C 
BRANCH  20  21
ATOM     21  C   UNL     1      51.406  79.930  38.259  1.00  0.00     0.000 C 
BRANCH  21  22
ATOM     22  C   UNL     1      50.463  80.412  39.383  1.00  0.00    -0.000 C 
BRANCH  22  23
ATOM     23  C   UNL     1      49.115  79.671  39.369  1.00  0.00    -0.000 C 
BRANCH  23  24
ATOM     24  C   UNL     1      48.089  80.286  40.334  1.00  0.00    -0.000 C 
BRANCH  24  25
ATOM     25  C   UNL     1      48.242  81.808  40.471  1.00  0.00    -0.000 C 
BRANCH  25  26
ATOM     26  C   UNL     1      48.262  82.228  41.946  1.00  0.00    -0.000 C 
BRANCH  26  27
ATOM     27  C   UNL     1      48.927  83.600  42.116  1.00  0.00    -0.000 C 
BRANCH  27  28
ATOM     28  C   UNL     1      48.705  84.149  43.533  1.00  0.00    -0.000 C 
BRANCH  28  29
ATOM     29  C   UNL     1      49.960  84.039  44.414  1.00  0.00    -0.003 C 
ATOM     30  C   UNL     1      49.669  84.311  45.889  1.00  0.00     0.004 C 
ENDBRANCH  28  29
ENDBRANCH  27  28
ENDBRANCH  26  27
ENDBRANCH  25  26
ENDBRANCH  24  25
ENDBRANCH  23  24
ENDBRANCH  22  23
ENDBRANCH  21  22
ENDBRANCH  20  21
ENDBRANCH  19  20
ENDBRANCH  18  19
ENDBRANCH  17  18
ENDBRANCH   1  17
TORSDOF 26
ENDMDL
MODEL 4
REMARK VINA RESULT:     0.873      1.865      4.075
REMARK INTER + INTRA:           0.363
REMARK INTER:                   2.509
REMARK INTRA:                  -2.146
REMARK UNBOUND:                -1.838
REMARK SMILES CCCCCCCCCCCCCCCCCCCCCCCCCCCC(=O)[O-]
REMARK SMILES IDX 15 1 16 2 17 3 18 4 19 5 20 6 21 7 22 8 23 9 24 10 25 11
REMARK SMILES IDX 26 12 27 13 28 14 29 15 30 16 14 17 13 18 12 19 11 20 10 21
REMARK SMILES IDX 9 22 8 23 7 24 6 25 5 26 4 27 3 28 2 29 1 30
REMARK H PARENT
REMARK Flexibility Score: inf
ROOT
ATOM      1  C   UNL     1      53.867  80.626  34.451  1.00  0.00     0.000 C 
ENDROOT
BRANCH   1   2
ATOM      2  C   UNL     1      53.448  79.236  34.963  1.00  0.00     0.000 C 
BRANCH   2   3
ATOM      3  C   UNL     1      53.487  79.124  36.495  1.00  0.00     0.000 C 
BRANCH   3   4
ATOM      4  C   UNL     1      53.065  80.426  37.201  1.00  0.00     0.000 C 
BRANCH   4   5
ATOM      5  C   UNL     1      52.365  80.241  38.559  1.00  0.00     0.000 C 
BRANCH   5   6
ATOM      6  C   UNL     1      50.859  80.538  38.503  1.00  0.00     0.000 C 
BRANCH   6   7
ATOM      7  C   UNL     1      50.120  79.848  39.660  1.00  0.00     0.000 C 
BRANCH   7   8
ATOM      8  C   UNL     1      48.589  79.905  39.514  1.00  0.00     0.000 C 
BRANCH   8   9
ATOM      9  C   UNL     1      47.875  80.831  40.518  1.00  0.00     0.000 C 
BRANCH   9  10
ATOM     10  C   UNL     1      48.568  82.191  40.675  1.00  0.00     0.000 C 
BRANCH  10  11
ATOM     11  C   UNL     1      47.890  83.032  41.764  1.00  0.00     0.000 C 
BRANCH  11  12
ATOM     12  C   UNL     1      48.586  82.840  43.117  1.00  0.00     0.006 C 
BRANCH  12  13
ATOM     13  C   UNL     1      49.306  84.120  43.552  1.00  0.00     0.053 C 
BRANCH  13  14
ATOM     14  C   UNL     1      50.075  83.891  44.816  1.00  0.00     0.041 C 
ATOM     15  O   UNL     1      49.498  83.427  45.835  1.00  0.00    -0.550 OA
ATOM     16  O   UNL     1      51.426  84.214  44.876  1.00  0.00    -0.550 OA
ENDBRANCH  13  14
ENDBRANCH  12  13
ENDBRANCH  11  12
ENDBRANCH  10  11
ENDBRANCH   9  10
ENDBRANCH   8   9
ENDBRANCH   7   8
ENDBRANCH   6   7
ENDBRANCH   5   6
ENDBRANCH   4   5
ENDBRANCH   3   4
ENDBRANCH   2   3
ENDBRANCH   1   2
BRANCH   1  17
ATOM     17  C   UNL     1      53.469  80.937  32.996  1.00  0.00     0.000 C 
BRANCH  17  18
ATOM     18  C   UNL     1      53.931  82.324  32.527  1.00  0.00     0.000 C 
BRANCH  18  19
ATOM     19  C   UNL     1      55.452  82.353  32.313  1.00  0.00     0.000 C 
BRANCH  19  20
ATOM     20  C   UNL     1      56.031  83.778  32.336  1.00  0.00     0.000 C 
BRANCH  20  21
ATOM     21  C   UNL     1      56.747  84.203  31.041  1.00  0.00     0.000 C 
BRANCH  21  22
ATOM     22  C   UNL     1      56.510  83.244  29.854  1.00  0.00    -0.000 C 
BRANCH  22  23
ATOM     23  C   UNL     1      55.328  83.687  28.976  1.00  0.00    -0.000 C 
BRANCH  23  24
ATOM     24  C   UNL     1      54.798  85.080  29.350  1.00  0.00    -0.000 C 
BRANCH  24  25
ATOM     25  C   UNL     1      53.344  85.049  29.846  1.00  0.00    -0.000 C 
BRANCH  25  26
ATOM     26  C   UNL     1      52.599  83.831  29.286  1.00  0.00    -0.000 C 
BRANCH  26  27
ATOM     27  C   UNL     1      51.101  84.126  29.137  1.00  0.00    -0.000 C 
BRANCH  27  28
ATOM     28  C   UNL     1      50.569  84.908  30.347  1.00  0.00    -0.000 C 
BRANCH  28  29
ATOM     29  C   UNL     1      49.515  84.121  31.143  1.00  0.00    -0.003 C 
ATOM     30  C   UNL     1      50.133  83.229  32.217  1.00  0.00     0.004 C 
ENDBRANCH  28  29
ENDBRANCH  27  28
ENDBRANCH  26  27
ENDBRANCH  25  26
ENDBRANCH  24  25
ENDBRANCH  23  24
ENDBRANCH  22  23
ENDBRANCH  21  22
ENDBRANCH  20  21
ENDBRANCH  19  20
ENDBRANCH  18  19
ENDBRANCH  17  18
ENDBRANCH   1  17
TORSDOF 26
ENDMDL
MODEL 5
REMARK VINA RESULT:     1.095      4.709     13.300
REMARK INTER + INTRA:           0.920
REMARK INTER:                   2.966
REMARK INTRA:                  -2.046
REMARK UNBOUND:                -1.838
REMARK SMILES CCCCCCCCCCCCCCCCCCCCCCCCCCCC(=O)[O-]
REMARK SMILES IDX 15 1 16 2 17 3 18 4 19 5 20 6 21 7 22 8 23 9 24 10 25 11
REMARK SMILES IDX 26 12 27 13 28 14 29 15 30 16 14 17 13 18 12 19 11 20 10 21
REMARK SMILES IDX 9 22 8 23 7 24 6 25 5 26 4 27 3 28 2 29 1 30
REMARK H PARENT
REMARK Flexibility Score: inf
ROOT
ATOM      1  C   UNL     1      53.058  80.624  36.978  1.00  0.00     0.000 C 
ENDROOT
BRANCH   1   2
ATOM      2  C   UNL     1      53.514  79.444  36.101  1.00  0.00     0.000 C 
BRANCH   2   3
ATOM      3  C   UNL     1      53.318  79.703  34.598  1.00  0.00     0.000 C 
BRANCH   3   4
ATOM      4  C   UNL     1      53.987  81.007  34.125  1.00  0.00     0.000 C 
BRANCH   4   5
ATOM      5  C   UNL     1      53.783  81.349  32.638  1.00  0.00     0.000 C 
BRANCH   5   6
ATOM      6  C   UNL     1      52.315  81.626  32.281  1.00  0.00     0.000 C 
BRANCH   6   7
ATOM      7  C   UNL     1      52.007  83.129  32.354  1.00  0.00     0.000 C 
BRANCH   7   8
ATOM      8  C   UNL     1      51.589  83.724  30.996  1.00  0.00     0.000 C 
BRANCH   8   9
ATOM      9  C   UNL     1      51.882  82.828  29.777  1.00  0.00     0.000 C 
BRANCH   9  10
ATOM     10  C   UNL     1      52.991  83.389  28.875  1.00  0.00     0.000 C 
BRANCH  10  11
ATOM     11  C   UNL     1      53.329  84.836  29.254  1.00  0.00     0.000 C 
BRANCH  11  12
ATOM     12  C   UNL     1      54.813  84.976  29.616  1.00  0.00     0.006 C 
BRANCH  12  13
ATOM     13  C   UNL     1      55.367  83.664  30.179  1.00  0.00     0.053 C 
BRANCH  13  14
ATOM     14  C   UNL     1      56.458  83.932  31.168  1.00  0.00     0.041 C 
ATOM     15  O   UNL     1      56.218  83.895  32.405  1.00  0.00    -0.550 OA
ATOM     16  O   UNL     1      57.738  84.248  30.725  1.00  0.00    -0.550 OA
ENDBRANCH  13  14
ENDBRANCH  12  13
ENDBRANCH  11  12
ENDBRANCH  10  11
ENDBRANCH   9  10
ENDBRANCH   8   9
ENDBRANCH   7   8
ENDBRANCH   6   7
ENDBRANCH   5   6
ENDBRANCH   4   5
ENDBRANCH   3   4
ENDBRANCH   2   3
ENDBRANCH   1   2
BRANCH   1  17
ATOM     17  C   UNL     1      52.332  80.232  38.279  1.00  0.00     0.000 C 
BRANCH  17  18
ATOM     18  C   UNL     1      50.806  80.173  38.123  1.00  0.00     0.000 C 
BRANCH  18  19
ATOM     19  C   UNL     1      50.135  79.763  39.444  1.00  0.00     0.000 C 
BRANCH  19  20
ATOM     20  C   UNL     1      48.600  79.758  39.357  1.00  0.00     0.000 C 
BRANCH  20  21
ATOM     21  C   UNL     1      47.903  80.841  40.201  1.00  0.00     0.000 C 
BRANCH  21  22
ATOM     22  C   UNL     1      48.360  80.869  41.676  1.00  0.00    -0.000 C 
BRANCH  22  23
ATOM     23  C   UNL     1      48.872  82.256  42.100  1.00  0.00    -0.000 C 
BRANCH  23  24
ATOM     24  C   UNL     1      48.029  82.884  43.222  1.00  0.00    -0.000 C 
BRANCH  24  25
ATOM     25  C   UNL     1      48.129  82.108  44.544  1.00  0.00    -0.000 C 
BRANCH  25  26
ATOM     26  C   UNL     1      49.228  82.690  45.441  1.00  0.00    -0.000 C 
BRANCH  26  27
ATOM     27  C   UNL     1      49.588  81.715  46.569  1.00  0.00    -0.000 C 
BRANCH  27  28
ATOM     28  C   UNL     1      48.326  81.080  47.174  1.00  0.00    -0.000 C 
BRANCH  28  29
ATOM     29  C   UNL     1      48.560  79.639  47.655  1.00  0.00    -0.003 C 
ATOM     30  C   UNL     1      49.013  78.710  46.530  1.00  0.00     0.004 C 
ENDBRANCH  28  29
ENDBRANCH  27  28
ENDBRANCH  26  27
ENDBRANCH  25  26
ENDBRANCH  24  25
ENDBRANCH  23  24
ENDBRANCH  22  23
ENDBRANCH  21  22
ENDBRANCH  20  21
ENDBRANCH  19  20
ENDBRANCH  18  19
ENDBRANCH  17  18
ENDBRANCH   1  17
TORSDOF 26
ENDMDL
MODEL 6
REMARK VINA RESULT:     1.379      1.000      2.083
REMARK INTER + INTRA:           1.638
REMARK INTER:                   3.556
REMARK INTRA:                  -1.918
REMARK UNBOUND:                -1.838
REMARK SMILES CCCCCCCCCCCCCCCCCCCCCCCCCCCC(=O)[O-]
REMARK SMILES IDX 15 1 16 2 17 3 18 4 19 5 20 6 21 7 22 8 23 9 24 10 25 11
REMARK SMILES IDX 26 12 27 13 28 14 29 15 30 16 14 17 13 18 12 19 11 20 10 21
REMARK SMILES IDX 9 22 8 23 7 24 6 25 5 26 4 27 3 28 2 29 1 30
REMARK H PARENT
REMARK Flexibility Score: inf
ROOT
ATOM      1  C   UNL     1      53.507  80.742  36.267  1.00  0.00     0.000 C 
ENDROOT
BRANCH   1   2
ATOM      2  C   UNL     1      53.256  80.012  37.599  1.00  0.00     0.000 C 
BRANCH   2   3
ATOM      3  C   UNL     1      52.174  80.685  38.459  1.00  0.00     0.000 C 
BRANCH   3   4
ATOM      4  C   UNL     1      50.842  79.913  38.455  1.00  0.00     0.000 C 
BRANCH   4   5
ATOM      5  C   UNL     1      50.067  79.932  39.785  1.00  0.00     0.000 C 
BRANCH   5   6
ATOM      6  C   UNL     1      48.683  80.588  39.663  1.00  0.00     0.000 C 
BRANCH   6   7
ATOM      7  C   UNL     1      48.245  81.198  41.003  1.00  0.00     0.000 C 
BRANCH   7   8
ATOM      8  C   UNL     1      48.330  82.735  41.022  1.00  0.00     0.000 C 
BRANCH   8   9
ATOM      9  C   UNL     1      49.301  83.319  42.066  1.00  0.00     0.000 C 
BRANCH   9  10
ATOM     10  C   UNL     1      48.601  83.734  43.368  1.00  0.00     0.000 C 
BRANCH  10  11
ATOM     11  C   UNL     1      48.197  82.504  44.191  1.00  0.00     0.000 C 
BRANCH  11  12
ATOM     12  C   UNL     1      48.378  82.766  45.692  1.00  0.00     0.006 C 
BRANCH  12  13
ATOM     13  C   UNL     1      49.712  82.204  46.191  1.00  0.00     0.053 C 
BRANCH  13  14
ATOM     14  C   UNL     1      49.490  81.003  47.057  1.00  0.00     0.041 C 
ATOM     15  O   UNL     1      49.802  81.033  48.277  1.00  0.00    -0.550 OA
ATOM     16  O   UNL     1      48.960  79.839  46.509  1.00  0.00    -0.550 OA
ENDBRANCH  13  14
ENDBRANCH  12  13
ENDBRANCH  11  12
ENDBRANCH  10  11
ENDBRANCH   9  10
ENDBRANCH   8   9
ENDBRANCH   7   8
ENDBRANCH   6   7
ENDBRANCH   5   6
ENDBRANCH   4   5
ENDBRANCH   3   4
ENDBRANCH   2   3
ENDBRANCH   1   2
BRANCH   1  17
ATOM     17  C   UNL     1      53.860  79.833  35.077  1.00  0.00     0.000 C 
BRANCH  17  18
ATOM     18  C   UNL     1      53.131  80.221  33.783  1.00  0.00     0.000 C 
BRANCH  18  19
ATOM     19  C   UNL     1      53.681  81.539  33.216  1.00  0.00     0.000 C 
BRANCH  19  20
ATOM     20  C   UNL     1      55.144  81.425  32.755  1.00  0.00     0.000 C 
BRANCH  20  21
ATOM     21  C   UNL     1      55.653  82.620  31.927  1.00  0.00     0.000 C 
BRANCH  21  22
ATOM     22  C   UNL     1      55.716  83.944  32.719  1.00  0.00    -0.000 C 
BRANCH  22  23
ATOM     23  C   UNL     1      54.917  85.067  32.038  1.00  0.00    -0.000 C 
BRANCH  23  24
ATOM     24  C   UNL     1      54.492  84.710  30.605  1.00  0.00    -0.000 C 
BRANCH  24  25
ATOM     25  C   UNL     1      53.041  85.109  30.299  1.00  0.00    -0.000 C 
BRANCH  25  26
ATOM     26  C   UNL     1      52.295  83.973  29.589  1.00  0.00    -0.000 C 
BRANCH  26  27
ATOM     27  C   UNL     1      51.847  82.901  30.590  1.00  0.00    -0.000 C 
BRANCH  27  28
ATOM     28  C   UNL     1      51.292  83.541  31.871  1.00  0.00    -0.000 C 
BRANCH  28  29
ATOM     29  C   UNL     1      49.792  83.268  32.068  1.00  0.00    -0.003 C 
ATOM     30  C   UNL     1      49.092  82.868  30.772  1.00  0.00     0.004 C 
ENDBRANCH  28  29
ENDBRANCH  27  28
ENDBRANCH  26  27
ENDBRANCH  25  26
ENDBRANCH  24  25
ENDBRANCH  23  24
ENDBRANCH  22  23
ENDBRANCH  21  22
ENDBRANCH  20  21
ENDBRANCH  19  20
ENDBRANCH  18  19
ENDBRANCH  17  18
ENDBRANCH   1  17
TORSDOF 26
ENDMDL
MODEL 7
REMARK VINA RESULT:     1.419      1.092      2.442
REMARK INTER + INTRA:           1.737
REMARK INTER:                   3.548
REMARK INTRA:                  -1.811
REMARK UNBOUND:                -1.838
REMARK SMILES CCCCCCCCCCCCCCCCCCCCCCCCCCCC(=O)[O-]
REMARK SMILES IDX 15 1 16 2 17 3 18 4 19 5 20 6 21 7 22 8 23 9 24 10 25 11
REMARK SMILES IDX 26 12 27 13 28 14 29 15 30 16 14 17 13 18 12 19 11 20 10 21
REMARK SMILES IDX 9 22 8 23 7 24 6 25 5 26 4 27 3 28 2 29 1 30
REMARK H PARENT
REMARK Flexibility Score: inf
ROOT
ATOM      1  C   UNL     1      53.137  79.472  36.387  1.00  0.00     0.000 C 
ENDROOT
BRANCH   1   2
ATOM      2  C   UNL     1      53.128  80.696  37.321  1.00  0.00     0.000 C 
BRANCH   2   3
ATOM      3  C   UNL     1      52.339  80.454  38.619  1.00  0.00     0.000 C 
BRANCH   3   4
ATOM      4  C   UNL     1      50.837  80.224  38.371  1.00  0.00     0.000 C 
BRANCH   4   5
ATOM      5  C   UNL     1      50.012  79.857  39.618  1.00  0.00     0.000 C 
BRANCH   5   6
ATOM      6  C   UNL     1      48.499  80.004  39.401  1.00  0.00     0.000 C 
BRANCH   6   7
ATOM      7  C   UNL     1      48.026  81.418  39.771  1.00  0.00     0.000 C 
BRANCH   7   8
ATOM      8  C   UNL     1      48.035  81.677  41.289  1.00  0.00     0.000 C 
BRANCH   8   9
ATOM      9  C   UNL     1      48.921  82.852  41.742  1.00  0.00     0.000 C 
BRANCH   9  10
ATOM     10  C   UNL     1      48.254  83.728  42.812  1.00  0.00     0.000 C 
BRANCH  10  11
ATOM     11  C   UNL     1      49.251  84.105  43.914  1.00  0.00     0.000 C 
BRANCH  11  12
ATOM     12  C   UNL     1      48.707  83.731  45.299  1.00  0.00     0.006 C 
BRANCH  12  13
ATOM     13  C   UNL     1      48.246  82.271  45.332  1.00  0.00     0.053 C 
BRANCH  13  14
ATOM     14  C   UNL     1      48.820  81.561  46.518  1.00  0.00     0.041 C 
ATOM     15  O   UNL     1      49.181  82.213  47.534  1.00  0.00    -0.550 OA
ATOM     16  O   UNL     1      48.979  80.180  46.493  1.00  0.00    -0.550 OA
ENDBRANCH  13  14
ENDBRANCH  12  13
ENDBRANCH  11  12
ENDBRANCH  10  11
ENDBRANCH   9  10
ENDBRANCH   8   9
ENDBRANCH   7   8
ENDBRANCH   6   7
ENDBRANCH   5   6
ENDBRANCH   4   5
ENDBRANCH   3   4
ENDBRANCH   2   3
ENDBRANCH   1   2
BRANCH   1  17
ATOM     17  C   UNL     1      53.890  79.667  35.059  1.00  0.00     0.000 C 
BRANCH  17  18
ATOM     18  C   UNL     1      52.978  80.114  33.907  1.00  0.00     0.000 C 
BRANCH  18  19
ATOM     19  C   UNL     1      53.482  81.425  33.285  1.00  0.00     0.000 C 
BRANCH  19  20
ATOM     20  C   UNL     1      54.944  81.340  32.816  1.00  0.00     0.000 C 
BRANCH  20  21
ATOM     21  C   UNL     1      55.371  82.444  31.832  1.00  0.00     0.000 C 
BRANCH  21  22
ATOM     22  C   UNL     1      55.354  81.999  30.353  1.00  0.00    -0.000 C 
BRANCH  22  23
ATOM     23  C   UNL     1      54.018  81.348  29.957  1.00  0.00    -0.000 C 
BRANCH  23  24
ATOM     24  C   UNL     1      53.237  82.175  28.923  1.00  0.00    -0.000 C 
BRANCH  24  25
ATOM     25  C   UNL     1      52.879  83.579  29.433  1.00  0.00    -0.000 C 
BRANCH  25  26
ATOM     26  C   UNL     1      51.366  83.722  29.635  1.00  0.00    -0.000 C 
BRANCH  26  27
ATOM     27  C   UNL     1      51.048  84.269  31.032  1.00  0.00    -0.000 C 
BRANCH  27  28
ATOM     28  C   UNL     1      50.590  83.145  31.973  1.00  0.00    -0.000 C 
BRANCH  28  29
ATOM     29  C   UNL     1      49.120  83.291  32.399  1.00  0.00    -0.003 C 
ATOM     30  C   UNL     1      48.894  84.472  33.339  1.00  0.00     0.004 C 
ENDBRANCH  28  29
ENDBRANCH  27  28
ENDBRANCH  26  27
ENDBRANCH  25  26
ENDBRANCH  24  25
ENDBRANCH  23  24
ENDBRANCH  22  23
ENDBRANCH  21  22
ENDBRANCH  20  21
ENDBRANCH  19  20
ENDBRANCH  18  19
ENDBRANCH  17  18
ENDBRANCH   1  17
TORSDOF 26
ENDMDL
MODEL 8
REMARK VINA RESULT:     1.442      2.779      5.894
REMARK INTER + INTRA:           1.795
REMARK INTER:                   3.703
REMARK INTRA:                  -1.908
REMARK UNBOUND:                -1.838
REMARK SMILES CCCCCCCCCCCCCCCCCCCCCCCCCCCC(=O)[O-]
REMARK SMILES IDX 15 1 16 2 17 3 18 4 19 5 20 6 21 7 22 8 23 9 24 10 25 11
REMARK SMILES IDX 26 12 27 13 28 14 29 15 30 16 14 17 13 18 12 19 11 20 10 21
REMARK SMILES IDX 9 22 8 23 7 24 6 25 5 26 4 27 3 28 2 29 1 30
REMARK H PARENT
REMARK Flexibility Score: inf
ROOT
ATOM      1  C   UNL     1      55.325  82.031  32.600  1.00  0.00     0.000 C 
ENDROOT
BRANCH   1   2
ATOM      2  C   UNL     1      53.986  81.344  32.924  1.00  0.00     0.000 C 
BRANCH   2   3
ATOM      3  C   UNL     1      53.809  81.049  34.422  1.00  0.00     0.000 C 
BRANCH   3   4
ATOM      4  C   UNL     1      53.665  79.545  34.722  1.00  0.00     0.000 C 
BRANCH   4   5
ATOM      5  C   UNL     1      53.173  79.201  36.140  1.00  0.00     0.000 C 
BRANCH   5   6
ATOM      6  C   UNL     1      53.809  80.082  37.225  1.00  0.00     0.000 C 
BRANCH   6   7
ATOM      7  C   UNL     1      52.743  80.916  37.950  1.00  0.00     0.000 C 
BRANCH   7   8
ATOM      8  C   UNL     1      51.744  80.056  38.746  1.00  0.00     0.000 C 
BRANCH   8   9
ATOM      9  C   UNL     1      50.305  80.604  38.790  1.00  0.00     0.000 C 
BRANCH   9  10
ATOM     10  C   UNL     1      49.426  79.895  39.829  1.00  0.00     0.000 C 
BRANCH  10  11
ATOM     11  C   UNL     1      48.198  80.743  40.181  1.00  0.00     0.000 C 
BRANCH  11  12
ATOM     12  C   UNL     1      48.585  82.215  40.374  1.00  0.00     0.006 C 
BRANCH  12  13
ATOM     13  C   UNL     1      47.880  82.814  41.595  1.00  0.00     0.053 C 
BRANCH  13  14
ATOM     14  C   UNL     1      48.810  83.700  42.363  1.00  0.00     0.041 C 
ATOM     15  O   UNL     1      48.358  84.508  43.217  1.00  0.00    -0.550 OA
ATOM     16  O   UNL     1      50.178  83.651  42.117  1.00  0.00    -0.550 OA
ENDBRANCH  13  14
ENDBRANCH  12  13
ENDBRANCH  11  12
ENDBRANCH  10  11
ENDBRANCH   9  10
ENDBRANCH   8   9
ENDBRANCH   7   8
ENDBRANCH   6   7
ENDBRANCH   5   6
ENDBRANCH   4   5
ENDBRANCH   3   4
ENDBRANCH   2   3
ENDBRANCH   1   2
BRANCH   1  17
ATOM     17  C   UNL     1      55.237  83.543  32.328  1.00  0.00     0.000 C 
BRANCH  17  18
ATOM     18  C   UNL     1      56.359  84.058  31.414  1.00  0.00     0.000 C 
BRANCH  18  19
ATOM     19  C   UNL     1      56.461  83.207  30.138  1.00  0.00     0.000 C 
BRANCH  19  20
ATOM     20  C   UNL     1      55.467  83.644  29.049  1.00  0.00     0.000 C 
BRANCH  20  21
ATOM     21  C   UNL     1      54.885  85.057  29.237  1.00  0.00     0.000 C 
BRANCH  21  22
ATOM     22  C   UNL     1      53.350  85.125  29.082  1.00  0.00    -0.000 C 
BRANCH  22  23
ATOM     23  C   UNL     1      52.648  83.914  29.720  1.00  0.00    -0.000 C 
BRANCH  23  24
ATOM     24  C   UNL     1      51.531  84.320  30.695  1.00  0.00    -0.000 C 
BRANCH  24  25
ATOM     25  C   UNL     1      52.061  85.079  31.921  1.00  0.00    -0.000 C 
BRANCH  25  26
ATOM     26  C   UNL     1      51.156  84.858  33.139  1.00  0.00    -0.000 C 
BRANCH  26  27
ATOM     27  C   UNL     1      49.679  85.036  32.763  1.00  0.00    -0.000 C 
BRANCH  27  28
ATOM     28  C   UNL     1      49.011  83.680  32.493  1.00  0.00    -0.000 C 
BRANCH  28  29
ATOM     29  C   UNL     1      47.939  83.757  31.393  1.00  0.00    -0.003 C 
ATOM     30  C   UNL     1      48.318  84.718  30.269  1.00  0.00     0.004 C 
ENDBRANCH  28  29
ENDBRANCH  27  28
ENDBRANCH  26  27
ENDBRANCH  25  26
ENDBRANCH  24  25
ENDBRANCH  23  24
ENDBRANCH  22  23
ENDBRANCH  21  22
ENDBRANCH  20  21
ENDBRANCH  19  20
ENDBRANCH  18  19
ENDBRANCH  17  18
ENDBRANCH   1  17
TORSDOF 26
ENDMDL
MODEL 9
REMARK VINA RESULT:     1.672      1.131      2.293
REMARK INTER + INTRA:           2.375
REMARK INTER:                   4.349
REMARK INTRA:                  -1.973
REMARK UNBOUND:                -1.838
REMARK SMILES CCCCCCCCCCCCCCCCCCCCCCCCCCCC(=O)[O-]
REMARK SMILES IDX 15 1 16 2 17 3 18 4 19 5 20 6 21 7 22 8 23 9 24 10 25 11
REMARK SMILES IDX 26 12 27 13 28 14 29 15 30 16 14 17 13 18 12 19 11 20 10 21
REMARK SMILES IDX 9 22 8 23 7 24 6 25 5 26 4 27 3 28 2 29 1 30
REMARK H PARENT
REMARK Flexibility Score: inf
ROOT
ATOM      1  C   UNL     1      52.245  79.868  38.486  1.00  0.00     0.000 C 
ENDROOT
BRANCH   1   2
ATOM      2  C   UNL     1      50.795  80.379  38.405  1.00  0.00     0.000 C 
BRANCH   2   3
ATOM      3  C   UNL     1      49.920  79.891  39.571  1.00  0.00     0.000 C 
BRANCH   3   4
ATOM      4  C   UNL     1      48.430  80.228  39.381  1.00  0.00     0.000 C 
BRANCH   4   5
ATOM      5  C   UNL     1      47.875  81.312  40.324  1.00  0.00     0.000 C 
BRANCH   5   6
ATOM      6  C   UNL     1      48.977  82.080  41.068  1.00  0.00     0.000 C 
BRANCH   6   7
ATOM      7  C   UNL     1      48.408  83.334  41.749  1.00  0.00     0.000 C 
BRANCH   7   8
ATOM      8  C   UNL     1      48.127  83.128  43.249  1.00  0.00     0.000 C 
BRANCH   8   9
ATOM      9  C   UNL     1      49.042  83.927  44.196  1.00  0.00     0.000 C 
BRANCH   9  10
ATOM     10  C   UNL     1      49.677  83.056  45.289  1.00  0.00     0.000 C 
BRANCH  10  11
ATOM     11  C   UNL     1      48.954  83.241  46.629  1.00  0.00     0.000 C 
BRANCH  11  12
ATOM     12  C   UNL     1      48.075  82.025  46.950  1.00  0.00     0.006 C 
BRANCH  12  13
ATOM     13  C   UNL     1      48.509  80.803  46.134  1.00  0.00     0.053 C 
BRANCH  13  14
ATOM     14  C   UNL     1      48.789  79.639  47.033  1.00  0.00     0.041 C 
ATOM     15  O   UNL     1      48.810  79.793  48.284  1.00  0.00    -0.550 OA
ATOM     16  O   UNL     1      49.052  78.387  46.489  1.00  0.00    -0.550 OA
ENDBRANCH  13  14
ENDBRANCH  12  13
ENDBRANCH  11  12
ENDBRANCH  10  11
ENDBRANCH   9  10
ENDBRANCH   8   9
ENDBRANCH   7   8
ENDBRANCH   6   7
ENDBRANCH   5   6
ENDBRANCH   4   5
ENDBRANCH   3   4
ENDBRANCH   2   3
ENDBRANCH   1   2
BRANCH   1  17
ATOM     17  C   UNL     1      53.261  80.636  37.621  1.00  0.00     0.000 C 
BRANCH  17  18
ATOM     18  C   UNL     1      53.376  80.086  36.193  1.00  0.00     0.000 C 
BRANCH  18  19
ATOM     19  C   UNL     1      53.620  81.220  35.185  1.00  0.00     0.000 C 
BRANCH  19  20
ATOM     20  C   UNL     1      53.916  80.704  33.766  1.00  0.00     0.000 C 
BRANCH  20  21
ATOM     21  C   UNL     1      53.426  81.623  32.632  1.00  0.00     0.000 C 
BRANCH  21  22
ATOM     22  C   UNL     1      54.110  81.355  31.274  1.00  0.00    -0.000 C 
BRANCH  22  23
ATOM     23  C   UNL     1      53.141  81.518  30.092  1.00  0.00    -0.000 C 
BRANCH  23  24
ATOM     24  C   UNL     1      51.964  82.453  30.412  1.00  0.00    -0.000 C 
BRANCH  24  25
ATOM     25  C   UNL     1      52.348  83.939  30.329  1.00  0.00    -0.000 C 
BRANCH  25  26
ATOM     26  C   UNL     1      53.508  84.154  29.350  1.00  0.00    -0.000 C 
BRANCH  26  27
ATOM     27  C   UNL     1      54.596  85.035  29.975  1.00  0.00    -0.000 C 
BRANCH  27  28
ATOM     28  C   UNL     1      55.930  84.281  30.070  1.00  0.00    -0.000 C 
BRANCH  28  29
ATOM     29  C   UNL     1      56.381  84.056  31.523  1.00  0.00    -0.003 C 
ATOM     30  C   UNL     1      55.391  84.619  32.540  1.00  0.00     0.004 C 
ENDBRANCH  28  29
ENDBRANCH  27  28
ENDBRANCH  26  27
ENDBRANCH  25  26
ENDBRANCH  24  25
ENDBRANCH  23  24
ENDBRANCH  22  23
ENDBRANCH  21  22
ENDBRANCH  20  21
ENDBRANCH  19  20
ENDBRANCH  18  19
ENDBRANCH  17  18
ENDBRANCH   1  17
TORSDOF 26
ENDMDL
