MODEL 1
REMARK VINA RESULT:    -7.021      0.000      0.000
REMARK INTER + INTRA:          -8.545
REMARK INTER:                  -8.253
REMARK INTRA:                  -0.292
REMARK UNBOUND:                -0.292
REMARK SMILES O=c1cc(-c2ccc(O)c(O)c2)oc2cc(O)cc(O)c12
REMARK SMILES IDX 4 1 3 2 2 3 1 4 21 5 19 6 18 7 16 8 15 9 14 10 13 11 5 12
REMARK SMILES IDX 6 13 7 14 8 15 12 16 10 17 9 18 11 20 20 22 17 24
REMARK H PARENT 9 19 11 21 20 23 17 25
REMARK Flexibility Score: inf
ROOT
ATOM      1  C   UNL     1     107.186 121.519 120.748  1.00  0.00     0.138 A 
ATOM      2  C   UNL     1     106.327 121.463 121.855  1.00  0.00     0.100 A 
ATOM      3  C   UNL     1     105.055 122.031 121.770  1.00  0.00     0.197 A 
ATOM      4  O   UNL     1     104.284 121.911 122.758  1.00  0.00    -0.289 OA
ATOM      5  C   UNL     1     104.654 122.684 120.581  1.00  0.00     0.107 A 
ATOM      6  C   UNL     1     103.396 123.332 120.395  1.00  0.00     0.134 A 
ATOM      7  C   UNL     1     103.064 123.844 119.135  1.00  0.00     0.093 A 
ATOM      8  C   UNL     1     103.968 123.785 118.071  1.00  0.00     0.123 A 
ATOM      9  C   UNL     1     105.219 123.201 118.258  1.00  0.00     0.094 A 
ATOM     10  C   UNL     1     105.567 122.651 119.494  1.00  0.00     0.146 A 
ATOM     11  O   UNL     1     106.765 122.090 119.625  1.00  0.00    -0.456 OA
ENDROOT
BRANCH   1  12
ATOM     12  C   UNL     1     108.550 120.933 120.785  1.00  0.00     0.021 A 
ATOM     13  C   UNL     1     109.428 121.169 121.861  1.00  0.00     0.016 A 
ATOM     14  C   UNL     1     110.710 120.613 121.863  1.00  0.00     0.051 A 
ATOM     15  C   UNL     1     111.140 119.821 120.792  1.00  0.00     0.157 A 
ATOM     16  C   UNL     1     108.995 120.147 119.706  1.00  0.00     0.062 A 
ATOM     17  C   UNL     1     110.281 119.589 119.711  1.00  0.00     0.158 A 
BRANCH  15  18
ATOM     18  O   UNL     1     112.418 119.264 120.791  1.00  0.00    -0.504 OA
ATOM     19  H   UNL     1     113.091 119.484 120.067  1.00  0.00     0.293 HD
ENDBRANCH  15  18
BRANCH  17  20
ATOM     20  O   UNL     1     110.713 118.804 118.643  1.00  0.00    -0.504 OA
ATOM     21  H   UNL     1     110.119 118.626 117.841  1.00  0.00     0.293 HD
ENDBRANCH  17  20
ENDBRANCH   1  12
BRANCH   6  22
ATOM     22  O   UNL     1     102.456 123.521 121.413  1.00  0.00    -0.507 OA
ATOM     23  H   UNL     1     102.432 123.004 122.278  1.00  0.00     0.293 HD
ENDBRANCH   6  22
BRANCH   8  24
ATOM     24  O   UNL     1     103.635 124.311 116.824  1.00  0.00    -0.508 OA
ATOM     25  H   UNL     1     103.046 123.802 116.175  1.00  0.00     0.293 HD
ENDBRANCH   8  24
TORSDOF 5
ENDMDL
MODEL 2
REMARK VINA RESULT:    -6.926      1.035      1.035
REMARK INTER + INTRA:          -8.433
REMARK INTER:                  -8.164
REMARK INTRA:                  -0.268
REMARK UNBOUND:                -0.292
REMARK SMILES O=c1cc(-c2ccc(O)c(O)c2)oc2cc(O)cc(O)c12
REMARK SMILES IDX 4 1 3 2 2 3 1 4 21 5 19 6 18 7 16 8 15 9 14 10 13 11 5 12
REMARK SMILES IDX 6 13 7 14 8 15 12 16 10 17 9 18 11 20 20 22 17 24
REMARK H PARENT 9 19 11 21 20 23 17 25
REMARK Flexibility Score: inf
ROOT
ATOM      1  C   UNL     1     107.051 121.051 120.275  1.00  0.00     0.138 A 
ATOM      2  C   UNL     1     105.962 120.332 120.788  1.00  0.00     0.100 A 
ATOM      3  C   UNL     1     104.666 120.817 120.602  1.00  0.00     0.197 A 
ATOM      4  O   UNL     1     103.706 120.118 121.020  1.00  0.00    -0.289 OA
ATOM      5  C   UNL     1     104.464 122.043 119.926  1.00  0.00     0.107 A 
ATOM      6  C   UNL     1     103.192 122.653 119.713  1.00  0.00     0.134 A 
ATOM      7  C   UNL     1     103.103 123.809 118.929  1.00  0.00     0.093 A 
ATOM      8  C   UNL     1     104.249 124.411 118.399  1.00  0.00     0.123 A 
ATOM      9  C   UNL     1     105.501 123.852 118.646  1.00  0.00     0.094 A 
ATOM     10  C   UNL     1     105.618 122.680 119.397  1.00  0.00     0.146 A 
ATOM     11  O   UNL     1     106.830 122.172 119.596  1.00  0.00    -0.456 OA
ENDROOT
BRANCH   1  12
ATOM     12  C   UNL     1     108.450 120.583 120.446  1.00  0.00     0.021 A 
ATOM     13  C   UNL     1     109.185 120.856 121.616  1.00  0.00     0.016 A 
ATOM     14  C   UNL     1     110.503 120.412 121.745  1.00  0.00     0.051 A 
ATOM     15  C   UNL     1     111.112 119.695 120.708  1.00  0.00     0.157 A 
ATOM     16  C   UNL     1     109.074 119.873 119.404  1.00  0.00     0.062 A 
ATOM     17  C   UNL     1     110.397 119.426 119.535  1.00  0.00     0.158 A 
BRANCH  15  18
ATOM     18  O   UNL     1     112.427 119.249 120.834  1.00  0.00    -0.504 OA
ATOM     19  H   UNL     1     112.905 119.256 121.727  1.00  0.00     0.293 HD
ENDBRANCH  15  18
BRANCH  17  20
ATOM     20  O   UNL     1     111.007 118.716 118.502  1.00  0.00    -0.504 OA
ATOM     21  H   UNL     1     111.896 118.248 118.633  1.00  0.00     0.293 HD
ENDBRANCH  17  20
ENDBRANCH   1  12
BRANCH   6  22
ATOM     22  O   UNL     1     101.997 122.182 120.267  1.00  0.00    -0.507 OA
ATOM     23  H   UNL     1     101.212 121.839 119.736  1.00  0.00     0.293 HD
ENDBRANCH   6  22
BRANCH   8  24
ATOM     24  O   UNL     1     104.153 125.570 117.632  1.00  0.00    -0.508 OA
ATOM     25  H   UNL     1     104.889 125.842 116.990  1.00  0.00     0.293 HD
ENDBRANCH   8  24
TORSDOF 5
ENDMDL
MODEL 3
REMARK VINA RESULT:    -6.908      1.173      2.692
REMARK INTER + INTRA:          -8.412
REMARK INTER:                  -8.133
REMARK INTRA:                  -0.278
REMARK UNBOUND:                -0.292
REMARK SMILES O=c1cc(-c2ccc(O)c(O)c2)oc2cc(O)cc(O)c12
REMARK SMILES IDX 4 1 3 2 2 3 1 4 21 5 19 6 18 7 16 8 15 9 14 10 13 11 5 12
REMARK SMILES IDX 6 13 7 14 8 15 12 16 10 17 9 18 11 20 20 22 17 24
REMARK H PARENT 9 19 11 21 20 23 17 25
REMARK Flexibility Score: inf
ROOT
ATOM      1  C   UNL     1     107.266 121.650 120.275  1.00  0.00     0.138 A 
ATOM      2  C   UNL     1     106.839 122.154 119.039  1.00  0.00     0.100 A 
ATOM      3  C   UNL     1     105.577 122.741 118.932  1.00  0.00     0.197 A 
ATOM      4  O   UNL     1     105.246 123.239 117.825  1.00  0.00    -0.289 OA
ATOM      5  C   UNL     1     104.728 122.795 120.063  1.00  0.00     0.107 A 
ATOM      6  C   UNL     1     103.407 123.334 120.062  1.00  0.00     0.134 A 
ATOM      7  C   UNL     1     102.704 123.441 121.268  1.00  0.00     0.093 A 
ATOM      8  C   UNL     1     103.252 122.972 122.466  1.00  0.00     0.123 A 
ATOM      9  C   UNL     1     104.520 122.396 122.468  1.00  0.00     0.094 A 
ATOM     10  C   UNL     1     105.260 122.307 121.286  1.00  0.00     0.146 A 
ATOM     11  O   UNL     1     106.472 121.763 121.335  1.00  0.00    -0.456 OA
ENDROOT
BRANCH   1  12
ATOM     12  C   UNL     1     108.598 121.014 120.445  1.00  0.00     0.021 A 
ATOM     13  C   UNL     1     109.407 121.279 121.567  1.00  0.00     0.016 A 
ATOM     14  C   UNL     1     110.660 120.674 121.696  1.00  0.00     0.051 A 
ATOM     15  C   UNL     1     111.129 119.802 120.706  1.00  0.00     0.157 A 
ATOM     16  C   UNL     1     109.082 120.147 119.449  1.00  0.00     0.062 A 
ATOM     17  C   UNL     1     110.339 119.539 119.580  1.00  0.00     0.158 A 
BRANCH  15  18
ATOM     18  O   UNL     1     112.378 119.196 120.831  1.00  0.00    -0.504 OA
ATOM     19  H   UNL     1     113.202 119.730 121.083  1.00  0.00     0.293 HD
ENDBRANCH  15  18
BRANCH  17  20
ATOM     20  O   UNL     1     110.810 118.675 118.593  1.00  0.00    -0.504 OA
ATOM     21  H   UNL     1     111.757 118.742 118.236  1.00  0.00     0.293 HD
ENDBRANCH  17  20
ENDBRANCH   1  12
BRANCH   6  22
ATOM     22  O   UNL     1     102.735 123.752 118.909  1.00  0.00    -0.507 OA
ATOM     23  H   UNL     1     102.386 124.685 118.752  1.00  0.00     0.293 HD
ENDBRANCH   6  22
BRANCH   8  24
ATOM     24  O   UNL     1     102.539 123.068 123.659  1.00  0.00    -0.508 OA
ATOM     25  H   UNL     1     101.788 123.738 123.774  1.00  0.00     0.293 HD
ENDBRANCH   8  24
TORSDOF 5
ENDMDL
MODEL 4
REMARK VINA RESULT:    -6.837      1.156      2.631
REMARK INTER + INTRA:          -8.328
REMARK INTER:                  -8.065
REMARK INTRA:                  -0.263
REMARK UNBOUND:                -0.292
REMARK SMILES O=c1cc(-c2ccc(O)c(O)c2)oc2cc(O)cc(O)c12
REMARK SMILES IDX 4 1 3 2 2 3 1 4 21 5 19 6 18 7 16 8 15 9 14 10 13 11 5 12
REMARK SMILES IDX 6 13 7 14 8 15 12 16 10 17 9 18 11 20 20 22 17 24
REMARK H PARENT 9 19 11 21 20 23 17 25
REMARK Flexibility Score: inf
ROOT
ATOM      1  C   UNL     1     107.631 122.092 119.585  1.00  0.00     0.138 A 
ATOM      2  C   UNL     1     107.692 123.136 118.652  1.00  0.00     0.100 A 
ATOM      3  C   UNL     1     106.530 123.838 118.326  1.00  0.00     0.197 A 
ATOM      4  O   UNL     1     106.627 124.810 117.532  1.00  0.00    -0.289 OA
ATOM      5  C   UNL     1     105.297 123.470 118.914  1.00  0.00     0.107 A 
ATOM      6  C   UNL     1     104.044 124.088 118.627  1.00  0.00     0.134 A 
ATOM      7  C   UNL     1     102.908 123.717 119.358  1.00  0.00     0.093 A 
ATOM      8  C   UNL     1     102.970 122.709 120.324  1.00  0.00     0.123 A 
ATOM      9  C   UNL     1     104.178 122.063 120.574  1.00  0.00     0.094 A 
ATOM     10  C   UNL     1     105.336 122.434 119.885  1.00  0.00     0.146 A 
ATOM     11  O   UNL     1     106.471 121.802 120.165  1.00  0.00    -0.456 OA
ENDROOT
BRANCH   1  12
ATOM     12  C   UNL     1     108.836 121.311 119.967  1.00  0.00     0.021 A 
ATOM     13  C   UNL     1     109.624 121.664 121.081  1.00  0.00     0.016 A 
ATOM     14  C   UNL     1     110.757 120.918 121.411  1.00  0.00     0.051 A 
ATOM     15  C   UNL     1     111.128 119.814 120.634  1.00  0.00     0.157 A 
ATOM     16  C   UNL     1     109.223 120.208 119.185  1.00  0.00     0.062 A 
ATOM     17  C   UNL     1     110.361 119.459 119.518  1.00  0.00     0.158 A 
BRANCH  15  18
ATOM     18  O   UNL     1     112.259 119.066 120.962  1.00  0.00    -0.504 OA
ATOM     19  H   UNL     1     112.218 118.058 121.056  1.00  0.00     0.293 HD
ENDBRANCH  15  18
BRANCH  17  20
ATOM     20  O   UNL     1     110.735 118.363 118.743  1.00  0.00    -0.504 OA
ATOM     21  H   UNL     1     110.125 117.561 118.629  1.00  0.00     0.293 HD
ENDBRANCH  17  20
ENDBRANCH   1  12
BRANCH   6  22
ATOM     22  O   UNL     1     103.855 125.044 117.625  1.00  0.00    -0.507 OA
ATOM     23  H   UNL     1     102.961 125.410 117.338  1.00  0.00     0.293 HD
ENDBRANCH   6  22
BRANCH   8  24
ATOM     24  O   UNL     1     101.832 122.336 121.035  1.00  0.00    -0.508 OA
ATOM     25  H   UNL     1     101.894 121.767 121.872  1.00  0.00     0.293 HD
ENDBRANCH   8  24
TORSDOF 5
ENDMDL
MODEL 5
REMARK VINA RESULT:    -6.574      2.098      3.046
REMARK INTER + INTRA:          -8.020
REMARK INTER:                  -7.754
REMARK INTRA:                  -0.266
REMARK UNBOUND:                -0.292
REMARK SMILES O=c1cc(-c2ccc(O)c(O)c2)oc2cc(O)cc(O)c12
REMARK SMILES IDX 4 1 3 2 2 3 1 4 21 5 19 6 18 7 16 8 15 9 14 10 13 11 5 12
REMARK SMILES IDX 6 13 7 14 8 15 12 16 10 17 9 18 11 20 20 22 17 24
REMARK H PARENT 9 19 11 21 20 23 17 25
REMARK Flexibility Score: inf
ROOT
ATOM      1  C   UNL     1     107.437 121.526 119.112  1.00  0.00     0.138 A 
ATOM      2  C   UNL     1     107.389 122.880 118.751  1.00  0.00     0.100 A 
ATOM      3  C   UNL     1     106.182 123.438 118.329  1.00  0.00     0.197 A 
ATOM      4  O   UNL     1     106.156 124.670 118.071  1.00  0.00    -0.289 OA
ATOM      5  C   UNL     1     105.025 122.628 118.239  1.00  0.00     0.107 A 
ATOM      6  C   UNL     1     103.750 123.080 117.784  1.00  0.00     0.134 A 
ATOM      7  C   UNL     1     102.649 122.217 117.848  1.00  0.00     0.093 A 
ATOM      8  C   UNL     1     102.790 120.900 118.295  1.00  0.00     0.123 A 
ATOM      9  C   UNL     1     104.042 120.434 118.691  1.00  0.00     0.094 A 
ATOM     10  C   UNL     1     105.152 121.281 118.671  1.00  0.00     0.146 A 
ATOM     11  O   UNL     1     106.325 120.800 119.071  1.00  0.00    -0.456 OA
ENDROOT
BRANCH   1  12
ATOM     12  C   UNL     1     108.696 120.880 119.567  1.00  0.00     0.021 A 
ATOM     13  C   UNL     1     109.220 119.744 118.920  1.00  0.00     0.016 A 
ATOM     14  C   UNL     1     110.400 119.151 119.375  1.00  0.00     0.051 A 
ATOM     15  C   UNL     1     111.072 119.675 120.486  1.00  0.00     0.157 A 
ATOM     16  C   UNL     1     109.370 121.393 120.689  1.00  0.00     0.062 A 
ATOM     17  C   UNL     1     110.556 120.797 121.145  1.00  0.00     0.158 A 
BRANCH  15  18
ATOM     18  O   UNL     1     112.250 119.087 120.942  1.00  0.00    -0.504 OA
ATOM     19  H   UNL     1     113.157 119.494 120.744  1.00  0.00     0.293 HD
ENDBRANCH  15  18
BRANCH  17  20
ATOM     20  O   UNL     1     111.224 121.315 122.253  1.00  0.00    -0.504 OA
ATOM     21  H   UNL     1     112.235 121.373 122.284  1.00  0.00     0.293 HD
ENDBRANCH  17  20
ENDBRANCH   1  12
BRANCH   6  22
ATOM     22  O   UNL     1     103.519 124.347 117.240  1.00  0.00    -0.507 OA
ATOM     23  H   UNL     1     103.327 125.178 117.777  1.00  0.00     0.293 HD
ENDBRANCH   6  22
BRANCH   8  24
ATOM     24  O   UNL     1     101.692 120.044 118.341  1.00  0.00    -0.508 OA
ATOM     25  H   UNL     1     100.761 120.388 118.545  1.00  0.00     0.293 HD
ENDBRANCH   8  24
TORSDOF 5
ENDMDL
MODEL 6
REMARK VINA RESULT:    -6.405      1.934      6.725
REMARK INTER + INTRA:          -7.820
REMARK INTER:                  -7.542
REMARK INTRA:                  -0.279
REMARK UNBOUND:                -0.292
REMARK SMILES O=c1cc(-c2ccc(O)c(O)c2)oc2cc(O)cc(O)c12
REMARK SMILES IDX 4 1 3 2 2 3 1 4 21 5 19 6 18 7 16 8 15 9 14 10 13 11 5 12
REMARK SMILES IDX 6 13 7 14 8 15 12 16 10 17 9 18 11 20 20 22 17 24
REMARK H PARENT 9 19 11 21 20 23 17 25
REMARK Flexibility Score: inf
ROOT
ATOM      1  C   UNL     1     106.313 121.572 120.087  1.00  0.00     0.138 A 
ATOM      2  C   UNL     1     105.805 120.862 121.184  1.00  0.00     0.100 A 
ATOM      3  C   UNL     1     106.686 120.242 122.072  1.00  0.00     0.197 A 
ATOM      4  O   UNL     1     106.203 119.665 123.081  1.00  0.00    -0.289 OA
ATOM      5  C   UNL     1     108.080 120.307 121.840  1.00  0.00     0.107 A 
ATOM      6  C   UNL     1     109.069 119.679 122.655  1.00  0.00     0.134 A 
ATOM      7  C   UNL     1     110.425 119.910 122.395  1.00  0.00     0.093 A 
ATOM      8  C   UNL     1     110.828 120.697 121.313  1.00  0.00     0.123 A 
ATOM      9  C   UNL     1     109.870 121.271 120.479  1.00  0.00     0.094 A 
ATOM     10  C   UNL     1     108.509 121.087 120.734  1.00  0.00     0.146 A 
ATOM     11  O   UNL     1     107.628 121.664 119.923  1.00  0.00    -0.456 OA
ENDROOT
BRANCH   1  12
ATOM     12  C   UNL     1     105.421 122.250 119.111  1.00  0.00     0.021 A 
ATOM     13  C   UNL     1     104.483 121.532 118.344  1.00  0.00     0.016 A 
ATOM     14  C   UNL     1     103.664 122.194 117.426  1.00  0.00     0.051 A 
ATOM     15  C   UNL     1     103.772 123.579 117.252  1.00  0.00     0.157 A 
ATOM     16  C   UNL     1     105.532 123.639 118.921  1.00  0.00     0.062 A 
ATOM     17  C   UNL     1     104.709 124.303 118.000  1.00  0.00     0.158 A 
BRANCH  15  18
ATOM     18  O   UNL     1     102.956 124.243 116.338  1.00  0.00    -0.504 OA
ATOM     19  H   UNL     1     102.006 123.940 116.158  1.00  0.00     0.293 HD
ENDBRANCH  15  18
BRANCH  17  20
ATOM     20  O   UNL     1     104.818 125.681 117.822  1.00  0.00    -0.504 OA
ATOM     21  H   UNL     1     104.292 126.167 117.105  1.00  0.00     0.293 HD
ENDBRANCH  17  20
ENDBRANCH   1  12
BRANCH   6  22
ATOM     22  O   UNL     1     108.775 118.807 123.708  1.00  0.00    -0.507 OA
ATOM     23  H   UNL     1     108.204 117.980 123.628  1.00  0.00     0.293 HD
ENDBRANCH   6  22
BRANCH   8  24
ATOM     24  O   UNL     1     112.180 120.909 121.052  1.00  0.00    -0.508 OA
ATOM     25  H   UNL     1     112.791 121.337 121.738  1.00  0.00     0.293 HD
ENDBRANCH   8  24
TORSDOF 5
ENDMDL
MODEL 7
REMARK VINA RESULT:    -6.137      1.585      3.253
REMARK INTER + INTRA:          -7.506
REMARK INTER:                  -7.235
REMARK INTRA:                  -0.271
REMARK UNBOUND:                -0.292
REMARK SMILES O=c1cc(-c2ccc(O)c(O)c2)oc2cc(O)cc(O)c12
REMARK SMILES IDX 4 1 3 2 2 3 1 4 21 5 19 6 18 7 16 8 15 9 14 10 13 11 5 12
REMARK SMILES IDX 6 13 7 14 8 15 12 16 10 17 9 18 11 20 20 22 17 24
REMARK H PARENT 9 19 11 21 20 23 17 25
REMARK Flexibility Score: inf
ROOT
ATOM      1  C   UNL     1     107.198 121.122 121.202  1.00  0.00     0.138 A 
ATOM      2  C   UNL     1     106.546 121.758 120.135  1.00  0.00     0.100 A 
ATOM      3  C   UNL     1     105.211 122.142 120.274  1.00  0.00     0.197 A 
ATOM      4  O   UNL     1     104.672 122.766 119.323  1.00  0.00    -0.289 OA
ATOM      5  C   UNL     1     104.519 121.859 121.475  1.00  0.00     0.107 A 
ATOM      6  C   UNL     1     103.146 122.169 121.714  1.00  0.00     0.134 A 
ATOM      7  C   UNL     1     102.600 121.947 122.983  1.00  0.00     0.093 A 
ATOM      8  C   UNL     1     103.360 121.372 124.006  1.00  0.00     0.123 A 
ATOM      9  C   UNL     1     104.686 121.017 123.766  1.00  0.00     0.094 A 
ATOM     10  C   UNL     1     105.269 121.258 122.520  1.00  0.00     0.146 A 
ATOM     11  O   UNL     1     106.541 120.918 122.338  1.00  0.00    -0.456 OA
ENDROOT
BRANCH   1  12
ATOM     12  C   UNL     1     108.616 120.690 121.108  1.00  0.00     0.021 A 
ATOM     13  C   UNL     1     109.568 121.061 122.078  1.00  0.00     0.016 A 
ATOM     14  C   UNL     1     110.898 120.649 121.959  1.00  0.00     0.051 A 
ATOM     15  C   UNL     1     111.301 119.868 120.868  1.00  0.00     0.157 A 
ATOM     16  C   UNL     1     109.033 119.917 120.009  1.00  0.00     0.062 A 
ATOM     17  C   UNL     1     110.368 119.503 119.891  1.00  0.00     0.158 A 
BRANCH  15  18
ATOM     18  O   UNL     1     112.627 119.455 120.747  1.00  0.00    -0.504 OA
ATOM     19  H   UNL     1     113.387 119.984 121.161  1.00  0.00     0.293 HD
ENDBRANCH  15  18
BRANCH  17  20
ATOM     20  O   UNL     1     110.773 118.731 118.804  1.00  0.00    -0.504 OA
ATOM     21  H   UNL     1     111.706 118.339 118.750  1.00  0.00     0.293 HD
ENDBRANCH  17  20
ENDBRANCH   1  12
BRANCH   6  22
ATOM     22  O   UNL     1     102.277 122.667 120.738  1.00  0.00    -0.507 OA
ATOM     23  H   UNL     1     102.434 122.612 119.744  1.00  0.00     0.293 HD
ENDBRANCH   6  22
BRANCH   8  24
ATOM     24  O   UNL     1     102.803 121.141 125.262  1.00  0.00    -0.508 OA
ATOM     25  H   UNL     1     101.841 120.841 125.367  1.00  0.00     0.293 HD
ENDBRANCH   8  24
TORSDOF 5
ENDMDL
MODEL 8
REMARK VINA RESULT:    -6.121      2.558      6.961
REMARK INTER + INTRA:          -7.486
REMARK INTER:                  -7.224
REMARK INTRA:                  -0.263
REMARK UNBOUND:                -0.292
REMARK SMILES O=c1cc(-c2ccc(O)c(O)c2)oc2cc(O)cc(O)c12
REMARK SMILES IDX 4 1 3 2 2 3 1 4 21 5 19 6 18 7 16 8 15 9 14 10 13 11 5 12
REMARK SMILES IDX 6 13 7 14 8 15 12 16 10 17 9 18 11 20 20 22 17 24
REMARK H PARENT 9 19 11 21 20 23 17 25
REMARK Flexibility Score: inf
ROOT
ATOM      1  C   UNL     1     106.830 121.436 122.194  1.00  0.00     0.138 A 
ATOM      2  C   UNL     1     107.953 122.001 122.815  1.00  0.00     0.100 A 
ATOM      3  C   UNL     1     109.230 121.679 122.353  1.00  0.00     0.197 A 
ATOM      4  O   UNL     1     110.216 122.249 122.890  1.00  0.00    -0.289 OA
ATOM      5  C   UNL     1     109.383 120.762 121.286  1.00  0.00     0.107 A 
ATOM      6  C   UNL     1     110.636 120.330 120.759  1.00  0.00     0.134 A 
ATOM      7  C   UNL     1     110.662 119.510 119.625  1.00  0.00     0.093 A 
ATOM      8  C   UNL     1     109.479 119.058 119.034  1.00  0.00     0.123 A 
ATOM      9  C   UNL     1     108.250 119.432 119.574  1.00  0.00     0.094 A 
ATOM     10  C   UNL     1     108.191 120.277 120.684  1.00  0.00     0.146 A 
ATOM     11  O   UNL     1     106.998 120.621 121.158  1.00  0.00    -0.456 OA
ENDROOT
BRANCH   1  12
ATOM     12  C   UNL     1     105.448 121.742 122.645  1.00  0.00     0.021 A 
ATOM     13  C   UNL     1     104.696 122.786 122.071  1.00  0.00     0.016 A 
ATOM     14  C   UNL     1     103.402 123.058 122.522  1.00  0.00     0.051 A 
ATOM     15  C   UNL     1     102.840 122.301 123.556  1.00  0.00     0.157 A 
ATOM     16  C   UNL     1     104.880 120.994 123.692  1.00  0.00     0.062 A 
ATOM     17  C   UNL     1     103.580 121.268 124.144  1.00  0.00     0.158 A 
BRANCH  15  18
ATOM     18  O   UNL     1     101.549 122.569 124.008  1.00  0.00    -0.504 OA
ATOM     19  H   UNL     1     101.072 121.946 124.650  1.00  0.00     0.293 HD
ENDBRANCH  15  18
BRANCH  17  20
ATOM     20  O   UNL     1     103.020 120.518 125.177  1.00  0.00    -0.504 OA
ATOM     21  H   UNL     1     102.829 120.926 126.085  1.00  0.00     0.293 HD
ENDBRANCH  17  20
ENDBRANCH   1  12
BRANCH   6  22
ATOM     22  O   UNL     1     111.874 120.654 121.324  1.00  0.00    -0.507 OA
ATOM     23  H   UNL     1     112.767 120.361 120.959  1.00  0.00     0.293 HD
ENDBRANCH   6  22
BRANCH   8  24
ATOM     24  O   UNL     1     109.514 118.230 117.915  1.00  0.00    -0.508 OA
ATOM     25  H   UNL     1     108.742 118.193 117.259  1.00  0.00     0.293 HD
ENDBRANCH   8  24
TORSDOF 5
ENDMDL
MODEL 9
REMARK VINA RESULT:    -6.046      1.945      7.227
REMARK INTER + INTRA:          -7.399
REMARK INTER:                  -7.118
REMARK INTRA:                  -0.281
REMARK UNBOUND:                -0.292
REMARK SMILES O=c1cc(-c2ccc(O)c(O)c2)oc2cc(O)cc(O)c12
REMARK SMILES IDX 4 1 3 2 2 3 1 4 21 5 19 6 18 7 16 8 15 9 14 10 13 11 5 12
REMARK SMILES IDX 6 13 7 14 8 15 12 16 10 17 9 18 11 20 20 22 17 24
REMARK H PARENT 9 19 11 21 20 23 17 25
REMARK Flexibility Score: inf
ROOT
ATOM      1  C   UNL     1     106.459 122.040 119.521  1.00  0.00     0.138 A 
ATOM      2  C   UNL     1     107.660 122.417 118.904  1.00  0.00     0.100 A 
ATOM      3  C   UNL     1     108.874 121.978 119.434  1.00  0.00     0.197 A 
ATOM      4  O   UNL     1     109.932 122.281 118.823  1.00  0.00    -0.289 OA
ATOM      5  C   UNL     1     108.885 121.186 120.606  1.00  0.00     0.107 A 
ATOM      6  C   UNL     1     110.064 120.716 121.258  1.00  0.00     0.134 A 
ATOM      7  C   UNL     1     109.950 119.841 122.345  1.00  0.00     0.093 A 
ATOM      8  C   UNL     1     108.698 119.467 122.841  1.00  0.00     0.123 A 
ATOM      9  C   UNL     1     107.540 119.964 122.244  1.00  0.00     0.094 A 
ATOM     10  C   UNL     1     107.622 120.811 121.136  1.00  0.00     0.146 A 
ATOM     11  O   UNL     1     106.494 121.250 120.588  1.00  0.00    -0.456 OA
ENDROOT
BRANCH   1  12
ATOM     12  C   UNL     1     105.138 122.480 119.000  1.00  0.00     0.021 A 
ATOM     13  C   UNL     1     104.020 121.624 119.003  1.00  0.00     0.016 A 
ATOM     14  C   UNL     1     102.793 122.060 118.497  1.00  0.00     0.051 A 
ATOM     15  C   UNL     1     102.663 123.352 117.974  1.00  0.00     0.157 A 
ATOM     16  C   UNL     1     105.002 123.772 118.461  1.00  0.00     0.062 A 
ATOM     17  C   UNL     1     103.770 124.209 117.955  1.00  0.00     0.158 A 
BRANCH  15  18
ATOM     18  O   UNL     1     101.440 123.791 117.470  1.00  0.00    -0.504 OA
ATOM     19  H   UNL     1     100.569 123.607 117.956  1.00  0.00     0.293 HD
ENDBRANCH  15  18
BRANCH  17  20
ATOM     20  O   UNL     1     103.639 125.494 117.429  1.00  0.00    -0.504 OA
ATOM     21  H   UNL     1     102.889 125.732 116.791  1.00  0.00     0.293 HD
ENDBRANCH  17  20
ENDBRANCH   1  12
BRANCH   6  22
ATOM     22  O   UNL     1     111.361 121.095 120.896  1.00  0.00    -0.507 OA
ATOM     23  H   UNL     1     111.750 121.005 119.971  1.00  0.00     0.293 HD
ENDBRANCH   6  22
BRANCH   8  24
ATOM     24  O   UNL     1     108.592 118.608 123.933  1.00  0.00    -0.508 OA
ATOM     25  H   UNL     1     109.414 118.275 124.425  1.00  0.00     0.293 HD
ENDBRANCH   8  24
TORSDOF 5
ENDMDL
