MODEL 1
REMARK VINA RESULT:    -4.845      0.000      0.000
REMARK INTER + INTRA:         -10.918
REMARK INTER:                  -8.811
REMARK INTRA:                  -2.107
REMARK UNBOUND:                -2.107
REMARK SMILES CCCCCCCCCCCCCCCC(=O)[O-]
REMARK SMILES IDX 9 1 10 2 11 3 12 4 13 5 14 6 15 7 16 8 17 9 18 10 8 11 7 12
REMARK SMILES IDX 6 13 5 14 4 15 3 16 2 17 1 18
REMARK H PARENT
REMARK Flexibility Score: inf
ROOT
ATOM      1  C   UNL     1      64.569  30.005   9.119  1.00  0.00     0.000 C 
ENDROOT
BRANCH   1   2
ATOM      2  C   UNL     1      63.794  31.139   9.806  1.00  0.00     0.000 C 
BRANCH   2   3
ATOM      3  C   UNL     1      64.748  32.093  10.535  1.00  0.00     0.000 C 
BRANCH   3   4
ATOM      4  C   UNL     1      64.214  32.444  11.933  1.00  0.00     0.000 C 
BRANCH   4   5
ATOM      5  C   UNL     1      62.880  31.749  12.247  1.00  0.00     0.000 C 
BRANCH   5   6
ATOM      6  C   UNL     1      62.252  32.238  13.561  1.00  0.00     0.006 C 
BRANCH   6   7
ATOM      7  C   UNL     1      60.753  32.498  13.388  1.00  0.00     0.053 C 
BRANCH   7   8
ATOM      8  C   UNL     1      59.975  31.831  14.479  1.00  0.00     0.041 C 
ATOM      9  O   UNL     1      58.751  31.585  14.324  1.00  0.00    -0.550 OA
ATOM     10  O   UNL     1      60.615  31.435  15.646  1.00  0.00    -0.550 OA
ENDBRANCH   7   8
ENDBRANCH   6   7
ENDBRANCH   5   6
ENDBRANCH   4   5
ENDBRANCH   3   4
ENDBRANCH   2   3
ENDBRANCH   1   2
BRANCH   1  11
ATOM     11  C   UNL     1      63.748  28.710   9.004  1.00  0.00     0.000 C 
BRANCH  11  12
ATOM     12  C   UNL     1      62.575  28.662   9.994  1.00  0.00    -0.000 C 
BRANCH  12  13
ATOM     13  C   UNL     1      61.248  28.416   9.262  1.00  0.00    -0.000 C 
BRANCH  13  14
ATOM     14  C   UNL     1      60.138  29.383   9.705  1.00  0.00    -0.000 C 
BRANCH  14  15
ATOM     15  C   UNL     1      60.155  29.648  11.222  1.00  0.00    -0.000 C 
BRANCH  15  16
ATOM     16  C   UNL     1      59.184  28.738  11.990  1.00  0.00    -0.000 C 
BRANCH  16  17
ATOM     17  C   UNL     1      59.893  27.875  13.043  1.00  0.00    -0.003 C 
ATOM     18  C   UNL     1      61.230  28.490  13.449  1.00  0.00     0.004 C 
ENDBRANCH  16  17
ENDBRANCH  15  16
ENDBRANCH  14  15
ENDBRANCH  13  14
ENDBRANCH  12  13
ENDBRANCH  11  12
ENDBRANCH   1  11
TORSDOF 14
ENDMDL
MODEL 2
REMARK VINA RESULT:    -4.749     13.153     15.342
REMARK INTER + INTRA:         -10.742
REMARK INTER:                  -8.404
REMARK INTRA:                  -2.338
REMARK UNBOUND:                -2.107
REMARK SMILES CCCCCCCCCCCCCCCC(=O)[O-]
REMARK SMILES IDX 9 1 10 2 11 3 12 4 13 5 14 6 15 7 16 8 17 9 18 10 8 11 7 12
REMARK SMILES IDX 6 13 5 14 4 15 3 16 2 17 1 18
REMARK H PARENT
REMARK Flexibility Score: inf
ROOT
ATOM      1  C   UNL     1      63.058  30.254  28.005  1.00  0.00     0.000 C 
ENDROOT
BRANCH   1   2
ATOM      2  C   UNL     1      64.475  30.189  28.596  1.00  0.00     0.000 C 
BRANCH   2   3
ATOM      3  C   UNL     1      65.526  30.062  27.486  1.00  0.00     0.000 C 
BRANCH   3   4
ATOM      4  C   UNL     1      65.099  29.019  26.441  1.00  0.00     0.000 C 
BRANCH   4   5
ATOM      5  C   UNL     1      65.742  29.260  25.067  1.00  0.00     0.000 C 
BRANCH   5   6
ATOM      6  C   UNL     1      65.473  28.117  24.077  1.00  0.00     0.006 C 
BRANCH   6   7
ATOM      7  C   UNL     1      65.160  26.813  24.817  1.00  0.00     0.053 C 
BRANCH   7   8
ATOM      8  C   UNL     1      64.767  25.742  23.849  1.00  0.00     0.041 C 
ATOM      9  O   UNL     1      65.622  25.249  23.068  1.00  0.00    -0.550 OA
ATOM     10  O   UNL     1      63.467  25.253  23.844  1.00  0.00    -0.550 OA
ENDBRANCH   7   8
ENDBRANCH   6   7
ENDBRANCH   5   6
ENDBRANCH   4   5
ENDBRANCH   3   4
ENDBRANCH   2   3
ENDBRANCH   1   2
BRANCH   1  11
ATOM     11  C   UNL     1      61.979  29.800  29.002  1.00  0.00     0.000 C 
BRANCH  11  12
ATOM     12  C   UNL     1      61.167  28.601  28.491  1.00  0.00    -0.000 C 
BRANCH  12  13
ATOM     13  C   UNL     1      62.078  27.392  28.231  1.00  0.00    -0.000 C 
BRANCH  13  14
ATOM     14  C   UNL     1      61.878  26.790  26.831  1.00  0.00    -0.000 C 
BRANCH  14  15
ATOM     15  C   UNL     1      60.439  26.965  26.312  1.00  0.00    -0.000 C 
BRANCH  15  16
ATOM     16  C   UNL     1      60.375  27.783  25.013  1.00  0.00    -0.000 C 
BRANCH  16  17
ATOM     17  C   UNL     1      61.762  28.241  24.537  1.00  0.00    -0.003 C 
ATOM     18  C   UNL     1      61.925  29.751  24.692  1.00  0.00     0.004 C 
ENDBRANCH  16  17
ENDBRANCH  15  16
ENDBRANCH  14  15
ENDBRANCH  13  14
ENDBRANCH  12  13
ENDBRANCH  11  12
ENDBRANCH   1  11
TORSDOF 14
ENDMDL
MODEL 3
REMARK VINA RESULT:    -4.667      1.745      2.603
REMARK INTER + INTRA:         -10.593
REMARK INTER:                  -8.524
REMARK INTRA:                  -2.069
REMARK UNBOUND:                -2.107
REMARK SMILES CCCCCCCCCCCCCCCC(=O)[O-]
REMARK SMILES IDX 9 1 10 2 11 3 12 4 13 5 14 6 15 7 16 8 17 9 18 10 8 11 7 12
REMARK SMILES IDX 6 13 5 14 4 15 3 16 2 17 1 18
REMARK H PARENT
REMARK Flexibility Score: inf
ROOT
ATOM      1  C   UNL     1      63.340  29.387  12.275  1.00  0.00     0.000 C 
ENDROOT
BRANCH   1   2
ATOM      2  C   UNL     1      63.116  30.515  13.293  1.00  0.00     0.000 C 
BRANCH   2   3
ATOM      3  C   UNL     1      62.623  31.791  12.597  1.00  0.00     0.000 C 
BRANCH   3   4
ATOM      4  C   UNL     1      61.264  32.234  13.160  1.00  0.00     0.000 C 
BRANCH   4   5
ATOM      5  C   UNL     1      60.741  31.292  14.255  1.00  0.00     0.000 C 
BRANCH   5   6
ATOM      6  C   UNL     1      59.916  32.024  15.323  1.00  0.00     0.006 C 
BRANCH   6   7
ATOM      7  C   UNL     1      60.358  33.485  15.451  1.00  0.00     0.053 C 
BRANCH   7   8
ATOM      8  C   UNL     1      61.183  33.678  16.685  1.00  0.00     0.041 C 
ATOM      9  O   UNL     1      60.695  34.262  17.688  1.00  0.00    -0.550 OA
ATOM     10  O   UNL     1      62.473  33.169  16.745  1.00  0.00    -0.550 OA
ENDBRANCH   7   8
ENDBRANCH   6   7
ENDBRANCH   5   6
ENDBRANCH   4   5
ENDBRANCH   3   4
ENDBRANCH   2   3
ENDBRANCH   1   2
BRANCH   1  11
ATOM     11  C   UNL     1      63.321  29.886  10.822  1.00  0.00     0.000 C 
BRANCH  11  12
ATOM     12  C   UNL     1      63.149  28.748   9.806  1.00  0.00    -0.000 C 
BRANCH  12  13
ATOM     13  C   UNL     1      61.851  28.920   9.002  1.00  0.00    -0.000 C 
BRANCH  13  14
ATOM     14  C   UNL     1      60.744  27.953   9.452  1.00  0.00    -0.000 C 
BRANCH  14  15
ATOM     15  C   UNL     1      59.472  28.685   9.916  1.00  0.00    -0.000 C 
BRANCH  15  16
ATOM     16  C   UNL     1      59.639  29.340  11.296  1.00  0.00    -0.000 C 
BRANCH  16  17
ATOM     17  C   UNL     1      59.065  28.479  12.430  1.00  0.00    -0.003 C 
ATOM     18  C   UNL     1      60.181  27.864  13.271  1.00  0.00     0.004 C 
ENDBRANCH  16  17
ENDBRANCH  15  16
ENDBRANCH  14  15
ENDBRANCH  13  14
ENDBRANCH  12  13
ENDBRANCH  11  12
ENDBRANCH   1  11
TORSDOF 14
ENDMDL
MODEL 4
REMARK VINA RESULT:    -4.653      2.370      4.156
REMARK INTER + INTRA:         -10.568
REMARK INTER:                  -8.311
REMARK INTRA:                  -2.256
REMARK UNBOUND:                -2.107
REMARK SMILES CCCCCCCCCCCCCCCC(=O)[O-]
REMARK SMILES IDX 9 1 10 2 11 3 12 4 13 5 14 6 15 7 16 8 17 9 18 10 8 11 7 12
REMARK SMILES IDX 6 13 5 14 4 15 3 16 2 17 1 18
REMARK H PARENT
REMARK Flexibility Score: inf
ROOT
ATOM      1  C   UNL     1      62.934  31.010  12.561  1.00  0.00     0.000 C 
ENDROOT
BRANCH   1   2
ATOM      2  C   UNL     1      62.274  32.237  13.206  1.00  0.00     0.000 C 
BRANCH   2   3
ATOM      3  C   UNL     1      60.771  32.276  12.901  1.00  0.00     0.000 C 
BRANCH   3   4
ATOM      4  C   UNL     1      59.954  32.464  14.189  1.00  0.00     0.000 C 
BRANCH   4   5
ATOM      5  C   UNL     1      60.678  31.924  15.433  1.00  0.00     0.000 C 
BRANCH   5   6
ATOM      6  C   UNL     1      60.854  32.989  16.525  1.00  0.00     0.006 C 
BRANCH   6   7
ATOM      7  C   UNL     1      62.337  33.234  16.817  1.00  0.00     0.053 C 
BRANCH   7   8
ATOM      8  C   UNL     1      62.497  34.257  17.898  1.00  0.00     0.041 C 
ATOM      9  O   UNL     1      63.395  35.134  17.812  1.00  0.00    -0.550 OA
ATOM     10  O   UNL     1      61.621  34.271  18.976  1.00  0.00    -0.550 OA
ENDBRANCH   7   8
ENDBRANCH   6   7
ENDBRANCH   5   6
ENDBRANCH   4   5
ENDBRANCH   3   4
ENDBRANCH   2   3
ENDBRANCH   1   2
BRANCH   1  11
ATOM     11  C   UNL     1      63.093  29.838  13.543  1.00  0.00     0.000 C 
BRANCH  11  12
ATOM     12  C   UNL     1      62.298  28.595  13.117  1.00  0.00    -0.000 C 
BRANCH  12  13
ATOM     13  C   UNL     1      60.908  28.582  13.768  1.00  0.00    -0.000 C 
BRANCH  13  14
ATOM     14  C   UNL     1      59.779  28.848  12.759  1.00  0.00    -0.000 C 
BRANCH  14  15
ATOM     15  C   UNL     1      60.163  28.449  11.322  1.00  0.00    -0.000 C 
BRANCH  15  16
ATOM     16  C   UNL     1      60.110  29.634  10.347  1.00  0.00    -0.000 C 
BRANCH  16  17
ATOM     17  C   UNL     1      61.009  29.428   9.119  1.00  0.00    -0.003 C 
ATOM     18  C   UNL     1      62.346  28.808   9.515  1.00  0.00     0.004 C 
ENDBRANCH  16  17
ENDBRANCH  15  16
ENDBRANCH  14  15
ENDBRANCH  13  14
ENDBRANCH  12  13
ENDBRANCH  11  12
ENDBRANCH   1  11
TORSDOF 14
ENDMDL
MODEL 5
REMARK VINA RESULT:    -4.562     12.502     15.109
REMARK INTER + INTRA:         -10.402
REMARK INTER:                  -8.286
REMARK INTRA:                  -2.117
REMARK UNBOUND:                -2.107
REMARK SMILES CCCCCCCCCCCCCCCC(=O)[O-]
REMARK SMILES IDX 9 1 10 2 11 3 12 4 13 5 14 6 15 7 16 8 17 9 18 10 8 11 7 12
REMARK SMILES IDX 6 13 5 14 4 15 3 16 2 17 1 18
REMARK H PARENT
REMARK Flexibility Score: inf
ROOT
ATOM      1  C   UNL     1      62.721  30.289  26.638  1.00  0.00     0.000 C 
ENDROOT
BRANCH   1   2
ATOM      2  C   UNL     1      63.848  30.067  25.619  1.00  0.00     0.000 C 
BRANCH   2   3
ATOM      3  C   UNL     1      64.983  29.233  26.228  1.00  0.00     0.000 C 
BRANCH   3   4
ATOM      4  C   UNL     1      66.181  29.152  25.269  1.00  0.00     0.000 C 
BRANCH   4   5
ATOM      5  C   UNL     1      66.021  28.046  24.215  1.00  0.00     0.000 C 
BRANCH   5   6
ATOM      6  C   UNL     1      65.165  26.871  24.713  1.00  0.00     0.006 C 
BRANCH   6   7
ATOM      7  C   UNL     1      65.212  25.702  23.725  1.00  0.00     0.053 C 
BRANCH   7   8
ATOM      8  C   UNL     1      64.625  26.104  22.408  1.00  0.00     0.041 C 
ATOM      9  O   UNL     1      63.404  26.396  22.321  1.00  0.00    -0.550 OA
ATOM     10  O   UNL     1      65.439  26.204  21.287  1.00  0.00    -0.550 OA
ENDBRANCH   7   8
ENDBRANCH   6   7
ENDBRANCH   5   6
ENDBRANCH   4   5
ENDBRANCH   3   4
ENDBRANCH   2   3
ENDBRANCH   1   2
BRANCH   1  11
ATOM     11  C   UNL     1      63.158  29.987  28.080  1.00  0.00     0.000 C 
BRANCH  11  12
ATOM     12  C   UNL     1      62.010  30.131  29.090  1.00  0.00    -0.000 C 
BRANCH  12  13
ATOM     13  C   UNL     1      60.940  29.054  28.862  1.00  0.00    -0.000 C 
BRANCH  13  14
ATOM     14  C   UNL     1      61.521  27.631  28.866  1.00  0.00    -0.000 C 
BRANCH  14  15
ATOM     15  C   UNL     1      61.038  26.790  27.670  1.00  0.00    -0.000 C 
BRANCH  15  16
ATOM     16  C   UNL     1      62.082  26.709  26.546  1.00  0.00    -0.000 C 
BRANCH  16  17
ATOM     17  C   UNL     1      61.501  27.078  25.174  1.00  0.00    -0.003 C 
ATOM     18  C   UNL     1      60.190  27.845  25.320  1.00  0.00     0.004 C 
ENDBRANCH  16  17
ENDBRANCH  15  16
ENDBRANCH  14  15
ENDBRANCH  13  14
ENDBRANCH  12  13
ENDBRANCH  11  12
ENDBRANCH   1  11
TORSDOF 14
ENDMDL
MODEL 6
REMARK VINA RESULT:    -4.550     12.123     15.029
REMARK INTER + INTRA:         -10.381
REMARK INTER:                  -8.578
REMARK INTRA:                  -1.803
REMARK UNBOUND:                -2.107
REMARK SMILES CCCCCCCCCCCCCCCC(=O)[O-]
REMARK SMILES IDX 9 1 10 2 11 3 12 4 13 5 14 6 15 7 16 8 17 9 18 10 8 11 7 12
REMARK SMILES IDX 6 13 5 14 4 15 3 16 2 17 1 18
REMARK H PARENT
REMARK Flexibility Score: inf
ROOT
ATOM      1  C   UNL     1      61.218  27.281  25.944  1.00  0.00     0.000 C 
ENDROOT
BRANCH   1   2
ATOM      2  C   UNL     1      62.262  26.948  24.868  1.00  0.00     0.000 C 
BRANCH   2   3
ATOM      3  C   UNL     1      63.351  26.024  25.427  1.00  0.00     0.000 C 
BRANCH   3   4
ATOM      4  C   UNL     1      64.744  26.467  24.952  1.00  0.00     0.000 C 
BRANCH   4   5
ATOM      5  C   UNL     1      65.252  25.644  23.759  1.00  0.00     0.000 C 
BRANCH   5   6
ATOM      6  C   UNL     1      65.676  26.520  22.571  1.00  0.00     0.006 C 
BRANCH   6   7
ATOM      7  C   UNL     1      66.041  25.661  21.358  1.00  0.00     0.053 C 
BRANCH   7   8
ATOM      8  C   UNL     1      66.283  26.522  20.158  1.00  0.00     0.041 C 
ATOM      9  O   UNL     1      66.333  26.009  19.010  1.00  0.00    -0.550 OA
ATOM     10  O   UNL     1      66.403  27.898  20.303  1.00  0.00    -0.550 OA
ENDBRANCH   7   8
ENDBRANCH   6   7
ENDBRANCH   5   6
ENDBRANCH   4   5
ENDBRANCH   3   4
ENDBRANCH   2   3
ENDBRANCH   1   2
BRANCH   1  11
ATOM     11  C   UNL     1      61.615  26.762  27.335  1.00  0.00     0.000 C 
BRANCH  11  12
ATOM     12  C   UNL     1      60.660  27.237  28.440  1.00  0.00    -0.000 C 
BRANCH  12  13
ATOM     13  C   UNL     1      60.733  28.761  28.612  1.00  0.00    -0.000 C 
BRANCH  13  14
ATOM     14  C   UNL     1      62.126  29.241  29.050  1.00  0.00    -0.000 C 
BRANCH  14  15
ATOM     15  C   UNL     1      62.783  30.175  28.017  1.00  0.00    -0.000 C 
BRANCH  15  16
ATOM     16  C   UNL     1      64.066  29.579  27.416  1.00  0.00    -0.000 C 
BRANCH  16  17
ATOM     17  C   UNL     1      64.270  29.982  25.949  1.00  0.00    -0.003 C 
ATOM     18  C   UNL     1      62.965  30.469  25.325  1.00  0.00     0.004 C 
ENDBRANCH  16  17
ENDBRANCH  15  16
ENDBRANCH  14  15
ENDBRANCH  13  14
ENDBRANCH  12  13
ENDBRANCH  11  12
ENDBRANCH   1  11
TORSDOF 14
ENDMDL
MODEL 7
REMARK VINA RESULT:    -4.540     11.850     14.531
REMARK INTER + INTRA:         -10.362
REMARK INTER:                  -8.269
REMARK INTRA:                  -2.093
REMARK UNBOUND:                -2.107
REMARK SMILES CCCCCCCCCCCCCCCC(=O)[O-]
REMARK SMILES IDX 9 1 10 2 11 3 12 4 13 5 14 6 15 7 16 8 17 9 18 10 8 11 7 12
REMARK SMILES IDX 6 13 5 14 4 15 3 16 2 17 1 18
REMARK H PARENT
REMARK Flexibility Score: inf
ROOT
ATOM      1  C   UNL     1      61.435  27.251  25.035  1.00  0.00     0.000 C 
ENDROOT
BRANCH   1   2
ATOM      2  C   UNL     1      62.499  26.163  24.833  1.00  0.00     0.000 C 
BRANCH   2   3
ATOM      3  C   UNL     1      63.698  26.387  25.764  1.00  0.00     0.000 C 
BRANCH   3   4
ATOM      4  C   UNL     1      65.023  26.202  25.009  1.00  0.00     0.000 C 
BRANCH   4   5
ATOM      5  C   UNL     1      65.138  27.119  23.782  1.00  0.00     0.000 C 
BRANCH   5   6
ATOM      6  C   UNL     1      65.832  26.437  22.594  1.00  0.00     0.006 C 
BRANCH   6   7
ATOM      7  C   UNL     1      66.286  27.468  21.557  1.00  0.00     0.053 C 
BRANCH   7   8
ATOM      8  C   UNL     1      66.400  26.839  20.205  1.00  0.00     0.041 C 
ATOM      9  O   UNL     1      66.040  25.645  20.029  1.00  0.00    -0.550 OA
ATOM     10  O   UNL     1      66.857  27.586  19.127  1.00  0.00    -0.550 OA
ENDBRANCH   7   8
ENDBRANCH   6   7
ENDBRANCH   5   6
ENDBRANCH   4   5
ENDBRANCH   3   4
ENDBRANCH   2   3
ENDBRANCH   1   2
BRANCH   1  11
ATOM     11  C   UNL     1      61.755  28.544  24.266  1.00  0.00     0.000 C 
BRANCH  11  12
ATOM     12  C   UNL     1      61.951  29.752  25.193  1.00  0.00    -0.000 C 
BRANCH  12  13
ATOM     13  C   UNL     1      63.443  30.034  25.421  1.00  0.00    -0.000 C 
BRANCH  13  14
ATOM     14  C   UNL     1      63.836  29.982  26.906  1.00  0.00    -0.000 C 
BRANCH  14  15
ATOM     15  C   UNL     1      62.640  30.234  27.843  1.00  0.00    -0.000 C 
BRANCH  15  16
ATOM     16  C   UNL     1      62.430  29.092  28.850  1.00  0.00    -0.000 C 
BRANCH  16  17
ATOM     17  C   UNL     1      61.166  28.272  28.554  1.00  0.00    -0.003 C 
ATOM     18  C   UNL     1      61.418  26.780  28.760  1.00  0.00     0.004 C 
ENDBRANCH  16  17
ENDBRANCH  15  16
ENDBRANCH  14  15
ENDBRANCH  13  14
ENDBRANCH  12  13
ENDBRANCH  11  12
ENDBRANCH   1  11
TORSDOF 14
ENDMDL
MODEL 8
REMARK VINA RESULT:    -4.503      1.366      2.328
REMARK INTER + INTRA:         -10.295
REMARK INTER:                  -8.103
REMARK INTRA:                  -2.192
REMARK UNBOUND:                -2.107
REMARK SMILES CCCCCCCCCCCCCCCC(=O)[O-]
REMARK SMILES IDX 9 1 10 2 11 3 12 4 13 5 14 6 15 7 16 8 17 9 18 10 8 11 7 12
REMARK SMILES IDX 6 13 5 14 4 15 3 16 2 17 1 18
REMARK H PARENT
REMARK Flexibility Score: inf
ROOT
ATOM      1  C   UNL     1      63.031  30.445  12.895  1.00  0.00     0.000 C 
ENDROOT
BRANCH   1   2
ATOM      2  C   UNL     1      63.241  31.831  12.269  1.00  0.00     0.000 C 
BRANCH   2   3
ATOM      3  C   UNL     1      63.669  32.854  13.330  1.00  0.00     0.000 C 
BRANCH   3   4
ATOM      4  C   UNL     1      63.301  32.368  14.741  1.00  0.00     0.000 C 
BRANCH   4   5
ATOM      5  C   UNL     1      62.693  33.479  15.610  1.00  0.00     0.000 C 
BRANCH   5   6
ATOM      6  C   UNL     1      61.197  33.267  15.884  1.00  0.00     0.006 C 
BRANCH   6   7
ATOM      7  C   UNL     1      60.741  31.887  15.400  1.00  0.00     0.053 C 
BRANCH   7   8
ATOM      8  C   UNL     1      59.717  32.023  14.317  1.00  0.00     0.041 C 
ATOM      9  O   UNL     1      58.553  31.577  14.487  1.00  0.00    -0.550 OA
ATOM     10  O   UNL     1      60.035  32.686  13.139  1.00  0.00    -0.550 OA
ENDBRANCH   7   8
ENDBRANCH   6   7
ENDBRANCH   5   6
ENDBRANCH   4   5
ENDBRANCH   3   4
ENDBRANCH   2   3
ENDBRANCH   1   2
BRANCH   1  11
ATOM     11  C   UNL     1      63.366  29.300  11.926  1.00  0.00     0.000 C 
BRANCH  11  12
ATOM     12  C   UNL     1      63.365  29.747  10.457  1.00  0.00    -0.000 C 
BRANCH  12  13
ATOM     13  C   UNL     1      62.706  28.688   9.561  1.00  0.00    -0.000 C 
BRANCH  13  14
ATOM     14  C   UNL     1      61.303  28.290  10.049  1.00  0.00    -0.000 C 
BRANCH  14  15
ATOM     15  C   UNL     1      60.328  29.480  10.081  1.00  0.00    -0.000 C 
BRANCH  15  16
ATOM     16  C   UNL     1      59.628  29.632  11.440  1.00  0.00    -0.000 C 
BRANCH  16  17
ATOM     17  C   UNL     1      59.484  28.296  12.182  1.00  0.00    -0.003 C 
ATOM     18  C   UNL     1      60.167  28.348  13.546  1.00  0.00     0.004 C 
ENDBRANCH  16  17
ENDBRANCH  15  16
ENDBRANCH  14  15
ENDBRANCH  13  14
ENDBRANCH  12  13
ENDBRANCH  11  12
ENDBRANCH   1  11
TORSDOF 14
ENDMDL
MODEL 9
REMARK VINA RESULT:    -4.493      2.352      5.677
REMARK INTER + INTRA:         -10.277
REMARK INTER:                  -8.077
REMARK INTRA:                  -2.200
REMARK UNBOUND:                -2.107
REMARK SMILES CCCCCCCCCCCCCCCC(=O)[O-]
REMARK SMILES IDX 9 1 10 2 11 3 12 4 13 5 14 6 15 7 16 8 17 9 18 10 8 11 7 12
REMARK SMILES IDX 6 13 5 14 4 15 3 16 2 17 1 18
REMARK H PARENT
REMARK Flexibility Score: inf
ROOT
ATOM      1  C   UNL     1      60.808  30.049  13.841  1.00  0.00     0.000 C 
ENDROOT
BRANCH   1   2
ATOM      2  C   UNL     1      61.905  29.030  13.495  1.00  0.00     0.000 C 
BRANCH   2   3
ATOM      3  C   UNL     1      62.900  29.617  12.486  1.00  0.00     0.000 C 
BRANCH   3   4
ATOM      4  C   UNL     1      62.986  28.741  11.226  1.00  0.00     0.000 C 
BRANCH   4   5
ATOM      5  C   UNL     1      62.685  29.524   9.940  1.00  0.00     0.000 C 
BRANCH   5   6
ATOM      6  C   UNL     1      61.779  28.750   8.972  1.00  0.00     0.006 C 
BRANCH   6   7
ATOM      7  C   UNL     1      60.740  27.924   9.736  1.00  0.00     0.053 C 
BRANCH   7   8
ATOM      8  C   UNL     1      59.530  28.751  10.039  1.00  0.00     0.041 C 
ATOM      9  O   UNL     1      58.898  28.579  11.114  1.00  0.00    -0.550 OA
ATOM     10  O   UNL     1      59.131  29.747   9.157  1.00  0.00    -0.550 OA
ENDBRANCH   7   8
ENDBRANCH   6   7
ENDBRANCH   5   6
ENDBRANCH   4   5
ENDBRANCH   3   4
ENDBRANCH   2   3
ENDBRANCH   1   2
BRANCH   1  11
ATOM     11  C   UNL     1      60.625  31.116  12.750  1.00  0.00     0.000 C 
BRANCH  11  12
ATOM     12  C   UNL     1      59.984  32.405  13.283  1.00  0.00    -0.000 C 
BRANCH  12  13
ATOM     13  C   UNL     1      59.780  32.329  14.804  1.00  0.00    -0.000 C 
BRANCH  13  14
ATOM     14  C   UNL     1      60.429  33.507  15.548  1.00  0.00    -0.000 C 
BRANCH  14  15
ATOM     15  C   UNL     1      61.462  33.050  16.595  1.00  0.00    -0.000 C 
BRANCH  15  16
ATOM     16  C   UNL     1      62.709  32.421  15.957  1.00  0.00    -0.000 C 
BRANCH  16  17
ATOM     17  C   UNL     1      63.526  33.431  15.138  1.00  0.00    -0.003 C 
ATOM     18  C   UNL     1      63.665  32.979  13.687  1.00  0.00     0.004 C 
ENDBRANCH  16  17
ENDBRANCH  15  16
ENDBRANCH  14  15
ENDBRANCH  13  14
ENDBRANCH  12  13
ENDBRANCH  11  12
ENDBRANCH   1  11
TORSDOF 14
ENDMDL
