MODEL 1
REMARK VINA RESULT:    -4.634      0.000      0.000
REMARK INTER + INTRA:          -9.617
REMARK INTER:                  -8.427
REMARK INTRA:                  -1.189
REMARK UNBOUND:                -1.189
REMARK SMILES CCCCCCCCCCCCCCCC(=O)[O-]
REMARK SMILES IDX 9 1 10 2 11 3 12 4 13 5 14 6 15 7 16 8 17 9 18 10 8 11 7 12
REMARK SMILES IDX 6 13 5 14 4 15 3 16 2 17 1 18
REMARK H PARENT
REMARK Flexibility Score: inf
ROOT
ATOM      1  C   UNL     1     192.748   2.298 100.147  1.00  0.00     0.000 C 
ENDROOT
BRANCH   1   2
ATOM      2  C   UNL     1     192.413   0.882 100.646  1.00  0.00     0.000 C 
BRANCH   2   3
ATOM      3  C   UNL     1     192.597   0.726 102.162  1.00  0.00     0.000 C 
BRANCH   3   4
ATOM      4  C   UNL     1     193.422   1.888 102.737  1.00  0.00     0.000 C 
BRANCH   4   5
ATOM      5  C   UNL     1     192.785   2.511 103.993  1.00  0.00     0.000 C 
BRANCH   5   6
ATOM      6  C   UNL     1     191.537   1.782 104.520  1.00  0.00     0.006 C 
BRANCH   6   7
ATOM      7  C   UNL     1     191.821   0.936 105.768  1.00  0.00     0.053 C 
BRANCH   7   8
ATOM      8  C   UNL     1     191.039   1.451 106.936  1.00  0.00     0.041 C 
ATOM      9  O   UNL     1     191.622   2.064 107.867  1.00  0.00    -0.550 OA
ATOM     10  O   UNL     1     189.659   1.296 106.971  1.00  0.00    -0.550 OA
ENDBRANCH   7   8
ENDBRANCH   6   7
ENDBRANCH   5   6
ENDBRANCH   4   5
ENDBRANCH   3   4
ENDBRANCH   2   3
ENDBRANCH   1   2
BRANCH   1  11
ATOM     11  C   UNL     1     192.000   2.658  98.852  1.00  0.00     0.000 C 
BRANCH  11  12
ATOM     12  C   UNL     1     192.013   4.168  98.560  1.00  0.00    -0.000 C 
BRANCH  12  13
ATOM     13  C   UNL     1     190.619   4.714  98.203  1.00  0.00    -0.000 C 
BRANCH  13  14
ATOM     14  C   UNL     1     189.614   3.600  97.860  1.00  0.00    -0.000 C 
BRANCH  14  15
ATOM     15  C   UNL     1     189.221   3.507  96.371  1.00  0.00    -0.000 C 
BRANCH  15  16
ATOM     16  C   UNL     1     190.220   4.149  95.387  1.00  0.00    -0.000 C 
BRANCH  16  17
ATOM     17  C   UNL     1     190.922   3.158  94.444  1.00  0.00    -0.003 C 
ATOM     18  C   UNL     1     192.020   2.352  95.138  1.00  0.00     0.004 C 
ENDBRANCH  16  17
ENDBRANCH  15  16
ENDBRANCH  14  15
ENDBRANCH  13  14
ENDBRANCH  12  13
ENDBRANCH  11  12
ENDBRANCH   1  11
TORSDOF 14
ENDMDL
MODEL 2
REMARK VINA RESULT:    -4.630      4.535      8.878
REMARK INTER + INTRA:          -9.608
REMARK INTER:                  -8.685
REMARK INTRA:                  -0.923
REMARK UNBOUND:                -1.189
REMARK SMILES CCCCCCCCCCCCCCCC(=O)[O-]
REMARK SMILES IDX 9 1 10 2 11 3 12 4 13 5 14 6 15 7 16 8 17 9 18 10 8 11 7 12
REMARK SMILES IDX 6 13 5 14 4 15 3 16 2 17 1 18
REMARK H PARENT
REMARK Flexibility Score: inf
ROOT
ATOM      1  C   UNL     1     192.393   1.892  99.834  1.00  0.00     0.000 C 
ENDROOT
BRANCH   1   2
ATOM      2  C   UNL     1     192.947   3.325  99.753  1.00  0.00     0.000 C 
BRANCH   2   3
ATOM      3  C   UNL     1     192.245   4.174  98.684  1.00  0.00     0.000 C 
BRANCH   3   4
ATOM      4  C   UNL     1     191.293   3.316  97.838  1.00  0.00     0.000 C 
BRANCH   4   5
ATOM      5  C   UNL     1     189.971   4.033  97.508  1.00  0.00     0.000 C 
BRANCH   5   6
ATOM      6  C   UNL     1     189.199   3.454  96.309  1.00  0.00     0.006 C 
BRANCH   6   7
ATOM      7  C   UNL     1     189.481   4.203  95.000  1.00  0.00     0.053 C 
BRANCH   7   8
ATOM      8  C   UNL     1     190.844   3.861  94.486  1.00  0.00     0.041 C 
ATOM      9  O   UNL     1     191.716   4.759  94.355  1.00  0.00    -0.550 OA
ATOM     10  O   UNL     1     191.168   2.540  94.199  1.00  0.00    -0.550 OA
ENDBRANCH   7   8
ENDBRANCH   6   7
ENDBRANCH   5   6
ENDBRANCH   4   5
ENDBRANCH   3   4
ENDBRANCH   2   3
ENDBRANCH   1   2
BRANCH   1  11
ATOM     11  C   UNL     1     192.334   1.365 101.278  1.00  0.00     0.000 C 
BRANCH  11  12
ATOM     12  C   UNL     1     193.605   1.691 102.081  1.00  0.00    -0.000 C 
BRANCH  12  13
ATOM     13  C   UNL     1     193.342   2.678 103.232  1.00  0.00    -0.000 C 
BRANCH  13  14
ATOM     14  C   UNL     1     194.160   2.352 104.494  1.00  0.00    -0.000 C 
BRANCH  14  15
ATOM     15  C   UNL     1     193.326   2.044 105.754  1.00  0.00    -0.000 C 
BRANCH  15  16
ATOM     16  C   UNL     1     192.109   1.125 105.528  1.00  0.00    -0.000 C 
BRANCH  16  17
ATOM     17  C   UNL     1     190.747   1.774 105.829  1.00  0.00    -0.003 C 
ATOM     18  C   UNL     1     190.083   2.366 104.585  1.00  0.00     0.004 C 
ENDBRANCH  16  17
ENDBRANCH  15  16
ENDBRANCH  14  15
ENDBRANCH  13  14
ENDBRANCH  12  13
ENDBRANCH  11  12
ENDBRANCH   1  11
TORSDOF 14
ENDMDL
MODEL 3
REMARK VINA RESULT:    -4.600      1.223      1.610
REMARK INTER + INTRA:          -9.554
REMARK INTER:                  -8.284
REMARK INTRA:                  -1.270
REMARK UNBOUND:                -1.189
REMARK SMILES CCCCCCCCCCCCCCCC(=O)[O-]
REMARK SMILES IDX 9 1 10 2 11 3 12 4 13 5 14 6 15 7 16 8 17 9 18 10 8 11 7 12
REMARK SMILES IDX 6 13 5 14 4 15 3 16 2 17 1 18
REMARK H PARENT
REMARK Flexibility Score: inf
ROOT
ATOM      1  C   UNL     1     192.312   1.983  98.989  1.00  0.00     0.000 C 
ENDROOT
BRANCH   1   2
ATOM      2  C   UNL     1     192.431   1.470 100.434  1.00  0.00     0.000 C 
BRANCH   2   3
ATOM      3  C   UNL     1     193.209   2.432 101.344  1.00  0.00     0.000 C 
BRANCH   3   4
ATOM      4  C   UNL     1     193.848   1.679 102.521  1.00  0.00     0.000 C 
BRANCH   4   5
ATOM      5  C   UNL     1     193.787   2.466 103.842  1.00  0.00     0.000 C 
BRANCH   5   6
ATOM      6  C   UNL     1     193.595   1.606 105.104  1.00  0.00     0.006 C 
BRANCH   6   7
ATOM      7  C   UNL     1     192.365   0.692 105.023  1.00  0.00     0.053 C 
BRANCH   7   8
ATOM      8  C   UNL     1     191.108   1.502 105.085  1.00  0.00     0.041 C 
ATOM      9  O   UNL     1     190.444   1.721 104.039  1.00  0.00    -0.550 OA
ATOM     10  O   UNL     1     190.644   1.974 106.307  1.00  0.00    -0.550 OA
ENDBRANCH   7   8
ENDBRANCH   6   7
ENDBRANCH   5   6
ENDBRANCH   4   5
ENDBRANCH   3   4
ENDBRANCH   2   3
ENDBRANCH   1   2
BRANCH   1  11
ATOM     11  C   UNL     1     191.812   3.436  98.920  1.00  0.00     0.000 C 
BRANCH  11  12
ATOM     12  C   UNL     1     190.393   3.547  98.335  1.00  0.00    -0.000 C 
BRANCH  12  13
ATOM     13  C   UNL     1     190.048   4.979  97.888  1.00  0.00    -0.000 C 
BRANCH  13  14
ATOM     14  C   UNL     1     189.249   5.015  96.573  1.00  0.00    -0.000 C 
BRANCH  14  15
ATOM     15  C   UNL     1     189.631   3.932  95.544  1.00  0.00    -0.000 C 
BRANCH  15  16
ATOM     16  C   UNL     1     190.853   4.265  94.663  1.00  0.00    -0.000 C 
BRANCH  16  17
ATOM     17  C   UNL     1     192.185   3.681  95.163  1.00  0.00    -0.003 C 
ATOM     18  C   UNL     1     192.173   2.155  95.245  1.00  0.00     0.004 C 
ENDBRANCH  16  17
ENDBRANCH  15  16
ENDBRANCH  14  15
ENDBRANCH  13  14
ENDBRANCH  12  13
ENDBRANCH  11  12
ENDBRANCH   1  11
TORSDOF 14
ENDMDL
MODEL 4
REMARK VINA RESULT:    -4.565      4.415      8.564
REMARK INTER + INTRA:          -9.491
REMARK INTER:                  -8.153
REMARK INTRA:                  -1.338
REMARK UNBOUND:                -1.189
REMARK SMILES CCCCCCCCCCCCCCCC(=O)[O-]
REMARK SMILES IDX 9 1 10 2 11 3 12 4 13 5 14 6 15 7 16 8 17 9 18 10 8 11 7 12
REMARK SMILES IDX 6 13 5 14 4 15 3 16 2 17 1 18
REMARK H PARENT
REMARK Flexibility Score: inf
ROOT
ATOM      1  C   UNL     1     192.711   2.997  99.802  1.00  0.00     0.000 C 
ENDROOT
BRANCH   1   2
ATOM      2  C   UNL     1     192.185   3.680  98.528  1.00  0.00     0.000 C 
BRANCH   2   3
ATOM      3  C   UNL     1     190.683   3.449  98.307  1.00  0.00     0.000 C 
BRANCH   3   4
ATOM      4  C   UNL     1     189.961   4.774  98.019  1.00  0.00     0.000 C 
BRANCH   4   5
ATOM      5  C   UNL     1     189.455   4.879  96.569  1.00  0.00     0.000 C 
BRANCH   5   6
ATOM      6  C   UNL     1     189.738   3.648  95.690  1.00  0.00     0.006 C 
BRANCH   6   7
ATOM      7  C   UNL     1     190.971   3.824  94.793  1.00  0.00     0.053 C 
BRANCH   7   8
ATOM      8  C   UNL     1     191.611   2.499  94.520  1.00  0.00     0.041 C 
ATOM      9  O   UNL     1     192.270   1.916  95.420  1.00  0.00    -0.550 OA
ATOM     10  O   UNL     1     191.437   1.884  93.286  1.00  0.00    -0.550 OA
ENDBRANCH   7   8
ENDBRANCH   6   7
ENDBRANCH   5   6
ENDBRANCH   4   5
ENDBRANCH   3   4
ENDBRANCH   2   3
ENDBRANCH   1   2
BRANCH   1  11
ATOM     11  C   UNL     1     191.874   1.769 100.200  1.00  0.00     0.000 C 
BRANCH  11  12
ATOM     12  C   UNL     1     192.740   0.590 100.675  1.00  0.00    -0.000 C 
BRANCH  12  13
ATOM     13  C   UNL     1     191.920  -0.492 101.400  1.00  0.00    -0.000 C 
BRANCH  13  14
ATOM     14  C   UNL     1     191.426  -0.037 102.785  1.00  0.00    -0.000 C 
BRANCH  14  15
ATOM     15  C   UNL     1     192.457  -0.166 103.924  1.00  0.00    -0.000 C 
BRANCH  15  16
ATOM     16  C   UNL     1     192.642   1.096 104.790  1.00  0.00    -0.000 C 
BRANCH  16  17
ATOM     17  C   UNL     1     192.725   2.413 104.000  1.00  0.00    -0.003 C 
ATOM     18  C   UNL     1     194.076   2.611 103.314  1.00  0.00     0.004 C 
ENDBRANCH  16  17
ENDBRANCH  15  16
ENDBRANCH  14  15
ENDBRANCH  13  14
ENDBRANCH  12  13
ENDBRANCH  11  12
ENDBRANCH   1  11
TORSDOF 14
ENDMDL
MODEL 5
REMARK VINA RESULT:    -4.541      4.476      8.442
REMARK INTER + INTRA:          -9.447
REMARK INTER:                  -7.929
REMARK INTRA:                  -1.518
REMARK UNBOUND:                -1.189
REMARK SMILES CCCCCCCCCCCCCCCC(=O)[O-]
REMARK SMILES IDX 9 1 10 2 11 3 12 4 13 5 14 6 15 7 16 8 17 9 18 10 8 11 7 12
REMARK SMILES IDX 6 13 5 14 4 15 3 16 2 17 1 18
REMARK H PARENT
REMARK Flexibility Score: inf
ROOT
ATOM      1  C   UNL     1     192.599   0.639 101.122  1.00  0.00     0.000 C 
ENDROOT
BRANCH   1   2
ATOM      2  C   UNL     1     192.001   1.747 100.240  1.00  0.00     0.000 C 
BRANCH   2   3
ATOM      3  C   UNL     1     192.994   2.883  99.956  1.00  0.00     0.000 C 
BRANCH   3   4
ATOM      4  C   UNL     1     192.370   3.941  99.033  1.00  0.00     0.000 C 
BRANCH   4   5
ATOM      5  C   UNL     1     191.272   3.369  98.119  1.00  0.00     0.000 C 
BRANCH   5   6
ATOM      6  C   UNL     1     190.168   4.366  97.724  1.00  0.00     0.006 C 
BRANCH   6   7
ATOM      7  C   UNL     1     188.978   3.695  97.027  1.00  0.00     0.053 C 
BRANCH   7   8
ATOM      8  C   UNL     1     188.966   4.037  95.570  1.00  0.00     0.041 C 
ATOM      9  O   UNL     1     189.990   3.839  94.865  1.00  0.00    -0.550 OA
ATOM     10  O   UNL     1     187.808   4.528  94.979  1.00  0.00    -0.550 OA
ENDBRANCH   7   8
ENDBRANCH   6   7
ENDBRANCH   5   6
ENDBRANCH   4   5
ENDBRANCH   3   4
ENDBRANCH   2   3
ENDBRANCH   1   2
BRANCH   1  11
ATOM     11  C   UNL     1     191.519  -0.211 101.813  1.00  0.00     0.000 C 
BRANCH  11  12
ATOM     12  C   UNL     1     192.074  -1.034 102.988  1.00  0.00    -0.000 C 
BRANCH  12  13
ATOM     13  C   UNL     1     193.533  -0.676 103.323  1.00  0.00    -0.000 C 
BRANCH  13  14
ATOM     14  C   UNL     1     193.662   0.149 104.616  1.00  0.00    -0.000 C 
BRANCH  14  15
ATOM     15  C   UNL     1     193.918   1.655 104.410  1.00  0.00    -0.000 C 
BRANCH  15  16
ATOM     16  C   UNL     1     192.656   2.541 104.402  1.00  0.00    -0.000 C 
BRANCH  16  17
ATOM     17  C   UNL     1     191.487   2.005 105.245  1.00  0.00    -0.003 C 
ATOM     18  C   UNL     1     190.130   2.188 104.565  1.00  0.00     0.004 C 
ENDBRANCH  16  17
ENDBRANCH  15  16
ENDBRANCH  14  15
ENDBRANCH  13  14
ENDBRANCH  12  13
ENDBRANCH  11  12
ENDBRANCH   1  11
TORSDOF 14
ENDMDL
MODEL 6
REMARK VINA RESULT:    -4.451      3.894      7.676
REMARK INTER + INTRA:          -9.283
REMARK INTER:                  -7.582
REMARK INTRA:                  -1.701
REMARK UNBOUND:                -1.189
REMARK SMILES CCCCCCCCCCCCCCCC(=O)[O-]
REMARK SMILES IDX 9 1 10 2 11 3 12 4 13 5 14 6 15 7 16 8 17 9 18 10 8 11 7 12
REMARK SMILES IDX 6 13 5 14 4 15 3 16 2 17 1 18
REMARK H PARENT
REMARK Flexibility Score: inf
ROOT
ATOM      1  C   UNL     1     193.273   2.555 103.195  1.00  0.00     0.000 C 
ENDROOT
BRANCH   1   2
ATOM      2  C   UNL     1     193.505   1.773 101.892  1.00  0.00     0.000 C 
BRANCH   2   3
ATOM      3  C   UNL     1     192.197   1.336 101.219  1.00  0.00     0.000 C 
BRANCH   3   4
ATOM      4  C   UNL     1     192.159   1.781  99.749  1.00  0.00     0.000 C 
BRANCH   4   5
ATOM      5  C   UNL     1     192.797   3.164  99.524  1.00  0.00     0.000 C 
BRANCH   5   6
ATOM      6  C   UNL     1     192.015   4.095  98.580  1.00  0.00     0.006 C 
BRANCH   6   7
ATOM      7  C   UNL     1     191.261   3.335  97.481  1.00  0.00     0.053 C 
BRANCH   7   8
ATOM      8  C   UNL     1     189.907   3.936  97.266  1.00  0.00     0.041 C 
ATOM      9  O   UNL     1     189.027   3.303  96.628  1.00  0.00    -0.550 OA
ATOM     10  O   UNL     1     189.602   5.176  97.814  1.00  0.00    -0.550 OA
ENDBRANCH   7   8
ENDBRANCH   6   7
ENDBRANCH   5   6
ENDBRANCH   4   5
ENDBRANCH   3   4
ENDBRANCH   2   3
ENDBRANCH   1   2
BRANCH   1  11
ATOM     11  C   UNL     1     193.876   1.849 104.422  1.00  0.00     0.000 C 
BRANCH  11  12
ATOM     12  C   UNL     1     192.833   1.042 105.214  1.00  0.00    -0.000 C 
BRANCH  12  13
ATOM     13  C   UNL     1     193.068  -0.477 105.125  1.00  0.00    -0.000 C 
BRANCH  13  14
ATOM     14  C   UNL     1     192.210  -1.149 104.038  1.00  0.00    -0.000 C 
BRANCH  14  15
ATOM     15  C   UNL     1     192.909  -2.283 103.260  1.00  0.00    -0.000 C 
BRANCH  15  16
ATOM     16  C   UNL     1     192.662  -2.284 101.738  1.00  0.00    -0.000 C 
BRANCH  16  17
ATOM     17  C   UNL     1     193.891  -1.923 100.886  1.00  0.00    -0.003 C 
ATOM     18  C   UNL     1     195.114  -1.561 101.728  1.00  0.00     0.004 C 
ENDBRANCH  16  17
ENDBRANCH  15  16
ENDBRANCH  14  15
ENDBRANCH  13  14
ENDBRANCH  12  13
ENDBRANCH  11  12
ENDBRANCH   1  11
TORSDOF 14
ENDMDL
MODEL 7
REMARK VINA RESULT:    -4.382      4.182      9.020
REMARK INTER + INTRA:          -9.158
REMARK INTER:                  -8.288
REMARK INTRA:                  -0.870
REMARK UNBOUND:                -1.189
REMARK SMILES CCCCCCCCCCCCCCCC(=O)[O-]
REMARK SMILES IDX 9 1 10 2 11 3 12 4 13 5 14 6 15 7 16 8 17 9 18 10 8 11 7 12
REMARK SMILES IDX 6 13 5 14 4 15 3 16 2 17 1 18
REMARK H PARENT
REMARK Flexibility Score: inf
ROOT
ATOM      1  C   UNL     1     193.581   2.493 102.047  1.00  0.00     0.000 C 
ENDROOT
BRANCH   1   2
ATOM      2  C   UNL     1     193.049   1.371 101.140  1.00  0.00     0.000 C 
BRANCH   2   3
ATOM      3  C   UNL     1     192.333   1.905  99.892  1.00  0.00     0.000 C 
BRANCH   3   4
ATOM      4  C   UNL     1     192.770   3.344  99.580  1.00  0.00     0.000 C 
BRANCH   4   5
ATOM      5  C   UNL     1     192.012   3.957  98.389  1.00  0.00     0.000 C 
BRANCH   5   6
ATOM      6  C   UNL     1     190.565   3.463  98.214  1.00  0.00     0.006 C 
BRANCH   6   7
ATOM      7  C   UNL     1     189.660   4.496  97.530  1.00  0.00     0.053 C 
BRANCH   7   8
ATOM      8  C   UNL     1     189.189   3.981  96.206  1.00  0.00     0.041 C 
ATOM      9  O   UNL     1     187.972   3.717  96.026  1.00  0.00    -0.550 OA
ATOM     10  O   UNL     1     190.087   3.840  95.155  1.00  0.00    -0.550 OA
ENDBRANCH   7   8
ENDBRANCH   6   7
ENDBRANCH   5   6
ENDBRANCH   4   5
ENDBRANCH   3   4
ENDBRANCH   2   3
ENDBRANCH   1   2
BRANCH   1  11
ATOM     11  C   UNL     1     193.598   2.090 103.532  1.00  0.00     0.000 C 
BRANCH  11  12
ATOM     12  C   UNL     1     192.320   2.516 104.276  1.00  0.00    -0.000 C 
BRANCH  12  13
ATOM     13  C   UNL     1     191.320   1.358 104.444  1.00  0.00    -0.000 C 
BRANCH  13  14
ATOM     14  C   UNL     1     191.247   0.840 105.891  1.00  0.00    -0.000 C 
BRANCH  14  15
ATOM     15  C   UNL     1     191.892   1.757 106.949  1.00  0.00    -0.000 C 
BRANCH  15  16
ATOM     16  C   UNL     1     190.963   2.185 108.103  1.00  0.00    -0.000 C 
BRANCH  16  17
ATOM     17  C   UNL     1     189.601   2.746 107.660  1.00  0.00    -0.003 C 
ATOM     18  C   UNL     1     188.629   2.937 108.824  1.00  0.00     0.004 C 
ENDBRANCH  16  17
ENDBRANCH  15  16
ENDBRANCH  14  15
ENDBRANCH  13  14
ENDBRANCH  12  13
ENDBRANCH  11  12
ENDBRANCH   1  11
TORSDOF 14
ENDMDL
MODEL 8
REMARK VINA RESULT:    -4.380      1.484      2.348
REMARK INTER + INTRA:          -9.155
REMARK INTER:                  -8.159
REMARK INTRA:                  -0.996
REMARK UNBOUND:                -1.189
REMARK SMILES CCCCCCCCCCCCCCCC(=O)[O-]
REMARK SMILES IDX 9 1 10 2 11 3 12 4 13 5 14 6 15 7 16 8 17 9 18 10 8 11 7 12
REMARK SMILES IDX 6 13 5 14 4 15 3 16 2 17 1 18
REMARK H PARENT
REMARK Flexibility Score: inf
ROOT
ATOM      1  C   UNL     1     192.384   1.927  99.591  1.00  0.00     0.000 C 
ENDROOT
BRANCH   1   2
ATOM      2  C   UNL     1     192.740   1.150 100.870  1.00  0.00     0.000 C 
BRANCH   2   3
ATOM      3  C   UNL     1     191.566   0.320 101.408  1.00  0.00     0.000 C 
BRANCH   3   4
ATOM      4  C   UNL     1     191.620   0.221 102.941  1.00  0.00     0.000 C 
BRANCH   4   5
ATOM      5  C   UNL     1     192.616   1.211 103.572  1.00  0.00     0.000 C 
BRANCH   5   6
ATOM      6  C   UNL     1     191.974   2.353 104.380  1.00  0.00     0.006 C 
BRANCH   6   7
ATOM      7  C   UNL     1     190.475   2.140 104.628  1.00  0.00     0.053 C 
BRANCH   7   8
ATOM      8  C   UNL     1     190.218   1.888 106.081  1.00  0.00     0.041 C 
ATOM      9  O   UNL     1     189.467   2.658 106.734  1.00  0.00    -0.550 OA
ATOM     10  O   UNL     1     190.769   0.774 106.702  1.00  0.00    -0.550 OA
ENDBRANCH   7   8
ENDBRANCH   6   7
ENDBRANCH   5   6
ENDBRANCH   4   5
ENDBRANCH   3   4
ENDBRANCH   2   3
ENDBRANCH   1   2
BRANCH   1  11
ATOM     11  C   UNL     1     192.838   3.396  99.650  1.00  0.00     0.000 C 
BRANCH  11  12
ATOM     12  C   UNL     1     192.088   4.288  98.647  1.00  0.00    -0.000 C 
BRANCH  12  13
ATOM     13  C   UNL     1     190.799   3.632  98.121  1.00  0.00    -0.000 C 
BRANCH  13  14
ATOM     14  C   UNL     1     190.353   4.201  96.762  1.00  0.00    -0.000 C 
BRANCH  14  15
ATOM     15  C   UNL     1     188.980   4.904  96.764  1.00  0.00    -0.000 C 
BRANCH  15  16
ATOM     16  C   UNL     1     187.955   4.340  97.767  1.00  0.00    -0.000 C 
BRANCH  16  17
ATOM     17  C   UNL     1     187.059   3.219  97.212  1.00  0.00    -0.003 C 
ATOM     18  C   UNL     1     186.430   3.573  95.865  1.00  0.00     0.004 C 
ENDBRANCH  16  17
ENDBRANCH  15  16
ENDBRANCH  14  15
ENDBRANCH  13  14
ENDBRANCH  12  13
ENDBRANCH  11  12
ENDBRANCH   1  11
TORSDOF 14
ENDMDL
MODEL 9
REMARK VINA RESULT:    -4.364      3.682      8.090
REMARK INTER + INTRA:          -9.125
REMARK INTER:                  -7.757
REMARK INTRA:                  -1.367
REMARK UNBOUND:                -1.189
REMARK SMILES CCCCCCCCCCCCCCCC(=O)[O-]
REMARK SMILES IDX 9 1 10 2 11 3 12 4 13 5 14 6 15 7 16 8 17 9 18 10 8 11 7 12
REMARK SMILES IDX 6 13 5 14 4 15 3 16 2 17 1 18
REMARK H PARENT
REMARK Flexibility Score: inf
ROOT
ATOM      1  C   UNL     1     192.463   1.156 101.663  1.00  0.00     0.000 C 
ENDROOT
BRANCH   1   2
ATOM      2  C   UNL     1     191.591   1.524 100.450  1.00  0.00     0.000 C 
BRANCH   2   3
ATOM      3  C   UNL     1     192.391   2.197  99.325  1.00  0.00     0.000 C 
BRANCH   3   4
ATOM      4  C   UNL     1     191.598   3.355  98.703  1.00  0.00     0.000 C 
BRANCH   4   5
ATOM      5  C   UNL     1     191.255   3.121  97.221  1.00  0.00     0.000 C 
BRANCH   5   6
ATOM      6  C   UNL     1     189.904   3.699  96.766  1.00  0.00     0.006 C 
BRANCH   6   7
ATOM      7  C   UNL     1     189.609   5.077  97.373  1.00  0.00     0.053 C 
BRANCH   7   8
ATOM      8  C   UNL     1     188.226   5.110  97.944  1.00  0.00     0.041 C 
ATOM      9  O   UNL     1     187.505   4.079  97.919  1.00  0.00    -0.550 OA
ATOM     10  O   UNL     1     187.751   6.267  98.550  1.00  0.00    -0.550 OA
ENDBRANCH   7   8
ENDBRANCH   6   7
ENDBRANCH   5   6
ENDBRANCH   4   5
ENDBRANCH   3   4
ENDBRANCH   2   3
ENDBRANCH   1   2
BRANCH   1  11
ATOM     11  C   UNL     1     193.644   2.123 101.854  1.00  0.00     0.000 C 
BRANCH  11  12
ATOM     12  C   UNL     1     193.766   2.630 103.302  1.00  0.00    -0.000 C 
BRANCH  12  13
ATOM     13  C   UNL     1     192.550   2.250 104.166  1.00  0.00    -0.000 C 
BRANCH  13  14
ATOM     14  C   UNL     1     192.938   1.874 105.607  1.00  0.00    -0.000 C 
BRANCH  14  15
ATOM     15  C   UNL     1     192.692   0.400 105.988  1.00  0.00    -0.000 C 
BRANCH  15  16
ATOM     16  C   UNL     1     192.823  -0.609 104.829  1.00  0.00    -0.000 C 
BRANCH  16  17
ATOM     17  C   UNL     1     194.225  -1.218 104.660  1.00  0.00    -0.003 C 
ATOM     18  C   UNL     1     194.616  -1.415 103.195  1.00  0.00     0.004 C 
ENDBRANCH  16  17
ENDBRANCH  15  16
ENDBRANCH  14  15
ENDBRANCH  13  14
ENDBRANCH  12  13
ENDBRANCH  11  12
ENDBRANCH   1  11
TORSDOF 14
ENDMDL
