MODEL 1
REMARK VINA RESULT:    -6.665      0.000      0.000
REMARK INTER + INTRA:          -8.156
REMARK INTER:                  -8.028
REMARK INTRA:                  -0.127
REMARK UNBOUND:                -0.127
REMARK SMILES O=c1c(O)c(-c2ccc(O)c(O)c2)oc2cc(O)cc(O)c12
REMARK SMILES IDX 5 1 3 2 2 3 1 4 22 5 20 6 19 7 17 8 16 9 15 10 14 11 6 12
REMARK SMILES IDX 7 13 8 14 9 15 13 16 11 17 10 18 12 20 4 22 21 24 18 26
REMARK H PARENT 10 19 12 21 4 23 21 25 18 27
REMARK Flexibility Score: inf
ROOT
ATOM      1  C   UNL     1      13.034 -20.958  17.464  1.00  0.00     0.180 A 
ATOM      2  C   UNL     1      11.988 -21.201  18.371  1.00  0.00     0.208 A 
ATOM      3  C   UNL     1      10.722 -21.548  17.873  1.00  0.00     0.238 A 
ATOM      4  O   UNL     1       9.805 -21.817  18.692  1.00  0.00    -0.285 OA
ATOM      5  C   UNL     1      10.514 -21.634  16.477  1.00  0.00     0.111 A 
ATOM      6  C   UNL     1       9.262 -21.939  15.861  1.00  0.00     0.134 A 
ATOM      7  C   UNL     1       9.201 -22.124  14.474  1.00  0.00     0.093 A 
ATOM      8  C   UNL     1      10.333 -21.952  13.675  1.00  0.00     0.123 A 
ATOM      9  C   UNL     1      11.546 -21.597  14.259  1.00  0.00     0.094 A 
ATOM     10  C   UNL     1      11.647 -21.440  15.644  1.00  0.00     0.146 A 
ATOM     11  O   UNL     1      12.823 -21.110  16.161  1.00  0.00    -0.452 OA
ENDROOT
BRANCH   1  12
ATOM     12  C   UNL     1      14.389 -20.562  17.910  1.00  0.00     0.025 A 
ATOM     13  C   UNL     1      15.166 -21.404  18.725  1.00  0.00     0.016 A 
ATOM     14  C   UNL     1      16.433 -21.001  19.153  1.00  0.00     0.051 A 
ATOM     15  C   UNL     1      16.937 -19.746  18.787  1.00  0.00     0.157 A 
ATOM     16  C   UNL     1      14.891 -19.297  17.563  1.00  0.00     0.062 A 
ATOM     17  C   UNL     1      16.160 -18.889  17.990  1.00  0.00     0.158 A 
BRANCH  15  18
ATOM     18  O   UNL     1      18.203 -19.346  19.214  1.00  0.00    -0.504 OA
ATOM     19  H   UNL     1      18.433 -18.368  19.346  1.00  0.00     0.293 HD
ENDBRANCH  15  18
BRANCH  17  20
ATOM     20  O   UNL     1      16.630 -17.631  17.613  1.00  0.00    -0.504 OA
ATOM     21  H   UNL     1      17.000 -17.450  16.688  1.00  0.00     0.293 HD
ENDBRANCH  17  20
ENDBRANCH   1  12
BRANCH   2  22
ATOM     22  O   UNL     1      12.222 -21.132  19.748  1.00  0.00    -0.502 OA
ATOM     23  H   UNL     1      11.528 -20.791  20.401  1.00  0.00     0.293 HD
ENDBRANCH   2  22
BRANCH   6  24
ATOM     24  O   UNL     1       8.054 -22.041  16.558  1.00  0.00    -0.507 OA
ATOM     25  H   UNL     1       7.179 -21.642  16.252  1.00  0.00     0.293 HD
ENDBRANCH   6  24
BRANCH   8  26
ATOM     26  O   UNL     1      10.261 -22.124  12.294  1.00  0.00    -0.508 OA
ATOM     27  H   UNL     1       9.394 -21.986  11.787  1.00  0.00     0.293 HD
ENDBRANCH   8  26
TORSDOF 6
ENDMDL
MODEL 2
REMARK VINA RESULT:    -6.529      2.274      3.981
REMARK INTER + INTRA:          -7.993
REMARK INTER:                  -7.658
REMARK INTRA:                  -0.335
REMARK UNBOUND:                -0.127
REMARK SMILES O=c1c(O)c(-c2ccc(O)c(O)c2)oc2cc(O)cc(O)c12
REMARK SMILES IDX 5 1 3 2 2 3 1 4 22 5 20 6 19 7 17 8 16 9 15 10 14 11 6 12
REMARK SMILES IDX 7 13 8 14 9 15 13 16 11 17 10 18 12 20 4 22 21 24 18 26
REMARK H PARENT 10 19 12 21 4 23 21 25 18 27
REMARK Flexibility Score: inf
ROOT
ATOM      1  C   UNL     1      15.768 -19.649  19.553  1.00  0.00     0.180 A 
ATOM      2  C   UNL     1      14.905 -19.770  20.656  1.00  0.00     0.208 A 
ATOM      3  C   UNL     1      13.601 -20.248  20.451  1.00  0.00     0.238 A 
ATOM      4  O   UNL     1      12.852 -20.404  21.451  1.00  0.00    -0.285 OA
ATOM      5  C   UNL     1      13.172 -20.586  19.146  1.00  0.00     0.111 A 
ATOM      6  C   UNL     1      11.859 -21.042  18.818  1.00  0.00     0.134 A 
ATOM      7  C   UNL     1      11.583 -21.470  17.513  1.00  0.00     0.093 A 
ATOM      8  C   UNL     1      12.554 -21.398  16.512  1.00  0.00     0.123 A 
ATOM      9  C   UNL     1      13.819 -20.899  16.808  1.00  0.00     0.094 A 
ATOM     10  C   UNL     1      14.136 -20.497  18.108  1.00  0.00     0.146 A 
ATOM     11  O   UNL     1      15.357 -20.036  18.350  1.00  0.00    -0.452 OA
ENDROOT
BRANCH   1  12
ATOM     12  C   UNL     1      17.148 -19.130  19.684  1.00  0.00     0.025 A 
ATOM     13  C   UNL     1      17.426 -17.756  19.577  1.00  0.00     0.016 A 
ATOM     14  C   UNL     1      18.739 -17.290  19.681  1.00  0.00     0.051 A 
ATOM     15  C   UNL     1      19.795 -18.189  19.878  1.00  0.00     0.157 A 
ATOM     16  C   UNL     1      18.213 -20.029  19.862  1.00  0.00     0.062 A 
ATOM     17  C   UNL     1      19.530 -19.566  19.967  1.00  0.00     0.158 A 
BRANCH  15  18
ATOM     18  O   UNL     1      21.104 -17.722  19.983  1.00  0.00    -0.504 OA
ATOM     19  H   UNL     1      21.389 -16.844  19.563  1.00  0.00     0.293 HD
ENDBRANCH  15  18
BRANCH  17  20
ATOM     20  O   UNL     1      20.559 -20.488  20.157  1.00  0.00    -0.504 OA
ATOM     21  H   UNL     1      20.397 -21.488  20.130  1.00  0.00     0.293 HD
ENDBRANCH  17  20
ENDBRANCH   1  12
BRANCH   2  22
ATOM     22  O   UNL     1      15.358 -19.452  21.940  1.00  0.00    -0.502 OA
ATOM     23  H   UNL     1      15.893 -18.614  22.135  1.00  0.00     0.293 HD
ENDBRANCH   2  22
BRANCH   6  24
ATOM     24  O   UNL     1      10.792 -21.067  19.722  1.00  0.00    -0.507 OA
ATOM     25  H   UNL     1      10.725 -20.490  20.546  1.00  0.00     0.293 HD
ENDBRANCH   6  24
BRANCH   8  26
ATOM     26  O   UNL     1      12.266 -21.813  15.213  1.00  0.00    -0.508 OA
ATOM     27  H   UNL     1      11.428 -21.506  14.732  1.00  0.00     0.293 HD
ENDBRANCH   8  26
TORSDOF 6
ENDMDL
MODEL 3
REMARK VINA RESULT:    -6.479      1.628      2.565
REMARK INTER + INTRA:          -7.933
REMARK INTER:                  -7.630
REMARK INTRA:                  -0.302
REMARK UNBOUND:                -0.127
REMARK SMILES O=c1c(O)c(-c2ccc(O)c(O)c2)oc2cc(O)cc(O)c12
REMARK SMILES IDX 5 1 3 2 2 3 1 4 22 5 20 6 19 7 17 8 16 9 15 10 14 11 6 12
REMARK SMILES IDX 7 13 8 14 9 15 13 16 11 17 10 18 12 20 4 22 21 24 18 26
REMARK H PARENT 10 19 12 21 4 23 21 25 18 27
REMARK Flexibility Score: inf
ROOT
ATOM      1  C   UNL     1      14.498 -20.269  18.920  1.00  0.00     0.180 A 
ATOM      2  C   UNL     1      13.540 -20.590  19.898  1.00  0.00     0.208 A 
ATOM      3  C   UNL     1      12.310 -21.133  19.493  1.00  0.00     0.238 A 
ATOM      4  O   UNL     1      11.479 -21.468  20.377  1.00  0.00    -0.285 OA
ATOM      5  C   UNL     1      12.048 -21.336  18.118  1.00  0.00     0.111 A 
ATOM      6  C   UNL     1      10.821 -21.843  17.594  1.00  0.00     0.134 A 
ATOM      7  C   UNL     1      10.718 -22.124  16.225  1.00  0.00     0.093 A 
ATOM      8  C   UNL     1      11.776 -21.856  15.354  1.00  0.00     0.123 A 
ATOM      9  C   UNL     1      12.957 -21.306  15.847  1.00  0.00     0.094 A 
ATOM     10  C   UNL     1      13.102 -21.048  17.212  1.00  0.00     0.146 A 
ATOM     11  O   UNL     1      14.247 -20.532  17.642  1.00  0.00    -0.452 OA
ENDROOT
BRANCH   1  12
ATOM     12  C   UNL     1      15.807 -19.670  19.265  1.00  0.00     0.025 A 
ATOM     13  C   UNL     1      15.928 -18.303  19.570  1.00  0.00     0.016 A 
ATOM     14  C   UNL     1      17.177 -17.754  19.870  1.00  0.00     0.051 A 
ATOM     15  C   UNL     1      18.325 -18.557  19.856  1.00  0.00     0.157 A 
ATOM     16  C   UNL     1      16.963 -20.466  19.232  1.00  0.00     0.062 A 
ATOM     17  C   UNL     1      18.217 -19.920  19.532  1.00  0.00     0.158 A 
BRANCH  15  18
ATOM     18  O   UNL     1      19.570 -18.007  20.157  1.00  0.00    -0.504 OA
ATOM     19  H   UNL     1      19.805 -17.055  19.899  1.00  0.00     0.293 HD
ENDBRANCH  15  18
BRANCH  17  20
ATOM     20  O   UNL     1      19.340 -20.745  19.503  1.00  0.00    -0.504 OA
ATOM     21  H   UNL     1      19.361 -21.643  19.972  1.00  0.00     0.293 HD
ENDBRANCH  17  20
ENDBRANCH   1  12
BRANCH   2  22
ATOM     22  O   UNL     1      13.829 -20.402  21.252  1.00  0.00    -0.502 OA
ATOM     23  H   UNL     1      14.317 -19.583  21.596  1.00  0.00     0.293 HD
ENDBRANCH   2  22
BRANCH   6  24
ATOM     24  O   UNL     1       9.673 -22.059  18.362  1.00  0.00    -0.507 OA
ATOM     25  H   UNL     1       9.671 -22.442  19.295  1.00  0.00     0.293 HD
ENDBRANCH   6  24
BRANCH   8  26
ATOM     26  O   UNL     1      11.661 -22.125  13.992  1.00  0.00    -0.508 OA
ATOM     27  H   UNL     1      11.991 -21.470  13.292  1.00  0.00     0.293 HD
ENDBRANCH   8  26
TORSDOF 6
ENDMDL
MODEL 4
REMARK VINA RESULT:    -6.347      2.991      5.302
REMARK INTER + INTRA:          -7.773
REMARK INTER:                  -7.491
REMARK INTRA:                  -0.282
REMARK UNBOUND:                -0.127
REMARK SMILES O=c1c(O)c(-c2ccc(O)c(O)c2)oc2cc(O)cc(O)c12
REMARK SMILES IDX 5 1 3 2 2 3 1 4 22 5 20 6 19 7 17 8 16 9 15 10 14 11 6 12
REMARK SMILES IDX 7 13 8 14 9 15 13 16 11 17 10 18 12 20 4 22 21 24 18 26
REMARK H PARENT 10 19 12 21 4 23 21 25 18 27
REMARK Flexibility Score: inf
ROOT
ATOM      1  C   UNL     1      16.242 -19.488  19.304  1.00  0.00     0.180 A 
ATOM      2  C   UNL     1      15.775 -19.503  17.978  1.00  0.00     0.208 A 
ATOM      3  C   UNL     1      14.540 -20.110  17.699  1.00  0.00     0.238 A 
ATOM      4  O   UNL     1      14.102 -20.072  16.519  1.00  0.00    -0.285 OA
ATOM      5  C   UNL     1      13.796 -20.707  18.743  1.00  0.00     0.111 A 
ATOM      6  C   UNL     1      12.552 -21.384  18.567  1.00  0.00     0.134 A 
ATOM      7  C   UNL     1      11.840 -21.824  19.690  1.00  0.00     0.093 A 
ATOM      8  C   UNL     1      12.358 -21.668  20.978  1.00  0.00     0.123 A 
ATOM      9  C   UNL     1      13.598 -21.061  21.156  1.00  0.00     0.094 A 
ATOM     10  C   UNL     1      14.316 -20.580  20.058  1.00  0.00     0.146 A 
ATOM     11  O   UNL     1      15.490 -19.999  20.273  1.00  0.00    -0.452 OA
ENDROOT
BRANCH   1  12
ATOM     12  C   UNL     1      17.545 -18.890  19.674  1.00  0.00     0.025 A 
ATOM     13  C   UNL     1      17.706 -17.498  19.785  1.00  0.00     0.016 A 
ATOM     14  C   UNL     1      18.950 -16.955  20.113  1.00  0.00     0.051 A 
ATOM     15  C   UNL     1      20.055 -17.791  20.321  1.00  0.00     0.157 A 
ATOM     16  C   UNL     1      18.660 -19.723  19.864  1.00  0.00     0.062 A 
ATOM     17  C   UNL     1      19.909 -19.183  20.193  1.00  0.00     0.158 A 
BRANCH  15  18
ATOM     18  O   UNL     1      21.296 -17.247  20.650  1.00  0.00    -0.504 OA
ATOM     19  H   UNL     1      21.876 -16.793  19.954  1.00  0.00     0.293 HD
ENDBRANCH  15  18
BRANCH  17  20
ATOM     20  O   UNL     1      20.989 -20.043  20.388  1.00  0.00    -0.504 OA
ATOM     21  H   UNL     1      21.311 -20.674  19.664  1.00  0.00     0.293 HD
ENDBRANCH  17  20
ENDBRANCH   1  12
BRANCH   2  22
ATOM     22  O   UNL     1      16.516 -18.888  16.966  1.00  0.00    -0.502 OA
ATOM     23  H   UNL     1      16.164 -18.780  16.022  1.00  0.00     0.293 HD
ENDBRANCH   2  22
BRANCH   6  24
ATOM     24  O   UNL     1      11.990 -21.674  17.320  1.00  0.00    -0.507 OA
ATOM     25  H   UNL     1      12.515 -21.799  16.468  1.00  0.00     0.293 HD
ENDBRANCH   6  24
BRANCH   8  26
ATOM     26  O   UNL     1      11.650 -22.121  22.089  1.00  0.00    -0.508 OA
ATOM     27  H   UNL     1      10.898 -21.577  22.496  1.00  0.00     0.293 HD
ENDBRANCH   8  26
TORSDOF 6
ENDMDL
MODEL 5
REMARK VINA RESULT:    -6.315      3.295      9.032
REMARK INTER + INTRA:          -7.734
REMARK INTER:                  -7.451
REMARK INTRA:                  -0.283
REMARK UNBOUND:                -0.127
REMARK SMILES O=c1c(O)c(-c2ccc(O)c(O)c2)oc2cc(O)cc(O)c12
REMARK SMILES IDX 5 1 3 2 2 3 1 4 22 5 20 6 19 7 17 8 16 9 15 10 14 11 6 12
REMARK SMILES IDX 7 13 8 14 9 15 13 16 11 17 10 18 12 20 4 22 21 24 18 26
REMARK H PARENT 10 19 12 21 4 23 21 25 18 27
REMARK Flexibility Score: inf
ROOT
ATOM      1  C   UNL     1      16.864 -18.828  19.560  1.00  0.00     0.180 A 
ATOM      2  C   UNL     1      18.138 -19.406  19.692  1.00  0.00     0.208 A 
ATOM      3  C   UNL     1      19.174 -18.649  20.262  1.00  0.00     0.238 A 
ATOM      4  O   UNL     1      20.298 -19.191  20.426  1.00  0.00    -0.285 OA
ATOM      5  C   UNL     1      18.927 -17.320  20.681  1.00  0.00     0.111 A 
ATOM      6  C   UNL     1      19.912 -16.449  21.235  1.00  0.00     0.134 A 
ATOM      7  C   UNL     1      19.526 -15.198  21.734  1.00  0.00     0.093 A 
ATOM      8  C   UNL     1      18.203 -14.763  21.639  1.00  0.00     0.123 A 
ATOM      9  C   UNL     1      17.245 -15.581  21.047  1.00  0.00     0.094 A 
ATOM     10  C   UNL     1      17.592 -16.849  20.572  1.00  0.00     0.146 A 
ATOM     11  O   UNL     1      16.647 -17.601  20.022  1.00  0.00    -0.452 OA
ENDROOT
BRANCH   1  12
ATOM     12  C   UNL     1      15.728 -19.553  18.946  1.00  0.00     0.025 A 
ATOM     13  C   UNL     1      15.309 -19.278  17.633  1.00  0.00     0.016 A 
ATOM     14  C   UNL     1      14.221 -19.957  17.082  1.00  0.00     0.051 A 
ATOM     15  C   UNL     1      13.526 -20.911  17.837  1.00  0.00     0.157 A 
ATOM     16  C   UNL     1      15.016 -20.494  19.706  1.00  0.00     0.062 A 
ATOM     17  C   UNL     1      13.924 -21.178  19.157  1.00  0.00     0.158 A 
BRANCH  15  18
ATOM     18  O   UNL     1      12.440 -21.589  17.284  1.00  0.00    -0.504 OA
ATOM     19  H   UNL     1      11.651 -21.877  17.851  1.00  0.00     0.293 HD
ENDBRANCH  15  18
BRANCH  17  20
ATOM     20  O   UNL     1      13.250 -22.116  19.939  1.00  0.00    -0.504 OA
ATOM     21  H   UNL     1      13.523 -22.317  20.893  1.00  0.00     0.293 HD
ENDBRANCH  17  20
ENDBRANCH   1  12
BRANCH   2  22
ATOM     22  O   UNL     1      18.354 -20.728  19.292  1.00  0.00    -0.502 OA
ATOM     23  H   UNL     1      19.282 -21.128  19.213  1.00  0.00     0.293 HD
ENDBRANCH   2  22
BRANCH   6  24
ATOM     24  O   UNL     1      21.277 -16.749  21.293  1.00  0.00    -0.507 OA
ATOM     25  H   UNL     1      21.704 -17.563  20.878  1.00  0.00     0.293 HD
ENDBRANCH   6  24
BRANCH   8  26
ATOM     26  O   UNL     1      17.830 -13.511  22.125  1.00  0.00    -0.508 OA
ATOM     27  H   UNL     1      17.127 -12.949  21.659  1.00  0.00     0.293 HD
ENDBRANCH   8  26
TORSDOF 6
ENDMDL
MODEL 6
REMARK VINA RESULT:    -6.095      2.255      7.934
REMARK INTER + INTRA:          -7.470
REMARK INTER:                  -7.146
REMARK INTRA:                  -0.324
REMARK UNBOUND:                -0.127
REMARK SMILES O=c1c(O)c(-c2ccc(O)c(O)c2)oc2cc(O)cc(O)c12
REMARK SMILES IDX 5 1 3 2 2 3 1 4 22 5 20 6 19 7 17 8 16 9 15 10 14 11 6 12
REMARK SMILES IDX 7 13 8 14 9 15 13 16 11 17 10 18 12 20 4 22 21 24 18 26
REMARK H PARENT 10 19 12 21 4 23 21 25 18 27
REMARK Flexibility Score: inf
ROOT
ATOM      1  C   UNL     1      15.359 -19.605  18.374  1.00  0.00     0.180 A 
ATOM      2  C   UNL     1      15.594 -18.272  17.995  1.00  0.00     0.208 A 
ATOM      3  C   UNL     1      16.836 -17.689  18.292  1.00  0.00     0.238 A 
ATOM      4  O   UNL     1      17.059 -16.512  17.903  1.00  0.00    -0.285 OA
ATOM      5  C   UNL     1      17.822 -18.440  18.975  1.00  0.00     0.111 A 
ATOM      6  C   UNL     1      19.101 -17.937  19.361  1.00  0.00     0.134 A 
ATOM      7  C   UNL     1      20.046 -18.808  19.918  1.00  0.00     0.093 A 
ATOM      8  C   UNL     1      19.736 -20.147  20.160  1.00  0.00     0.123 A 
ATOM      9  C   UNL     1      18.471 -20.634  19.841  1.00  0.00     0.094 A 
ATOM     10  C   UNL     1      17.518 -19.798  19.252  1.00  0.00     0.146 A 
ATOM     11  O   UNL     1      16.328 -20.304  18.955  1.00  0.00    -0.452 OA
ENDROOT
BRANCH   1  12
ATOM     12  C   UNL     1      14.067 -20.281  18.119  1.00  0.00     0.025 A 
ATOM     13  C   UNL     1      13.824 -20.967  16.916  1.00  0.00     0.016 A 
ATOM     14  C   UNL     1      12.590 -21.578  16.687  1.00  0.00     0.051 A 
ATOM     15  C   UNL     1      11.574 -21.502  17.649  1.00  0.00     0.157 A 
ATOM     16  C   UNL     1      13.038 -20.191  19.071  1.00  0.00     0.062 A 
ATOM     17  C   UNL     1      11.800 -20.802  18.846  1.00  0.00     0.158 A 
BRANCH  15  18
ATOM     18  O   UNL     1      10.342 -22.114  17.419  1.00  0.00    -0.504 OA
ATOM     19  H   UNL     1       9.475 -21.590  17.457  1.00  0.00     0.293 HD
ENDBRANCH  15  18
BRANCH  17  20
ATOM     20  O   UNL     1      10.807 -20.702  19.821  1.00  0.00    -0.504 OA
ATOM     21  H   UNL     1      10.573 -19.820  20.261  1.00  0.00     0.293 HD
ENDBRANCH  17  20
ENDBRANCH   1  12
BRANCH   2  22
ATOM     22  O   UNL     1      14.614 -17.555  17.303  1.00  0.00    -0.502 OA
ATOM     23  H   UNL     1      14.447 -16.569  17.462  1.00  0.00     0.293 HD
ENDBRANCH   2  22
BRANCH   6  24
ATOM     24  O   UNL     1      19.479 -16.595  19.248  1.00  0.00    -0.507 OA
ATOM     25  H   UNL     1      19.386 -15.909  19.981  1.00  0.00     0.293 HD
ENDBRANCH   6  24
BRANCH   8  26
ATOM     26  O   UNL     1      20.677 -21.004  20.728  1.00  0.00    -0.508 OA
ATOM     27  H   UNL     1      20.682 -21.203  21.722  1.00  0.00     0.293 HD
ENDBRANCH   8  26
TORSDOF 6
ENDMDL
MODEL 7
REMARK VINA RESULT:    -6.064      2.240      7.949
REMARK INTER + INTRA:          -7.432
REMARK INTER:                  -7.112
REMARK INTRA:                  -0.320
REMARK UNBOUND:                -0.127
REMARK SMILES O=c1c(O)c(-c2ccc(O)c(O)c2)oc2cc(O)cc(O)c12
REMARK SMILES IDX 5 1 3 2 2 3 1 4 22 5 20 6 19 7 17 8 16 9 15 10 14 11 6 12
REMARK SMILES IDX 7 13 8 14 9 15 13 16 11 17 10 18 12 20 4 22 21 24 18 26
REMARK H PARENT 10 19 12 21 4 23 21 25 18 27
REMARK Flexibility Score: inf
ROOT
ATOM      1  C   UNL     1      15.663 -19.793  18.854  1.00  0.00     0.180 A 
ATOM      2  C   UNL     1      16.663 -20.663  19.324  1.00  0.00     0.208 A 
ATOM      3  C   UNL     1      17.919 -20.136  19.664  1.00  0.00     0.238 A 
ATOM      4  O   UNL     1      18.791 -20.912  20.135  1.00  0.00    -0.285 OA
ATOM      5  C   UNL     1      18.165 -18.751  19.518  1.00  0.00     0.111 A 
ATOM      6  C   UNL     1      19.414 -18.116  19.794  1.00  0.00     0.134 A 
ATOM      7  C   UNL     1      19.506 -16.720  19.737  1.00  0.00     0.093 A 
ATOM      8  C   UNL     1      18.413 -15.941  19.350  1.00  0.00     0.123 A 
ATOM      9  C   UNL     1      17.208 -16.555  19.021  1.00  0.00     0.094 A 
ATOM     10  C   UNL     1      17.074 -17.943  19.103  1.00  0.00     0.146 A 
ATOM     11  O   UNL     1      15.905 -18.488  18.789  1.00  0.00    -0.452 OA
ENDROOT
BRANCH   1  12
ATOM     12  C   UNL     1      14.323 -20.275  18.452  1.00  0.00     0.025 A 
ATOM     13  C   UNL     1      13.256 -20.319  19.366  1.00  0.00     0.016 A 
ATOM     14  C   UNL     1      12.006 -20.800  18.970  1.00  0.00     0.051 A 
ATOM     15  C   UNL     1      11.806 -21.257  17.661  1.00  0.00     0.157 A 
ATOM     16  C   UNL     1      14.123 -20.754  17.146  1.00  0.00     0.062 A 
ATOM     17  C   UNL     1      12.871 -21.236  16.746  1.00  0.00     0.158 A 
BRANCH  15  18
ATOM     18  O   UNL     1      10.556 -21.735  17.268  1.00  0.00    -0.504 OA
ATOM     19  H   UNL     1      10.123 -22.528  17.729  1.00  0.00     0.293 HD
ENDBRANCH  15  18
BRANCH  17  20
ATOM     20  O   UNL     1      12.707 -21.690  15.437  1.00  0.00    -0.504 OA
ATOM     21  H   UNL     1      13.067 -21.178  14.641  1.00  0.00     0.293 HD
ENDBRANCH  17  20
ENDBRANCH   1  12
BRANCH   2  22
ATOM     22  O   UNL     1      16.390 -22.025  19.482  1.00  0.00    -0.502 OA
ATOM     23  H   UNL     1      16.942 -22.745  19.033  1.00  0.00     0.293 HD
ENDBRANCH   2  22
BRANCH   6  24
ATOM     24  O   UNL     1      20.590 -18.807  20.100  1.00  0.00    -0.507 OA
ATOM     25  H   UNL     1      20.631 -19.670  20.620  1.00  0.00     0.293 HD
ENDBRANCH   6  24
BRANCH   8  26
ATOM     26  O   UNL     1      18.518 -14.553  19.282  1.00  0.00    -0.508 OA
ATOM     27  H   UNL     1      18.218 -13.961  20.048  1.00  0.00     0.293 HD
ENDBRANCH   8  26
TORSDOF 6
ENDMDL
MODEL 8
REMARK VINA RESULT:    -5.697      2.782      7.935
REMARK INTER + INTRA:          -6.990
REMARK INTER:                  -6.814
REMARK INTRA:                  -0.176
REMARK UNBOUND:                -0.127
REMARK SMILES O=c1c(O)c(-c2ccc(O)c(O)c2)oc2cc(O)cc(O)c12
REMARK SMILES IDX 5 1 3 2 2 3 1 4 22 5 20 6 19 7 17 8 16 9 15 10 14 11 6 12
REMARK SMILES IDX 7 13 8 14 9 15 13 16 11 17 10 18 12 20 4 22 21 24 18 26
REMARK H PARENT 10 19 12 21 4 23 21 25 18 27
REMARK Flexibility Score: inf
ROOT
ATOM      1  C   UNL     1      14.740 -19.731  19.926  1.00  0.00     0.180 A 
ATOM      2  C   UNL     1      14.757 -18.553  20.693  1.00  0.00     0.208 A 
ATOM      3  C   UNL     1      15.990 -18.038  21.124  1.00  0.00     0.238 A 
ATOM      4  O   UNL     1      16.002 -16.954  21.764  1.00  0.00    -0.285 OA
ATOM      5  C   UNL     1      17.189 -18.714  20.796  1.00  0.00     0.111 A 
ATOM      6  C   UNL     1      18.491 -18.304  21.214  1.00  0.00     0.134 A 
ATOM      7  C   UNL     1      19.617 -18.976  20.722  1.00  0.00     0.093 A 
ATOM      8  C   UNL     1      19.485 -20.083  19.881  1.00  0.00     0.123 A 
ATOM      9  C   UNL     1      18.218 -20.527  19.515  1.00  0.00     0.094 A 
ATOM     10  C   UNL     1      17.076 -19.856  19.960  1.00  0.00     0.146 A 
ATOM     11  O   UNL     1      15.887 -20.306  19.580  1.00  0.00    -0.452 OA
ENDROOT
BRANCH   1  12
ATOM     12  C   UNL     1      13.480 -20.349  19.457  1.00  0.00     0.025 A 
ATOM     13  C   UNL     1      13.146 -20.384  18.092  1.00  0.00     0.016 A 
ATOM     14  C   UNL     1      11.940 -20.951  17.674  1.00  0.00     0.051 A 
ATOM     15  C   UNL     1      11.044 -21.479  18.612  1.00  0.00     0.157 A 
ATOM     16  C   UNL     1      12.568 -20.861  20.395  1.00  0.00     0.062 A 
ATOM     17  C   UNL     1      11.359 -21.431  19.980  1.00  0.00     0.158 A 
BRANCH  15  18
ATOM     18  O   UNL     1       9.841 -22.046  18.192  1.00  0.00    -0.504 OA
ATOM     19  H   UNL     1       9.816 -22.936  17.707  1.00  0.00     0.293 HD
ENDBRANCH  15  18
BRANCH  17  20
ATOM     20  O   UNL     1      10.486 -21.941  20.940  1.00  0.00    -0.504 OA
ATOM     21  H   UNL     1       9.587 -22.337  20.693  1.00  0.00     0.293 HD
ENDBRANCH  17  20
ENDBRANCH   1  12
BRANCH   2  22
ATOM     22  O   UNL     1      13.562 -17.889  20.987  1.00  0.00    -0.502 OA
ATOM     23  H   UNL     1      13.227 -17.105  20.440  1.00  0.00     0.293 HD
ENDBRANCH   2  22
BRANCH   6  24
ATOM     24  O   UNL     1      18.730 -17.270  22.124  1.00  0.00    -0.507 OA
ATOM     25  H   UNL     1      19.629 -16.842  22.284  1.00  0.00     0.293 HD
ENDBRANCH   6  24
BRANCH   8  26
ATOM     26  O   UNL     1      20.611 -20.754  19.408  1.00  0.00    -0.508 OA
ATOM     27  H   UNL     1      20.733 -21.750  19.551  1.00  0.00     0.293 HD
ENDBRANCH   8  26
TORSDOF 6
ENDMDL
