MODEL 1
REMARK VINA RESULT:    -6.355      0.000      0.000
REMARK INTER + INTRA:          -7.796
REMARK INTER:                  -7.655
REMARK INTRA:                  -0.140
REMARK UNBOUND:                -0.140
REMARK SMILES O=c1c(O)c(-c2ccc(O)c(O)c2)oc2cc(O)cc(O)c12
REMARK SMILES IDX 5 1 3 2 2 3 1 4 22 5 20 6 19 7 17 8 16 9 15 10 14 11 6 12
REMARK SMILES IDX 7 13 8 14 9 15 13 16 11 17 10 18 12 20 4 22 21 24 18 26
REMARK H PARENT 10 19 12 21 4 23 21 25 18 27
REMARK Flexibility Score: inf
ROOT
ATOM      1  C   UNL     1      11.690  30.311  -5.271  1.00  0.00     0.180 A 
ATOM      2  C   UNL     1      10.910  31.483  -5.252  1.00  0.00     0.208 A 
ATOM      3  C   UNL     1      10.072  31.723  -4.152  1.00  0.00     0.238 A 
ATOM      4  O   UNL     1       9.360  32.764  -4.129  1.00  0.00    -0.285 OA
ATOM      5  C   UNL     1      10.043  30.803  -3.084  1.00  0.00     0.111 A 
ATOM      6  C   UNL     1       9.229  30.972  -1.938  1.00  0.00     0.134 A 
ATOM      7  C   UNL     1       9.263  30.014  -0.913  1.00  0.00     0.093 A 
ATOM      8  C   UNL     1      10.096  28.893  -1.013  1.00  0.00     0.123 A 
ATOM      9  C   UNL     1      10.898  28.722  -2.141  1.00  0.00     0.094 A 
ATOM     10  C   UNL     1      10.877  29.664  -3.174  1.00  0.00     0.146 A 
ATOM     11  O   UNL     1      11.647  29.473  -4.239  1.00  0.00    -0.452 OA
ENDROOT
BRANCH   1  12
ATOM     12  C   UNL     1      12.583  29.979  -6.404  1.00  0.00     0.025 A 
ATOM     13  C   UNL     1      12.033  29.776  -7.679  1.00  0.00     0.016 A 
ATOM     14  C   UNL     1      12.857  29.482  -8.768  1.00  0.00     0.051 A 
ATOM     15  C   UNL     1      14.247  29.404  -8.601  1.00  0.00     0.157 A 
ATOM     16  C   UNL     1      13.979  29.920  -6.244  1.00  0.00     0.062 A 
ATOM     17  C   UNL     1      14.809  29.629  -7.334  1.00  0.00     0.158 A 
BRANCH  15  18
ATOM     18  O   UNL     1      15.067  29.109  -9.688  1.00  0.00    -0.504 OA
ATOM     19  H   UNL     1      14.736  29.193 -10.642  1.00  0.00     0.293 HD
ENDBRANCH  15  18
BRANCH  17  20
ATOM     20  O   UNL     1      16.189  29.572  -7.137  1.00  0.00    -0.504 OA
ATOM     21  H   UNL     1      16.811  30.293  -7.480  1.00  0.00     0.293 HD
ENDBRANCH  17  20
ENDBRANCH   1  12
BRANCH   2  22
ATOM     22  O   UNL     1      10.994  32.404  -6.300  1.00  0.00    -0.502 OA
ATOM     23  H   UNL     1      11.098  33.398  -6.141  1.00  0.00     0.293 HD
ENDBRANCH   2  22
BRANCH   6  24
ATOM     24  O   UNL     1       8.391  32.080  -1.809  1.00  0.00    -0.507 OA
ATOM     25  H   UNL     1       8.755  33.002  -1.600  1.00  0.00     0.293 HD
ENDBRANCH   6  24
BRANCH   8  26
ATOM     26  O   UNL     1      10.130  27.942   0.005  1.00  0.00    -0.508 OA
ATOM     27  H   UNL     1      10.893  27.281   0.086  1.00  0.00     0.293 HD
ENDBRANCH   8  26
TORSDOF 6
ENDMDL
MODEL 2
REMARK VINA RESULT:    -6.348      1.959      7.343
REMARK INTER + INTRA:          -7.787
REMARK INTER:                  -7.692
REMARK INTRA:                  -0.095
REMARK UNBOUND:                -0.140
REMARK SMILES O=c1c(O)c(-c2ccc(O)c(O)c2)oc2cc(O)cc(O)c12
REMARK SMILES IDX 5 1 3 2 2 3 1 4 22 5 20 6 19 7 17 8 16 9 15 10 14 11 6 12
REMARK SMILES IDX 7 13 8 14 9 15 13 16 11 17 10 18 12 20 4 22 21 24 18 26
REMARK H PARENT 10 19 12 21 4 23 21 25 18 27
REMARK Flexibility Score: inf
ROOT
ATOM      1  C   UNL     1      10.001  30.366  -1.570  1.00  0.00     0.180 A 
ATOM      2  C   UNL     1       9.339  31.346  -2.335  1.00  0.00     0.208 A 
ATOM      3  C   UNL     1       9.822  31.645  -3.618  1.00  0.00     0.238 A 
ATOM      4  O   UNL     1       9.244  32.530  -4.308  1.00  0.00    -0.285 OA
ATOM      5  C   UNL     1      10.939  30.949  -4.123  1.00  0.00     0.111 A 
ATOM      6  C   UNL     1      11.484  31.187  -5.407  1.00  0.00     0.134 A 
ATOM      7  C   UNL     1      12.594  30.445  -5.840  1.00  0.00     0.093 A 
ATOM      8  C   UNL     1      13.165  29.470  -5.015  1.00  0.00     0.123 A 
ATOM      9  C   UNL     1      12.630  29.232  -3.748  1.00  0.00     0.094 A 
ATOM     10  C   UNL     1      11.527  29.962  -3.297  1.00  0.00     0.146 A 
ATOM     11  O   UNL     1      11.042  29.719  -2.085  1.00  0.00    -0.452 OA
ENDROOT
BRANCH   1  12
ATOM     12  C   UNL     1       9.564  30.009  -0.202  1.00  0.00     0.025 A 
ATOM     13  C   UNL     1       9.514  31.003   0.788  1.00  0.00     0.016 A 
ATOM     14  C   UNL     1       9.086  30.694   2.081  1.00  0.00     0.051 A 
ATOM     15  C   UNL     1       8.683  29.391   2.400  1.00  0.00     0.157 A 
ATOM     16  C   UNL     1       9.138  28.706   0.116  1.00  0.00     0.062 A 
ATOM     17  C   UNL     1       8.706  28.394   1.410  1.00  0.00     0.158 A 
BRANCH  15  18
ATOM     18  O   UNL     1       8.257  29.084   3.692  1.00  0.00    -0.504 OA
ATOM     19  H   UNL     1       8.404  29.723   4.464  1.00  0.00     0.293 HD
ENDBRANCH  15  18
BRANCH  17  20
ATOM     20  O   UNL     1       8.298  27.089   1.691  1.00  0.00    -0.504 OA
ATOM     21  H   UNL     1       8.630  26.295   1.157  1.00  0.00     0.293 HD
ENDBRANCH  17  20
ENDBRANCH   1  12
BRANCH   2  22
ATOM     22  O   UNL     1       8.204  31.988  -1.831  1.00  0.00    -0.502 OA
ATOM     23  H   UNL     1       7.277  31.818  -2.200  1.00  0.00     0.293 HD
ENDBRANCH   2  22
BRANCH   6  24
ATOM     24  O   UNL     1      10.936  32.152  -6.253  1.00  0.00    -0.507 OA
ATOM     25  H   UNL     1      10.122  31.959  -6.824  1.00  0.00     0.293 HD
ENDBRANCH   6  24
BRANCH   8  26
ATOM     26  O   UNL     1      14.266  28.733  -5.445  1.00  0.00    -0.508 OA
ATOM     27  H   UNL     1      14.212  28.123  -6.252  1.00  0.00     0.293 HD
ENDBRANCH   8  26
TORSDOF 6
ENDMDL
MODEL 3
REMARK VINA RESULT:    -6.346      2.438      7.506
REMARK INTER + INTRA:          -7.784
REMARK INTER:                  -7.551
REMARK INTRA:                  -0.234
REMARK UNBOUND:                -0.140
REMARK SMILES O=c1c(O)c(-c2ccc(O)c(O)c2)oc2cc(O)cc(O)c12
REMARK SMILES IDX 5 1 3 2 2 3 1 4 22 5 20 6 19 7 17 8 16 9 15 10 14 11 6 12
REMARK SMILES IDX 7 13 8 14 9 15 13 16 11 17 10 18 12 20 4 22 21 24 18 26
REMARK H PARENT 10 19 12 21 4 23 21 25 18 27
REMARK Flexibility Score: inf
ROOT
ATOM      1  C   UNL     1      10.332  30.332  -1.977  1.00  0.00     0.180 A 
ATOM      2  C   UNL     1      11.569  29.824  -2.422  1.00  0.00     0.208 A 
ATOM      3  C   UNL     1      12.032  30.186  -3.695  1.00  0.00     0.238 A 
ATOM      4  O   UNL     1      13.133  29.729  -4.109  1.00  0.00    -0.285 OA
ATOM      5  C   UNL     1      11.267  31.062  -4.493  1.00  0.00     0.111 A 
ATOM      6  C   UNL     1      11.666  31.479  -5.786  1.00  0.00     0.134 A 
ATOM      7  C   UNL     1      10.851  32.360  -6.514  1.00  0.00     0.093 A 
ATOM      8  C   UNL     1       9.650  32.832  -5.972  1.00  0.00     0.123 A 
ATOM      9  C   UNL     1       9.254  32.423  -4.698  1.00  0.00     0.094 A 
ATOM     10  C   UNL     1      10.050  31.544  -3.958  1.00  0.00     0.146 A 
ATOM     11  O   UNL     1       9.646  31.167  -2.751  1.00  0.00    -0.452 OA
ENDROOT
BRANCH   1  12
ATOM     12  C   UNL     1       9.768  29.980  -0.654  1.00  0.00     0.025 A 
ATOM     13  C   UNL     1       9.636  30.977   0.326  1.00  0.00     0.016 A 
ATOM     14  C   UNL     1       9.087  30.673   1.574  1.00  0.00     0.051 A 
ATOM     15  C   UNL     1       8.646  29.373   1.856  1.00  0.00     0.157 A 
ATOM     16  C   UNL     1       9.305  28.681  -0.376  1.00  0.00     0.062 A 
ATOM     17  C   UNL     1       8.752  28.375   0.873  1.00  0.00     0.158 A 
BRANCH  15  18
ATOM     18  O   UNL     1       8.100  29.072   3.102  1.00  0.00    -0.504 OA
ATOM     19  H   UNL     1       7.128  29.263   3.316  1.00  0.00     0.293 HD
ENDBRANCH  15  18
BRANCH  17  20
ATOM     20  O   UNL     1       8.310  27.074   1.116  1.00  0.00    -0.504 OA
ATOM     21  H   UNL     1       8.672  26.279   0.603  1.00  0.00     0.293 HD
ENDBRANCH  17  20
ENDBRANCH   1  12
BRANCH   2  22
ATOM     22  O   UNL     1      12.332  28.997  -1.592  1.00  0.00    -0.502 OA
ATOM     23  H   UNL     1      13.036  29.361  -0.963  1.00  0.00     0.293 HD
ENDBRANCH   2  22
BRANCH   6  24
ATOM     24  O   UNL     1      12.858  31.027  -6.351  1.00  0.00    -0.507 OA
ATOM     25  H   UNL     1      13.134  31.286  -7.291  1.00  0.00     0.293 HD
ENDBRANCH   6  24
BRANCH   8  26
ATOM     26  O   UNL     1       8.842  33.708  -6.695  1.00  0.00    -0.508 OA
ATOM     27  H   UNL     1       8.342  34.463  -6.241  1.00  0.00     0.293 HD
ENDBRANCH   8  26
TORSDOF 6
ENDMDL
MODEL 4
REMARK VINA RESULT:    -6.331      5.960     11.240
REMARK INTER + INTRA:          -7.767
REMARK INTER:                  -7.470
REMARK INTRA:                  -0.297
REMARK UNBOUND:                -0.140
REMARK SMILES O=c1c(O)c(-c2ccc(O)c(O)c2)oc2cc(O)cc(O)c12
REMARK SMILES IDX 5 1 3 2 2 3 1 4 22 5 20 6 19 7 17 8 16 9 15 10 14 11 6 12
REMARK SMILES IDX 7 13 8 14 9 15 13 16 11 17 10 18 12 20 4 22 21 24 18 26
REMARK H PARENT 10 19 12 21 4 23 21 25 18 27
REMARK Flexibility Score: inf
ROOT
ATOM      1  C   UNL     1       9.361  30.334   4.444  1.00  0.00     0.180 A 
ATOM      2  C   UNL     1       9.132  28.944   4.442  1.00  0.00     0.208 A 
ATOM      3  C   UNL     1       8.998  28.281   3.213  1.00  0.00     0.238 A 
ATOM      4  O   UNL     1       8.781  27.038   3.198  1.00  0.00    -0.285 OA
ATOM      5  C   UNL     1       9.114  29.009   2.011  1.00  0.00     0.111 A 
ATOM      6  C   UNL     1       8.996  28.415   0.731  1.00  0.00     0.134 A 
ATOM      7  C   UNL     1       9.133  29.208  -0.418  1.00  0.00     0.093 A 
ATOM      8  C   UNL     1       9.388  30.580  -0.311  1.00  0.00     0.123 A 
ATOM      9  C   UNL     1       9.505  31.169   0.948  1.00  0.00     0.094 A 
ATOM     10  C   UNL     1       9.369  30.397   2.105  1.00  0.00     0.146 A 
ATOM     11  O   UNL     1       9.480  30.985   3.291  1.00  0.00    -0.452 OA
ENDROOT
BRANCH   1  12
ATOM     12  C   UNL     1       9.494  31.107   5.700  1.00  0.00     0.025 A 
ATOM     13  C   UNL     1       8.378  31.786   6.214  1.00  0.00     0.016 A 
ATOM     14  C   UNL     1       8.475  32.505   7.407  1.00  0.00     0.051 A 
ATOM     15  C   UNL     1       9.683  32.541   8.115  1.00  0.00     0.157 A 
ATOM     16  C   UNL     1      10.700  31.128   6.423  1.00  0.00     0.062 A 
ATOM     17  C   UNL     1      10.799  31.845   7.621  1.00  0.00     0.158 A 
BRANCH  15  18
ATOM     18  O   UNL     1       9.778  33.260   9.306  1.00  0.00    -0.504 OA
ATOM     19  H   UNL     1      10.653  33.672   9.609  1.00  0.00     0.293 HD
ENDBRANCH  15  18
BRANCH  17  20
ATOM     20  O   UNL     1      12.014  31.849   8.309  1.00  0.00    -0.504 OA
ATOM     21  H   UNL     1      12.568  31.010   8.427  1.00  0.00     0.293 HD
ENDBRANCH  17  20
ENDBRANCH   1  12
BRANCH   2  22
ATOM     22  O   UNL     1       9.070  28.237   5.646  1.00  0.00    -0.502 OA
ATOM     23  H   UNL     1       9.462  28.596   6.507  1.00  0.00     0.293 HD
ENDBRANCH   2  22
BRANCH   6  24
ATOM     24  O   UNL     1       8.744  27.050   0.593  1.00  0.00    -0.507 OA
ATOM     25  H   UNL     1       9.443  26.413   0.232  1.00  0.00     0.293 HD
ENDBRANCH   6  24
BRANCH   8  26
ATOM     26  O   UNL     1       9.525  31.367  -1.453  1.00  0.00    -0.508 OA
ATOM     27  H   UNL     1       9.849  32.325  -1.400  1.00  0.00     0.293 HD
ENDBRANCH   8  26
TORSDOF 6
ENDMDL
MODEL 5
REMARK VINA RESULT:    -6.310      2.795      5.296
REMARK INTER + INTRA:          -7.742
REMARK INTER:                  -7.421
REMARK INTRA:                  -0.321
REMARK UNBOUND:                -0.140
REMARK SMILES O=c1c(O)c(-c2ccc(O)c(O)c2)oc2cc(O)cc(O)c12
REMARK SMILES IDX 5 1 3 2 2 3 1 4 22 5 20 6 19 7 17 8 16 9 15 10 14 11 6 12
REMARK SMILES IDX 7 13 8 14 9 15 13 16 11 17 10 18 12 20 4 22 21 24 18 26
REMARK H PARENT 10 19 12 21 4 23 21 25 18 27
REMARK Flexibility Score: inf
ROOT
ATOM      1  C   UNL     1      10.172  29.817  -1.017  1.00  0.00     0.180 A 
ATOM      2  C   UNL     1       9.898  28.462  -0.747  1.00  0.00     0.208 A 
ATOM      3  C   UNL     1       9.337  28.117   0.492  1.00  0.00     0.238 A 
ATOM      4  O   UNL     1       9.099  26.905   0.750  1.00  0.00    -0.285 OA
ATOM      5  C   UNL     1       9.040  29.128   1.429  1.00  0.00     0.111 A 
ATOM      6  C   UNL     1       8.470  28.865   2.698  1.00  0.00     0.134 A 
ATOM      7  C   UNL     1       8.196  29.928   3.571  1.00  0.00     0.093 A 
ATOM      8  C   UNL     1       8.479  31.247   3.198  1.00  0.00     0.123 A 
ATOM      9  C   UNL     1       9.041  31.511   1.948  1.00  0.00     0.094 A 
ATOM     10  C   UNL     1       9.324  30.465   1.065  1.00  0.00     0.146 A 
ATOM     11  O   UNL     1       9.864  30.744  -0.116  1.00  0.00    -0.452 OA
ENDROOT
BRANCH   1  12
ATOM     12  C   UNL     1      10.780  30.257  -2.293  1.00  0.00     0.025 A 
ATOM     13  C   UNL     1       9.963  30.803  -3.295  1.00  0.00     0.016 A 
ATOM     14  C   UNL     1      10.517  31.244  -4.499  1.00  0.00     0.051 A 
ATOM     15  C   UNL     1      11.900  31.162  -4.713  1.00  0.00     0.157 A 
ATOM     16  C   UNL     1      12.170  30.195  -2.502  1.00  0.00     0.062 A 
ATOM     17  C   UNL     1      12.729  30.639  -3.706  1.00  0.00     0.158 A 
BRANCH  15  18
ATOM     18  O   UNL     1      12.451  31.601  -5.915  1.00  0.00    -0.504 OA
ATOM     19  H   UNL     1      12.374  32.567  -6.213  1.00  0.00     0.293 HD
ENDBRANCH  15  18
BRANCH  17  20
ATOM     20  O   UNL     1      14.111  30.555  -3.882  1.00  0.00    -0.504 OA
ATOM     21  H   UNL     1      14.524  30.171  -4.723  1.00  0.00     0.293 HD
ENDBRANCH  17  20
ENDBRANCH   1  12
BRANCH   2  22
ATOM     22  O   UNL     1      10.157  27.483  -1.712  1.00  0.00    -0.502 OA
ATOM     23  H   UNL     1       9.613  27.403  -2.561  1.00  0.00     0.293 HD
ENDBRANCH   2  22
BRANCH   6  24
ATOM     24  O   UNL     1       8.175  27.561   3.097  1.00  0.00    -0.507 OA
ATOM     25  H   UNL     1       7.223  27.221   3.145  1.00  0.00     0.293 HD
ENDBRANCH   6  24
BRANCH   8  26
ATOM     26  O   UNL     1       8.206  32.304   4.065  1.00  0.00    -0.508 OA
ATOM     27  H   UNL     1       7.794  32.148   4.977  1.00  0.00     0.293 HD
ENDBRANCH   8  26
TORSDOF 6
ENDMDL
MODEL 6
REMARK VINA RESULT:    -6.223      2.357      7.387
REMARK INTER + INTRA:          -7.637
REMARK INTER:                  -7.399
REMARK INTRA:                  -0.237
REMARK UNBOUND:                -0.140
REMARK SMILES O=c1c(O)c(-c2ccc(O)c(O)c2)oc2cc(O)cc(O)c12
REMARK SMILES IDX 5 1 3 2 2 3 1 4 22 5 20 6 19 7 17 8 16 9 15 10 14 11 6 12
REMARK SMILES IDX 7 13 8 14 9 15 13 16 11 17 10 18 12 20 4 22 21 24 18 26
REMARK H PARENT 10 19 12 21 4 23 21 25 18 27
REMARK Flexibility Score: inf
ROOT
ATOM      1  C   UNL     1      10.315  30.065  -2.075  1.00  0.00     0.180 A 
ATOM      2  C   UNL     1      11.651  30.485  -2.223  1.00  0.00     0.208 A 
ATOM      3  C   UNL     1      12.172  30.647  -3.516  1.00  0.00     0.238 A 
ATOM      4  O   UNL     1      13.372  31.012  -3.660  1.00  0.00    -0.285 OA
ATOM      5  C   UNL     1      11.349  30.409  -4.635  1.00  0.00     0.111 A 
ATOM      6  C   UNL     1      11.796  30.554  -5.970  1.00  0.00     0.134 A 
ATOM      7  C   UNL     1      10.911  30.306  -7.030  1.00  0.00     0.093 A 
ATOM      8  C   UNL     1       9.590  29.919  -6.780  1.00  0.00     0.123 A 
ATOM      9  C   UNL     1       9.145  29.775  -5.465  1.00  0.00     0.094 A 
ATOM     10  C   UNL     1      10.011  30.015  -4.395  1.00  0.00     0.146 A 
ATOM     11  O   UNL     1       9.563  29.865  -3.154  1.00  0.00    -0.452 OA
ENDROOT
BRANCH   1  12
ATOM     12  C   UNL     1       9.700  29.854  -0.746  1.00  0.00     0.025 A 
ATOM     13  C   UNL     1       9.352  30.965   0.038  1.00  0.00     0.016 A 
ATOM     14  C   UNL     1       8.751  30.790   1.287  1.00  0.00     0.051 A 
ATOM     15  C   UNL     1       8.473  29.502   1.764  1.00  0.00     0.157 A 
ATOM     16  C   UNL     1       9.400  28.563  -0.274  1.00  0.00     0.062 A 
ATOM     17  C   UNL     1       8.796  28.384   0.976  1.00  0.00     0.158 A 
BRANCH  15  18
ATOM     18  O   UNL     1       7.875  29.330   3.011  1.00  0.00    -0.504 OA
ATOM     19  H   UNL     1       7.286  30.045   3.421  1.00  0.00     0.293 HD
ENDBRANCH  15  18
BRANCH  17  20
ATOM     20  O   UNL     1       8.520  27.089   1.415  1.00  0.00    -0.504 OA
ATOM     21  H   UNL     1       9.099  26.299   1.158  1.00  0.00     0.293 HD
ENDBRANCH  17  20
ENDBRANCH   1  12
BRANCH   2  22
ATOM     22  O   UNL     1      12.433  30.762  -1.097  1.00  0.00    -0.502 OA
ATOM     23  H   UNL     1      12.030  31.064  -0.219  1.00  0.00     0.293 HD
ENDBRANCH   2  22
BRANCH   6  24
ATOM     24  O   UNL     1      13.107  30.940  -6.251  1.00  0.00    -0.507 OA
ATOM     25  H   UNL     1      13.443  31.872  -6.045  1.00  0.00     0.293 HD
ENDBRANCH   6  24
BRANCH   8  26
ATOM     26  O   UNL     1       8.710  29.673  -7.833  1.00  0.00    -0.508 OA
ATOM     27  H   UNL     1       9.045  29.489  -8.771  1.00  0.00     0.293 HD
ENDBRANCH   8  26
TORSDOF 6
ENDMDL
MODEL 7
REMARK VINA RESULT:    -6.183      2.499      4.475
REMARK INTER + INTRA:          -7.588
REMARK INTER:                  -7.510
REMARK INTRA:                  -0.078
REMARK UNBOUND:                -0.140
REMARK SMILES O=c1c(O)c(-c2ccc(O)c(O)c2)oc2cc(O)cc(O)c12
REMARK SMILES IDX 5 1 3 2 2 3 1 4 22 5 20 6 19 7 17 8 16 9 15 10 14 11 6 12
REMARK SMILES IDX 7 13 8 14 9 15 13 16 11 17 10 18 12 20 4 22 21 24 18 26
REMARK H PARENT 10 19 12 21 4 23 21 25 18 27
REMARK Flexibility Score: inf
ROOT
ATOM      1  C   UNL     1      11.004  31.720  -5.409  1.00  0.00     0.180 A 
ATOM      2  C   UNL     1      12.149  30.902  -5.482  1.00  0.00     0.208 A 
ATOM      3  C   UNL     1      12.384  29.971  -4.458  1.00  0.00     0.238 A 
ATOM      4  O   UNL     1      13.412  29.241  -4.507  1.00  0.00    -0.285 OA
ATOM      5  C   UNL     1      11.465  29.858  -3.395  1.00  0.00     0.111 A 
ATOM      6  C   UNL     1      11.626  28.942  -2.327  1.00  0.00     0.134 A 
ATOM      7  C   UNL     1      10.662  28.884  -1.309  1.00  0.00     0.093 A 
ATOM      8  C   UNL     1       9.542  29.722  -1.341  1.00  0.00     0.123 A 
ATOM      9  C   UNL     1       9.379  30.626  -2.391  1.00  0.00     0.094 A 
ATOM     10  C   UNL     1      10.329  30.700  -3.414  1.00  0.00     0.146 A 
ATOM     11  O   UNL     1      10.153  31.574  -4.398  1.00  0.00    -0.452 OA
ENDROOT
BRANCH   1  12
ATOM     12  C   UNL     1      10.699  32.737  -6.439  1.00  0.00     0.025 A 
ATOM     13  C   UNL     1      10.528  32.338  -7.774  1.00  0.00     0.016 A 
ATOM     14  C   UNL     1      10.219  33.278  -8.760  1.00  0.00     0.051 A 
ATOM     15  C   UNL     1      10.058  34.629  -8.424  1.00  0.00     0.157 A 
ATOM     16  C   UNL     1      10.516  34.091  -6.101  1.00  0.00     0.062 A 
ATOM     17  C   UNL     1      10.203  35.034  -7.087  1.00  0.00     0.158 A 
BRANCH  15  18
ATOM     18  O   UNL     1       9.751  35.565  -9.410  1.00  0.00    -0.504 OA
ATOM     19  H   UNL     1       9.119  36.337  -9.231  1.00  0.00     0.293 HD
ENDBRANCH  15  18
BRANCH  17  20
ATOM     20  O   UNL     1      10.036  36.369  -6.717  1.00  0.00    -0.504 OA
ATOM     21  H   UNL     1       9.407  36.646  -5.973  1.00  0.00     0.293 HD
ENDBRANCH  17  20
ENDBRANCH   1  12
BRANCH   2  22
ATOM     22  O   UNL     1      13.018  30.999  -6.572  1.00  0.00    -0.502 OA
ATOM     23  H   UNL     1      12.770  31.492  -7.421  1.00  0.00     0.293 HD
ENDBRANCH   2  22
BRANCH   6  24
ATOM     24  O   UNL     1      12.732  28.093  -2.268  1.00  0.00    -0.507 OA
ATOM     25  H   UNL     1      13.680  28.451  -2.282  1.00  0.00     0.293 HD
ENDBRANCH   6  24
BRANCH   8  26
ATOM     26  O   UNL     1       8.584  29.664  -0.330  1.00  0.00    -0.508 OA
ATOM     27  H   UNL     1       8.088  28.807  -0.119  1.00  0.00     0.293 HD
ENDBRANCH   8  26
TORSDOF 6
ENDMDL
MODEL 8
REMARK VINA RESULT:    -6.170      1.623      6.849
REMARK INTER + INTRA:          -7.573
REMARK INTER:                  -7.254
REMARK INTRA:                  -0.318
REMARK UNBOUND:                -0.140
REMARK SMILES O=c1c(O)c(-c2ccc(O)c(O)c2)oc2cc(O)cc(O)c12
REMARK SMILES IDX 5 1 3 2 2 3 1 4 22 5 20 6 19 7 17 8 16 9 15 10 14 11 6 12
REMARK SMILES IDX 7 13 8 14 9 15 13 16 11 17 10 18 12 20 4 22 21 24 18 26
REMARK H PARENT 10 19 12 21 4 23 21 25 18 27
REMARK Flexibility Score: inf
ROOT
ATOM      1  C   UNL     1      10.785  29.584  -4.024  1.00  0.00     0.180 A 
ATOM      2  C   UNL     1       9.935  29.708  -5.141  1.00  0.00     0.208 A 
ATOM      3  C   UNL     1      10.506  29.806  -6.419  1.00  0.00     0.238 A 
ATOM      4  O   UNL     1       9.755  29.928  -7.426  1.00  0.00    -0.285 OA
ATOM      5  C   UNL     1      11.907  29.758  -6.563  1.00  0.00     0.111 A 
ATOM      6  C   UNL     1      12.561  29.846  -7.816  1.00  0.00     0.134 A 
ATOM      7  C   UNL     1      13.961  29.782  -7.876  1.00  0.00     0.093 A 
ATOM      8  C   UNL     1      14.718  29.630  -6.708  1.00  0.00     0.123 A 
ATOM      9  C   UNL     1      14.078  29.543  -5.472  1.00  0.00     0.094 A 
ATOM     10  C   UNL     1      12.684  29.607  -5.390  1.00  0.00     0.146 A 
ATOM     11  O   UNL     1      12.101  29.527  -4.200  1.00  0.00    -0.452 OA
ENDROOT
BRANCH   1  12
ATOM     12  C   UNL     1      10.259  29.494  -2.643  1.00  0.00     0.025 A 
ATOM     13  C   UNL     1      10.188  28.242  -2.012  1.00  0.00     0.016 A 
ATOM     14  C   UNL     1       9.715  28.136  -0.702  1.00  0.00     0.051 A 
ATOM     15  C   UNL     1       9.323  29.281   0.004  1.00  0.00     0.157 A 
ATOM     16  C   UNL     1       9.885  30.645  -1.925  1.00  0.00     0.062 A 
ATOM     17  C   UNL     1       9.413  30.541  -0.611  1.00  0.00     0.158 A 
BRANCH  15  18
ATOM     18  O   UNL     1       8.850  29.173   1.310  1.00  0.00    -0.504 OA
ATOM     19  H   UNL     1       8.061  28.580   1.542  1.00  0.00     0.293 HD
ENDBRANCH  15  18
BRANCH  17  20
ATOM     20  O   UNL     1       9.043  31.703   0.068  1.00  0.00    -0.504 OA
ATOM     21  H   UNL     1       8.345  32.340  -0.296  1.00  0.00     0.293 HD
ENDBRANCH  17  20
ENDBRANCH   1  12
BRANCH   2  22
ATOM     22  O   UNL     1       8.547  29.702  -4.976  1.00  0.00    -0.502 OA
ATOM     23  H   UNL     1       7.977  30.520  -5.154  1.00  0.00     0.293 HD
ENDBRANCH   2  22
BRANCH   6  24
ATOM     24  O   UNL     1      11.833  29.996  -8.997  1.00  0.00    -0.507 OA
ATOM     25  H   UNL     1      11.497  29.198  -9.521  1.00  0.00     0.293 HD
ENDBRANCH   6  24
BRANCH   8  26
ATOM     26  O   UNL     1      16.109  29.565  -6.768  1.00  0.00    -0.508 OA
ATOM     27  H   UNL     1      16.607  29.672  -7.643  1.00  0.00     0.293 HD
ENDBRANCH   8  26
TORSDOF 6
ENDMDL
MODEL 9
REMARK VINA RESULT:    -6.081      1.781      3.354
REMARK INTER + INTRA:          -7.466
REMARK INTER:                  -7.413
REMARK INTRA:                  -0.053
REMARK UNBOUND:                -0.140
REMARK SMILES O=c1c(O)c(-c2ccc(O)c(O)c2)oc2cc(O)cc(O)c12
REMARK SMILES IDX 5 1 3 2 2 3 1 4 22 5 20 6 19 7 17 8 16 9 15 10 14 11 6 12
REMARK SMILES IDX 7 13 8 14 9 15 13 16 11 17 10 18 12 20 4 22 21 24 18 26
REMARK H PARENT 10 19 12 21 4 23 21 25 18 27
REMARK Flexibility Score: inf
ROOT
ATOM      1  C   UNL     1      12.556  30.083  -6.110  1.00  0.00     0.180 A 
ATOM      2  C   UNL     1      12.609  29.650  -4.771  1.00  0.00     0.208 A 
ATOM      3  C   UNL     1      11.689  30.176  -3.851  1.00  0.00     0.238 A 
ATOM      4  O   UNL     1      11.735  29.803  -2.646  1.00  0.00    -0.285 OA
ATOM      5  C   UNL     1      10.723  31.106  -4.285  1.00  0.00     0.111 A 
ATOM      6  C   UNL     1       9.758  31.679  -3.422  1.00  0.00     0.134 A 
ATOM      7  C   UNL     1       8.823  32.592  -3.933  1.00  0.00     0.093 A 
ATOM      8  C   UNL     1       8.835  32.940  -5.289  1.00  0.00     0.123 A 
ATOM      9  C   UNL     1       9.784  32.377  -6.143  1.00  0.00     0.094 A 
ATOM     10  C   UNL     1      10.725  31.467  -5.652  1.00  0.00     0.146 A 
ATOM     11  O   UNL     1      11.621  30.951  -6.486  1.00  0.00    -0.452 OA
ENDROOT
BRANCH   1  12
ATOM     12  C   UNL     1      13.504  29.590  -7.134  1.00  0.00     0.025 A 
ATOM     13  C   UNL     1      13.009  29.110  -8.357  1.00  0.00     0.016 A 
ATOM     14  C   UNL     1      13.885  28.658  -9.347  1.00  0.00     0.051 A 
ATOM     15  C   UNL     1      15.270  28.695  -9.136  1.00  0.00     0.157 A 
ATOM     16  C   UNL     1      14.895  29.646  -6.934  1.00  0.00     0.062 A 
ATOM     17  C   UNL     1      15.776  29.196  -7.925  1.00  0.00     0.158 A 
BRANCH  15  18
ATOM     18  O   UNL     1      16.142  28.243 -10.124  1.00  0.00    -0.504 OA
ATOM     19  H   UNL     1      16.213  28.706 -11.023  1.00  0.00     0.293 HD
ENDBRANCH  15  18
BRANCH  17  20
ATOM     20  O   UNL     1      17.149  29.260  -7.688  1.00  0.00    -0.504 OA
ATOM     21  H   UNL     1      17.813  28.716  -8.226  1.00  0.00     0.293 HD
ENDBRANCH  17  20
ENDBRANCH   1  12
BRANCH   2  22
ATOM     22  O   UNL     1      13.546  28.690  -4.376  1.00  0.00    -0.502 OA
ATOM     23  H   UNL     1      14.429  28.567  -4.853  1.00  0.00     0.293 HD
ENDBRANCH   2  22
BRANCH   6  24
ATOM     24  O   UNL     1       9.721  31.352  -2.066  1.00  0.00    -0.507 OA
ATOM     25  H   UNL     1      10.079  31.979  -1.356  1.00  0.00     0.293 HD
ENDBRANCH   6  24
BRANCH   8  26
ATOM     26  O   UNL     1       7.906  33.846  -5.797  1.00  0.00    -0.508 OA
ATOM     27  H   UNL     1       7.402  34.483  -5.192  1.00  0.00     0.293 HD
ENDBRANCH   8  26
TORSDOF 6
ENDMDL
