MODEL 1
REMARK VINA RESULT:     1.675      0.000      0.000
REMARK INTER + INTRA:           2.173
REMARK INTER:                   2.655
REMARK INTRA:                  -0.482
REMARK UNBOUND:                -0.482
REMARK SMILES CCCCCCCCCCCC(=O)[O-]
REMARK SMILES IDX 7 1 8 2 9 3 10 4 11 5 12 6 13 7 14 8 6 9 5 10 4 11 3 12 2 13
REMARK SMILES IDX 1 14
REMARK H PARENT
REMARK Flexibility Score: inf
ROOT
ATOM      1  C   UNL     1      -3.047  18.703 -10.902  1.00  0.00     0.000 C 
ENDROOT
BRANCH   1   2
ATOM      2  C   UNL     1      -4.270  19.625 -10.762  1.00  0.00     0.000 C 
BRANCH   2   3
ATOM      3  C   UNL     1      -3.933  21.098 -11.049  1.00  0.00     0.000 C 
BRANCH   3   4
ATOM      4  C   UNL     1      -5.163  21.913 -11.485  1.00  0.00     0.006 C 
BRANCH   4   5
ATOM      5  C   UNL     1      -6.443  21.068 -11.499  1.00  0.00     0.053 C 
BRANCH   5   6
ATOM      6  C   UNL     1      -6.785  20.599 -12.881  1.00  0.00     0.041 C 
ATOM      7  O   UNL     1      -7.102  19.397 -13.081  1.00  0.00    -0.550 OA
ATOM      8  O   UNL     1      -6.719  21.482 -13.951  1.00  0.00    -0.550 OA
ENDBRANCH   5   6
ENDBRANCH   4   5
ENDBRANCH   3   4
ENDBRANCH   2   3
ENDBRANCH   1   2
BRANCH   1   9
ATOM      9  C   UNL     1      -3.390  17.225 -10.647  1.00  0.00     0.000 C 
BRANCH   9  10
ATOM     10  C   UNL     1      -4.894  16.936 -10.764  1.00  0.00    -0.000 C 
BRANCH  10  11
ATOM     11  C   UNL     1      -5.152  15.437 -10.963  1.00  0.00    -0.000 C 
BRANCH  11  12
ATOM     12  C   UNL     1      -3.832  14.671 -11.139  1.00  0.00    -0.000 C 
BRANCH  12  13
ATOM     13  C   UNL     1      -3.439  13.878  -9.883  1.00  0.00    -0.003 C 
ATOM     14  C   UNL     1      -1.931  13.875  -9.633  1.00  0.00     0.004 C 
ENDBRANCH  12  13
ENDBRANCH  11  12
ENDBRANCH  10  11
ENDBRANCH   9  10
ENDBRANCH   1   9
TORSDOF 10
ENDMDL
MODEL 2
REMARK VINA RESULT:     2.502      3.318      6.720
REMARK INTER + INTRA:           3.484
REMARK INTER:                   3.739
REMARK INTRA:                  -0.255
REMARK UNBOUND:                -0.482
REMARK SMILES CCCCCCCCCCCC(=O)[O-]
REMARK SMILES IDX 7 1 8 2 9 3 10 4 11 5 12 6 13 7 14 8 6 9 5 10 4 11 3 12 2 13
REMARK SMILES IDX 1 14
REMARK H PARENT
REMARK Flexibility Score: inf
ROOT
ATOM      1  C   UNL     1      -4.292  19.125 -10.767  1.00  0.00     0.000 C 
ENDROOT
BRANCH   1   2
ATOM      2  C   UNL     1      -3.014  18.270 -10.780  1.00  0.00     0.000 C 
BRANCH   2   3
ATOM      3  C   UNL     1      -3.284  16.801 -10.416  1.00  0.00     0.000 C 
BRANCH   3   4
ATOM      4  C   UNL     1      -4.486  16.213 -11.176  1.00  0.00     0.006 C 
BRANCH   4   5
ATOM      5  C   UNL     1      -4.527  14.681 -11.097  1.00  0.00     0.053 C 
BRANCH   5   6
ATOM      6  C   UNL     1      -3.495  14.145 -10.151  1.00  0.00     0.041 C 
ATOM      7  O   UNL     1      -2.328  13.906 -10.558  1.00  0.00    -0.550 OA
ATOM      8  O   UNL     1      -3.834  13.879  -8.831  1.00  0.00    -0.550 OA
ENDBRANCH   5   6
ENDBRANCH   4   5
ENDBRANCH   3   4
ENDBRANCH   2   3
ENDBRANCH   1   2
BRANCH   1   9
ATOM      9  C   UNL     1      -3.994  20.634 -10.773  1.00  0.00     0.000 C 
BRANCH   9  10
ATOM     10  C   UNL     1      -5.172  21.470 -11.295  1.00  0.00    -0.000 C 
BRANCH  10  11
ATOM     11  C   UNL     1      -6.401  20.587 -11.551  1.00  0.00    -0.000 C 
BRANCH  11  12
ATOM     12  C   UNL     1      -6.707  20.494 -13.053  1.00  0.00    -0.000 C 
BRANCH  12  13
ATOM     13  C   UNL     1      -6.328  21.774 -13.813  1.00  0.00    -0.003 C 
ATOM     14  C   UNL     1      -7.328  22.126 -14.915  1.00  0.00     0.004 C 
ENDBRANCH  12  13
ENDBRANCH  11  12
ENDBRANCH  10  11
ENDBRANCH   9  10
ENDBRANCH   1   9
TORSDOF 10
ENDMDL
MODEL 3
REMARK VINA RESULT:     3.010      3.318      6.161
REMARK INTER + INTRA:           4.288
REMARK INTER:                   4.794
REMARK INTRA:                  -0.506
REMARK UNBOUND:                -0.482
REMARK SMILES CCCCCCCCCCCC(=O)[O-]
REMARK SMILES IDX 7 1 8 2 9 3 10 4 11 5 12 6 13 7 14 8 6 9 5 10 4 11 3 12 2 13
REMARK SMILES IDX 1 14
REMARK H PARENT
REMARK Flexibility Score: inf
ROOT
ATOM      1  C   UNL     1      -4.355  19.275 -10.623  1.00  0.00     0.000 C 
ENDROOT
BRANCH   1   2
ATOM      2  C   UNL     1      -3.247  18.330 -11.119  1.00  0.00     0.000 C 
BRANCH   2   3
ATOM      3  C   UNL     1      -3.355  16.923 -10.507  1.00  0.00     0.000 C 
BRANCH   3   4
ATOM      4  C   UNL     1      -4.655  16.202 -10.902  1.00  0.00     0.006 C 
BRANCH   4   5
ATOM      5  C   UNL     1      -4.446  14.694 -11.090  1.00  0.00     0.053 C 
BRANCH   5   6
ATOM      6  C   UNL     1      -3.499  14.133 -10.073  1.00  0.00     0.041 C 
ATOM      7  O   UNL     1      -3.902  13.875  -8.908  1.00  0.00    -0.550 OA
ATOM      8  O   UNL     1      -2.166  13.928 -10.402  1.00  0.00    -0.550 OA
ENDBRANCH   5   6
ENDBRANCH   4   5
ENDBRANCH   3   4
ENDBRANCH   2   3
ENDBRANCH   1   2
BRANCH   1   9
ATOM      9  C   UNL     1      -3.968  20.757 -10.754  1.00  0.00     0.000 C 
BRANCH   9  10
ATOM     10  C   UNL     1      -5.109  21.621 -11.312  1.00  0.00    -0.000 C 
BRANCH  10  11
ATOM     11  C   UNL     1      -6.385  20.791 -11.499  1.00  0.00    -0.000 C 
BRANCH  11  12
ATOM     12  C   UNL     1      -6.730  20.639 -12.987  1.00  0.00    -0.000 C 
BRANCH  12  13
ATOM     13  C   UNL     1      -7.323  19.261 -13.318  1.00  0.00    -0.003 C 
ATOM     14  C   UNL     1      -7.107  18.240 -12.200  1.00  0.00     0.004 C 
ENDBRANCH  12  13
ENDBRANCH  11  12
ENDBRANCH  10  11
ENDBRANCH   9  10
ENDBRANCH   1   9
TORSDOF 10
ENDMDL
MODEL 4
REMARK VINA RESULT:     3.106      0.791      1.366
REMARK INTER + INTRA:           4.440
REMARK INTER:                   4.664
REMARK INTRA:                  -0.224
REMARK UNBOUND:                -0.482
REMARK SMILES CCCCCCCCCCCC(=O)[O-]
REMARK SMILES IDX 7 1 8 2 9 3 10 4 11 5 12 6 13 7 14 8 6 9 5 10 4 11 3 12 2 13
REMARK SMILES IDX 1 14
REMARK H PARENT
REMARK Flexibility Score: inf
ROOT
ATOM      1  C   UNL     1      -2.909  18.790 -10.803  1.00  0.00     0.000 C 
ENDROOT
BRANCH   1   2
ATOM      2  C   UNL     1      -4.003  19.827 -11.107  1.00  0.00     0.000 C 
BRANCH   2   3
ATOM      3  C   UNL     1      -5.418  19.284 -10.850  1.00  0.00     0.000 C 
BRANCH   3   4
ATOM      4  C   UNL     1      -6.493  20.384 -10.893  1.00  0.00     0.006 C 
BRANCH   4   5
ATOM      5  C   UNL     1      -6.188  21.450 -11.953  1.00  0.00     0.053 C 
BRANCH   5   6
ATOM      6  C   UNL     1      -6.676  21.040 -13.310  1.00  0.00     0.041 C 
ATOM      7  O   UNL     1      -6.695  21.873 -14.253  1.00  0.00    -0.550 OA
ATOM      8  O   UNL     1      -7.142  19.748 -13.521  1.00  0.00    -0.550 OA
ENDBRANCH   5   6
ENDBRANCH   4   5
ENDBRANCH   3   4
ENDBRANCH   2   3
ENDBRANCH   1   2
BRANCH   1   9
ATOM      9  C   UNL     1      -3.487  17.428 -10.383  1.00  0.00     0.000 C 
BRANCH   9  10
ATOM     10  C   UNL     1      -3.936  16.579 -11.581  1.00  0.00    -0.000 C 
BRANCH  10  11
ATOM     11  C   UNL     1      -4.958  15.518 -11.149  1.00  0.00    -0.000 C 
BRANCH  11  12
ATOM     12  C   UNL     1      -4.359  14.575 -10.096  1.00  0.00    -0.000 C 
BRANCH  12  13
ATOM     13  C   UNL     1      -3.057  13.912 -10.569  1.00  0.00    -0.003 C 
ATOM     14  C   UNL     1      -1.875  14.201  -9.643  1.00  0.00     0.004 C 
ENDBRANCH  12  13
ENDBRANCH  11  12
ENDBRANCH  10  11
ENDBRANCH   9  10
ENDBRANCH   1   9
TORSDOF 10
ENDMDL
MODEL 5
REMARK VINA RESULT:     3.373     15.186     18.484
REMARK INTER + INTRA:           4.864
REMARK INTER:                   5.364
REMARK INTRA:                  -0.500
REMARK UNBOUND:                -0.482
REMARK SMILES CCCCCCCCCCCC(=O)[O-]
REMARK SMILES IDX 7 1 8 2 9 3 10 4 11 5 12 6 13 7 14 8 6 9 5 10 4 11 3 12 2 13
REMARK SMILES IDX 1 14
REMARK H PARENT
REMARK Flexibility Score: inf
ROOT
ATOM      1  C   UNL     1     -15.019  30.495 -19.977  1.00  0.00     0.000 C 
ENDROOT
BRANCH   1   2
ATOM      2  C   UNL     1     -16.114  31.444 -19.460  1.00  0.00     0.000 C 
BRANCH   2   3
ATOM      3  C   UNL     1     -15.700  32.922 -19.543  1.00  0.00     0.000 C 
BRANCH   3   4
ATOM      4  C   UNL     1     -16.883  33.883 -19.331  1.00  0.00     0.006 C 
BRANCH   4   5
ATOM      5  C   UNL     1     -18.236  33.190 -19.543  1.00  0.00     0.053 C 
BRANCH   5   6
ATOM      6  C   UNL     1     -19.299  33.763 -18.656  1.00  0.00     0.041 C 
ATOM      7  O   UNL     1     -19.018  34.125 -17.483  1.00  0.00    -0.550 OA
ATOM      8  O   UNL     1     -20.607  33.864 -19.113  1.00  0.00    -0.550 OA
ENDBRANCH   5   6
ENDBRANCH   4   5
ENDBRANCH   3   4
ENDBRANCH   2   3
ENDBRANCH   1   2
BRANCH   1   9
ATOM      9  C   UNL     1     -14.049  30.054 -18.868  1.00  0.00     0.000 C 
BRANCH   9  10
ATOM     10  C   UNL     1     -13.277  28.776 -19.230  1.00  0.00    -0.000 C 
BRANCH  10  11
ATOM     11  C   UNL     1     -12.129  28.529 -18.242  1.00  0.00    -0.000 C 
BRANCH  11  12
ATOM     12  C   UNL     1     -12.521  27.475 -17.196  1.00  0.00    -0.000 C 
BRANCH  12  13
ATOM     13  C   UNL     1     -13.106  28.098 -15.920  1.00  0.00    -0.003 C 
ATOM     14  C   UNL     1     -14.617  27.900 -15.804  1.00  0.00     0.004 C 
ENDBRANCH  12  13
ENDBRANCH  11  12
ENDBRANCH  10  11
ENDBRANCH   9  10
ENDBRANCH   1   9
TORSDOF 10
ENDMDL
MODEL 6
REMARK VINA RESULT:     3.997      0.897      1.798
REMARK INTER + INTRA:           5.852
REMARK INTER:                   5.291
REMARK INTRA:                   0.561
REMARK UNBOUND:                -0.482
REMARK SMILES CCCCCCCCCCCC(=O)[O-]
REMARK SMILES IDX 7 1 8 2 9 3 10 4 11 5 12 6 13 7 14 8 6 9 5 10 4 11 3 12 2 13
REMARK SMILES IDX 1 14
REMARK H PARENT
REMARK Flexibility Score: inf
ROOT
ATOM      1  C   UNL     1      -3.927  18.261 -10.764  1.00  0.00     0.000 C 
ENDROOT
BRANCH   1   2
ATOM      2  C   UNL     1      -3.139  19.582 -10.756  1.00  0.00     0.000 C 
BRANCH   2   3
ATOM      3  C   UNL     1      -4.052  20.813 -10.867  1.00  0.00     0.000 C 
BRANCH   3   4
ATOM      4  C   UNL     1      -5.545  20.443 -10.926  1.00  0.00     0.006 C 
BRANCH   4   5
ATOM      5  C   UNL     1      -6.341  21.394 -11.829  1.00  0.00     0.053 C 
BRANCH   5   6
ATOM      6  C   UNL     1      -6.791  20.718 -13.089  1.00  0.00     0.041 C 
ATOM      7  O   UNL     1      -7.135  19.507 -13.069  1.00  0.00    -0.550 OA
ATOM      8  O   UNL     1      -6.795  21.416 -14.290  1.00  0.00    -0.550 OA
ENDBRANCH   5   6
ENDBRANCH   4   5
ENDBRANCH   3   4
ENDBRANCH   2   3
ENDBRANCH   1   2
BRANCH   1   9
ATOM      9  C   UNL     1      -3.026  17.037 -10.998  1.00  0.00     0.000 C 
BRANCH   9  10
ATOM     10  C   UNL     1      -2.920  16.133  -9.760  1.00  0.00    -0.000 C 
BRANCH  10  11
ATOM     11  C   UNL     1      -2.721  14.667 -10.166  1.00  0.00    -0.000 C 
BRANCH  11  12
ATOM     12  C   UNL     1      -4.071  13.957 -10.341  1.00  0.00    -0.000 C 
BRANCH  12  13
ATOM     13  C   UNL     1      -4.931  14.589 -11.445  1.00  0.00    -0.003 C 
ATOM     14  C   UNL     1      -5.884  15.660 -10.914  1.00  0.00     0.004 C 
ENDBRANCH  12  13
ENDBRANCH  11  12
ENDBRANCH  10  11
ENDBRANCH   9  10
ENDBRANCH   1   9
TORSDOF 10
ENDMDL
MODEL 7
REMARK VINA RESULT:     4.284      3.232      6.047
REMARK INTER + INTRA:           6.307
REMARK INTER:                   5.874
REMARK INTRA:                   0.433
REMARK UNBOUND:                -0.482
REMARK SMILES CCCCCCCCCCCC(=O)[O-]
REMARK SMILES IDX 7 1 8 2 9 3 10 4 11 5 12 6 13 7 14 8 6 9 5 10 4 11 3 12 2 13
REMARK SMILES IDX 1 14
REMARK H PARENT
REMARK Flexibility Score: inf
ROOT
ATOM      1  C   UNL     1      -6.806  19.045 -12.521  1.00  0.00     0.000 C 
ENDROOT
BRANCH   1   2
ATOM      2  C   UNL     1      -6.310  18.569 -11.145  1.00  0.00     0.000 C 
BRANCH   2   3
ATOM      3  C   UNL     1      -6.146  17.042 -11.073  1.00  0.00     0.000 C 
BRANCH   3   4
ATOM      4  C   UNL     1      -4.722  16.616 -10.674  1.00  0.00     0.006 C 
BRANCH   4   5
ATOM      5  C   UNL     1      -4.370  15.216 -11.192  1.00  0.00     0.053 C 
BRANCH   5   6
ATOM      6  C   UNL     1      -3.499  14.469 -10.228  1.00  0.00     0.041 C 
ATOM      7  O   UNL     1      -4.009  13.875  -9.243  1.00  0.00    -0.550 OA
ATOM      8  O   UNL     1      -2.120  14.460 -10.400  1.00  0.00    -0.550 OA
ENDBRANCH   5   6
ENDBRANCH   4   5
ENDBRANCH   3   4
ENDBRANCH   2   3
ENDBRANCH   1   2
BRANCH   1   9
ATOM      9  C   UNL     1      -6.781  20.576 -12.661  1.00  0.00     0.000 C 
BRANCH   9  10
ATOM     10  C   UNL     1      -6.374  21.284 -11.359  1.00  0.00    -0.000 C 
BRANCH  10  11
ATOM     11  C   UNL     1      -5.088  22.097 -11.555  1.00  0.00    -0.000 C 
BRANCH  11  12
ATOM     12  C   UNL     1      -3.910  21.448 -10.813  1.00  0.00    -0.000 C 
BRANCH  12  13
ATOM     13  C   UNL     1      -3.944  19.914 -10.879  1.00  0.00    -0.003 C 
ATOM     14  C   UNL     1      -2.557  19.285 -10.742  1.00  0.00     0.004 C 
ENDBRANCH  12  13
ENDBRANCH  11  12
ENDBRANCH  10  11
ENDBRANCH   9  10
ENDBRANCH   1   9
TORSDOF 10
ENDMDL
MODEL 8
REMARK VINA RESULT:     4.311     15.323     19.613
REMARK INTER + INTRA:           6.349
REMARK INTER:                   6.696
REMARK INTRA:                  -0.348
REMARK UNBOUND:                -0.482
REMARK SMILES CCCCCCCCCCCC(=O)[O-]
REMARK SMILES IDX 7 1 8 2 9 3 10 4 11 5 12 6 13 7 14 8 6 9 5 10 4 11 3 12 2 13
REMARK SMILES IDX 1 14
REMARK H PARENT
REMARK Flexibility Score: inf
ROOT
ATOM      1  C   UNL     1     -16.136  31.480 -19.442  1.00  0.00     0.000 C 
ENDROOT
BRANCH   1   2
ATOM      2  C   UNL     1     -15.002  30.548 -19.902  1.00  0.00     0.000 C 
BRANCH   2   3
ATOM      3  C   UNL     1     -14.186  29.988 -18.726  1.00  0.00     0.000 C 
BRANCH   3   4
ATOM      4  C   UNL     1     -13.141  28.948 -19.171  1.00  0.00     0.006 C 
BRANCH   4   5
ATOM      5  C   UNL     1     -12.151  28.608 -18.050  1.00  0.00     0.053 C 
BRANCH   5   6
ATOM      6  C   UNL     1     -12.732  27.633 -17.071  1.00  0.00     0.041 C 
ATOM      7  O   UNL     1     -12.717  26.399 -17.322  1.00  0.00    -0.550 OA
ATOM      8  O   UNL     1     -13.322  28.091 -15.900  1.00  0.00    -0.550 OA
ENDBRANCH   5   6
ENDBRANCH   4   5
ENDBRANCH   3   4
ENDBRANCH   2   3
ENDBRANCH   1   2
BRANCH   1   9
ATOM      9  C   UNL     1     -15.783  32.967 -19.611  1.00  0.00     0.000 C 
BRANCH   9  10
ATOM     10  C   UNL     1     -16.965  33.897 -19.297  1.00  0.00    -0.000 C 
BRANCH  10  11
ATOM     11  C   UNL     1     -18.293  33.130 -19.339  1.00  0.00    -0.000 C 
BRANCH  11  12
ATOM     12  C   UNL     1     -19.362  33.833 -18.491  1.00  0.00    -0.000 C 
BRANCH  12  13
ATOM     13  C   UNL     1     -20.752  33.796 -19.144  1.00  0.00    -0.003 C 
ATOM     14  C   UNL     1     -21.741  32.915 -18.381  1.00  0.00     0.004 C 
ENDBRANCH  12  13
ENDBRANCH  11  12
ENDBRANCH  10  11
ENDBRANCH   9  10
ENDBRANCH   1   9
TORSDOF 10
ENDMDL
