MODEL 1
REMARK VINA RESULT:    -3.397      0.000      0.000
REMARK INTER + INTRA:         -11.324
REMARK INTER:                  -7.765
REMARK INTRA:                  -3.559
REMARK UNBOUND:                -3.559
REMARK SMILES CCCCCCCCCCCCCCCCCCCCCCCC(=O)[O-]
REMARK SMILES IDX 13 1 14 2 15 3 16 4 17 5 18 6 19 7 20 8 21 9 22 10 23 11
REMARK SMILES IDX 24 12 25 13 26 14 12 15 11 16 10 17 9 18 8 19 7 20 6 21 5 22
REMARK SMILES IDX 4 23 3 24 2 25 1 26
REMARK H PARENT
REMARK Flexibility Score: inf
ROOT
ATOM      1  C   UNL     1       5.548  -3.548 -10.081  1.00  0.00     0.000 C 
ENDROOT
BRANCH   1   2
ATOM      2  C   UNL     1       6.083  -2.322  -9.323  1.00  0.00     0.000 C 
BRANCH   2   3
ATOM      3  C   UNL     1       7.442  -1.876  -9.877  1.00  0.00     0.000 C 
BRANCH   3   4
ATOM      4  C   UNL     1       8.456  -1.689  -8.738  1.00  0.00     0.000 C 
BRANCH   4   5
ATOM      5  C   UNL     1       8.193  -2.623  -7.546  1.00  0.00     0.000 C 
BRANCH   5   6
ATOM      6  C   UNL     1       9.443  -3.410  -7.121  1.00  0.00     0.000 C 
BRANCH   6   7
ATOM      7  C   UNL     1       9.936  -4.316  -8.260  1.00  0.00     0.000 C 
BRANCH   7   8
ATOM      8  C   UNL     1      10.007  -5.796  -7.856  1.00  0.00     0.000 C 
BRANCH   8   9
ATOM      9  C   UNL     1       9.592  -6.037  -6.396  1.00  0.00     0.000 C 
BRANCH   9  10
ATOM     10  C   UNL     1       9.982  -7.447  -5.938  1.00  0.00     0.006 C 
BRANCH  10  11
ATOM     11  C   UNL     1       8.882  -8.070  -5.074  1.00  0.00     0.053 C 
BRANCH  11  12
ATOM     12  C   UNL     1       8.176  -9.156  -5.823  1.00  0.00     0.041 C 
ATOM     13  O   UNL     1       8.759  -9.759  -6.764  1.00  0.00    -0.550 OA
ATOM     14  O   UNL     1       6.859  -9.473  -5.515  1.00  0.00    -0.550 OA
ENDBRANCH  11  12
ENDBRANCH  10  11
ENDBRANCH   9  10
ENDBRANCH   8   9
ENDBRANCH   7   8
ENDBRANCH   6   7
ENDBRANCH   5   6
ENDBRANCH   4   5
ENDBRANCH   3   4
ENDBRANCH   2   3
ENDBRANCH   1   2
BRANCH   1  15
ATOM     15  C   UNL     1       6.451  -4.780  -9.913  1.00  0.00     0.000 C 
BRANCH  15  16
ATOM     16  C   UNL     1       5.680  -6.008  -9.401  1.00  0.00     0.000 C 
BRANCH  16  17
ATOM     17  C   UNL     1       6.402  -6.726  -8.246  1.00  0.00     0.000 C 
BRANCH  17  18
ATOM     18  C   UNL     1       5.762  -6.523  -6.857  1.00  0.00    -0.000 C 
BRANCH  18  19
ATOM     19  C   UNL     1       6.260  -5.290  -6.074  1.00  0.00    -0.000 C 
BRANCH  19  20
ATOM     20  C   UNL     1       5.210  -4.185  -5.860  1.00  0.00    -0.000 C 
BRANCH  20  21
ATOM     21  C   UNL     1       4.123  -4.175  -6.944  1.00  0.00    -0.000 C 
BRANCH  21  22
ATOM     22  C   UNL     1       2.746  -3.876  -6.333  1.00  0.00    -0.000 C 
BRANCH  22  23
ATOM     23  C   UNL     1       2.799  -2.733  -5.295  1.00  0.00    -0.000 C 
BRANCH  23  24
ATOM     24  C   UNL     1       1.935  -2.990  -4.046  1.00  0.00    -0.000 C 
BRANCH  24  25
ATOM     25  C   UNL     1       2.568  -2.544  -2.717  1.00  0.00    -0.003 C 
ATOM     26  C   UNL     1       1.878  -3.152  -1.495  1.00  0.00     0.004 C 
ENDBRANCH  24  25
ENDBRANCH  23  24
ENDBRANCH  22  23
ENDBRANCH  21  22
ENDBRANCH  20  21
ENDBRANCH  19  20
ENDBRANCH  18  19
ENDBRANCH  17  18
ENDBRANCH  16  17
ENDBRANCH  15  16
ENDBRANCH   1  15
TORSDOF 22
ENDMDL
MODEL 2
REMARK VINA RESULT:    -3.213      2.954      4.920
REMARK INTER + INTRA:         -10.904
REMARK INTER:                  -8.262
REMARK INTRA:                  -2.642
REMARK UNBOUND:                -3.559
REMARK SMILES CCCCCCCCCCCCCCCCCCCCCCCC(=O)[O-]
REMARK SMILES IDX 13 1 14 2 15 3 16 4 17 5 18 6 19 7 20 8 21 9 22 10 23 11
REMARK SMILES IDX 24 12 25 13 26 14 12 15 11 16 10 17 9 18 8 19 7 20 6 21 5 22
REMARK SMILES IDX 4 23 3 24 2 25 1 26
REMARK H PARENT
REMARK Flexibility Score: inf
ROOT
ATOM      1  C   UNL     1       6.769  -8.243  -7.733  1.00  0.00     0.000 C 
ENDROOT
BRANCH   1   2
ATOM      2  C   UNL     1       6.078  -7.843  -6.420  1.00  0.00     0.000 C 
BRANCH   2   3
ATOM      3  C   UNL     1       6.994  -6.970  -5.553  1.00  0.00     0.000 C 
BRANCH   3   4
ATOM      4  C   UNL     1       8.442  -7.480  -5.613  1.00  0.00     0.000 C 
BRANCH   4   5
ATOM      5  C   UNL     1       9.449  -6.376  -5.968  1.00  0.00     0.000 C 
BRANCH   5   6
ATOM      6  C   UNL     1       9.971  -6.489  -7.410  1.00  0.00     0.000 C 
BRANCH   6   7
ATOM      7  C   UNL     1       9.702  -5.196  -8.195  1.00  0.00     0.000 C 
BRANCH   7   8
ATOM      8  C   UNL     1       8.425  -4.475  -7.735  1.00  0.00     0.000 C 
BRANCH   8   9
ATOM      9  C   UNL     1       8.663  -2.992  -7.406  1.00  0.00     0.000 C 
BRANCH   9  10
ATOM     10  C   UNL     1       9.219  -2.242  -8.622  1.00  0.00     0.006 C 
BRANCH  10  11
ATOM     11  C   UNL     1       8.299  -2.404  -9.836  1.00  0.00     0.053 C 
BRANCH  11  12
ATOM     12  C   UNL     1       7.395  -1.219  -9.972  1.00  0.00     0.041 C 
ATOM     13  O   UNL     1       7.879  -0.060 -10.070  1.00  0.00    -0.550 OA
ATOM     14  O   UNL     1       6.017  -1.388  -9.945  1.00  0.00    -0.550 OA
ENDBRANCH  11  12
ENDBRANCH  10  11
ENDBRANCH   9  10
ENDBRANCH   8   9
ENDBRANCH   7   8
ENDBRANCH   6   7
ENDBRANCH   5   6
ENDBRANCH   4   5
ENDBRANCH   3   4
ENDBRANCH   2   3
ENDBRANCH   1   2
BRANCH   1  15
ATOM     15  C   UNL     1       5.769  -8.704  -8.805  1.00  0.00     0.000 C 
BRANCH  15  16
ATOM     16  C   UNL     1       5.437  -7.594  -9.816  1.00  0.00     0.000 C 
BRANCH  16  17
ATOM     17  C   UNL     1       6.069  -6.240  -9.443  1.00  0.00     0.000 C 
BRANCH  17  18
ATOM     18  C   UNL     1       5.313  -5.005  -9.974  1.00  0.00    -0.000 C 
BRANCH  18  19
ATOM     19  C   UNL     1       3.877  -4.828  -9.439  1.00  0.00    -0.000 C 
BRANCH  19  20
ATOM     20  C   UNL     1       3.676  -5.219  -7.964  1.00  0.00    -0.000 C 
BRANCH  20  21
ATOM     21  C   UNL     1       4.761  -4.646  -7.041  1.00  0.00    -0.000 C 
BRANCH  21  22
ATOM     22  C   UNL     1       4.265  -3.371  -6.343  1.00  0.00    -0.000 C 
BRANCH  22  23
ATOM     23  C   UNL     1       2.852  -3.541  -5.744  1.00  0.00    -0.000 C 
BRANCH  23  24
ATOM     24  C   UNL     1       2.491  -2.470  -4.697  1.00  0.00    -0.000 C 
BRANCH  24  25
ATOM     25  C   UNL     1       2.039  -3.023  -3.334  1.00  0.00    -0.003 C 
ATOM     26  C   UNL     1       2.515  -2.168  -2.158  1.00  0.00     0.004 C 
ENDBRANCH  24  25
ENDBRANCH  23  24
ENDBRANCH  22  23
ENDBRANCH  21  22
ENDBRANCH  20  21
ENDBRANCH  19  20
ENDBRANCH  18  19
ENDBRANCH  17  18
ENDBRANCH  16  17
ENDBRANCH  15  16
ENDBRANCH   1  15
TORSDOF 22
ENDMDL
MODEL 3
REMARK VINA RESULT:    -3.167      1.171      1.832
REMARK INTER + INTRA:         -10.799
REMARK INTER:                  -7.808
REMARK INTRA:                  -2.991
REMARK UNBOUND:                -3.559
REMARK SMILES CCCCCCCCCCCCCCCCCCCCCCCC(=O)[O-]
REMARK SMILES IDX 13 1 14 2 15 3 16 4 17 5 18 6 19 7 20 8 21 9 22 10 23 11
REMARK SMILES IDX 24 12 25 13 26 14 12 15 11 16 10 17 9 18 8 19 7 20 6 21 5 22
REMARK SMILES IDX 4 23 3 24 2 25 1 26
REMARK H PARENT
REMARK Flexibility Score: inf
ROOT
ATOM      1  C   UNL     1       6.004  -3.200  -9.841  1.00  0.00     0.000 C 
ENDROOT
BRANCH   1   2
ATOM      2  C   UNL     1       6.849  -1.923  -9.706  1.00  0.00     0.000 C 
BRANCH   2   3
ATOM      3  C   UNL     1       8.348  -2.243  -9.743  1.00  0.00     0.000 C 
BRANCH   3   4
ATOM      4  C   UNL     1       9.009  -1.901  -8.398  1.00  0.00     0.000 C 
BRANCH   4   5
ATOM      5  C   UNL     1       9.564  -3.137  -7.675  1.00  0.00     0.000 C 
BRANCH   5   6
ATOM      6  C   UNL     1      10.117  -4.194  -8.644  1.00  0.00     0.000 C 
BRANCH   6   7
ATOM      7  C   UNL     1      10.106  -5.589  -8.000  1.00  0.00     0.000 C 
BRANCH   7   8
ATOM      8  C   UNL     1       9.660  -5.563  -6.530  1.00  0.00     0.000 C 
BRANCH   8   9
ATOM      9  C   UNL     1       8.451  -6.472  -6.257  1.00  0.00     0.000 C 
BRANCH   9  10
ATOM     10  C   UNL     1       8.883  -7.768  -5.562  1.00  0.00     0.006 C 
BRANCH  10  11
ATOM     11  C   UNL     1       8.679  -8.978  -6.479  1.00  0.00     0.053 C 
BRANCH  11  12
ATOM     12  C   UNL     1       7.255  -9.436  -6.438  1.00  0.00     0.041 C 
ATOM     13  O   UNL     1       6.559  -9.438  -7.488  1.00  0.00    -0.550 OA
ATOM     14  O   UNL     1       6.680  -9.815  -5.231  1.00  0.00    -0.550 OA
ENDBRANCH  11  12
ENDBRANCH  10  11
ENDBRANCH   9  10
ENDBRANCH   8   9
ENDBRANCH   7   8
ENDBRANCH   6   7
ENDBRANCH   5   6
ENDBRANCH   4   5
ENDBRANCH   3   4
ENDBRANCH   2   3
ENDBRANCH   1   2
BRANCH   1  15
ATOM     15  C   UNL     1       6.863  -4.445 -10.112  1.00  0.00     0.000 C 
BRANCH  15  16
ATOM     16  C   UNL     1       6.566  -5.591  -9.130  1.00  0.00     0.000 C 
BRANCH  16  17
ATOM     17  C   UNL     1       5.819  -6.764  -9.791  1.00  0.00     0.000 C 
BRANCH  17  18
ATOM     18  C   UNL     1       4.326  -6.873  -9.419  1.00  0.00    -0.000 C 
BRANCH  18  19
ATOM     19  C   UNL     1       3.406  -5.814 -10.060  1.00  0.00    -0.000 C 
BRANCH  19  20
ATOM     20  C   UNL     1       2.986  -4.663  -9.129  1.00  0.00    -0.000 C 
BRANCH  20  21
ATOM     21  C   UNL     1       3.175  -4.997  -7.643  1.00  0.00    -0.000 C 
BRANCH  21  22
ATOM     22  C   UNL     1       4.103  -3.976  -6.968  1.00  0.00    -0.000 C 
BRANCH  22  23
ATOM     23  C   UNL     1       3.326  -2.951  -6.114  1.00  0.00    -0.000 C 
BRANCH  23  24
ATOM     24  C   UNL     1       3.156  -3.375  -4.642  1.00  0.00    -0.000 C 
BRANCH  24  25
ATOM     25  C   UNL     1       2.221  -2.476  -3.814  1.00  0.00    -0.003 C 
ATOM     26  C   UNL     1       2.209  -2.839  -2.328  1.00  0.00     0.004 C 
ENDBRANCH  24  25
ENDBRANCH  23  24
ENDBRANCH  22  23
ENDBRANCH  21  22
ENDBRANCH  20  21
ENDBRANCH  19  20
ENDBRANCH  18  19
ENDBRANCH  17  18
ENDBRANCH  16  17
ENDBRANCH  15  16
ENDBRANCH   1  15
TORSDOF 22
ENDMDL
MODEL 4
REMARK VINA RESULT:    -2.853      3.125      5.891
REMARK INTER + INTRA:         -10.080
REMARK INTER:                  -6.481
REMARK INTRA:                  -3.599
REMARK UNBOUND:                -3.559
REMARK SMILES CCCCCCCCCCCCCCCCCCCCCCCC(=O)[O-]
REMARK SMILES IDX 13 1 14 2 15 3 16 4 17 5 18 6 19 7 20 8 21 9 22 10 23 11
REMARK SMILES IDX 24 12 25 13 26 14 12 15 11 16 10 17 9 18 8 19 7 20 6 21 5 22
REMARK SMILES IDX 4 23 3 24 2 25 1 26
REMARK H PARENT
REMARK Flexibility Score: inf
ROOT
ATOM      1  C   UNL     1       5.137  -7.796  -9.104  1.00  0.00     0.000 C 
ENDROOT
BRANCH   1   2
ATOM      2  C   UNL     1       5.247  -9.326  -9.198  1.00  0.00     0.000 C 
BRANCH   2   3
ATOM      3  C   UNL     1       6.400  -9.745 -10.118  1.00  0.00     0.000 C 
BRANCH   3   4
ATOM      4  C   UNL     1       7.649 -10.097  -9.294  1.00  0.00     0.000 C 
BRANCH   4   5
ATOM      5  C   UNL     1       8.958  -9.767 -10.026  1.00  0.00     0.000 C 
BRANCH   5   6
ATOM      6  C   UNL     1       9.309  -8.271  -9.970  1.00  0.00     0.000 C 
BRANCH   6   7
ATOM      7  C   UNL     1       9.567  -7.820  -8.525  1.00  0.00     0.000 C 
BRANCH   7   8
ATOM      8  C   UNL     1       9.917  -6.327  -8.420  1.00  0.00     0.000 C 
BRANCH   8   9
ATOM      9  C   UNL     1       8.777  -5.413  -8.897  1.00  0.00     0.000 C 
BRANCH   9  10
ATOM     10  C   UNL     1       9.329  -4.180  -9.622  1.00  0.00     0.006 C 
BRANCH  10  11
ATOM     11  C   UNL     1       8.346  -3.008  -9.541  1.00  0.00     0.053 C 
BRANCH  11  12
ATOM     12  C   UNL     1       8.976  -1.839  -8.850  1.00  0.00     0.041 C 
ATOM     13  O   UNL     1      10.010  -2.001  -8.148  1.00  0.00    -0.550 OA
ATOM     14  O   UNL     1       8.397  -0.580  -8.943  1.00  0.00    -0.550 OA
ENDBRANCH  11  12
ENDBRANCH  10  11
ENDBRANCH   9  10
ENDBRANCH   8   9
ENDBRANCH   7   8
ENDBRANCH   6   7
ENDBRANCH   5   6
ENDBRANCH   4   5
ENDBRANCH   3   4
ENDBRANCH   2   3
ENDBRANCH   1   2
BRANCH   1  15
ATOM     15  C   UNL     1       3.735  -7.285  -9.474  1.00  0.00     0.000 C 
BRANCH  15  16
ATOM     16  C   UNL     1       3.760  -5.853 -10.034  1.00  0.00     0.000 C 
BRANCH  16  17
ATOM     17  C   UNL     1       5.006  -5.064  -9.595  1.00  0.00     0.000 C 
BRANCH  17  18
ATOM     18  C   UNL     1       4.795  -3.541  -9.463  1.00  0.00    -0.000 C 
BRANCH  18  19
ATOM     19  C   UNL     1       4.811  -2.995  -8.021  1.00  0.00    -0.000 C 
BRANCH  19  20
ATOM     20  C   UNL     1       4.158  -3.909  -6.968  1.00  0.00    -0.000 C 
BRANCH  20  21
ATOM     21  C   UNL     1       5.069  -4.178  -5.762  1.00  0.00    -0.000 C 
BRANCH  21  22
ATOM     22  C   UNL     1       6.313  -4.973  -6.185  1.00  0.00    -0.000 C 
BRANCH  22  23
ATOM     23  C   UNL     1       6.553  -6.207  -5.288  1.00  0.00    -0.000 C 
BRANCH  23  24
ATOM     24  C   UNL     1       6.775  -7.512  -6.077  1.00  0.00    -0.000 C 
BRANCH  24  25
ATOM     25  C   UNL     1       7.840  -8.452  -5.487  1.00  0.00    -0.003 C 
ATOM     26  C   UNL     1       9.004  -7.701  -4.839  1.00  0.00     0.004 C 
ENDBRANCH  24  25
ENDBRANCH  23  24
ENDBRANCH  22  23
ENDBRANCH  21  22
ENDBRANCH  20  21
ENDBRANCH  19  20
ENDBRANCH  18  19
ENDBRANCH  17  18
ENDBRANCH  16  17
ENDBRANCH  15  16
ENDBRANCH   1  15
TORSDOF 22
ENDMDL
MODEL 5
REMARK VINA RESULT:    -2.787      2.922      6.525
REMARK INTER + INTRA:          -9.929
REMARK INTER:                  -6.820
REMARK INTRA:                  -3.109
REMARK UNBOUND:                -3.559
REMARK SMILES CCCCCCCCCCCCCCCCCCCCCCCC(=O)[O-]
REMARK SMILES IDX 13 1 14 2 15 3 16 4 17 5 18 6 19 7 20 8 21 9 22 10 23 11
REMARK SMILES IDX 24 12 25 13 26 14 12 15 11 16 10 17 9 18 8 19 7 20 6 21 5 22
REMARK SMILES IDX 4 23 3 24 2 25 1 26
REMARK H PARENT
REMARK Flexibility Score: inf
ROOT
ATOM      1  C   UNL     1       7.693  -2.423  -9.753  1.00  0.00     0.000 C 
ENDROOT
BRANCH   1   2
ATOM      2  C   UNL     1       6.285  -2.865  -9.321  1.00  0.00     0.000 C 
BRANCH   2   3
ATOM      3  C   UNL     1       5.216  -1.896  -9.839  1.00  0.00     0.000 C 
BRANCH   3   4
ATOM      4  C   UNL     1       3.902  -2.641 -10.125  1.00  0.00     0.000 C 
BRANCH   4   5
ATOM      5  C   UNL     1       3.979  -4.137  -9.785  1.00  0.00     0.000 C 
BRANCH   5   6
ATOM      6  C   UNL     1       2.885  -4.579  -8.800  1.00  0.00     0.000 C 
BRANCH   6   7
ATOM      7  C   UNL     1       3.500  -5.090  -7.488  1.00  0.00     0.000 C 
BRANCH   7   8
ATOM      8  C   UNL     1       4.668  -4.219  -6.999  1.00  0.00     0.000 C 
BRANCH   8   9
ATOM      9  C   UNL     1       4.399  -3.575  -5.629  1.00  0.00     0.000 C 
BRANCH   9  10
ATOM     10  C   UNL     1       2.903  -3.593  -5.298  1.00  0.00     0.006 C 
BRANCH  10  11
ATOM     11  C   UNL     1       2.494  -2.333  -4.528  1.00  0.00     0.053 C 
BRANCH  11  12
ATOM     12  C   UNL     1       2.167  -2.669  -3.106  1.00  0.00     0.041 C 
ATOM     13  O   UNL     1       1.360  -3.601  -2.845  1.00  0.00    -0.550 OA
ATOM     14  O   UNL     1       2.716  -1.924  -2.070  1.00  0.00    -0.550 OA
ENDBRANCH  11  12
ENDBRANCH  10  11
ENDBRANCH   9  10
ENDBRANCH   8   9
ENDBRANCH   7   8
ENDBRANCH   6   7
ENDBRANCH   5   6
ENDBRANCH   4   5
ENDBRANCH   3   4
ENDBRANCH   2   3
ENDBRANCH   1   2
BRANCH   1  15
ATOM     15  C   UNL     1       8.597  -2.092  -8.555  1.00  0.00     0.000 C 
BRANCH  15  16
ATOM     16  C   UNL     1       8.039  -2.636  -7.229  1.00  0.00     0.000 C 
BRANCH  16  17
ATOM     17  C   UNL     1       8.787  -3.888  -6.737  1.00  0.00     0.000 C 
BRANCH  17  18
ATOM     18  C   UNL     1      10.019  -4.278  -7.579  1.00  0.00    -0.000 C 
BRANCH  18  19
ATOM     19  C   UNL     1      10.006  -5.715  -8.142  1.00  0.00    -0.000 C 
BRANCH  19  20
ATOM     20  C   UNL     1       9.172  -5.907  -9.421  1.00  0.00    -0.000 C 
BRANCH  20  21
ATOM     21  C   UNL     1       7.954  -6.817  -9.209  1.00  0.00    -0.000 C 
BRANCH  21  22
ATOM     22  C   UNL     1       8.389  -8.281  -9.044  1.00  0.00    -0.000 C 
BRANCH  22  23
ATOM     23  C   UNL     1       7.636  -8.991  -7.899  1.00  0.00    -0.000 C 
BRANCH  23  24
ATOM     24  C   UNL     1       8.223  -8.707  -6.502  1.00  0.00    -0.000 C 
BRANCH  24  25
ATOM     25  C   UNL     1       7.637  -7.473  -5.793  1.00  0.00    -0.003 C 
ATOM     26  C   UNL     1       6.122  -7.352  -5.963  1.00  0.00     0.004 C 
ENDBRANCH  24  25
ENDBRANCH  23  24
ENDBRANCH  22  23
ENDBRANCH  21  22
ENDBRANCH  20  21
ENDBRANCH  19  20
ENDBRANCH  18  19
ENDBRANCH  17  18
ENDBRANCH  16  17
ENDBRANCH  15  16
ENDBRANCH   1  15
TORSDOF 22
ENDMDL
MODEL 6
REMARK VINA RESULT:    -2.756      2.905      6.818
REMARK INTER + INTRA:          -9.858
REMARK INTER:                  -6.811
REMARK INTRA:                  -3.047
REMARK UNBOUND:                -3.559
REMARK SMILES CCCCCCCCCCCCCCCCCCCCCCCC(=O)[O-]
REMARK SMILES IDX 13 1 14 2 15 3 16 4 17 5 18 6 19 7 20 8 21 9 22 10 23 11
REMARK SMILES IDX 24 12 25 13 26 14 12 15 11 16 10 17 9 18 8 19 7 20 6 21 5 22
REMARK SMILES IDX 4 23 3 24 2 25 1 26
REMARK H PARENT
REMARK Flexibility Score: inf
ROOT
ATOM      1  C   UNL     1       4.345  -4.446 -10.093  1.00  0.00     0.000 C 
ENDROOT
BRANCH   1   2
ATOM      2  C   UNL     1       3.195  -5.425  -9.811  1.00  0.00     0.000 C 
BRANCH   2   3
ATOM      3  C   UNL     1       3.724  -6.835  -9.524  1.00  0.00     0.000 C 
BRANCH   3   4
ATOM      4  C   UNL     1       5.167  -6.776  -8.999  1.00  0.00     0.000 C 
BRANCH   4   5
ATOM      5  C   UNL     1       5.241  -6.670  -7.468  1.00  0.00     0.000 C 
BRANCH   5   6
ATOM      6  C   UNL     1       6.165  -5.536  -6.995  1.00  0.00     0.000 C 
BRANCH   6   7
ATOM      7  C   UNL     1       5.607  -4.862  -5.733  1.00  0.00     0.000 C 
BRANCH   7   8
ATOM      8  C   UNL     1       4.864  -3.551  -6.036  1.00  0.00     0.000 C 
BRANCH   8   9
ATOM      9  C   UNL     1       3.340  -3.678  -5.875  1.00  0.00     0.000 C 
BRANCH   9  10
ATOM     10  C   UNL     1       2.787  -2.557  -4.987  1.00  0.00     0.006 C 
BRANCH  10  11
ATOM     11  C   UNL     1       1.814  -3.112  -3.942  1.00  0.00     0.053 C 
BRANCH  11  12
ATOM     12  C   UNL     1       2.261  -2.747  -2.561  1.00  0.00     0.041 C 
ATOM     13  O   UNL     1       3.068  -1.796  -2.387  1.00  0.00    -0.550 OA
ATOM     14  O   UNL     1       1.823  -3.486  -1.470  1.00  0.00    -0.550 OA
ENDBRANCH  11  12
ENDBRANCH  10  11
ENDBRANCH   9  10
ENDBRANCH   8   9
ENDBRANCH   7   8
ENDBRANCH   6   7
ENDBRANCH   5   6
ENDBRANCH   4   5
ENDBRANCH   3   4
ENDBRANCH   2   3
ENDBRANCH   1   2
BRANCH   1  15
ATOM     15  C   UNL     1       3.938  -2.981  -9.864  1.00  0.00     0.000 C 
BRANCH  15  16
ATOM     16  C   UNL     1       5.145  -2.028  -9.863  1.00  0.00     0.000 C 
BRANCH  16  17
ATOM     17  C   UNL     1       6.492  -2.773  -9.858  1.00  0.00     0.000 C 
BRANCH  17  18
ATOM     18  C   UNL     1       7.246  -2.740  -8.513  1.00  0.00    -0.000 C 
BRANCH  18  19
ATOM     19  C   UNL     1       8.485  -1.822  -8.472  1.00  0.00    -0.000 C 
BRANCH  19  20
ATOM     20  C   UNL     1       9.824  -2.519  -8.774  1.00  0.00    -0.000 C 
BRANCH  20  21
ATOM     21  C   UNL     1      10.117  -3.689  -7.824  1.00  0.00    -0.000 C 
BRANCH  21  22
ATOM     22  C   UNL     1       9.744  -5.028  -8.477  1.00  0.00    -0.000 C 
BRANCH  22  23
ATOM     23  C   UNL     1       9.853  -6.212  -7.491  1.00  0.00    -0.000 C 
BRANCH  23  24
ATOM     24  C   UNL     1       8.994  -7.428  -7.888  1.00  0.00    -0.000 C 
BRANCH  24  25
ATOM     25  C   UNL     1       8.902  -8.531  -6.819  1.00  0.00    -0.003 C 
ATOM     26  C   UNL     1       8.344  -8.025  -5.488  1.00  0.00     0.004 C 
ENDBRANCH  24  25
ENDBRANCH  23  24
ENDBRANCH  22  23
ENDBRANCH  21  22
ENDBRANCH  20  21
ENDBRANCH  19  20
ENDBRANCH  18  19
ENDBRANCH  17  18
ENDBRANCH  16  17
ENDBRANCH  15  16
ENDBRANCH   1  15
TORSDOF 22
ENDMDL
MODEL 7
REMARK VINA RESULT:    -2.702      1.397      2.355
REMARK INTER + INTRA:          -9.736
REMARK INTER:                  -6.807
REMARK INTRA:                  -2.929
REMARK UNBOUND:                -3.559
REMARK SMILES CCCCCCCCCCCCCCCCCCCCCCCC(=O)[O-]
REMARK SMILES IDX 13 1 14 2 15 3 16 4 17 5 18 6 19 7 20 8 21 9 22 10 23 11
REMARK SMILES IDX 24 12 25 13 26 14 12 15 11 16 10 17 9 18 8 19 7 20 6 21 5 22
REMARK SMILES IDX 4 23 3 24 2 25 1 26
REMARK H PARENT
REMARK Flexibility Score: inf
ROOT
ATOM      1  C   UNL     1       4.112  -5.145 -10.030  1.00  0.00     0.000 C 
ENDROOT
BRANCH   1   2
ATOM      2  C   UNL     1       3.343  -3.836  -9.793  1.00  0.00     0.000 C 
BRANCH   2   3
ATOM      3  C   UNL     1       4.290  -2.629  -9.783  1.00  0.00     0.000 C 
BRANCH   3   4
ATOM      4  C   UNL     1       5.742  -3.079 -10.009  1.00  0.00     0.000 C 
BRANCH   4   5
ATOM      5  C   UNL     1       6.637  -2.841  -8.784  1.00  0.00     0.000 C 
BRANCH   5   6
ATOM      6  C   UNL     1       7.748  -1.812  -9.050  1.00  0.00     0.000 C 
BRANCH   6   7
ATOM      7  C   UNL     1       8.981  -2.484  -9.673  1.00  0.00     0.000 C 
BRANCH   7   8
ATOM      8  C   UNL     1       9.984  -2.981  -8.620  1.00  0.00     0.000 C 
BRANCH   8   9
ATOM      9  C   UNL     1       9.527  -4.274  -7.925  1.00  0.00     0.000 C 
BRANCH   9  10
ATOM     10  C   UNL     1      10.125  -5.508  -8.612  1.00  0.00     0.006 C 
BRANCH  10  11
ATOM     11  C   UNL     1       9.186  -6.712  -8.496  1.00  0.00     0.053 C 
BRANCH  11  12
ATOM     12  C   UNL     1       9.519  -7.524  -7.283  1.00  0.00     0.041 C 
ATOM     13  O   UNL     1       9.673  -6.961  -6.166  1.00  0.00    -0.550 OA
ATOM     14  O   UNL     1       9.705  -8.896  -7.393  1.00  0.00    -0.550 OA
ENDBRANCH  11  12
ENDBRANCH  10  11
ENDBRANCH   9  10
ENDBRANCH   8   9
ENDBRANCH   7   8
ENDBRANCH   6   7
ENDBRANCH   5   6
ENDBRANCH   4   5
ENDBRANCH   3   4
ENDBRANCH   2   3
ENDBRANCH   1   2
BRANCH   1  15
ATOM     15  C   UNL     1       3.377  -6.368  -9.460  1.00  0.00     0.000 C 
BRANCH  15  16
ATOM     16  C   UNL     1       4.337  -7.508  -9.080  1.00  0.00     0.000 C 
BRANCH  16  17
ATOM     17  C   UNL     1       5.640  -6.999  -8.437  1.00  0.00     0.000 C 
BRANCH  17  18
ATOM     18  C   UNL     1       5.613  -6.914  -6.897  1.00  0.00    -0.000 C 
BRANCH  18  19
ATOM     19  C   UNL     1       6.447  -5.771  -6.283  1.00  0.00    -0.000 C 
BRANCH  19  20
ATOM     20  C   UNL     1       5.636  -4.554  -5.803  1.00  0.00    -0.000 C 
BRANCH  20  21
ATOM     21  C   UNL     1       4.215  -4.517  -6.382  1.00  0.00    -0.000 C 
BRANCH  21  22
ATOM     22  C   UNL     1       3.587  -3.128  -6.199  1.00  0.00    -0.000 C 
BRANCH  22  23
ATOM     23  C   UNL     1       2.408  -3.143  -5.202  1.00  0.00    -0.000 C 
BRANCH  23  24
ATOM     24  C   UNL     1       2.760  -2.562  -3.819  1.00  0.00    -0.000 C 
BRANCH  24  25
ATOM     25  C   UNL     1       1.885  -3.071  -2.660  1.00  0.00    -0.003 C 
ATOM     26  C   UNL     1       1.898  -2.137  -1.449  1.00  0.00     0.004 C 
ENDBRANCH  24  25
ENDBRANCH  23  24
ENDBRANCH  22  23
ENDBRANCH  21  22
ENDBRANCH  20  21
ENDBRANCH  19  20
ENDBRANCH  18  19
ENDBRANCH  17  18
ENDBRANCH  16  17
ENDBRANCH  15  16
ENDBRANCH   1  15
TORSDOF 22
ENDMDL
MODEL 8
REMARK VINA RESULT:    -2.538      2.420      5.101
REMARK INTER + INTRA:          -9.361
REMARK INTER:                  -5.912
REMARK INTRA:                  -3.449
REMARK UNBOUND:                -3.559
REMARK SMILES CCCCCCCCCCCCCCCCCCCCCCCC(=O)[O-]
REMARK SMILES IDX 13 1 14 2 15 3 16 4 17 5 18 6 19 7 20 8 21 9 22 10 23 11
REMARK SMILES IDX 24 12 25 13 26 14 12 15 11 16 10 17 9 18 8 19 7 20 6 21 5 22
REMARK SMILES IDX 4 23 3 24 2 25 1 26
REMARK H PARENT
REMARK Flexibility Score: inf
ROOT
ATOM      1  C   UNL     1       4.652  -3.866  -7.715  1.00  0.00     0.000 C 
ENDROOT
BRANCH   1   2
ATOM      2  C   UNL     1       3.464  -4.822  -7.902  1.00  0.00     0.000 C 
BRANCH   2   3
ATOM      3  C   UNL     1       3.936  -6.220  -8.322  1.00  0.00     0.000 C 
BRANCH   3   4
ATOM      4  C   UNL     1       4.941  -6.126  -9.481  1.00  0.00     0.000 C 
BRANCH   4   5
ATOM      5  C   UNL     1       5.312  -7.499 -10.061  1.00  0.00     0.000 C 
BRANCH   5   6
ATOM      6  C   UNL     1       5.163  -8.637  -9.038  1.00  0.00     0.000 C 
BRANCH   6   7
ATOM      7  C   UNL     1       6.537  -9.163  -8.597  1.00  0.00     0.000 C 
BRANCH   7   8
ATOM      8  C   UNL     1       7.692  -8.581  -9.428  1.00  0.00     0.000 C 
BRANCH   8   9
ATOM      9  C   UNL     1       8.999  -9.375  -9.270  1.00  0.00     0.000 C 
BRANCH   9  10
ATOM     10  C   UNL     1       9.029 -10.125  -7.934  1.00  0.00     0.006 C 
BRANCH  10  11
ATOM     11  C   UNL     1       9.602  -9.243  -6.820  1.00  0.00     0.053 C 
BRANCH  11  12
ATOM     12  C   UNL     1       9.230  -9.785  -5.475  1.00  0.00     0.041 C 
ATOM     13  O   UNL     1      10.125 -10.036  -4.624  1.00  0.00    -0.550 OA
ATOM     14  O   UNL     1       7.902 -10.058  -5.178  1.00  0.00    -0.550 OA
ENDBRANCH  11  12
ENDBRANCH  10  11
ENDBRANCH   9  10
ENDBRANCH   8   9
ENDBRANCH   7   8
ENDBRANCH   6   7
ENDBRANCH   5   6
ENDBRANCH   4   5
ENDBRANCH   3   4
ENDBRANCH   2   3
ENDBRANCH   1   2
BRANCH   1  15
ATOM     15  C   UNL     1       4.392  -2.481  -8.328  1.00  0.00     0.000 C 
BRANCH  15  16
ATOM     16  C   UNL     1       5.083  -2.301  -9.691  1.00  0.00     0.000 C 
BRANCH  16  17
ATOM     17  C   UNL     1       6.515  -2.864  -9.711  1.00  0.00     0.000 C 
BRANCH  17  18
ATOM     18  C   UNL     1       7.626  -1.803  -9.847  1.00  0.00    -0.000 C 
BRANCH  18  19
ATOM     19  C   UNL     1       8.574  -1.679  -8.637  1.00  0.00    -0.000 C 
BRANCH  19  20
ATOM     20  C   UNL     1       8.318  -2.686  -7.501  1.00  0.00    -0.000 C 
BRANCH  20  21
ATOM     21  C   UNL     1       9.597  -3.390  -7.027  1.00  0.00    -0.000 C 
BRANCH  21  22
ATOM     22  C   UNL     1       9.932  -4.582  -7.935  1.00  0.00    -0.000 C 
BRANCH  22  23
ATOM     23  C   UNL     1       8.709  -5.492  -8.185  1.00  0.00    -0.000 C 
BRANCH  23  24
ATOM     24  C   UNL     1       7.606  -5.352  -7.119  1.00  0.00    -0.000 C 
BRANCH  24  25
ATOM     25  C   UNL     1       7.685  -6.369  -5.967  1.00  0.00    -0.003 C 
ATOM     26  C   UNL     1       6.328  -6.985  -5.623  1.00  0.00     0.004 C 
ENDBRANCH  24  25
ENDBRANCH  23  24
ENDBRANCH  22  23
ENDBRANCH  21  22
ENDBRANCH  20  21
ENDBRANCH  19  20
ENDBRANCH  18  19
ENDBRANCH  17  18
ENDBRANCH  16  17
ENDBRANCH  15  16
ENDBRANCH   1  15
TORSDOF 22
ENDMDL
MODEL 9
REMARK VINA RESULT:    -2.387      1.492      2.423
REMARK INTER + INTRA:          -9.016
REMARK INTER:                  -6.262
REMARK INTRA:                  -2.754
REMARK UNBOUND:                -3.559
REMARK SMILES CCCCCCCCCCCCCCCCCCCCCCCC(=O)[O-]
REMARK SMILES IDX 13 1 14 2 15 3 16 4 17 5 18 6 19 7 20 8 21 9 22 10 23 11
REMARK SMILES IDX 24 12 25 13 26 14 12 15 11 16 10 17 9 18 8 19 7 20 6 21 5 22
REMARK SMILES IDX 4 23 3 24 2 25 1 26
REMARK H PARENT
REMARK Flexibility Score: inf
ROOT
ATOM      1  C   UNL     1       6.469  -1.891 -10.004  1.00  0.00     0.000 C 
ENDROOT
BRANCH   1   2
ATOM      2  C   UNL     1       7.207  -2.378  -8.746  1.00  0.00     0.000 C 
BRANCH   2   3
ATOM      3  C   UNL     1       8.589  -1.725  -8.625  1.00  0.00     0.000 C 
BRANCH   3   4
ATOM      4  C   UNL     1       9.648  -2.767  -8.234  1.00  0.00     0.000 C 
BRANCH   4   5
ATOM      5  C   UNL     1       9.170  -4.212  -8.445  1.00  0.00     0.000 C 
BRANCH   5   6
ATOM      6  C   UNL     1       9.482  -4.741  -9.854  1.00  0.00     0.000 C 
BRANCH   6   7
ATOM      7  C   UNL     1       8.860  -6.129 -10.070  1.00  0.00     0.000 C 
BRANCH   7   8
ATOM      8  C   UNL     1       7.675  -6.403  -9.131  1.00  0.00     0.000 C 
BRANCH   8   9
ATOM      9  C   UNL     1       6.718  -7.476  -9.675  1.00  0.00     0.000 C 
BRANCH   9  10
ATOM     10  C   UNL     1       6.401  -8.525  -8.602  1.00  0.00     0.006 C 
BRANCH  10  11
ATOM     11  C   UNL     1       7.575  -8.692  -7.632  1.00  0.00     0.053 C 
BRANCH  11  12
ATOM     12  C   UNL     1       7.088  -8.721  -6.217  1.00  0.00     0.041 C 
ATOM     13  O   UNL     1       7.575  -9.544  -5.396  1.00  0.00    -0.550 OA
ATOM     14  O   UNL     1       6.065  -7.873  -5.816  1.00  0.00    -0.550 OA
ENDBRANCH  11  12
ENDBRANCH  10  11
ENDBRANCH   9  10
ENDBRANCH   8   9
ENDBRANCH   7   8
ENDBRANCH   6   7
ENDBRANCH   5   6
ENDBRANCH   4   5
ENDBRANCH   3   4
ENDBRANCH   2   3
ENDBRANCH   1   2
BRANCH   1  15
ATOM     15  C   UNL     1       5.041  -2.451 -10.100  1.00  0.00     0.000 C 
BRANCH  15  16
ATOM     16  C   UNL     1       5.012  -3.989 -10.119  1.00  0.00     0.000 C 
BRANCH  16  17
ATOM     17  C   UNL     1       3.608  -4.561  -9.850  1.00  0.00     0.000 C 
BRANCH  17  18
ATOM     18  C   UNL     1       3.368  -5.032  -8.400  1.00  0.00    -0.000 C 
BRANCH  18  19
ATOM     19  C   UNL     1       4.641  -5.358  -7.592  1.00  0.00    -0.000 C 
BRANCH  19  20
ATOM     20  C   UNL     1       4.983  -4.352  -6.478  1.00  0.00    -0.000 C 
BRANCH  20  21
ATOM     21  C   UNL     1       3.992  -3.182  -6.404  1.00  0.00    -0.000 C 
BRANCH  21  22
ATOM     22  C   UNL     1       2.740  -3.578  -5.609  1.00  0.00    -0.000 C 
BRANCH  22  23
ATOM     23  C   UNL     1       2.398  -2.555  -4.504  1.00  0.00    -0.000 C 
BRANCH  23  24
ATOM     24  C   UNL     1       2.626  -3.087  -3.076  1.00  0.00    -0.000 C 
BRANCH  24  25
ATOM     25  C   UNL     1       2.063  -2.195  -1.955  1.00  0.00    -0.003 C 
ATOM     26  C   UNL     1       3.008  -1.054  -1.572  1.00  0.00     0.004 C 
ENDBRANCH  24  25
ENDBRANCH  23  24
ENDBRANCH  22  23
ENDBRANCH  21  22
ENDBRANCH  20  21
ENDBRANCH  19  20
ENDBRANCH  18  19
ENDBRANCH  17  18
ENDBRANCH  16  17
ENDBRANCH  15  16
ENDBRANCH   1  15
TORSDOF 22
ENDMDL
