MODEL 1
REMARK VINA RESULT:    -4.183      0.000      0.000
REMARK INTER + INTRA:         -12.292
REMARK INTER:                  -9.074
REMARK INTRA:                  -3.219
REMARK UNBOUND:                -3.219
REMARK SMILES CCCCCCCCCCCCCCCCCCCCCC(=O)[O-]
REMARK SMILES IDX 12 1 11 2 10 3 9 4 8 5 7 6 6 7 5 8 4 9 3 10 2 11 1 12 13 13
REMARK SMILES IDX 14 14 15 15 16 16 17 17 18 18 19 19 20 20 21 21 22 22 23 23
REMARK SMILES IDX 24 24
REMARK H PARENT
REMARK Flexibility Score: inf
ROOT
ATOM      1  C   UNL     1     154.757 170.970 166.620  1.00  0.00     0.000 C 
ENDROOT
BRANCH   1   2
ATOM      2  C   UNL     1     155.135 172.263 167.361  1.00  0.00     0.000 C 
BRANCH   2   3
ATOM      3  C   UNL     1     156.260 173.038 166.658  1.00  0.00     0.000 C 
BRANCH   3   4
ATOM      4  C   UNL     1     155.702 174.263 165.919  1.00  0.00    -0.000 C 
BRANCH   4   5
ATOM      5  C   UNL     1     156.732 174.901 164.972  1.00  0.00    -0.000 C 
BRANCH   5   6
ATOM      6  C   UNL     1     157.641 173.859 164.299  1.00  0.00    -0.000 C 
BRANCH   6   7
ATOM      7  C   UNL     1     159.071 174.393 164.073  1.00  0.00    -0.000 C 
BRANCH   7   8
ATOM      8  C   UNL     1     159.702 175.025 165.325  1.00  0.00    -0.000 C 
BRANCH   8   9
ATOM      9  C   UNL     1     159.889 174.016 166.472  1.00  0.00    -0.000 C 
BRANCH   9  10
ATOM     10  C   UNL     1     161.125 174.321 167.334  1.00  0.00    -0.000 C 
BRANCH  10  11
ATOM     11  C   UNL     1     162.409 174.474 166.503  1.00  0.00    -0.003 C 
ATOM     12  C   UNL     1     162.768 173.167 165.802  1.00  0.00     0.004 C 
ENDBRANCH  10  11
ENDBRANCH   9  10
ENDBRANCH   8   9
ENDBRANCH   7   8
ENDBRANCH   6   7
ENDBRANCH   5   6
ENDBRANCH   4   5
ENDBRANCH   3   4
ENDBRANCH   2   3
ENDBRANCH   1   2
BRANCH   1  13
ATOM     13  C   UNL     1     153.862 171.234 165.396  1.00  0.00     0.000 C 
BRANCH  13  14
ATOM     14  C   UNL     1     154.583 170.947 164.069  1.00  0.00     0.000 C 
BRANCH  14  15
ATOM     15  C   UNL     1     154.678 172.191 163.169  1.00  0.00     0.000 C 
BRANCH  15  16
ATOM     16  C   UNL     1     153.401 173.046 163.198  1.00  0.00     0.000 C 
BRANCH  16  17
ATOM     17  C   UNL     1     153.635 174.523 162.810  1.00  0.00     0.000 C 
BRANCH  17  18
ATOM     18  C   UNL     1     154.550 174.667 161.581  1.00  0.00     0.000 C 
BRANCH  18  19
ATOM     19  C   UNL     1     155.457 175.913 161.675  1.00  0.00     0.000 C 
BRANCH  19  20
ATOM     20  C   UNL     1     156.882 175.679 161.143  1.00  0.00     0.006 C 
BRANCH  20  21
ATOM     21  C   UNL     1     157.031 174.342 160.407  1.00  0.00     0.053 C 
BRANCH  21  22
ATOM     22  C   UNL     1     157.112 174.563 158.931  1.00  0.00     0.041 C 
ATOM     23  O   UNL     1     157.048 173.584 158.140  1.00  0.00    -0.550 OA
ATOM     24  O   UNL     1     157.298 175.846 158.428  1.00  0.00    -0.550 OA
ENDBRANCH  21  22
ENDBRANCH  20  21
ENDBRANCH  19  20
ENDBRANCH  18  19
ENDBRANCH  17  18
ENDBRANCH  16  17
ENDBRANCH  15  16
ENDBRANCH  14  15
ENDBRANCH  13  14
ENDBRANCH   1  13
TORSDOF 20
ENDMDL
MODEL 2
REMARK VINA RESULT:    -3.975      3.317      6.477
REMARK INTER + INTRA:         -11.840
REMARK INTER:                  -8.937
REMARK INTRA:                  -2.904
REMARK UNBOUND:                -3.219
REMARK SMILES CCCCCCCCCCCCCCCCCCCCCC(=O)[O-]
REMARK SMILES IDX 12 1 11 2 10 3 9 4 8 5 7 6 6 7 5 8 4 9 3 10 2 11 1 12 13 13
REMARK SMILES IDX 14 14 15 15 16 16 17 17 18 18 19 19 20 20 21 21 22 22 23 23
REMARK SMILES IDX 24 24
REMARK H PARENT
REMARK Flexibility Score: inf
ROOT
ATOM      1  C   UNL     1     155.882 172.205 167.360  1.00  0.00     0.000 C 
ENDROOT
BRANCH   1   2
ATOM      2  C   UNL     1     154.946 171.049 166.973  1.00  0.00     0.000 C 
BRANCH   2   3
ATOM      3  C   UNL     1     153.945 171.441 165.875  1.00  0.00     0.000 C 
BRANCH   3   4
ATOM      4  C   UNL     1     154.391 170.900 164.509  1.00  0.00    -0.000 C 
BRANCH   4   5
ATOM      5  C   UNL     1     154.444 171.993 163.429  1.00  0.00    -0.000 C 
BRANCH   5   6
ATOM      6  C   UNL     1     153.381 173.085 163.642  1.00  0.00    -0.000 C 
BRANCH   6   7
ATOM      7  C   UNL     1     153.938 174.500 163.375  1.00  0.00    -0.000 C 
BRANCH   7   8
ATOM      8  C   UNL     1     154.833 174.588 162.128  1.00  0.00    -0.000 C 
BRANCH   8   9
ATOM      9  C   UNL     1     155.856 175.734 162.208  1.00  0.00    -0.000 C 
BRANCH   9  10
ATOM     10  C   UNL     1     157.301 175.230 162.359  1.00  0.00    -0.000 C 
BRANCH  10  11
ATOM     11  C   UNL     1     157.421 173.707 162.192  1.00  0.00    -0.003 C 
ATOM     12  C   UNL     1     158.750 173.197 162.742  1.00  0.00     0.004 C 
ENDBRANCH  10  11
ENDBRANCH   9  10
ENDBRANCH   8   9
ENDBRANCH   7   8
ENDBRANCH   6   7
ENDBRANCH   5   6
ENDBRANCH   4   5
ENDBRANCH   3   4
ENDBRANCH   2   3
ENDBRANCH   1   2
BRANCH   1  13
ATOM     13  C   UNL     1     155.538 173.511 166.621  1.00  0.00     0.000 C 
BRANCH  13  14
ATOM     14  C   UNL     1     156.752 174.109 165.893  1.00  0.00     0.000 C 
BRANCH  14  15
ATOM     15  C   UNL     1     158.085 173.525 166.390  1.00  0.00     0.000 C 
BRANCH  15  16
ATOM     16  C   UNL     1     159.273 174.474 166.166  1.00  0.00     0.000 C 
BRANCH  16  17
ATOM     17  C   UNL     1     160.429 174.268 167.169  1.00  0.00     0.000 C 
BRANCH  17  18
ATOM     18  C   UNL     1     161.793 174.134 166.470  1.00  0.00     0.000 C 
BRANCH  18  19
ATOM     19  C   UNL     1     161.648 173.793 164.971  1.00  0.00     0.000 C 
BRANCH  19  20
ATOM     20  C   UNL     1     162.843 174.249 164.117  1.00  0.00     0.006 C 
BRANCH  20  21
ATOM     21  C   UNL     1     164.114 174.480 164.944  1.00  0.00     0.053 C 
BRANCH  21  22
ATOM     22  C   UNL     1     165.147 173.451 164.613  1.00  0.00     0.041 C 
ATOM     23  O   UNL     1     165.368 172.499 165.407  1.00  0.00    -0.550 OA
ATOM     24  O   UNL     1     165.895 173.565 163.447  1.00  0.00    -0.550 OA
ENDBRANCH  21  22
ENDBRANCH  20  21
ENDBRANCH  19  20
ENDBRANCH  18  19
ENDBRANCH  17  18
ENDBRANCH  16  17
ENDBRANCH  15  16
ENDBRANCH  14  15
ENDBRANCH  13  14
ENDBRANCH   1  13
TORSDOF 20
ENDMDL
MODEL 3
REMARK VINA RESULT:    -3.965      3.007      6.286
REMARK INTER + INTRA:         -11.818
REMARK INTER:                  -8.851
REMARK INTRA:                  -2.967
REMARK UNBOUND:                -3.219
REMARK SMILES CCCCCCCCCCCCCCCCCCCCCC(=O)[O-]
REMARK SMILES IDX 12 1 11 2 10 3 9 4 8 5 7 6 6 7 5 8 4 9 3 10 2 11 1 12 13 13
REMARK SMILES IDX 14 14 15 15 16 16 17 17 18 18 19 19 20 20 21 21 22 22 23 23
REMARK SMILES IDX 24 24
REMARK H PARENT
REMARK Flexibility Score: inf
ROOT
ATOM      1  C   UNL     1     155.557 172.142 167.186  1.00  0.00     0.000 C 
ENDROOT
BRANCH   1   2
ATOM      2  C   UNL     1     154.748 170.930 166.698  1.00  0.00     0.000 C 
BRANCH   2   3
ATOM      3  C   UNL     1     153.823 171.273 165.520  1.00  0.00     0.000 C 
BRANCH   3   4
ATOM      4  C   UNL     1     154.410 170.761 164.196  1.00  0.00    -0.000 C 
BRANCH   4   5
ATOM      5  C   UNL     1     154.829 171.903 163.256  1.00  0.00    -0.000 C 
BRANCH   5   6
ATOM      6  C   UNL     1     153.755 172.998 163.141  1.00  0.00    -0.000 C 
BRANCH   6   7
ATOM      7  C   UNL     1     153.962 173.890 161.898  1.00  0.00    -0.000 C 
BRANCH   7   8
ATOM      8  C   UNL     1     154.417 175.320 162.231  1.00  0.00    -0.000 C 
BRANCH   8   9
ATOM      9  C   UNL     1     155.919 175.541 161.984  1.00  0.00    -0.000 C 
BRANCH   9  10
ATOM     10  C   UNL     1     156.556 174.413 161.155  1.00  0.00    -0.000 C 
BRANCH  10  11
ATOM     11  C   UNL     1     157.308 174.933 159.920  1.00  0.00    -0.003 C 
ATOM     12  C   UNL     1     156.905 174.161 158.667  1.00  0.00     0.004 C 
ENDBRANCH  10  11
ENDBRANCH   9  10
ENDBRANCH   8   9
ENDBRANCH   7   8
ENDBRANCH   6   7
ENDBRANCH   5   6
ENDBRANCH   4   5
ENDBRANCH   3   4
ENDBRANCH   2   3
ENDBRANCH   1   2
BRANCH   1  13
ATOM     13  C   UNL     1     154.899 173.480 166.803  1.00  0.00     0.000 C 
BRANCH  13  14
ATOM     14  C   UNL     1     155.772 174.311 165.849  1.00  0.00     0.000 C 
BRANCH  14  15
ATOM     15  C   UNL     1     157.243 173.865 165.857  1.00  0.00     0.000 C 
BRANCH  15  16
ATOM     16  C   UNL     1     157.769 173.519 164.454  1.00  0.00     0.000 C 
BRANCH  16  17
ATOM     17  C   UNL     1     159.089 174.235 164.093  1.00  0.00     0.000 C 
BRANCH  17  18
ATOM     18  C   UNL     1     159.192 175.631 164.733  1.00  0.00     0.000 C 
BRANCH  18  19
ATOM     19  C   UNL     1     160.422 175.757 165.658  1.00  0.00     0.000 C 
BRANCH  19  20
ATOM     20  C   UNL     1     161.312 174.502 165.674  1.00  0.00     0.006 C 
BRANCH  20  21
ATOM     21  C   UNL     1     162.809 174.833 165.686  1.00  0.00     0.053 C 
BRANCH  21  22
ATOM     22  C   UNL     1     163.621 173.595 165.479  1.00  0.00     0.041 C 
ATOM     23  O   UNL     1     164.494 173.555 164.572  1.00  0.00    -0.550 OA
ATOM     24  O   UNL     1     163.386 172.470 166.261  1.00  0.00    -0.550 OA
ENDBRANCH  21  22
ENDBRANCH  20  21
ENDBRANCH  19  20
ENDBRANCH  18  19
ENDBRANCH  17  18
ENDBRANCH  16  17
ENDBRANCH  15  16
ENDBRANCH  14  15
ENDBRANCH  13  14
ENDBRANCH   1  13
TORSDOF 20
ENDMDL
MODEL 4
REMARK VINA RESULT:    -3.882      3.258      7.313
REMARK INTER + INTRA:         -11.639
REMARK INTER:                  -8.873
REMARK INTRA:                  -2.767
REMARK UNBOUND:                -3.219
REMARK SMILES CCCCCCCCCCCCCCCCCCCCCC(=O)[O-]
REMARK SMILES IDX 12 1 11 2 10 3 9 4 8 5 7 6 6 7 5 8 4 9 3 10 2 11 1 12 13 13
REMARK SMILES IDX 14 14 15 15 16 16 17 17 18 18 19 19 20 20 21 21 22 22 23 23
REMARK SMILES IDX 24 24
REMARK H PARENT
REMARK Flexibility Score: inf
ROOT
ATOM      1  C   UNL     1     158.773 174.329 163.241  1.00  0.00     0.000 C 
ENDROOT
BRANCH   1   2
ATOM      2  C   UNL     1     158.090 173.108 162.604  1.00  0.00     0.000 C 
BRANCH   2   3
ATOM      3  C   UNL     1     156.569 173.102 162.820  1.00  0.00     0.000 C 
BRANCH   3   4
ATOM      4  C   UNL     1     155.955 174.453 162.424  1.00  0.00    -0.000 C 
BRANCH   4   5
ATOM      5  C   UNL     1     154.934 174.962 163.455  1.00  0.00    -0.000 C 
BRANCH   5   6
ATOM      6  C   UNL     1     155.560 175.195 164.841  1.00  0.00    -0.000 C 
BRANCH   6   7
ATOM      7  C   UNL     1     155.005 174.220 165.901  1.00  0.00    -0.000 C 
BRANCH   7   8
ATOM      8  C   UNL     1     156.081 173.336 166.553  1.00  0.00    -0.000 C 
BRANCH   8   9
ATOM      9  C   UNL     1     155.609 171.889 166.776  1.00  0.00    -0.000 C 
BRANCH   9  10
ATOM     10  C   UNL     1     154.255 171.597 166.107  1.00  0.00    -0.000 C 
BRANCH  10  11
ATOM     11  C   UNL     1     154.400 170.853 164.770  1.00  0.00    -0.003 C 
ATOM     12  C   UNL     1     153.525 171.487 163.692  1.00  0.00     0.004 C 
ENDBRANCH  10  11
ENDBRANCH   9  10
ENDBRANCH   8   9
ENDBRANCH   7   8
ENDBRANCH   6   7
ENDBRANCH   5   6
ENDBRANCH   4   5
ENDBRANCH   3   4
ENDBRANCH   2   3
ENDBRANCH   1   2
BRANCH   1  13
ATOM     13  C   UNL     1     159.688 173.943 164.417  1.00  0.00     0.000 C 
BRANCH  13  14
ATOM     14  C   UNL     1     159.357 174.724 165.699  1.00  0.00     0.000 C 
BRANCH  14  15
ATOM     15  C   UNL     1     159.831 174.000 166.970  1.00  0.00     0.000 C 
BRANCH  15  16
ATOM     16  C   UNL     1     161.170 174.540 167.499  1.00  0.00     0.000 C 
BRANCH  16  17
ATOM     17  C   UNL     1     161.587 175.886 166.869  1.00  0.00     0.000 C 
BRANCH  17  18
ATOM     18  C   UNL     1     163.039 175.869 166.359  1.00  0.00     0.000 C 
BRANCH  18  19
ATOM     19  C   UNL     1     163.133 175.400 164.890  1.00  0.00     0.000 C 
BRANCH  19  20
ATOM     20  C   UNL     1     164.577 175.210 164.396  1.00  0.00     0.006 C 
BRANCH  20  21
ATOM     21  C   UNL     1     164.967 173.734 164.247  1.00  0.00     0.053 C 
BRANCH  21  22
ATOM     22  C   UNL     1     165.625 173.497 162.925  1.00  0.00     0.041 C 
ATOM     23  O   UNL     1     166.810 173.074 162.875  1.00  0.00    -0.550 OA
ATOM     24  O   UNL     1     164.943 173.781 161.747  1.00  0.00    -0.550 OA
ENDBRANCH  21  22
ENDBRANCH  20  21
ENDBRANCH  19  20
ENDBRANCH  18  19
ENDBRANCH  17  18
ENDBRANCH  16  17
ENDBRANCH  15  16
ENDBRANCH  14  15
ENDBRANCH  13  14
ENDBRANCH   1  13
TORSDOF 20
ENDMDL
MODEL 5
REMARK VINA RESULT:    -3.810      2.850      4.772
REMARK INTER + INTRA:         -11.482
REMARK INTER:                  -9.463
REMARK INTRA:                  -2.020
REMARK UNBOUND:                -3.219
REMARK SMILES CCCCCCCCCCCCCCCCCCCCCC(=O)[O-]
REMARK SMILES IDX 12 1 11 2 10 3 9 4 8 5 7 6 6 7 5 8 4 9 3 10 2 11 1 12 13 13
REMARK SMILES IDX 14 14 15 15 16 16 17 17 18 18 19 19 20 20 21 21 22 22 23 23
REMARK SMILES IDX 24 24
REMARK H PARENT
REMARK Flexibility Score: inf
ROOT
ATOM      1  C   UNL     1     158.199 174.217 165.852  1.00  0.00     0.000 C 
ENDROOT
BRANCH   1   2
ATOM      2  C   UNL     1     159.255 173.841 166.902  1.00  0.00     0.000 C 
BRANCH   2   3
ATOM      3  C   UNL     1     160.522 174.706 166.802  1.00  0.00     0.000 C 
BRANCH   3   4
ATOM      4  C   UNL     1     160.850 175.026 165.336  1.00  0.00    -0.000 C 
BRANCH   4   5
ATOM      5  C   UNL     1     161.683 173.923 164.663  1.00  0.00    -0.000 C 
BRANCH   5   6
ATOM      6  C   UNL     1     162.750 173.332 165.601  1.00  0.00    -0.000 C 
BRANCH   6   7
ATOM      7  C   UNL     1     164.085 174.103 165.523  1.00  0.00    -0.000 C 
BRANCH   7   8
ATOM      8  C   UNL     1     164.265 174.899 164.219  1.00  0.00    -0.000 C 
BRANCH   8   9
ATOM      9  C   UNL     1     165.497 174.452 163.413  1.00  0.00    -0.000 C 
BRANCH   9  10
ATOM     10  C   UNL     1     166.406 175.628 163.019  1.00  0.00    -0.000 C 
BRANCH  10  11
ATOM     11  C   UNL     1     167.471 175.236 161.983  1.00  0.00    -0.003 C 
ATOM     12  C   UNL     1     166.842 174.984 160.617  1.00  0.00     0.004 C 
ENDBRANCH  10  11
ENDBRANCH   9  10
ENDBRANCH   8   9
ENDBRANCH   7   8
ENDBRANCH   6   7
ENDBRANCH   5   6
ENDBRANCH   4   5
ENDBRANCH   3   4
ENDBRANCH   2   3
ENDBRANCH   1   2
BRANCH   1  13
ATOM     13  C   UNL     1     156.775 173.816 166.280  1.00  0.00     0.000 C 
BRANCH  13  14
ATOM     14  C   UNL     1     156.775 172.758 167.394  1.00  0.00     0.000 C 
BRANCH  14  15
ATOM     15  C   UNL     1     155.574 171.801 167.297  1.00  0.00     0.000 C 
BRANCH  15  16
ATOM     16  C   UNL     1     154.593 172.188 166.178  1.00  0.00     0.000 C 
BRANCH  16  17
ATOM     17  C   UNL     1     154.293 171.037 165.193  1.00  0.00     0.000 C 
BRANCH  17  18
ATOM     18  C   UNL     1     154.583 171.428 163.732  1.00  0.00     0.000 C 
BRANCH  18  19
ATOM     19  C   UNL     1     154.289 172.919 163.460  1.00  0.00     0.000 C 
BRANCH  19  20
ATOM     20  C   UNL     1     155.375 173.619 162.625  1.00  0.00     0.006 C 
BRANCH  20  21
ATOM     21  C   UNL     1     156.763 172.994 162.810  1.00  0.00     0.053 C 
BRANCH  21  22
ATOM     22  C   UNL     1     157.780 173.729 161.995  1.00  0.00     0.041 C 
ATOM     23  O   UNL     1     157.437 174.314 160.934  1.00  0.00    -0.550 OA
ATOM     24  O   UNL     1     159.114 173.735 162.387  1.00  0.00    -0.550 OA
ENDBRANCH  21  22
ENDBRANCH  20  21
ENDBRANCH  19  20
ENDBRANCH  18  19
ENDBRANCH  17  18
ENDBRANCH  16  17
ENDBRANCH  15  16
ENDBRANCH  14  15
ENDBRANCH  13  14
ENDBRANCH   1  13
TORSDOF 20
ENDMDL
MODEL 6
REMARK VINA RESULT:    -3.758      3.154      7.099
REMARK INTER + INTRA:         -11.369
REMARK INTER:                  -8.687
REMARK INTRA:                  -2.683
REMARK UNBOUND:                -3.219
REMARK SMILES CCCCCCCCCCCCCCCCCCCCCC(=O)[O-]
REMARK SMILES IDX 12 1 11 2 10 3 9 4 8 5 7 6 6 7 5 8 4 9 3 10 2 11 1 12 13 13
REMARK SMILES IDX 14 14 15 15 16 16 17 17 18 18 19 19 20 20 21 21 22 22 23 23
REMARK SMILES IDX 24 24
REMARK H PARENT
REMARK Flexibility Score: inf
ROOT
ATOM      1  C   UNL     1     158.304 173.497 162.227  1.00  0.00     0.000 C 
ENDROOT
BRANCH   1   2
ATOM      2  C   UNL     1     157.697 174.672 161.445  1.00  0.00     0.000 C 
BRANCH   2   3
ATOM      3  C   UNL     1     156.314 174.343 160.863  1.00  0.00     0.000 C 
BRANCH   3   4
ATOM      4  C   UNL     1     155.337 175.509 161.080  1.00  0.00    -0.000 C 
BRANCH   4   5
ATOM      5  C   UNL     1     154.235 175.173 162.098  1.00  0.00    -0.000 C 
BRANCH   5   6
ATOM      6  C   UNL     1     153.877 173.677 162.110  1.00  0.00    -0.000 C 
BRANCH   6   7
ATOM      7  C   UNL     1     153.854 173.095 163.540  1.00  0.00    -0.000 C 
BRANCH   7   8
ATOM      8  C   UNL     1     153.983 174.159 164.643  1.00  0.00    -0.000 C 
BRANCH   8   9
ATOM      9  C   UNL     1     153.587 173.627 166.032  1.00  0.00    -0.000 C 
BRANCH   9  10
ATOM     10  C   UNL     1     154.800 173.413 166.953  1.00  0.00    -0.000 C 
BRANCH  10  11
ATOM     11  C   UNL     1     155.584 172.134 166.619  1.00  0.00    -0.003 C 
ATOM     12  C   UNL     1     154.785 170.888 166.989  1.00  0.00     0.004 C 
ENDBRANCH  10  11
ENDBRANCH   9  10
ENDBRANCH   8   9
ENDBRANCH   7   8
ENDBRANCH   6   7
ENDBRANCH   5   6
ENDBRANCH   4   5
ENDBRANCH   3   4
ENDBRANCH   2   3
ENDBRANCH   1   2
BRANCH   1  13
ATOM     13  C   UNL     1     157.574 173.235 163.557  1.00  0.00     0.000 C 
BRANCH  13  14
ATOM     14  C   UNL     1     157.455 174.502 164.419  1.00  0.00     0.000 C 
BRANCH  14  15
ATOM     15  C   UNL     1     158.582 174.614 165.459  1.00  0.00     0.000 C 
BRANCH  15  16
ATOM     16  C   UNL     1     159.621 175.689 165.099  1.00  0.00     0.000 C 
BRANCH  16  17
ATOM     17  C   UNL     1     161.008 175.447 165.731  1.00  0.00     0.000 C 
BRANCH  17  18
ATOM     18  C   UNL     1     161.128 174.047 166.360  1.00  0.00     0.000 C 
BRANCH  18  19
ATOM     19  C   UNL     1     162.294 173.235 165.753  1.00  0.00     0.000 C 
BRANCH  19  20
ATOM     20  C   UNL     1     163.594 174.043 165.603  1.00  0.00     0.006 C 
BRANCH  20  21
ATOM     21  C   UNL     1     164.794 173.172 165.209  1.00  0.00     0.053 C 
BRANCH  21  22
ATOM     22  C   UNL     1     165.300 173.559 163.856  1.00  0.00     0.041 C 
ATOM     23  O   UNL     1     164.653 174.376 163.149  1.00  0.00    -0.550 OA
ATOM     24  O   UNL     1     166.466 172.989 163.359  1.00  0.00    -0.550 OA
ENDBRANCH  21  22
ENDBRANCH  20  21
ENDBRANCH  19  20
ENDBRANCH  18  19
ENDBRANCH  17  18
ENDBRANCH  16  17
ENDBRANCH  15  16
ENDBRANCH  14  15
ENDBRANCH  13  14
ENDBRANCH   1  13
TORSDOF 20
ENDMDL
MODEL 7
REMARK VINA RESULT:    -3.727     13.919     16.569
REMARK INTER + INTRA:         -11.304
REMARK INTER:                  -7.522
REMARK INTRA:                  -3.782
REMARK UNBOUND:                -3.219
REMARK SMILES CCCCCCCCCCCCCCCCCCCCCC(=O)[O-]
REMARK SMILES IDX 12 1 11 2 10 3 9 4 8 5 7 6 6 7 5 8 4 9 3 10 2 11 1 12 13 13
REMARK SMILES IDX 14 14 15 15 16 16 17 17 18 18 19 19 20 20 21 21 22 22 23 23
REMARK SMILES IDX 24 24
REMARK H PARENT
REMARK Flexibility Score: inf
ROOT
ATOM      1  C   UNL     1     168.604 169.398 150.594  1.00  0.00     0.000 C 
ENDROOT
BRANCH   1   2
ATOM      2  C   UNL     1     169.370 170.725 150.486  1.00  0.00     0.000 C 
BRANCH   2   3
ATOM      3  C   UNL     1     170.894 170.529 150.486  1.00  0.00     0.000 C 
BRANCH   3   4
ATOM      4  C   UNL     1     171.620 171.877 150.609  1.00  0.00    -0.000 C 
BRANCH   4   5
ATOM      5  C   UNL     1     172.066 172.178 152.049  1.00  0.00    -0.000 C 
BRANCH   5   6
ATOM      6  C   UNL     1     171.252 173.313 152.694  1.00  0.00    -0.000 C 
BRANCH   6   7
ATOM      7  C   UNL     1     170.113 172.778 153.588  1.00  0.00    -0.000 C 
BRANCH   7   8
ATOM      8  C   UNL     1     170.602 171.925 154.770  1.00  0.00    -0.000 C 
BRANCH   8   9
ATOM      9  C   UNL     1     169.804 170.620 154.933  1.00  0.00    -0.000 C 
BRANCH   9  10
ATOM     10  C   UNL     1     170.248 169.526 153.947  1.00  0.00    -0.000 C 
BRANCH  10  11
ATOM     11  C   UNL     1     169.456 168.220 154.110  1.00  0.00    -0.003 C 
ATOM     12  C   UNL     1     168.833 168.125 155.499  1.00  0.00     0.004 C 
ENDBRANCH  10  11
ENDBRANCH   9  10
ENDBRANCH   8   9
ENDBRANCH   7   8
ENDBRANCH   6   7
ENDBRANCH   5   6
ENDBRANCH   4   5
ENDBRANCH   3   4
ENDBRANCH   2   3
ENDBRANCH   1   2
BRANCH   1  13
ATOM     13  C   UNL     1     167.244 169.559 151.297  1.00  0.00     0.000 C 
BRANCH  13  14
ATOM     14  C   UNL     1     167.171 170.838 152.146  1.00  0.00     0.000 C 
BRANCH  14  15
ATOM     15  C   UNL     1     166.307 170.661 153.406  1.00  0.00     0.000 C 
BRANCH  15  16
ATOM     16  C   UNL     1     165.878 169.202 153.634  1.00  0.00     0.000 C 
BRANCH  16  17
ATOM     17  C   UNL     1     164.348 169.014 153.727  1.00  0.00     0.000 C 
BRANCH  17  18
ATOM     18  C   UNL     1     163.687 168.894 152.343  1.00  0.00     0.000 C 
BRANCH  18  19
ATOM     19  C   UNL     1     162.546 169.917 152.153  1.00  0.00     0.000 C 
BRANCH  19  20
ATOM     20  C   UNL     1     162.995 171.222 151.474  1.00  0.00     0.006 C 
BRANCH  20  21
ATOM     21  C   UNL     1     163.908 170.982 150.265  1.00  0.00     0.053 C 
BRANCH  21  22
ATOM     22  C   UNL     1     163.257 171.474 149.012  1.00  0.00     0.041 C 
ATOM     23  O   UNL     1     163.310 172.696 148.710  1.00  0.00    -0.550 OA
ATOM     24  O   UNL     1     162.559 170.591 148.196  1.00  0.00    -0.550 OA
ENDBRANCH  21  22
ENDBRANCH  20  21
ENDBRANCH  19  20
ENDBRANCH  18  19
ENDBRANCH  17  18
ENDBRANCH  16  17
ENDBRANCH  15  16
ENDBRANCH  14  15
ENDBRANCH  13  14
ENDBRANCH   1  13
TORSDOF 20
ENDMDL
MODEL 8
REMARK VINA RESULT:    -3.579      1.490      2.831
REMARK INTER + INTRA:         -10.981
REMARK INTER:                  -8.404
REMARK INTRA:                  -2.577
REMARK UNBOUND:                -3.219
REMARK SMILES CCCCCCCCCCCCCCCCCCCCCC(=O)[O-]
REMARK SMILES IDX 12 1 11 2 10 3 9 4 8 5 7 6 6 7 5 8 4 9 3 10 2 11 1 12 13 13
REMARK SMILES IDX 14 14 15 15 16 16 17 17 18 18 19 19 20 20 21 21 22 22 23 23
REMARK SMILES IDX 24 24
REMARK H PARENT
REMARK Flexibility Score: inf
ROOT
ATOM      1  C   UNL     1     157.110 172.764 162.996  1.00  0.00     0.000 C 
ENDROOT
BRANCH   1   2
ATOM      2  C   UNL     1     158.259 173.784 162.977  1.00  0.00     0.000 C 
BRANCH   2   3
ATOM      3  C   UNL     1     157.788 175.211 163.296  1.00  0.00     0.000 C 
BRANCH   3   4
ATOM      4  C   UNL     1     158.661 175.844 164.390  1.00  0.00    -0.000 C 
BRANCH   4   5
ATOM      5  C   UNL     1     159.124 174.821 165.441  1.00  0.00    -0.000 C 
BRANCH   5   6
ATOM      6  C   UNL     1     160.365 175.293 166.217  1.00  0.00    -0.000 C 
BRANCH   6   7
ATOM      7  C   UNL     1     160.792 174.283 167.303  1.00  0.00    -0.000 C 
BRANCH   7   8
ATOM      8  C   UNL     1     162.089 174.670 168.034  1.00  0.00    -0.000 C 
BRANCH   8   9
ATOM      9  C   UNL     1     163.306 173.858 167.558  1.00  0.00    -0.000 C 
BRANCH   9  10
ATOM     10  C   UNL     1     163.041 173.107 166.242  1.00  0.00    -0.000 C 
BRANCH  10  11
ATOM     11  C   UNL     1     164.021 173.498 165.125  1.00  0.00    -0.003 C 
ATOM     12  C   UNL     1     163.478 174.662 164.301  1.00  0.00     0.004 C 
ENDBRANCH  10  11
ENDBRANCH   9  10
ENDBRANCH   8   9
ENDBRANCH   7   8
ENDBRANCH   6   7
ENDBRANCH   5   6
ENDBRANCH   4   5
ENDBRANCH   3   4
ENDBRANCH   2   3
ENDBRANCH   1   2
BRANCH   1  13
ATOM     13  C   UNL     1     156.124 173.011 164.152  1.00  0.00     0.000 C 
BRANCH  13  14
ATOM     14  C   UNL     1     155.119 171.861 164.321  1.00  0.00     0.000 C 
BRANCH  14  15
ATOM     15  C   UNL     1     153.957 171.941 163.316  1.00  0.00     0.000 C 
BRANCH  15  16
ATOM     16  C   UNL     1     153.268 173.315 163.309  1.00  0.00     0.000 C 
BRANCH  16  17
ATOM     17  C   UNL     1     153.408 174.072 161.971  1.00  0.00     0.000 C 
BRANCH  17  18
ATOM     18  C   UNL     1     154.109 175.431 162.137  1.00  0.00     0.000 C 
BRANCH  18  19
ATOM     19  C   UNL     1     154.979 175.791 160.913  1.00  0.00     0.000 C 
BRANCH  19  20
ATOM     20  C   UNL     1     155.525 174.563 160.163  1.00  0.00     0.006 C 
BRANCH  20  21
ATOM     21  C   UNL     1     156.955 174.767 159.650  1.00  0.00     0.053 C 
BRANCH  21  22
ATOM     22  C   UNL     1     156.982 174.753 158.155  1.00  0.00     0.041 C 
ATOM     23  O   UNL     1     157.063 175.833 157.513  1.00  0.00    -0.550 OA
ATOM     24  O   UNL     1     156.877 173.549 157.468  1.00  0.00    -0.550 OA
ENDBRANCH  21  22
ENDBRANCH  20  21
ENDBRANCH  19  20
ENDBRANCH  18  19
ENDBRANCH  17  18
ENDBRANCH  16  17
ENDBRANCH  15  16
ENDBRANCH  14  15
ENDBRANCH  13  14
ENDBRANCH   1  13
TORSDOF 20
ENDMDL
MODEL 9
REMARK VINA RESULT:    -3.545     13.932     17.292
REMARK INTER + INTRA:         -10.907
REMARK INTER:                  -6.757
REMARK INTRA:                  -4.150
REMARK UNBOUND:                -3.219
REMARK SMILES CCCCCCCCCCCCCCCCCCCCCC(=O)[O-]
REMARK SMILES IDX 12 1 11 2 10 3 9 4 8 5 7 6 6 7 5 8 4 9 3 10 2 11 1 12 13 13
REMARK SMILES IDX 14 14 15 15 16 16 17 17 18 18 19 19 20 20 21 21 22 22 23 23
REMARK SMILES IDX 24 24
REMARK H PARENT
REMARK Flexibility Score: inf
ROOT
ATOM      1  C   UNL     1     171.909 172.193 152.270  1.00  0.00     0.000 C 
ENDROOT
BRANCH   1   2
ATOM      2  C   UNL     1     171.268 171.660 150.979  1.00  0.00     0.000 C 
BRANCH   2   3
ATOM      3  C   UNL     1     171.275 170.125 150.906  1.00  0.00     0.000 C 
BRANCH   3   4
ATOM      4  C   UNL     1     172.052 169.525 152.086  1.00  0.00    -0.000 C 
BRANCH   4   5
ATOM      5  C   UNL     1     171.326 168.329 152.724  1.00  0.00    -0.000 C 
BRANCH   5   6
ATOM      6  C   UNL     1     171.586 168.218 154.236  1.00  0.00    -0.000 C 
BRANCH   6   7
ATOM      7  C   UNL     1     170.384 167.610 154.990  1.00  0.00    -0.000 C 
BRANCH   7   8
ATOM      8  C   UNL     1     169.438 166.794 154.093  1.00  0.00    -0.000 C 
BRANCH   8   9
ATOM      9  C   UNL     1     167.954 167.110 154.349  1.00  0.00    -0.000 C 
BRANCH   9  10
ATOM     10  C   UNL     1     167.711 167.735 155.733  1.00  0.00    -0.000 C 
BRANCH  10  11
ATOM     11  C   UNL     1     166.597 168.793 155.722  1.00  0.00    -0.003 C 
ATOM     12  C   UNL     1     165.560 168.487 154.645  1.00  0.00     0.004 C 
ENDBRANCH  10  11
ENDBRANCH   9  10
ENDBRANCH   8   9
ENDBRANCH   7   8
ENDBRANCH   6   7
ENDBRANCH   5   6
ENDBRANCH   4   5
ENDBRANCH   3   4
ENDBRANCH   2   3
ENDBRANCH   1   2
BRANCH   1  13
ATOM     13  C   UNL     1     171.249 173.495 152.760  1.00  0.00     0.000 C 
BRANCH  13  14
ATOM     14  C   UNL     1     170.250 173.252 153.903  1.00  0.00     0.000 C 
BRANCH  14  15
ATOM     15  C   UNL     1     170.494 171.917 154.625  1.00  0.00     0.000 C 
BRANCH  15  16
ATOM     16  C   UNL     1     169.278 170.978 154.569  1.00  0.00     0.000 C 
BRANCH  16  17
ATOM     17  C   UNL     1     168.300 171.300 153.419  1.00  0.00     0.000 C 
BRANCH  17  18
ATOM     18  C   UNL     1     168.090 170.102 152.475  1.00  0.00     0.000 C 
BRANCH  18  19
ATOM     19  C   UNL     1     167.484 170.528 151.120  1.00  0.00     0.000 C 
BRANCH  19  20
ATOM     20  C   UNL     1     166.319 169.637 150.659  1.00  0.00     0.006 C 
BRANCH  20  21
ATOM     21  C   UNL     1     165.010 170.414 150.475  1.00  0.00     0.053 C 
BRANCH  21  22
ATOM     22  C   UNL     1     164.042 170.075 151.564  1.00  0.00     0.041 C 
ATOM     23  O   UNL     1     163.353 169.023 151.492  1.00  0.00    -0.550 OA
ATOM     24  O   UNL     1     163.873 170.939 152.639  1.00  0.00    -0.550 OA
ENDBRANCH  21  22
ENDBRANCH  20  21
ENDBRANCH  19  20
ENDBRANCH  18  19
ENDBRANCH  17  18
ENDBRANCH  16  17
ENDBRANCH  15  16
ENDBRANCH  14  15
ENDBRANCH  13  14
ENDBRANCH   1  13
TORSDOF 20
ENDMDL
