MODEL 1
REMARK VINA RESULT:    -7.072      0.000      0.000
REMARK INTER + INTRA:         -14.650
REMARK INTER:                 -11.620
REMARK INTRA:                  -3.030
REMARK UNBOUND:                -3.030
REMARK SMILES C[C@@H]1O[C@H](OC[C@H]2O[C@@H](Oc3c(-c4ccc(O)c(O)c4)oc4cc(O)cc(O)c4c3=O)[C@H](O)[C@@H](O)[C@H]2O)[C@H](O)[C@@H](O)[C@@H]1O
REMARK SMILES IDX 7 1 36 2 34 3 32 4 9 5 8 6 6 7 5 8 4 9 1 10 2 11 42 12 3 13
REMARK SMILES IDX 40 14 38 15 43 16 41 18 39 20 37 22 35 24 10 26 11 27 12 28
REMARK SMILES IDX 30 29 21 30 29 31 31 32 22 33 27 34 23 35 26 36 24 37 13 38
REMARK SMILES IDX 20 39 14 40 18 41 15 42 16 43 19 44 17 46 28 48 25 50 33 52
REMARK H PARENT 43 17 41 19 39 21 37 23 35 25 19 45 17 47 28 49 25 51 33 53
REMARK Flexibility Score: inf
ROOT
ATOM      1  C   UNL     1     -38.365   8.772  78.941  1.00  0.00     0.180 C 
ATOM      2  C   UNL     1     -39.873   8.701  79.208  1.00  0.00     0.177 C 
ATOM      3  C   UNL     1     -40.573   7.748  78.174  1.00  0.00     0.180 C 
ATOM      4  C   UNL     1     -39.616   7.332  76.994  1.00  0.00     0.214 C 
ATOM      5  C   UNL     1     -38.208   6.895  77.528  1.00  0.00     0.339 C 
ATOM      6  O   UNL     1     -37.861   7.463  78.799  1.00  0.00    -0.332 OA
ENDROOT
BRANCH   1   7
ATOM      7  C   UNL     1     -37.577   9.517  80.031  1.00  0.00     0.198 C 
BRANCH   7   8
ATOM      8  O   UNL     1     -36.871   8.600  80.836  1.00  0.00    -0.347 OA
BRANCH   8   9
ATOM      9  C   UNL     1     -37.341   8.567  82.182  1.00  0.00     0.281 C 
ATOM     10  C   UNL     1     -39.363   5.971  83.864  1.00  0.00     0.041 C 
ATOM     11  C   UNL     1     -38.560   7.277  83.696  1.00  0.00     0.150 C 
ATOM     12  C   UNL     1     -37.465   7.372  84.807  1.00  0.00     0.174 C 
ATOM     13  O   UNL     1     -38.010   7.327  82.384  1.00  0.00    -0.344 OA
ATOM     14  C   UNL     1     -36.522   8.591  84.582  1.00  0.00     0.179 C 
ATOM     15  C   UNL     1     -36.109   8.701  83.098  1.00  0.00     0.202 C 
BRANCH  12  16
ATOM     16  O   UNL     1     -36.750   6.165  84.937  1.00  0.00    -0.388 OA
ATOM     17  H   UNL     1     -36.206   6.005  84.131  1.00  0.00     0.211 HD
ENDBRANCH  12  16
BRANCH  14  18
ATOM     18  O   UNL     1     -37.193   9.773  84.937  1.00  0.00    -0.387 OA
ATOM     19  H   UNL     1     -36.603  10.542  84.743  1.00  0.00     0.211 HD
ENDBRANCH  14  18
BRANCH  15  20
ATOM     20  O   UNL     1     -35.106   7.754  82.771  1.00  0.00    -0.385 OA
ATOM     21  H   UNL     1     -34.501   7.613  83.559  1.00  0.00     0.211 HD
ENDBRANCH  15  20
ENDBRANCH   8   9
ENDBRANCH   7   8
ENDBRANCH   1   7
BRANCH   2  22
ATOM     22  O   UNL     1     -40.147   8.340  80.542  1.00  0.00    -0.387 OA
ATOM     23  H   UNL     1     -40.273   9.195  81.043  1.00  0.00     0.211 HD
ENDBRANCH   2  22
BRANCH   3  24
ATOM     24  O   UNL     1     -41.127   6.607  78.800  1.00  0.00    -0.387 OA
ATOM     25  H   UNL     1     -42.023   6.880  79.154  1.00  0.00     0.211 HD
ENDBRANCH   3  24
BRANCH   5  26
ATOM     26  O   UNL     1     -38.105   5.500  77.673  1.00  0.00    -0.454 OA
BRANCH  26  27
ATOM     27  C   UNL     1     -37.704   4.706  78.779  1.00  0.00     0.214 A 
ATOM     28  C   UNL     1     -38.555   4.042  79.706  1.00  0.00     0.180 A 
ATOM     29  C   UNL     1     -36.341   4.756  79.061  1.00  0.00     0.239 A 
ATOM     30  O   UNL     1     -38.088   3.822  80.943  1.00  0.00    -0.452 OA
ATOM     31  C   UNL     1     -35.880   4.448  80.361  1.00  0.00     0.111 A 
ATOM     32  O   UNL     1     -35.524   5.084  78.156  1.00  0.00    -0.285 OA
ATOM     33  C   UNL     1     -36.844   4.063  81.316  1.00  0.00     0.146 A 
ATOM     34  C   UNL     1     -34.524   4.539  80.738  1.00  0.00     0.134 A 
ATOM     35  C   UNL     1     -36.463   3.825  82.650  1.00  0.00     0.094 A 
ATOM     36  C   UNL     1     -34.165   4.259  82.059  1.00  0.00     0.093 A 
ATOM     37  C   UNL     1     -35.129   3.934  83.023  1.00  0.00     0.123 A 
BRANCH  28  38
ATOM     38  C   UNL     1     -39.869   3.417  79.388  1.00  0.00     0.025 A 
ATOM     39  C   UNL     1     -40.922   3.568  80.298  1.00  0.00     0.062 A 
ATOM     40  C   UNL     1     -40.190   3.138  78.038  1.00  0.00     0.016 A 
ATOM     41  C   UNL     1     -42.241   3.333  79.913  1.00  0.00     0.158 A 
ATOM     42  C   UNL     1     -41.511   2.986  77.617  1.00  0.00     0.051 A 
ATOM     43  C   UNL     1     -42.544   3.037  78.567  1.00  0.00     0.157 A 
BRANCH  41  44
ATOM     44  O   UNL     1     -43.267   3.414  80.860  1.00  0.00    -0.504 OA
ATOM     45  H   UNL     1     -43.203   4.076  81.640  1.00  0.00     0.293 HD
ENDBRANCH  41  44
BRANCH  43  46
ATOM     46  O   UNL     1     -43.857   2.821  78.138  1.00  0.00    -0.504 OA
ATOM     47  H   UNL     1     -44.562   3.545  78.092  1.00  0.00     0.293 HD
ENDBRANCH  43  46
ENDBRANCH  28  38
BRANCH  34  48
ATOM     48  O   UNL     1     -33.530   4.900  79.832  1.00  0.00    -0.507 OA
ATOM     49  H   UNL     1     -33.107   4.213  79.234  1.00  0.00     0.293 HD
ENDBRANCH  34  48
BRANCH  37  50
ATOM     50  O   UNL     1     -34.779   3.671  84.338  1.00  0.00    -0.508 OA
ATOM     51  H   UNL     1     -33.806   3.494  84.568  1.00  0.00     0.293 HD
ENDBRANCH  37  50
ENDBRANCH  26  27
ENDBRANCH   5  26
BRANCH   4  52
ATOM     52  O   UNL     1     -39.415   8.417  76.138  1.00  0.00    -0.384 OA
ATOM     53  H   UNL     1     -40.315   8.846  75.954  1.00  0.00     0.211 HD
ENDBRANCH   4  52
TORSDOF 16
ENDMDL
MODEL 2
REMARK VINA RESULT:    -6.974      2.316      5.041
REMARK INTER + INTRA:         -14.489
REMARK INTER:                 -10.781
REMARK INTRA:                  -3.709
REMARK UNBOUND:                -3.030
REMARK SMILES C[C@@H]1O[C@H](OC[C@H]2O[C@@H](Oc3c(-c4ccc(O)c(O)c4)oc4cc(O)cc(O)c4c3=O)[C@H](O)[C@@H](O)[C@H]2O)[C@H](O)[C@@H](O)[C@@H]1O
REMARK SMILES IDX 7 1 36 2 34 3 32 4 9 5 8 6 6 7 5 8 4 9 1 10 2 11 42 12 3 13
REMARK SMILES IDX 40 14 38 15 43 16 41 18 39 20 37 22 35 24 10 26 11 27 12 28
REMARK SMILES IDX 30 29 21 30 29 31 31 32 22 33 27 34 23 35 26 36 24 37 13 38
REMARK SMILES IDX 20 39 14 40 18 41 15 42 16 43 19 44 17 46 28 48 25 50 33 52
REMARK H PARENT 43 17 41 19 39 21 37 23 35 25 19 45 17 47 28 49 25 51 33 53
REMARK Flexibility Score: inf
ROOT
ATOM      1  C   UNL     1     -40.620   3.960  80.144  1.00  0.00     0.180 C 
ATOM      2  C   UNL     1     -39.809   2.666  80.007  1.00  0.00     0.177 C 
ATOM      3  C   UNL     1     -39.378   2.439  78.514  1.00  0.00     0.180 C 
ATOM      4  C   UNL     1     -40.097   3.429  77.522  1.00  0.00     0.214 C 
ATOM      5  C   UNL     1     -40.061   4.901  78.059  1.00  0.00     0.339 C 
ATOM      6  O   UNL     1     -39.936   5.003  79.485  1.00  0.00    -0.332 OA
ENDROOT
BRANCH   1   7
ATOM      7  C   UNL     1     -40.902   4.363  81.600  1.00  0.00     0.198 C 
BRANCH   7   8
ATOM      8  O   UNL     1     -40.061   5.427  81.985  1.00  0.00    -0.347 OA
BRANCH   8   9
ATOM      9  C   UNL     1     -39.289   5.130  83.147  1.00  0.00     0.281 C 
ATOM     10  C   UNL     1     -38.985   1.929  84.968  1.00  0.00     0.041 C 
ATOM     11  C   UNL     1     -38.736   3.412  84.625  1.00  0.00     0.150 C 
ATOM     12  C   UNL     1     -37.200   3.678  84.514  1.00  0.00     0.174 C 
ATOM     13  O   UNL     1     -39.434   3.743  83.429  1.00  0.00    -0.344 OA
ATOM     14  C   UNL     1     -36.904   5.121  84.007  1.00  0.00     0.179 C 
ATOM     15  C   UNL     1     -37.825   5.490  82.825  1.00  0.00     0.202 C 
BRANCH  12  16
ATOM     16  O   UNL     1     -36.558   2.699  83.731  1.00  0.00    -0.388 OA
ATOM     17  H   UNL     1     -36.952   2.674  82.828  1.00  0.00     0.211 HD
ENDBRANCH  12  16
BRANCH  14  18
ATOM     18  O   UNL     1     -37.136   6.038  85.045  1.00  0.00    -0.387 OA
ATOM     19  H   UNL     1     -38.096   6.013  85.282  1.00  0.00     0.211 HD
ENDBRANCH  14  18
BRANCH  15  20
ATOM     20  O   UNL     1     -37.387   4.884  81.621  1.00  0.00    -0.385 OA
ATOM     21  H   UNL     1     -36.836   5.535  81.093  1.00  0.00     0.211 HD
ENDBRANCH  15  20
ENDBRANCH   8   9
ENDBRANCH   7   8
ENDBRANCH   1   7
BRANCH   2  22
ATOM     22  O   UNL     1     -38.712   2.646  80.892  1.00  0.00    -0.387 OA
ATOM     23  H   UNL     1     -39.083   2.420  81.791  1.00  0.00     0.211 HD
ENDBRANCH   2  22
BRANCH   3  24
ATOM     24  O   UNL     1     -37.974   2.497  78.356  1.00  0.00    -0.387 OA
ATOM     25  H   UNL     1     -37.633   3.134  79.049  1.00  0.00     0.211 HD
ENDBRANCH   3  24
BRANCH   5  26
ATOM     26  O   UNL     1     -38.997   5.640  77.512  1.00  0.00    -0.454 OA
BRANCH  26  27
ATOM     27  C   UNL     1     -38.213   6.689  78.060  1.00  0.00     0.214 A 
ATOM     28  C   UNL     1     -38.473   8.085  77.969  1.00  0.00     0.180 A 
ATOM     29  C   UNL     1     -36.983   6.285  78.572  1.00  0.00     0.239 A 
ATOM     30  O   UNL     1     -37.430   8.925  78.027  1.00  0.00    -0.452 OA
ATOM     31  C   UNL     1     -35.927   7.217  78.684  1.00  0.00     0.111 A 
ATOM     32  O   UNL     1     -36.813   5.084  78.923  1.00  0.00    -0.285 OA
ATOM     33  C   UNL     1     -36.193   8.548  78.298  1.00  0.00     0.146 A 
ATOM     34  C   UNL     1     -34.635   6.868  79.131  1.00  0.00     0.134 A 
ATOM     35  C   UNL     1     -35.163   9.507  78.305  1.00  0.00     0.094 A 
ATOM     36  C   UNL     1     -33.640   7.847  79.167  1.00  0.00     0.093 A 
ATOM     37  C   UNL     1     -33.887   9.155  78.727  1.00  0.00     0.123 A 
BRANCH  28  38
ATOM     38  C   UNL     1     -39.820   8.723  77.975  1.00  0.00     0.025 A 
ATOM     39  C   UNL     1     -40.319   9.250  76.778  1.00  0.00     0.062 A 
ATOM     40  C   UNL     1     -40.748   8.361  78.981  1.00  0.00     0.016 A 
ATOM     41  C   UNL     1     -41.677   9.524  76.626  1.00  0.00     0.158 A 
ATOM     42  C   UNL     1     -42.119   8.548  78.811  1.00  0.00     0.051 A 
ATOM     43  C   UNL     1     -42.587   9.176  77.646  1.00  0.00     0.157 A 
BRANCH  41  44
ATOM     44  O   UNL     1     -42.138  10.125  75.450  1.00  0.00    -0.504 OA
ATOM     45  H   UNL     1     -41.547  10.790  74.940  1.00  0.00     0.293 HD
ENDBRANCH  41  44
BRANCH  43  46
ATOM     46  O   UNL     1     -43.960   9.411  77.520  1.00  0.00    -0.504 OA
ATOM     47  H   UNL     1     -44.445  10.176  77.970  1.00  0.00     0.293 HD
ENDBRANCH  43  46
ENDBRANCH  28  38
BRANCH  34  48
ATOM     48  O   UNL     1     -34.323   5.573  79.538  1.00  0.00    -0.507 OA
ATOM     49  H   UNL     1     -35.049   4.916  79.761  1.00  0.00     0.293 HD
ENDBRANCH  34  48
BRANCH  37  50
ATOM     50  O   UNL     1     -32.898  10.125  78.746  1.00  0.00    -0.508 OA
ATOM     51  H   UNL     1     -31.933   9.848  78.895  1.00  0.00     0.293 HD
ENDBRANCH  37  50
ENDBRANCH  26  27
ENDBRANCH   5  26
BRANCH   4  52
ATOM     52  O   UNL     1     -41.441   3.073  77.382  1.00  0.00    -0.384 OA
ATOM     53  H   UNL     1     -42.009   3.849  77.701  1.00  0.00     0.211 HD
ENDBRANCH   4  52
TORSDOF 16
ENDMDL
MODEL 3
REMARK VINA RESULT:    -6.586      2.633      5.942
REMARK INTER + INTRA:         -13.851
REMARK INTER:                 -10.731
REMARK INTRA:                  -3.119
REMARK UNBOUND:                -3.030
REMARK SMILES C[C@@H]1O[C@H](OC[C@H]2O[C@@H](Oc3c(-c4ccc(O)c(O)c4)oc4cc(O)cc(O)c4c3=O)[C@H](O)[C@@H](O)[C@H]2O)[C@H](O)[C@@H](O)[C@@H]1O
REMARK SMILES IDX 7 1 36 2 34 3 32 4 9 5 8 6 6 7 5 8 4 9 1 10 2 11 42 12 3 13
REMARK SMILES IDX 40 14 38 15 43 16 41 18 39 20 37 22 35 24 10 26 11 27 12 28
REMARK SMILES IDX 30 29 21 30 29 31 31 32 22 33 27 34 23 35 26 36 24 37 13 38
REMARK SMILES IDX 20 39 14 40 18 41 15 42 16 43 19 44 17 46 28 48 25 50 33 52
REMARK H PARENT 43 17 41 19 39 21 37 23 35 25 19 45 17 47 28 49 25 51 33 53
REMARK Flexibility Score: inf
ROOT
ATOM      1  C   UNL     1     -37.167   5.251  79.027  1.00  0.00     0.180 C 
ATOM      2  C   UNL     1     -36.799   6.175  77.860  1.00  0.00     0.177 C 
ATOM      3  C   UNL     1     -37.127   7.670  78.214  1.00  0.00     0.180 C 
ATOM      4  C   UNL     1     -37.973   7.805  79.536  1.00  0.00     0.214 C 
ATOM      5  C   UNL     1     -37.386   6.912  80.683  1.00  0.00     0.339 C 
ATOM      6  O   UNL     1     -36.631   5.783  80.219  1.00  0.00    -0.332 OA
ENDROOT
BRANCH   1   7
ATOM      7  C   UNL     1     -36.688   3.802  78.844  1.00  0.00     0.198 C 
BRANCH   7   8
ATOM      8  O   UNL     1     -37.729   2.901  79.150  1.00  0.00    -0.347 OA
BRANCH   8   9
ATOM      9  C   UNL     1     -39.012   3.521  79.173  1.00  0.00     0.281 C 
ATOM     10  C   UNL     1     -42.081   2.559  77.352  1.00  0.00     0.041 C 
ATOM     11  C   UNL     1     -41.171   3.363  78.304  1.00  0.00     0.150 C 
ATOM     12  C   UNL     1     -41.850   3.485  79.706  1.00  0.00     0.174 C 
ATOM     13  O   UNL     1     -39.891   2.743  78.369  1.00  0.00    -0.344 OA
ATOM     14  C   UNL     1     -40.898   4.145  80.748  1.00  0.00     0.179 C 
ATOM     15  C   UNL     1     -39.473   3.559  80.643  1.00  0.00     0.202 C 
BRANCH  12  16
ATOM     16  O   UNL     1     -42.346   2.244  80.153  1.00  0.00    -0.388 OA
ATOM     17  H   UNL     1     -41.998   1.516  79.588  1.00  0.00     0.211 HD
ENDBRANCH  12  16
BRANCH  14  18
ATOM     18  O   UNL     1     -40.822   5.526  80.503  1.00  0.00    -0.387 OA
ATOM     19  H   UNL     1     -41.739   5.877  80.382  1.00  0.00     0.211 HD
ENDBRANCH  14  18
BRANCH  15  20
ATOM     20  O   UNL     1     -39.395   2.282  81.252  1.00  0.00    -0.385 OA
ATOM     21  H   UNL     1     -38.800   2.324  82.057  1.00  0.00     0.211 HD
ENDBRANCH  15  20
ENDBRANCH   8   9
ENDBRANCH   7   8
ENDBRANCH   1   7
BRANCH   2  22
ATOM     22  O   UNL     1     -35.460   5.998  77.460  1.00  0.00    -0.387 OA
ATOM     23  H   UNL     1     -35.369   6.458  76.577  1.00  0.00     0.211 HD
ENDBRANCH   2  22
BRANCH   3  24
ATOM     24  O   UNL     1     -35.958   8.463  78.280  1.00  0.00    -0.387 OA
ATOM     25  H   UNL     1     -36.154   9.212  78.914  1.00  0.00     0.211 HD
ENDBRANCH   3  24
BRANCH   5  26
ATOM     26  O   UNL     1     -36.536   7.635  81.537  1.00  0.00    -0.454 OA
BRANCH  26  27
ATOM     27  C   UNL     1     -35.304   7.279  82.145  1.00  0.00     0.214 A 
ATOM     28  C   UNL     1     -35.129   6.568  83.366  1.00  0.00     0.180 A 
ATOM     29  C   UNL     1     -34.182   7.856  81.557  1.00  0.00     0.239 A 
ATOM     30  O   UNL     1     -34.007   6.787  84.066  1.00  0.00    -0.452 OA
ATOM     31  C   UNL     1     -32.993   8.005  82.307  1.00  0.00     0.111 A 
ATOM     32  O   UNL     1     -34.234   8.252  80.360  1.00  0.00    -0.285 OA
ATOM     33  C   UNL     1     -32.996   7.517  83.630  1.00  0.00     0.146 A 
ATOM     34  C   UNL     1     -31.838   8.638  81.801  1.00  0.00     0.134 A 
ATOM     35  C   UNL     1     -31.874   7.709  84.458  1.00  0.00     0.094 A 
ATOM     36  C   UNL     1     -30.723   8.782  82.630  1.00  0.00     0.093 A 
ATOM     37  C   UNL     1     -30.745   8.350  83.963  1.00  0.00     0.123 A 
BRANCH  28  38
ATOM     38  C   UNL     1     -36.005   5.474  83.870  1.00  0.00     0.025 A 
ATOM     39  C   UNL     1     -37.264   5.805  84.386  1.00  0.00     0.062 A 
ATOM     40  C   UNL     1     -35.808   4.158  83.388  1.00  0.00     0.016 A 
ATOM     41  C   UNL     1     -38.255   4.836  84.533  1.00  0.00     0.158 A 
ATOM     42  C   UNL     1     -36.819   3.199  83.447  1.00  0.00     0.051 A 
ATOM     43  C   UNL     1     -38.037   3.523  84.065  1.00  0.00     0.157 A 
BRANCH  41  44
ATOM     44  O   UNL     1     -39.476   5.176  85.125  1.00  0.00    -0.504 OA
ATOM     45  H   UNL     1     -39.498   5.713  85.998  1.00  0.00     0.293 HD
ENDBRANCH  41  44
BRANCH  43  46
ATOM     46  O   UNL     1     -39.018   2.531  84.171  1.00  0.00    -0.504 OA
ATOM     47  H   UNL     1     -39.380   2.011  83.384  1.00  0.00     0.293 HD
ENDBRANCH  43  46
ENDBRANCH  28  38
BRANCH  34  48
ATOM     48  O   UNL     1     -31.777   9.125  80.498  1.00  0.00    -0.507 OA
ATOM     49  H   UNL     1     -31.633   8.502  79.723  1.00  0.00     0.293 HD
ENDBRANCH  34  48
BRANCH  37  50
ATOM     50  O   UNL     1     -29.646   8.505  84.793  1.00  0.00    -0.508 OA
ATOM     51  H   UNL     1     -28.731   8.210  84.467  1.00  0.00     0.293 HD
ENDBRANCH  37  50
ENDBRANCH  26  27
ENDBRANCH   5  26
BRANCH   4  52
ATOM     52  O   UNL     1     -39.284   7.378  79.309  1.00  0.00    -0.384 OA
ATOM     53  H   UNL     1     -39.561   6.783  80.081  1.00  0.00     0.211 HD
ENDBRANCH   4  52
TORSDOF 16
ENDMDL
MODEL 4
REMARK VINA RESULT:    -6.298     10.253     14.287
REMARK INTER + INTRA:         -13.378
REMARK INTER:                 -11.274
REMARK INTRA:                  -2.105
REMARK UNBOUND:                -3.030
REMARK SMILES C[C@@H]1O[C@H](OC[C@H]2O[C@@H](Oc3c(-c4ccc(O)c(O)c4)oc4cc(O)cc(O)c4c3=O)[C@H](O)[C@@H](O)[C@H]2O)[C@H](O)[C@@H](O)[C@@H]1O
REMARK SMILES IDX 7 1 36 2 34 3 32 4 9 5 8 6 6 7 5 8 4 9 1 10 2 11 42 12 3 13
REMARK SMILES IDX 40 14 38 15 43 16 41 18 39 20 37 22 35 24 10 26 11 27 12 28
REMARK SMILES IDX 30 29 21 30 29 31 31 32 22 33 27 34 23 35 26 36 24 37 13 38
REMARK SMILES IDX 20 39 14 40 18 41 15 42 16 43 19 44 17 46 28 48 25 50 33 52
REMARK H PARENT 43 17 41 19 39 21 37 23 35 25 19 45 17 47 28 49 25 51 33 53
REMARK Flexibility Score: inf
ROOT
ATOM      1  C   UNL     1     -44.241  -3.857  74.839  1.00  0.00     0.180 C 
ATOM      2  C   UNL     1     -45.690  -4.338  74.691  1.00  0.00     0.177 C 
ATOM      3  C   UNL     1     -45.948  -5.599  75.590  1.00  0.00     0.180 C 
ATOM      4  C   UNL     1     -44.619  -6.193  76.192  1.00  0.00     0.214 C 
ATOM      5  C   UNL     1     -43.709  -5.065  76.789  1.00  0.00     0.339 C 
ATOM      6  O   UNL     1     -43.924  -3.770  76.211  1.00  0.00    -0.332 OA
ENDROOT
BRANCH   1   7
ATOM      7  C   UNL     1     -43.963  -2.509  74.155  1.00  0.00     0.198 C 
BRANCH   7   8
ATOM      8  O   UNL     1     -44.296  -1.445  75.017  1.00  0.00    -0.347 OA
BRANCH   8   9
ATOM      9  C   UNL     1     -45.156  -0.485  74.408  1.00  0.00     0.281 C 
ATOM     10  C   UNL     1     -48.637   0.391  75.286  1.00  0.00     0.041 C 
ATOM     11  C   UNL     1     -47.293   0.443  74.531  1.00  0.00     0.150 C 
ATOM     12  C   UNL     1     -46.763   1.913  74.494  1.00  0.00     0.174 C 
ATOM     13  O   UNL     1     -46.372  -0.453  75.145  1.00  0.00    -0.344 OA
ATOM     14  C   UNL     1     -45.330   1.991  73.888  1.00  0.00     0.179 C 
ATOM     15  C   UNL     1     -44.429   0.874  74.457  1.00  0.00     0.202 C 
BRANCH  12  16
ATOM     16  O   UNL     1     -46.837   2.524  75.761  1.00  0.00    -0.388 OA
ATOM     17  H   UNL     1     -47.183   1.885  76.427  1.00  0.00     0.211 HD
ENDBRANCH  12  16
BRANCH  14  18
ATOM     18  O   UNL     1     -45.402   1.827  72.495  1.00  0.00    -0.387 OA
ATOM     19  H   UNL     1     -44.578   2.194  72.089  1.00  0.00     0.211 HD
ENDBRANCH  14  18
BRANCH  15  20
ATOM     20  O   UNL     1     -43.986   1.186  75.766  1.00  0.00    -0.385 OA
ATOM     21  H   UNL     1     -43.324   0.499  76.075  1.00  0.00     0.211 HD
ENDBRANCH  15  20
ENDBRANCH   8   9
ENDBRANCH   7   8
ENDBRANCH   1   7
BRANCH   2  22
ATOM     22  O   UNL     1     -46.609  -3.300  74.944  1.00  0.00    -0.387 OA
ATOM     23  H   UNL     1     -47.470  -3.744  75.191  1.00  0.00     0.211 HD
ENDBRANCH   2  22
BRANCH   3  24
ATOM     24  O   UNL     1     -46.890  -5.334  76.612  1.00  0.00    -0.387 OA
ATOM     25  H   UNL     1     -46.797  -4.364  76.844  1.00  0.00     0.211 HD
ENDBRANCH   3  24
BRANCH   5  26
ATOM     26  O   UNL     1     -43.887  -4.917  78.176  1.00  0.00    -0.454 OA
BRANCH  26  27
ATOM     27  C   UNL     1     -44.414  -5.808  79.147  1.00  0.00     0.214 A 
ATOM     28  C   UNL     1     -43.752  -6.927  79.727  1.00  0.00     0.180 A 
ATOM     29  C   UNL     1     -45.774  -5.651  79.397  1.00  0.00     0.239 A 
ATOM     30  O   UNL     1     -44.504  -7.945  80.166  1.00  0.00    -0.452 OA
ATOM     31  C   UNL     1     -46.521  -6.728  79.928  1.00  0.00     0.111 A 
ATOM     32  O   UNL     1     -46.337  -4.551  79.141  1.00  0.00    -0.285 OA
ATOM     33  C   UNL     1     -45.824  -7.920  80.216  1.00  0.00     0.146 A 
ATOM     34  C   UNL     1     -47.913  -6.665  80.146  1.00  0.00     0.134 A 
ATOM     35  C   UNL     1     -46.521  -9.056  80.666  1.00  0.00     0.094 A 
ATOM     36  C   UNL     1     -48.577  -7.795  80.631  1.00  0.00     0.093 A 
ATOM     37  C   UNL     1     -47.896  -8.997  80.862  1.00  0.00     0.123 A 
BRANCH  28  38
ATOM     38  C   UNL     1     -42.299  -7.010  80.044  1.00  0.00     0.025 A 
ATOM     39  C   UNL     1     -41.675  -5.904  80.633  1.00  0.00     0.062 A 
ATOM     40  C   UNL     1     -41.705  -8.283  80.224  1.00  0.00     0.016 A 
ATOM     41  C   UNL     1     -40.444  -6.032  81.275  1.00  0.00     0.158 A 
ATOM     42  C   UNL     1     -40.518  -8.441  80.938  1.00  0.00     0.051 A 
ATOM     43  C   UNL     1     -39.856  -7.305  81.428  1.00  0.00     0.157 A 
BRANCH  41  44
ATOM     44  O   UNL     1     -39.805  -4.897  81.784  1.00  0.00    -0.504 OA
ATOM     45  H   UNL     1     -40.052  -4.533  82.710  1.00  0.00     0.293 HD
ENDBRANCH  41  44
BRANCH  43  46
ATOM     46  O   UNL     1     -38.635  -7.476  82.089  1.00  0.00    -0.504 OA
ATOM     47  H   UNL     1     -38.064  -8.307  82.012  1.00  0.00     0.293 HD
ENDBRANCH  43  46
ENDBRANCH  28  38
BRANCH  34  48
ATOM     48  O   UNL     1     -48.647  -5.509  79.892  1.00  0.00    -0.507 OA
ATOM     49  H   UNL     1     -49.277  -5.463  79.111  1.00  0.00     0.293 HD
ENDBRANCH  34  48
BRANCH  37  50
ATOM     50  O   UNL     1     -48.553 -10.125  81.328  1.00  0.00    -0.508 OA
ATOM     51  H   UNL     1     -49.132 -10.662  80.690  1.00  0.00     0.293 HD
ENDBRANCH  37  50
ENDBRANCH  26  27
ENDBRANCH   5  26
BRANCH   4  52
ATOM     52  O   UNL     1     -43.884  -6.830  75.189  1.00  0.00    -0.384 OA
ATOM     53  H   UNL     1     -43.493  -7.681  75.575  1.00  0.00     0.211 HD
ENDBRANCH   4  52
TORSDOF 16
ENDMDL
MODEL 5
REMARK VINA RESULT:    -6.263      2.007      5.068
REMARK INTER + INTRA:         -13.321
REMARK INTER:                 -10.930
REMARK INTRA:                  -2.391
REMARK UNBOUND:                -3.030
REMARK SMILES C[C@@H]1O[C@H](OC[C@H]2O[C@@H](Oc3c(-c4ccc(O)c(O)c4)oc4cc(O)cc(O)c4c3=O)[C@H](O)[C@@H](O)[C@H]2O)[C@H](O)[C@@H](O)[C@@H]1O
REMARK SMILES IDX 7 1 36 2 34 3 32 4 9 5 8 6 6 7 5 8 4 9 1 10 2 11 42 12 3 13
REMARK SMILES IDX 40 14 38 15 43 16 41 18 39 20 37 22 35 24 10 26 11 27 12 28
REMARK SMILES IDX 30 29 21 30 29 31 31 32 22 33 27 34 23 35 26 36 24 37 13 38
REMARK SMILES IDX 20 39 14 40 18 41 15 42 16 43 19 44 17 46 28 48 25 50 33 52
REMARK H PARENT 43 17 41 19 39 21 37 23 35 25 19 45 17 47 28 49 25 51 33 53
REMARK Flexibility Score: inf
ROOT
ATOM      1  C   UNL     1     -38.534   3.201  83.762  1.00  0.00     0.180 C 
ATOM      2  C   UNL     1     -39.640   2.152  83.587  1.00  0.00     0.177 C 
ATOM      3  C   UNL     1     -41.039   2.847  83.429  1.00  0.00     0.180 C 
ATOM      4  C   UNL     1     -40.987   4.389  83.750  1.00  0.00     0.214 C 
ATOM      5  C   UNL     1     -39.766   5.076  83.047  1.00  0.00     0.339 C 
ATOM      6  O   UNL     1     -38.676   4.187  82.764  1.00  0.00    -0.332 OA
ENDROOT
BRANCH   1   7
ATOM      7  C   UNL     1     -37.113   2.616  83.715  1.00  0.00     0.198 C 
BRANCH   7   8
ATOM      8  O   UNL     1     -36.181   3.555  84.202  1.00  0.00    -0.347 OA
BRANCH   8   9
ATOM      9  C   UNL     1     -35.769   4.493  83.211  1.00  0.00     0.281 C 
ATOM     10  C   UNL     1     -35.853   8.186  83.342  1.00  0.00     0.041 C 
ATOM     11  C   UNL     1     -35.589   6.777  82.771  1.00  0.00     0.150 C 
ATOM     12  C   UNL     1     -34.103   6.668  82.300  1.00  0.00     0.174 C 
ATOM     13  O   UNL     1     -35.922   5.801  83.752  1.00  0.00    -0.344 OA
ATOM     14  C   UNL     1     -33.743   5.215  81.868  1.00  0.00     0.179 C 
ATOM     15  C   UNL     1     -34.295   4.187  82.880  1.00  0.00     0.202 C 
BRANCH  12  16
ATOM     16  O   UNL     1     -33.212   7.170  83.268  1.00  0.00    -0.388 OA
ATOM     17  H   UNL     1     -32.918   8.077  83.021  1.00  0.00     0.211 HD
ENDBRANCH  12  16
BRANCH  14  18
ATOM     18  O   UNL     1     -34.314   4.945  80.614  1.00  0.00    -0.387 OA
ATOM     19  H   UNL     1     -35.294   5.061  80.680  1.00  0.00     0.211 HD
ENDBRANCH  14  18
BRANCH  15  20
ATOM     20  O   UNL     1     -33.494   4.132  84.047  1.00  0.00    -0.385 OA
ATOM     21  H   UNL     1     -32.907   4.943  84.096  1.00  0.00     0.211 HD
ENDBRANCH  15  20
ENDBRANCH   8   9
ENDBRANCH   7   8
ENDBRANCH   1   7
BRANCH   2  22
ATOM     22  O   UNL     1     -39.355   1.269  82.527  1.00  0.00    -0.387 OA
ATOM     23  H   UNL     1     -39.433   0.347  82.903  1.00  0.00     0.211 HD
ENDBRANCH   2  22
BRANCH   3  24
ATOM     24  O   UNL     1     -41.600   2.616  82.152  1.00  0.00    -0.387 OA
ATOM     25  H   UNL     1     -42.103   3.445  81.904  1.00  0.00     0.211 HD
ENDBRANCH   3  24
BRANCH   5  26
ATOM     26  O   UNL     1     -40.122   5.672  81.825  1.00  0.00    -0.454 OA
BRANCH  26  27
ATOM     27  C   UNL     1     -39.383   5.854  80.627  1.00  0.00     0.214 A 
ATOM     28  C   UNL     1     -39.127   4.877  79.624  1.00  0.00     0.180 A 
ATOM     29  C   UNL     1     -38.702   7.066  80.548  1.00  0.00     0.239 A 
ATOM     30  O   UNL     1     -38.016   5.009  78.886  1.00  0.00    -0.452 OA
ATOM     31  C   UNL     1     -37.576   7.187  79.702  1.00  0.00     0.111 A 
ATOM     32  O   UNL     1     -39.089   8.050  81.238  1.00  0.00    -0.285 OA
ATOM     33  C   UNL     1     -37.215   6.057  78.939  1.00  0.00     0.146 A 
ATOM     34  C   UNL     1     -36.798   8.361  79.619  1.00  0.00     0.134 A 
ATOM     35  C   UNL     1     -36.055   6.082  78.142  1.00  0.00     0.094 A 
ATOM     36  C   UNL     1     -35.674   8.374  78.790  1.00  0.00     0.093 A 
ATOM     37  C   UNL     1     -35.281   7.234  78.076  1.00  0.00     0.123 A 
BRANCH  28  38
ATOM     38  C   UNL     1     -40.063   3.798  79.202  1.00  0.00     0.025 A 
ATOM     39  C   UNL     1     -41.433   4.082  79.144  1.00  0.00     0.062 A 
ATOM     40  C   UNL     1     -39.572   2.730  78.414  1.00  0.00     0.016 A 
ATOM     41  C   UNL     1     -42.306   3.263  78.430  1.00  0.00     0.158 A 
ATOM     42  C   UNL     1     -40.419   1.953  77.624  1.00  0.00     0.051 A 
ATOM     43  C   UNL     1     -41.803   2.189  77.666  1.00  0.00     0.157 A 
BRANCH  41  44
ATOM     44  O   UNL     1     -43.680   3.522  78.455  1.00  0.00    -0.504 OA
ATOM     45  H   UNL     1     -44.088   4.224  77.828  1.00  0.00     0.293 HD
ENDBRANCH  41  44
BRANCH  43  46
ATOM     46  O   UNL     1     -42.644   1.362  76.914  1.00  0.00    -0.504 OA
ATOM     47  H   UNL     1     -42.689   1.371  75.904  1.00  0.00     0.293 HD
ENDBRANCH  43  46
ENDBRANCH  28  38
BRANCH  34  48
ATOM     48  O   UNL     1     -37.118   9.509  80.340  1.00  0.00    -0.507 OA
ATOM     49  H   UNL     1     -36.754   9.652  81.264  1.00  0.00     0.293 HD
ENDBRANCH  34  48
BRANCH  37  50
ATOM     50  O   UNL     1     -34.157   7.238  77.265  1.00  0.00    -0.508 OA
ATOM     51  H   UNL     1     -33.264   7.522  77.656  1.00  0.00     0.293 HD
ENDBRANCH  37  50
ENDBRANCH  26  27
ENDBRANCH   5  26
BRANCH   4  52
ATOM     52  O   UNL     1     -40.838   4.585  85.125  1.00  0.00    -0.384 OA
ATOM     53  H   UNL     1     -41.541   4.032  85.601  1.00  0.00     0.211 HD
ENDBRANCH   4  52
TORSDOF 16
ENDMDL
MODEL 6
REMARK VINA RESULT:    -6.170     10.175     14.500
REMARK INTER + INTRA:         -13.168
REMARK INTER:                 -11.764
REMARK INTRA:                  -1.404
REMARK UNBOUND:                -3.030
REMARK SMILES C[C@@H]1O[C@H](OC[C@H]2O[C@@H](Oc3c(-c4ccc(O)c(O)c4)oc4cc(O)cc(O)c4c3=O)[C@H](O)[C@@H](O)[C@H]2O)[C@H](O)[C@@H](O)[C@@H]1O
REMARK SMILES IDX 7 1 36 2 34 3 32 4 9 5 8 6 6 7 5 8 4 9 1 10 2 11 42 12 3 13
REMARK SMILES IDX 40 14 38 15 43 16 41 18 39 20 37 22 35 24 10 26 11 27 12 28
REMARK SMILES IDX 30 29 21 30 29 31 31 32 22 33 27 34 23 35 26 36 24 37 13 38
REMARK SMILES IDX 20 39 14 40 18 41 15 42 16 43 19 44 17 46 28 48 25 50 33 52
REMARK H PARENT 43 17 41 19 39 21 37 23 35 25 19 45 17 47 28 49 25 51 33 53
REMARK Flexibility Score: inf
ROOT
ATOM      1  C   UNL     1     -42.789  -8.594  82.381  1.00  0.00     0.180 C 
ATOM      2  C   UNL     1     -44.108  -8.228  83.072  1.00  0.00     0.177 C 
ATOM      3  C   UNL     1     -43.915  -8.157  84.629  1.00  0.00     0.180 C 
ATOM      4  C   UNL     1     -42.520  -8.726  85.090  1.00  0.00     0.214 C 
ATOM      5  C   UNL     1     -41.355  -8.170  84.200  1.00  0.00     0.339 C 
ATOM      6  O   UNL     1     -41.763  -7.768  82.884  1.00  0.00    -0.332 OA
ENDROOT
BRANCH   1   7
ATOM      7  C   UNL     1     -42.841  -8.482  80.849  1.00  0.00     0.198 C 
BRANCH   7   8
ATOM      8  O   UNL     1     -44.178  -8.479  80.402  1.00  0.00    -0.347 OA
BRANCH   8   9
ATOM      9  C   UNL     1     -44.408  -7.551  79.345  1.00  0.00     0.281 C 
ATOM     10  C   UNL     1     -47.487  -5.672  78.542  1.00  0.00     0.041 C 
ATOM     11  C   UNL     1     -46.026  -6.150  78.417  1.00  0.00     0.150 C 
ATOM     12  C   UNL     1     -45.069  -4.915  78.368  1.00  0.00     0.174 C 
ATOM     13  O   UNL     1     -45.724  -7.031  79.494  1.00  0.00    -0.344 OA
ATOM     14  C   UNL     1     -43.572  -5.348  78.409  1.00  0.00     0.179 C 
ATOM     15  C   UNL     1     -43.344  -6.443  79.473  1.00  0.00     0.202 C 
BRANCH  12  16
ATOM     16  O   UNL     1     -45.377  -3.978  79.373  1.00  0.00    -0.388 OA
ATOM     17  H   UNL     1     -46.342  -3.998  79.572  1.00  0.00     0.211 HD
ENDBRANCH  12  16
BRANCH  14  18
ATOM     18  O   UNL     1     -43.202  -5.869  77.158  1.00  0.00    -0.387 OA
ATOM     19  H   UNL     1     -42.230  -5.737  77.035  1.00  0.00     0.211 HD
ENDBRANCH  14  18
BRANCH  15  20
ATOM     20  O   UNL     1     -43.311  -5.894  80.778  1.00  0.00    -0.385 OA
ATOM     21  H   UNL     1     -42.541  -6.282  81.292  1.00  0.00     0.211 HD
ENDBRANCH  15  20
ENDBRANCH   8   9
ENDBRANCH   7   8
ENDBRANCH   1   7
BRANCH   2  22
ATOM     22  O   UNL     1     -44.660  -7.044  82.544  1.00  0.00    -0.387 OA
ATOM     23  H   UNL     1     -45.647  -7.110  82.683  1.00  0.00     0.211 HD
ENDBRANCH   2  22
BRANCH   3  24
ATOM     24  O   UNL     1     -44.115  -6.847  85.124  1.00  0.00    -0.387 OA
ATOM     25  H   UNL     1     -45.050  -6.814  85.481  1.00  0.00     0.211 HD
ENDBRANCH   3  24
BRANCH   5  26
ATOM     26  O   UNL     1     -40.728  -7.054  84.781  1.00  0.00    -0.454 OA
BRANCH  26  27
ATOM     27  C   UNL     1     -40.142  -5.904  84.192  1.00  0.00     0.214 A 
ATOM     28  C   UNL     1     -38.752  -5.632  84.051  1.00  0.00     0.180 A 
ATOM     29  C   UNL     1     -41.041  -4.882  83.901  1.00  0.00     0.239 A 
ATOM     30  O   UNL     1     -38.363  -4.350  84.004  1.00  0.00    -0.452 OA
ATOM     31  C   UNL     1     -40.581  -3.550  83.790  1.00  0.00     0.111 A 
ATOM     32  O   UNL     1     -42.265  -5.148  83.747  1.00  0.00    -0.285 OA
ATOM     33  C   UNL     1     -39.197  -3.327  83.947  1.00  0.00     0.146 A 
ATOM     34  C   UNL     1     -41.440  -2.455  83.562  1.00  0.00     0.134 A 
ATOM     35  C   UNL     1     -38.684  -2.017  83.932  1.00  0.00     0.094 A 
ATOM     36  C   UNL     1     -40.902  -1.167  83.512  1.00  0.00     0.093 A 
ATOM     37  C   UNL     1     -39.536  -0.939  83.727  1.00  0.00     0.123 A 
BRANCH  28  38
ATOM     38  C   UNL     1     -37.689  -6.642  83.786  1.00  0.00     0.025 A 
ATOM     39  C   UNL     1     -37.631  -7.240  82.521  1.00  0.00     0.062 A 
ATOM     40  C   UNL     1     -36.509  -6.621  84.567  1.00  0.00     0.016 A 
ATOM     41  C   UNL     1     -36.481  -7.900  82.093  1.00  0.00     0.158 A 
ATOM     42  C   UNL     1     -35.324  -7.201  84.117  1.00  0.00     0.051 A 
ATOM     43  C   UNL     1     -35.318  -7.887  82.892  1.00  0.00     0.157 A 
BRANCH  41  44
ATOM     44  O   UNL     1     -36.476  -8.557  80.858  1.00  0.00    -0.504 OA
ATOM     45  H   UNL     1     -35.831  -9.337  80.687  1.00  0.00     0.293 HD
ENDBRANCH  41  44
BRANCH  43  46
ATOM     46  O   UNL     1     -34.137  -8.516  82.484  1.00  0.00    -0.504 OA
ATOM     47  H   UNL     1     -34.094  -9.465  82.138  1.00  0.00     0.293 HD
ENDBRANCH  43  46
ENDBRANCH  28  38
BRANCH  34  48
ATOM     48  O   UNL     1     -42.812  -2.620  83.386  1.00  0.00    -0.507 OA
ATOM     49  H   UNL     1     -43.411  -1.825  83.251  1.00  0.00     0.293 HD
ENDBRANCH  34  48
BRANCH  37  50
ATOM     50  O   UNL     1     -39.001   0.339  83.694  1.00  0.00    -0.508 OA
ATOM     51  H   UNL     1     -38.665   0.715  82.813  1.00  0.00     0.293 HD
ENDBRANCH  37  50
ENDBRANCH  26  27
ENDBRANCH   5  26
BRANCH   4  52
ATOM     52  O   UNL     1     -42.508 -10.117  84.967  1.00  0.00    -0.384 OA
ATOM     53  H   UNL     1     -41.774 -10.370  84.315  1.00  0.00     0.211 HD
ENDBRANCH   4  52
TORSDOF 16
ENDMDL
MODEL 7
REMARK VINA RESULT:    -6.115      2.137      4.890
REMARK INTER + INTRA:         -13.078
REMARK INTER:                  -9.851
REMARK INTRA:                  -3.227
REMARK UNBOUND:                -3.030
REMARK SMILES C[C@@H]1O[C@H](OC[C@H]2O[C@@H](Oc3c(-c4ccc(O)c(O)c4)oc4cc(O)cc(O)c4c3=O)[C@H](O)[C@@H](O)[C@H]2O)[C@H](O)[C@@H](O)[C@@H]1O
REMARK SMILES IDX 7 1 36 2 34 3 32 4 9 5 8 6 6 7 5 8 4 9 1 10 2 11 42 12 3 13
REMARK SMILES IDX 40 14 38 15 43 16 41 18 39 20 37 22 35 24 10 26 11 27 12 28
REMARK SMILES IDX 30 29 21 30 29 31 31 32 22 33 27 34 23 35 26 36 24 37 13 38
REMARK SMILES IDX 20 39 14 40 18 41 15 42 16 43 19 44 17 46 28 48 25 50 33 52
REMARK H PARENT 43 17 41 19 39 21 37 23 35 25 19 45 17 47 28 49 25 51 33 53
REMARK Flexibility Score: inf
ROOT
ATOM      1  C   UNL     1     -37.509   4.558  84.168  1.00  0.00     0.180 C 
ATOM      2  C   UNL     1     -37.693   3.063  83.883  1.00  0.00     0.177 C 
ATOM      3  C   UNL     1     -39.184   2.754  83.496  1.00  0.00     0.180 C 
ATOM      4  C   UNL     1     -40.140   3.979  83.753  1.00  0.00     0.214 C 
ATOM      5  C   UNL     1     -39.521   5.311  83.203  1.00  0.00     0.339 C 
ATOM      6  O   UNL     1     -38.089   5.300  83.118  1.00  0.00    -0.332 OA
ENDROOT
BRANCH   1   7
ATOM      7  C   UNL     1     -36.042   4.978  84.351  1.00  0.00     0.198 C 
BRANCH   7   8
ATOM      8  O   UNL     1     -35.509   5.443  83.132  1.00  0.00    -0.347 OA
BRANCH   8   9
ATOM      9  C   UNL     1     -34.621   6.546  83.299  1.00  0.00     0.281 C 
ATOM     10  C   UNL     1     -32.551   8.257  80.760  1.00  0.00     0.041 C 
ATOM     11  C   UNL     1     -33.164   7.954  82.143  1.00  0.00     0.150 C 
ATOM     12  C   UNL     1     -33.791   9.255  82.739  1.00  0.00     0.174 C 
ATOM     13  O   UNL     1     -34.112   6.899  82.018  1.00  0.00    -0.344 OA
ATOM     14  C   UNL     1     -34.567   8.965  84.059  1.00  0.00     0.179 C 
ATOM     15  C   UNL     1     -35.438   7.697  83.919  1.00  0.00     0.202 C 
BRANCH  12  16
ATOM     16  O   UNL     1     -34.588   9.929  81.793  1.00  0.00    -0.388 OA
ATOM     17  H   UNL     1     -34.026  10.501  81.221  1.00  0.00     0.211 HD
ENDBRANCH  12  16
BRANCH  14  18
ATOM     18  O   UNL     1     -33.651   8.753  85.103  1.00  0.00    -0.387 OA
ATOM     19  H   UNL     1     -33.217   9.614  85.323  1.00  0.00     0.211 HD
ENDBRANCH  14  18
BRANCH  15  20
ATOM     20  O   UNL     1     -36.618   7.962  83.182  1.00  0.00    -0.385 OA
ATOM     21  H   UNL     1     -36.890   8.919  83.306  1.00  0.00     0.211 HD
ENDBRANCH  15  20
ENDBRANCH   8   9
ENDBRANCH   7   8
ENDBRANCH   1   7
BRANCH   2  22
ATOM     22  O   UNL     1     -36.780   2.603  82.915  1.00  0.00    -0.387 OA
ATOM     23  H   UNL     1     -36.041   2.155  83.417  1.00  0.00     0.211 HD
ENDBRANCH   2  22
BRANCH   3  24
ATOM     24  O   UNL     1     -39.297   2.296  82.163  1.00  0.00    -0.387 OA
ATOM     25  H   UNL     1     -39.273   3.107  81.577  1.00  0.00     0.211 HD
ENDBRANCH   3  24
BRANCH   5  26
ATOM     26  O   UNL     1     -39.994   5.625  81.917  1.00  0.00    -0.454 OA
BRANCH  26  27
ATOM     27  C   UNL     1     -39.302   5.833  80.695  1.00  0.00     0.214 A 
ATOM     28  C   UNL     1     -39.098   4.880  79.658  1.00  0.00     0.180 A 
ATOM     29  C   UNL     1     -38.614   7.041  80.620  1.00  0.00     0.239 A 
ATOM     30  O   UNL     1     -38.017   5.022  78.878  1.00  0.00    -0.452 OA
ATOM     31  C   UNL     1     -37.522   7.174  79.732  1.00  0.00     0.111 A 
ATOM     32  O   UNL     1     -38.962   8.009  81.351  1.00  0.00    -0.285 OA
ATOM     33  C   UNL     1     -37.203   6.061  78.925  1.00  0.00     0.146 A 
ATOM     34  C   UNL     1     -36.737   8.342  79.648  1.00  0.00     0.134 A 
ATOM     35  C   UNL     1     -36.077   6.098  78.082  1.00  0.00     0.094 A 
ATOM     36  C   UNL     1     -35.647   8.368  78.774  1.00  0.00     0.093 A 
ATOM     37  C   UNL     1     -35.295   7.244  78.015  1.00  0.00     0.123 A 
BRANCH  28  38
ATOM     38  C   UNL     1     -40.061   3.822  79.246  1.00  0.00     0.025 A 
ATOM     39  C   UNL     1     -41.329   3.800  79.838  1.00  0.00     0.062 A 
ATOM     40  C   UNL     1     -39.907   3.206  77.980  1.00  0.00     0.016 A 
ATOM     41  C   UNL     1     -42.379   3.089  79.259  1.00  0.00     0.158 A 
ATOM     42  C   UNL     1     -40.970   2.564  77.345  1.00  0.00     0.051 A 
ATOM     43  C   UNL     1     -42.204   2.463  78.007  1.00  0.00     0.157 A 
BRANCH  41  44
ATOM     44  O   UNL     1     -43.614   3.017  79.913  1.00  0.00    -0.504 OA
ATOM     45  H   UNL     1     -44.161   3.867  80.085  1.00  0.00     0.293 HD
ENDBRANCH  41  44
BRANCH  43  46
ATOM     46  O   UNL     1     -43.242   1.764  77.382  1.00  0.00    -0.504 OA
ATOM     47  H   UNL     1     -43.103   1.096  76.636  1.00  0.00     0.293 HD
ENDBRANCH  43  46
ENDBRANCH  28  38
BRANCH  34  48
ATOM     48  O   UNL     1     -37.016   9.473  80.411  1.00  0.00    -0.507 OA
ATOM     49  H   UNL     1     -36.324  10.192  80.535  1.00  0.00     0.293 HD
ENDBRANCH  34  48
BRANCH  37  50
ATOM     50  O   UNL     1     -34.205   7.259  77.159  1.00  0.00    -0.508 OA
ATOM     51  H   UNL     1     -33.631   6.427  77.070  1.00  0.00     0.293 HD
ENDBRANCH  37  50
ENDBRANCH  26  27
ENDBRANCH   5  26
BRANCH   4  52
ATOM     52  O   UNL     1     -40.338   4.151  85.125  1.00  0.00    -0.384 OA
ATOM     53  H   UNL     1     -41.209   3.697  85.378  1.00  0.00     0.211 HD
ENDBRANCH   4  52
TORSDOF 16
ENDMDL
MODEL 8
REMARK VINA RESULT:    -6.048     11.947     14.974
REMARK INTER + INTRA:         -12.968
REMARK INTER:                 -11.242
REMARK INTRA:                  -1.726
REMARK UNBOUND:                -3.030
REMARK SMILES C[C@@H]1O[C@H](OC[C@H]2O[C@@H](Oc3c(-c4ccc(O)c(O)c4)oc4cc(O)cc(O)c4c3=O)[C@H](O)[C@@H](O)[C@H]2O)[C@H](O)[C@@H](O)[C@@H]1O
REMARK SMILES IDX 7 1 36 2 34 3 32 4 9 5 8 6 6 7 5 8 4 9 1 10 2 11 42 12 3 13
REMARK SMILES IDX 40 14 38 15 43 16 41 18 39 20 37 22 35 24 10 26 11 27 12 28
REMARK SMILES IDX 30 29 21 30 29 31 31 32 22 33 27 34 23 35 26 36 24 37 13 38
REMARK SMILES IDX 20 39 14 40 18 41 15 42 16 43 19 44 17 46 28 48 25 50 33 52
REMARK H PARENT 43 17 41 19 39 21 37 23 35 25 19 45 17 47 28 49 25 51 33 53
REMARK Flexibility Score: inf
ROOT
ATOM      1  C   UNL     1     -47.811  -1.245  74.470  1.00  0.00     0.180 C 
ATOM      2  C   UNL     1     -47.634  -0.306  75.668  1.00  0.00     0.177 C 
ATOM      3  C   UNL     1     -47.172   1.117  75.191  1.00  0.00     0.180 C 
ATOM      4  C   UNL     1     -46.760   1.139  73.671  1.00  0.00     0.214 C 
ATOM      5  C   UNL     1     -47.818   0.397  72.782  1.00  0.00     0.339 C 
ATOM      6  O   UNL     1     -48.582  -0.594  73.485  1.00  0.00    -0.332 OA
ENDROOT
BRANCH   1   7
ATOM      7  C   UNL     1     -48.459  -2.592  74.828  1.00  0.00     0.198 C 
BRANCH   7   8
ATOM      8  O   UNL     1     -47.625  -3.658  74.433  1.00  0.00    -0.347 OA
BRANCH   8   9
ATOM      9  C   UNL     1     -46.415  -3.724  75.185  1.00  0.00     0.281 C 
ATOM     10  C   UNL     1     -45.789  -5.403  78.418  1.00  0.00     0.041 C 
ATOM     11  C   UNL     1     -45.487  -4.587  77.144  1.00  0.00     0.150 C 
ATOM     12  C   UNL     1     -44.253  -5.199  76.405  1.00  0.00     0.174 C 
ATOM     13  O   UNL     1     -46.649  -4.548  76.322  1.00  0.00    -0.344 OA
ATOM     14  C   UNL     1     -44.010  -4.511  75.028  1.00  0.00     0.179 C 
ATOM     15  C   UNL     1     -45.338  -4.327  74.262  1.00  0.00     0.202 C 
BRANCH  12  16
ATOM     16  O   UNL     1     -44.357  -6.598  76.287  1.00  0.00    -0.388 OA
ATOM     17  H   UNL     1     -44.508  -7.003  77.173  1.00  0.00     0.211 HD
ENDBRANCH  12  16
BRANCH  14  18
ATOM     18  O   UNL     1     -43.444  -3.242  75.232  1.00  0.00    -0.387 OA
ATOM     19  H   UNL     1     -44.173  -2.578  75.306  1.00  0.00     0.211 HD
ENDBRANCH  14  18
BRANCH  15  20
ATOM     20  O   UNL     1     -45.768  -5.544  73.677  1.00  0.00    -0.385 OA
ATOM     21  H   UNL     1     -45.012  -6.203  73.666  1.00  0.00     0.211 HD
ENDBRANCH  15  20
ENDBRANCH   8   9
ENDBRANCH   7   8
ENDBRANCH   1   7
BRANCH   2  22
ATOM     22  O   UNL     1     -48.796  -0.255  76.463  1.00  0.00    -0.387 OA
ATOM     23  H   UNL     1     -49.298  -1.099  76.279  1.00  0.00     0.211 HD
ENDBRANCH   2  22
BRANCH   3  24
ATOM     24  O   UNL     1     -48.145   2.106  75.465  1.00  0.00    -0.387 OA
ATOM     25  H   UNL     1     -47.720   2.991  75.267  1.00  0.00     0.211 HD
ENDBRANCH   3  24
BRANCH   5  26
ATOM     26  O   UNL     1     -48.746   1.284  72.210  1.00  0.00    -0.454 OA
BRANCH  26  27
ATOM     27  C   UNL     1     -48.557   2.455  71.430  1.00  0.00     0.214 A 
ATOM     28  C   UNL     1     -48.192   2.516  70.056  1.00  0.00     0.180 A 
ATOM     29  C   UNL     1     -48.556   3.641  72.160  1.00  0.00     0.239 A 
ATOM     30  O   UNL     1     -47.533   3.601  69.627  1.00  0.00    -0.452 OA
ATOM     31  C   UNL     1     -47.910   4.786  71.642  1.00  0.00     0.111 A 
ATOM     32  O   UNL     1     -49.125   3.685  73.286  1.00  0.00    -0.285 OA
ATOM     33  C   UNL     1     -47.317   4.674  70.366  1.00  0.00     0.146 A 
ATOM     34  C   UNL     1     -47.811   6.002  72.350  1.00  0.00     0.134 A 
ATOM     35  C   UNL     1     -46.586   5.749  69.829  1.00  0.00     0.094 A 
ATOM     36  C   UNL     1     -47.113   7.068  71.778  1.00  0.00     0.093 A 
ATOM     37  C   UNL     1     -46.475   6.939  70.538  1.00  0.00     0.123 A 
BRANCH  28  38
ATOM     38  C   UNL     1     -48.615   1.555  69.000  1.00  0.00     0.025 A 
ATOM     39  C   UNL     1     -48.754   2.018  67.686  1.00  0.00     0.062 A 
ATOM     40  C   UNL     1     -48.388   0.171  69.196  1.00  0.00     0.016 A 
ATOM     41  C   UNL     1     -48.789   1.130  66.612  1.00  0.00     0.158 A 
ATOM     42  C   UNL     1     -48.332  -0.720  68.126  1.00  0.00     0.051 A 
ATOM     43  C   UNL     1     -48.581  -0.248  66.827  1.00  0.00     0.157 A 
BRANCH  41  44
ATOM     44  O   UNL     1     -49.009   1.613  65.318  1.00  0.00    -0.504 OA
ATOM     45  H   UNL     1     -49.964   1.747  64.969  1.00  0.00     0.293 HD
ENDBRANCH  41  44
BRANCH  43  46
ATOM     46  O   UNL     1     -48.582  -1.167  65.771  1.00  0.00    -0.504 OA
ATOM     47  H   UNL     1     -49.405  -1.412  65.239  1.00  0.00     0.293 HD
ENDBRANCH  43  46
ENDBRANCH  28  38
BRANCH  34  48
ATOM     48  O   UNL     1     -48.390   6.170  73.606  1.00  0.00    -0.507 OA
ATOM     49  H   UNL     1     -48.456   7.082  74.022  1.00  0.00     0.293 HD
ENDBRANCH  34  48
BRANCH  37  50
ATOM     50  O   UNL     1     -45.768   7.989  69.974  1.00  0.00    -0.508 OA
ATOM     51  H   UNL     1     -46.217   8.572  69.275  1.00  0.00     0.293 HD
ENDBRANCH  37  50
ENDBRANCH  26  27
ENDBRANCH   5  26
BRANCH   4  52
ATOM     52  O   UNL     1     -45.540   0.482  73.497  1.00  0.00    -0.384 OA
ATOM     53  H   UNL     1     -45.561  -0.373  74.042  1.00  0.00     0.211 HD
ENDBRANCH   4  52
TORSDOF 16
ENDMDL
