MODEL 1
REMARK VINA RESULT:     5.647      0.000      0.000
REMARK INTER + INTRA:           7.065
REMARK INTER:                   6.803
REMARK INTRA:                   0.262
REMARK UNBOUND:                 0.262
REMARK SMILES O=c1c(O)c(-c2ccc(O)c(O)c2)oc2cc(O)cc(O)c12
REMARK SMILES IDX 5 1 3 2 2 3 1 4 22 5 20 6 19 7 17 8 16 9 15 10 14 11 6 12
REMARK SMILES IDX 7 13 8 14 9 15 13 16 11 17 10 18 12 20 4 22 21 24 18 26
REMARK H PARENT 10 19 12 21 4 23 21 25 18 27
REMARK Flexibility Score: inf
ROOT
ATOM      1  C   UNL     1     -20.688 -21.237 -24.707  1.00  0.00     0.180 A 
ATOM      2  C   UNL     1     -20.433 -21.587 -26.044  1.00  0.00     0.208 A 
ATOM      3  C   UNL     1     -20.171 -22.930 -26.359  1.00  0.00     0.238 A 
ATOM      4  O   UNL     1     -19.890 -23.228 -27.549  1.00  0.00    -0.285 OA
ATOM      5  C   UNL     1     -20.183 -23.908 -25.336  1.00  0.00     0.111 A 
ATOM      6  C   UNL     1     -19.970 -25.305 -25.547  1.00  0.00     0.134 A 
ATOM      7  C   UNL     1     -19.875 -26.163 -24.445  1.00  0.00     0.093 A 
ATOM      8  C   UNL     1     -20.049 -25.685 -23.144  1.00  0.00     0.123 A 
ATOM      9  C   UNL     1     -20.317 -24.336 -22.931  1.00  0.00     0.094 A 
ATOM     10  C   UNL     1     -20.382 -23.449 -24.009  1.00  0.00     0.146 A 
ATOM     11  O   UNL     1     -20.628 -22.167 -23.762  1.00  0.00    -0.452 OA
ENDROOT
BRANCH   1  12
ATOM     12  C   UNL     1     -20.998 -19.847 -24.302  1.00  0.00     0.025 A 
ATOM     13  C   UNL     1     -21.880 -19.573 -23.242  1.00  0.00     0.016 A 
ATOM     14  C   UNL     1     -22.138 -18.254 -22.861  1.00  0.00     0.051 A 
ATOM     15  C   UNL     1     -21.511 -17.191 -23.524  1.00  0.00     0.157 A 
ATOM     16  C   UNL     1     -20.355 -18.779 -24.949  1.00  0.00     0.062 A 
ATOM     17  C   UNL     1     -20.613 -17.456 -24.571  1.00  0.00     0.158 A 
BRANCH  15  18
ATOM     18  O   UNL     1     -21.773 -15.875 -23.143  1.00  0.00    -0.504 OA
ATOM     19  H   UNL     1     -22.474 -15.654 -22.446  1.00  0.00     0.293 HD
ENDBRANCH  15  18
BRANCH  17  20
ATOM     20  O   UNL     1     -19.966 -16.421 -25.245  1.00  0.00    -0.504 OA
ATOM     21  H   UNL     1     -19.431 -16.581 -26.091  1.00  0.00     0.293 HD
ENDBRANCH  17  20
ENDBRANCH   1  12
BRANCH   2  22
ATOM     22  O   UNL     1     -20.405 -20.602 -27.035  1.00  0.00    -0.502 OA
ATOM     23  H   UNL     1     -19.744 -19.834 -27.020  1.00  0.00     0.293 HD
ENDBRANCH   2  22
BRANCH   6  24
ATOM     24  O   UNL     1     -19.875 -25.897 -26.810  1.00  0.00    -0.507 OA
ATOM     25  H   UNL     1     -19.030 -26.286 -27.200  1.00  0.00     0.293 HD
ENDBRANCH   6  24
BRANCH   8  26
ATOM     26  O   UNL     1     -19.968 -26.549 -22.054  1.00  0.00    -0.508 OA
ATOM     27  H   UNL     1     -19.109 -27.039 -21.828  1.00  0.00     0.293 HD
ENDBRANCH   8  26
TORSDOF 6
ENDMDL
MODEL 2
REMARK VINA RESULT:     5.947      2.882      6.158
REMARK INTER + INTRA:           7.426
REMARK INTER:                   6.955
REMARK INTRA:                   0.471
REMARK UNBOUND:                 0.262
REMARK SMILES O=c1c(O)c(-c2ccc(O)c(O)c2)oc2cc(O)cc(O)c12
REMARK SMILES IDX 5 1 3 2 2 3 1 4 22 5 20 6 19 7 17 8 16 9 15 10 14 11 6 12
REMARK SMILES IDX 7 13 8 14 9 15 13 16 11 17 10 18 12 20 4 22 21 24 18 26
REMARK H PARENT 10 19 12 21 4 23 21 25 18 27
REMARK Flexibility Score: inf
ROOT
ATOM      1  C   UNL     1     -20.046 -20.737 -26.982  1.00  0.00     0.180 A 
ATOM      2  C   UNL     1     -20.091 -21.923 -26.229  1.00  0.00     0.208 A 
ATOM      3  C   UNL     1     -20.173 -21.838 -24.830  1.00  0.00     0.238 A 
ATOM      4  O   UNL     1     -20.158 -22.902 -24.158  1.00  0.00    -0.285 OA
ATOM      5  C   UNL     1     -20.223 -20.570 -24.202  1.00  0.00     0.111 A 
ATOM      6  C   UNL     1     -20.347 -20.366 -22.795  1.00  0.00     0.134 A 
ATOM      7  C   UNL     1     -20.257 -19.069 -22.274  1.00  0.00     0.093 A 
ATOM      8  C   UNL     1     -20.112 -17.964 -23.116  1.00  0.00     0.123 A 
ATOM      9  C   UNL     1     -20.051 -18.147 -24.495  1.00  0.00     0.094 A 
ATOM     10  C   UNL     1     -20.103 -19.432 -25.041  1.00  0.00     0.146 A 
ATOM     11  O   UNL     1     -20.029 -19.564 -26.361  1.00  0.00    -0.452 OA
ENDROOT
BRANCH   1  12
ATOM     12  C   UNL     1     -19.986 -20.745 -28.461  1.00  0.00     0.025 A 
ATOM     13  C   UNL     1     -20.017 -21.947 -29.189  1.00  0.00     0.016 A 
ATOM     14  C   UNL     1     -19.984 -21.930 -30.586  1.00  0.00     0.051 A 
ATOM     15  C   UNL     1     -19.931 -20.712 -31.276  1.00  0.00     0.157 A 
ATOM     16  C   UNL     1     -19.954 -19.526 -29.159  1.00  0.00     0.062 A 
ATOM     17  C   UNL     1     -19.919 -19.504 -30.558  1.00  0.00     0.158 A 
BRANCH  15  18
ATOM     18  O   UNL     1     -19.896 -20.697 -32.670  1.00  0.00    -0.504 OA
ATOM     19  H   UNL     1     -19.205 -21.226 -33.189  1.00  0.00     0.293 HD
ENDBRANCH  15  18
BRANCH  17  20
ATOM     20  O   UNL     1     -19.875 -18.275 -31.215  1.00  0.00    -0.504 OA
ATOM     21  H   UNL     1     -20.678 -17.896 -31.702  1.00  0.00     0.293 HD
ENDBRANCH  17  20
ENDBRANCH   1  12
BRANCH   2  22
ATOM     22  O   UNL     1     -20.018 -23.164 -26.867  1.00  0.00    -0.502 OA
ATOM     23  H   UNL     1     -19.840 -23.255 -27.860  1.00  0.00     0.293 HD
ENDBRANCH   2  22
BRANCH   6  24
ATOM     24  O   UNL     1     -20.586 -21.392 -21.876  1.00  0.00    -0.507 OA
ATOM     25  H   UNL     1     -20.951 -22.303 -22.112  1.00  0.00     0.293 HD
ENDBRANCH   6  24
BRANCH   8  26
ATOM     26  O   UNL     1     -20.039 -16.676 -22.591  1.00  0.00    -0.508 OA
ATOM     27  H   UNL     1     -19.878 -16.514 -21.603  1.00  0.00     0.293 HD
ENDBRANCH   8  26
TORSDOF 6
ENDMDL
MODEL 3
REMARK VINA RESULT:     6.129      3.076      5.824
REMARK INTER + INTRA:           7.645
REMARK INTER:                   7.150
REMARK INTRA:                   0.495
REMARK UNBOUND:                 0.262
REMARK SMILES O=c1c(O)c(-c2ccc(O)c(O)c2)oc2cc(O)cc(O)c12
REMARK SMILES IDX 5 1 3 2 2 3 1 4 22 5 20 6 19 7 17 8 16 9 15 10 14 11 6 12
REMARK SMILES IDX 7 13 8 14 9 15 13 16 11 17 10 18 12 20 4 22 21 24 18 26
REMARK H PARENT 10 19 12 21 4 23 21 25 18 27
REMARK Flexibility Score: inf
ROOT
ATOM      1  C   UNL     1     -20.272 -19.988 -27.048  1.00  0.00     0.180 A 
ATOM      2  C   UNL     1     -20.573 -18.709 -26.548  1.00  0.00     0.208 A 
ATOM      3  C   UNL     1     -20.646 -18.522 -25.158  1.00  0.00     0.238 A 
ATOM      4  O   UNL     1     -20.970 -17.388 -24.718  1.00  0.00    -0.285 OA
ATOM      5  C   UNL     1     -20.403 -19.610 -24.286  1.00  0.00     0.111 A 
ATOM      6  C   UNL     1     -20.410 -19.525 -22.861  1.00  0.00     0.134 A 
ATOM      7  C   UNL     1     -20.284 -20.692 -22.099  1.00  0.00     0.093 A 
ATOM      8  C   UNL     1     -20.086 -21.933 -22.710  1.00  0.00     0.123 A 
ATOM      9  C   UNL     1     -20.016 -22.018 -24.098  1.00  0.00     0.094 A 
ATOM     10  C   UNL     1     -20.174 -20.875 -24.886  1.00  0.00     0.146 A 
ATOM     11  O   UNL     1     -20.113 -21.002 -26.207  1.00  0.00    -0.452 OA
ENDROOT
BRANCH   1  12
ATOM     12  C   UNL     1     -20.152 -20.258 -28.499  1.00  0.00     0.025 A 
ATOM     13  C   UNL     1     -20.179 -21.569 -29.005  1.00  0.00     0.016 A 
ATOM     14  C   UNL     1     -20.089 -21.799 -30.380  1.00  0.00     0.051 A 
ATOM     15  C   UNL     1     -19.983 -20.723 -31.270  1.00  0.00     0.157 A 
ATOM     16  C   UNL     1     -20.067 -19.181 -29.398  1.00  0.00     0.062 A 
ATOM     17  C   UNL     1     -19.974 -19.407 -30.775  1.00  0.00     0.158 A 
BRANCH  15  18
ATOM     18  O   UNL     1     -19.890 -20.954 -32.642  1.00  0.00    -0.504 OA
ATOM     19  H   UNL     1     -19.141 -21.512 -33.037  1.00  0.00     0.293 HD
ENDBRANCH  15  18
BRANCH  17  20
ATOM     20  O   UNL     1     -19.878 -18.314 -31.636  1.00  0.00    -0.504 OA
ATOM     21  H   UNL     1     -20.635 -17.652 -31.751  1.00  0.00     0.293 HD
ENDBRANCH  17  20
ENDBRANCH   1  12
BRANCH   2  22
ATOM     22  O   UNL     1     -20.832 -17.654 -27.426  1.00  0.00    -0.502 OA
ATOM     23  H   UNL     1     -21.189 -16.759 -27.112  1.00  0.00     0.293 HD
ENDBRANCH   2  22
BRANCH   6  24
ATOM     24  O   UNL     1     -20.511 -18.324 -22.152  1.00  0.00    -0.507 OA
ATOM     25  H   UNL     1     -20.334 -18.224 -21.163  1.00  0.00     0.293 HD
ENDBRANCH   6  24
BRANCH   8  26
ATOM     26  O   UNL     1     -19.946 -23.088 -21.943  1.00  0.00    -0.508 OA
ATOM     27  H   UNL     1     -20.753 -23.611 -21.620  1.00  0.00     0.293 HD
ENDBRANCH   8  26
TORSDOF 6
ENDMDL
MODEL 4
REMARK VINA RESULT:     6.792     23.266     24.848
REMARK INTER + INTRA:           8.444
REMARK INTER:                   8.054
REMARK INTRA:                   0.389
REMARK UNBOUND:                 0.262
REMARK SMILES O=c1c(O)c(-c2ccc(O)c(O)c2)oc2cc(O)cc(O)c12
REMARK SMILES IDX 5 1 3 2 2 3 1 4 22 5 20 6 19 7 17 8 16 9 15 10 14 11 6 12
REMARK SMILES IDX 7 13 8 14 9 15 13 16 11 17 10 18 12 20 4 22 21 24 18 26
REMARK H PARENT 10 19 12 21 4 23 21 25 18 27
REMARK Flexibility Score: inf
ROOT
ATOM      1  C   UNL     1     -37.404 -35.495 -34.978  1.00  0.00     0.180 A 
ATOM      2  C   UNL     1     -36.008 -35.639 -35.045  1.00  0.00     0.208 A 
ATOM      3  C   UNL     1     -35.398 -35.798 -36.299  1.00  0.00     0.238 A 
ATOM      4  O   UNL     1     -34.154 -35.981 -36.348  1.00  0.00    -0.285 OA
ATOM      5  C   UNL     1     -36.190 -35.796 -37.473  1.00  0.00     0.111 A 
ATOM      6  C   UNL     1     -35.675 -35.909 -38.800  1.00  0.00     0.134 A 
ATOM      7  C   UNL     1     -36.561 -36.025 -39.877  1.00  0.00     0.093 A 
ATOM      8  C   UNL     1     -37.943 -35.967 -39.682  1.00  0.00     0.123 A 
ATOM      9  C   UNL     1     -38.455 -35.796 -38.398  1.00  0.00     0.094 A 
ATOM     10  C   UNL     1     -37.596 -35.713 -37.299  1.00  0.00     0.146 A 
ATOM     11  O   UNL     1     -38.126 -35.562 -36.091  1.00  0.00    -0.452 OA
ENDROOT
BRANCH   1  12
ATOM     12  C   UNL     1     -38.116 -35.297 -33.695  1.00  0.00     0.025 A 
ATOM     13  C   UNL     1     -39.376 -34.677 -33.644  1.00  0.00     0.016 A 
ATOM     14  C   UNL     1     -40.040 -34.522 -32.425  1.00  0.00     0.051 A 
ATOM     15  C   UNL     1     -39.461 -34.996 -31.240  1.00  0.00     0.157 A 
ATOM     16  C   UNL     1     -37.549 -35.788 -32.507  1.00  0.00     0.062 A 
ATOM     17  C   UNL     1     -38.210 -35.635 -31.284  1.00  0.00     0.158 A 
BRANCH  15  18
ATOM     18  O   UNL     1     -40.124 -34.839 -30.024  1.00  0.00    -0.504 OA
ATOM     19  H   UNL     1     -40.942 -35.390 -29.790  1.00  0.00     0.293 HD
ENDBRANCH  15  18
BRANCH  17  20
ATOM     20  O   UNL     1     -37.611 -36.124 -30.124  1.00  0.00    -0.504 OA
ATOM     21  H   UNL     1     -36.665 -36.488 -30.119  1.00  0.00     0.293 HD
ENDBRANCH  17  20
ENDBRANCH   1  12
BRANCH   2  22
ATOM     22  O   UNL     1     -35.247 -35.660 -33.873  1.00  0.00    -0.502 OA
ATOM     23  H   UNL     1     -35.352 -34.965 -33.143  1.00  0.00     0.293 HD
ENDBRANCH   2  22
BRANCH   6  24
ATOM     24  O   UNL     1     -34.312 -35.884 -39.112  1.00  0.00    -0.507 OA
ATOM     25  H   UNL     1     -33.764 -36.695 -39.359  1.00  0.00     0.293 HD
ENDBRANCH   6  24
BRANCH   8  26
ATOM     26  O   UNL     1     -38.817 -36.069 -40.762  1.00  0.00    -0.508 OA
ATOM     27  H   UNL     1     -38.861 -35.352 -41.478  1.00  0.00     0.293 HD
ENDBRANCH   8  26
TORSDOF 6
ENDMDL
MODEL 5
REMARK VINA RESULT:     7.528      2.329      3.410
REMARK INTER + INTRA:           9.330
REMARK INTER:                   9.590
REMARK INTRA:                  -0.260
REMARK UNBOUND:                 0.262
REMARK SMILES O=c1c(O)c(-c2ccc(O)c(O)c2)oc2cc(O)cc(O)c12
REMARK SMILES IDX 5 1 3 2 2 3 1 4 22 5 20 6 19 7 17 8 16 9 15 10 14 11 6 12
REMARK SMILES IDX 7 13 8 14 9 15 13 16 11 17 10 18 12 20 4 22 21 24 18 26
REMARK H PARENT 10 19 12 21 4 23 21 25 18 27
REMARK Flexibility Score: inf
ROOT
ATOM      1  C   UNL     1     -20.771 -19.484 -26.098  1.00  0.00     0.180 A 
ATOM      2  C   UNL     1     -20.530 -19.021 -27.404  1.00  0.00     0.208 A 
ATOM      3  C   UNL     1     -20.252 -19.952 -28.416  1.00  0.00     0.238 A 
ATOM      4  O   UNL     1     -19.984 -19.528 -29.571  1.00  0.00    -0.285 OA
ATOM      5  C   UNL     1     -20.232 -21.335 -28.116  1.00  0.00     0.111 A 
ATOM      6  C   UNL     1     -20.001 -22.370 -29.072  1.00  0.00     0.134 A 
ATOM      7  C   UNL     1     -19.876 -23.696 -28.639  1.00  0.00     0.093 A 
ATOM      8  C   UNL     1     -20.038 -24.031 -27.292  1.00  0.00     0.123 A 
ATOM      9  C   UNL     1     -20.324 -23.037 -26.360  1.00  0.00     0.094 A 
ATOM     10  C   UNL     1     -20.419 -21.701 -26.757  1.00  0.00     0.146 A 
ATOM     11  O   UNL     1     -20.681 -20.782 -25.835  1.00  0.00    -0.452 OA
ENDROOT
BRANCH   1  12
ATOM     12  C   UNL     1     -21.096 -18.565 -24.984  1.00  0.00     0.025 A 
ATOM     13  C   UNL     1     -20.139 -18.222 -24.014  1.00  0.00     0.016 A 
ATOM     14  C   UNL     1     -20.462 -17.334 -22.985  1.00  0.00     0.051 A 
ATOM     15  C   UNL     1     -21.741 -16.766 -22.917  1.00  0.00     0.157 A 
ATOM     16  C   UNL     1     -22.371 -17.977 -24.923  1.00  0.00     0.062 A 
ATOM     17  C   UNL     1     -22.699 -17.088 -23.893  1.00  0.00     0.158 A 
BRANCH  15  18
ATOM     18  O   UNL     1     -22.062 -15.882 -21.887  1.00  0.00    -0.504 OA
ATOM     19  H   UNL     1     -21.552 -15.880 -21.011  1.00  0.00     0.293 HD
ENDBRANCH  15  18
BRANCH  17  20
ATOM     20  O   UNL     1     -23.978 -16.534 -23.858  1.00  0.00    -0.504 OA
ATOM     21  H   UNL     1     -24.306 -15.988 -23.070  1.00  0.00     0.293 HD
ENDBRANCH  17  20
ENDBRANCH   1  12
BRANCH   2  22
ATOM     22  O   UNL     1     -20.533 -17.650 -27.674  1.00  0.00    -0.502 OA
ATOM     23  H   UNL     1     -19.871 -17.219 -28.310  1.00  0.00     0.293 HD
ENDBRANCH   2  22
BRANCH   6  24
ATOM     24  O   UNL     1     -19.916 -22.154 -30.450  1.00  0.00    -0.507 OA
ATOM     25  H   UNL     1     -20.457 -21.472 -30.960  1.00  0.00     0.293 HD
ENDBRANCH   6  24
BRANCH   8  26
ATOM     26  O   UNL     1     -19.926 -25.354 -26.872  1.00  0.00    -0.508 OA
ATOM     27  H   UNL     1     -20.028 -25.611 -25.896  1.00  0.00     0.293 HD
ENDBRANCH   8  26
TORSDOF 6
ENDMDL
