MODEL 1
REMARK VINA RESULT:    -8.728      0.000      0.000
REMARK INTER + INTRA:         -14.854
REMARK INTER:                 -13.576
REMARK INTRA:                  -1.278
REMARK UNBOUND:                -1.278
REMARK SMILES C[C@@H]1O[C@H](OC[C@@H]2O[C@@H](Oc3c(-c4ccc(O)c(O)c4)oc4cc(O)cc(O)c4c3=O)[C@@H](O)[C@H](O)[C@H]2O)[C@@H](O)[C@@H](O)[C@H]1O
REMARK SMILES IDX 7 1 36 2 34 3 32 4 9 5 8 6 6 7 5 8 4 9 1 10 2 11 42 12 3 13
REMARK SMILES IDX 40 14 38 15 43 16 41 18 39 20 37 22 35 24 10 26 11 27 12 28
REMARK SMILES IDX 30 29 21 30 29 31 31 32 22 33 27 34 23 35 26 36 24 37 13 38
REMARK SMILES IDX 20 39 14 40 18 41 15 42 16 43 19 44 17 46 28 48 25 50 33 52
REMARK H PARENT 43 17 41 19 39 21 37 23 35 25 19 45 17 47 28 49 25 51 33 53
REMARK Flexibility Score: inf
ROOT
ATOM      1  C   UNL     1      31.219  -3.078  34.400  1.00  0.00     0.180 C 
ATOM      2  C   UNL     1      30.898  -4.597  34.035  1.00  0.00     0.177 C 
ATOM      3  C   UNL     1      29.291  -4.693  34.046  1.00  0.00     0.180 C 
ATOM      4  C   UNL     1      28.466  -3.849  35.164  1.00  0.00     0.214 C 
ATOM      5  C   UNL     1      28.890  -2.376  35.698  1.00  0.00     0.339 C 
ATOM      6  O   UNL     1      30.199  -2.140  35.073  1.00  0.00    -0.332 OA
ENDROOT
BRANCH   1   7
ATOM      7  C   UNL     1      32.780  -3.225  35.114  1.00  0.00     0.198 C 
BRANCH   7   8
ATOM      8  O   UNL     1      33.766  -4.315  34.821  1.00  0.00    -0.347 OA
BRANCH   8   9
ATOM      9  C   UNL     1      34.396  -4.240  33.585  1.00  0.00     0.281 C 
ATOM     10  C   UNL     1      35.188  -1.715  31.134  1.00  0.00     0.041 C 
ATOM     11  C   UNL     1      34.310  -2.888  31.663  1.00  0.00     0.150 C 
ATOM     12  C   UNL     1      34.786  -4.231  30.915  1.00  0.00     0.174 C 
ATOM     13  O   UNL     1      34.459  -2.906  33.072  1.00  0.00    -0.344 OA
ATOM     14  C   UNL     1      36.065  -4.805  31.616  1.00  0.00     0.179 C 
ATOM     15  C   UNL     1      35.886  -4.918  33.251  1.00  0.00     0.202 C 
BRANCH  12  16
ATOM     16  O   UNL     1      33.730  -5.156  30.789  1.00  0.00    -0.388 OA
ATOM     17  H   UNL     1      34.040  -5.821  30.141  1.00  0.00     0.211 HD
ENDBRANCH  12  16
BRANCH  14  18
ATOM     18  O   UNL     1      36.481  -5.961  30.995  1.00  0.00    -0.387 OA
ATOM     19  H   UNL     1      37.445  -6.025  30.878  1.00  0.00     0.211 HD
ENDBRANCH  14  18
BRANCH  15  20
ATOM     20  O   UNL     1      35.748  -6.234  33.674  1.00  0.00    -0.385 OA
ATOM     21  H   UNL     1      34.773  -6.451  33.741  1.00  0.00     0.211 HD
ENDBRANCH  15  20
ENDBRANCH   8   9
ENDBRANCH   7   8
ENDBRANCH   1   7
BRANCH   2  22
ATOM     22  O   UNL     1      31.509  -5.010  32.788  1.00  0.00    -0.387 OA
ATOM     23  H   UNL     1      31.342  -5.997  32.637  1.00  0.00     0.211 HD
ENDBRANCH   2  22
BRANCH   3  24
ATOM     24  O   UNL     1      28.855  -6.020  33.853  1.00  0.00    -0.387 OA
ATOM     25  H   UNL     1      29.134  -6.534  34.691  1.00  0.00     0.211 HD
ENDBRANCH   3  24
BRANCH   5  26
ATOM     26  O   UNL     1      27.728  -1.377  35.554  1.00  0.00    -0.454 OA
BRANCH  26  27
ATOM     27  C   UNL     1      27.535   0.063  35.915  1.00  0.00     0.214 A 
ATOM     28  C   UNL     1      26.806   0.555  37.116  1.00  0.00     0.180 A 
ATOM     29  C   UNL     1      26.724   0.584  34.883  1.00  0.00     0.239 A 
ATOM     30  O   UNL     1      25.627   0.032  37.309  1.00  0.00    -0.452 OA
ATOM     31  C   UNL     1      25.311   0.319  34.979  1.00  0.00     0.111 A 
ATOM     32  O   UNL     1      27.213   1.017  33.829  1.00  0.00    -0.285 OA
ATOM     33  C   UNL     1      24.821  -0.177  36.249  1.00  0.00     0.146 A 
ATOM     34  C   UNL     1      24.322   0.624  33.970  1.00  0.00     0.134 A 
ATOM     35  C   UNL     1      23.560  -0.733  36.359  1.00  0.00     0.094 A 
ATOM     36  C   UNL     1      23.248  -0.347  33.911  1.00  0.00     0.093 A 
ATOM     37  C   UNL     1      22.893  -1.026  35.112  1.00  0.00     0.123 A 
BRANCH  28  38
ATOM     38  C   UNL     1      26.859   1.954  37.712  1.00  0.00     0.025 A 
ATOM     39  C   UNL     1      26.308   2.130  38.986  1.00  0.00     0.062 A 
ATOM     40  C   UNL     1      28.006   2.692  37.478  1.00  0.00     0.016 A 
ATOM     41  C   UNL     1      26.937   2.909  39.982  1.00  0.00     0.158 A 
ATOM     42  C   UNL     1      28.727   3.349  38.536  1.00  0.00     0.051 A 
ATOM     43  C   UNL     1      28.164   3.455  39.772  1.00  0.00     0.157 A 
BRANCH  41  44
ATOM     44  O   UNL     1      26.326   3.001  41.195  1.00  0.00    -0.504 OA
ATOM     45  H   UNL     1      26.629   2.625  42.084  1.00  0.00     0.293 HD
ENDBRANCH  41  44
BRANCH  43  46
ATOM     46  O   UNL     1      29.022   3.880  40.833  1.00  0.00    -0.504 OA
ATOM     47  H   UNL     1      29.203   3.213  41.524  1.00  0.00     0.293 HD
ENDBRANCH  43  46
ENDBRANCH  28  38
BRANCH  34  48
ATOM     48  O   UNL     1      24.258   1.828  33.258  1.00  0.00    -0.507 OA
ATOM     49  H   UNL     1      23.818   1.895  32.383  1.00  0.00     0.293 HD
ENDBRANCH  34  48
BRANCH  37  50
ATOM     50  O   UNL     1      21.880  -1.967  35.092  1.00  0.00    -0.508 OA
ATOM     51  H   UNL     1      20.906  -1.800  34.946  1.00  0.00     0.293 HD
ENDBRANCH  37  50
ENDBRANCH  26  27
ENDBRANCH   5  26
BRANCH   4  52
ATOM     52  O   UNL     1      27.209  -3.634  34.536  1.00  0.00    -0.384 OA
ATOM     53  H   UNL     1      26.541  -3.860  35.321  1.00  0.00     0.211 HD
ENDBRANCH   4  52
TORSDOF 16
ENDMDL
MODEL 2
REMARK VINA RESULT:    -8.247      2.341      4.877
REMARK INTER + INTRA:         -14.106
REMARK INTER:                 -12.567
REMARK INTRA:                  -1.539
REMARK UNBOUND:                -1.278
REMARK SMILES C[C@@H]1O[C@H](OC[C@@H]2O[C@@H](Oc3c(-c4ccc(O)c(O)c4)oc4cc(O)cc(O)c4c3=O)[C@@H](O)[C@H](O)[C@H]2O)[C@@H](O)[C@@H](O)[C@H]1O
REMARK SMILES IDX 7 1 36 2 34 3 32 4 9 5 8 6 6 7 5 8 4 9 1 10 2 11 42 12 3 13
REMARK SMILES IDX 40 14 38 15 43 16 41 18 39 20 37 22 35 24 10 26 11 27 12 28
REMARK SMILES IDX 30 29 21 30 29 31 31 32 22 33 27 34 23 35 26 36 24 37 13 38
REMARK SMILES IDX 20 39 14 40 18 41 15 42 16 43 19 44 17 46 28 48 25 50 33 52
REMARK H PARENT 43 17 41 19 39 21 37 23 35 25 19 45 17 47 28 49 25 51 33 53
REMARK Flexibility Score: inf
ROOT
ATOM      1  C   UNL     1      27.736  -1.908  35.593  1.00  0.00     0.180 C 
ATOM      2  C   UNL     1      26.622  -2.786  34.863  1.00  0.00     0.177 C 
ATOM      3  C   UNL     1      25.238  -2.012  35.143  1.00  0.00     0.180 C 
ATOM      4  C   UNL     1      25.015  -1.309  36.591  1.00  0.00     0.214 C 
ATOM      5  C   UNL     1      26.186  -0.580  37.446  1.00  0.00     0.339 C 
ATOM      6  O   UNL     1      27.410  -0.874  36.688  1.00  0.00    -0.332 OA
ENDROOT
BRANCH   1   7
ATOM      7  C   UNL     1      28.936  -3.097  35.931  1.00  0.00     0.198 C 
BRANCH   7   8
ATOM      8  O   UNL     1      29.561  -4.007  34.917  1.00  0.00    -0.347 OA
BRANCH   8   9
ATOM      9  C   UNL     1      30.813  -3.621  34.454  1.00  0.00     0.281 C 
ATOM     10  C   UNL     1      34.239  -3.747  35.574  1.00  0.00     0.041 C 
ATOM     11  C   UNL     1      32.892  -2.996  35.359  1.00  0.00     0.150 C 
ATOM     12  C   UNL     1      33.022  -2.138  34.004  1.00  0.00     0.174 C 
ATOM     13  O   UNL     1      31.873  -3.981  35.344  1.00  0.00    -0.344 OA
ATOM     14  C   UNL     1      32.765  -3.061  32.763  1.00  0.00     0.179 C 
ATOM     15  C   UNL     1      31.386  -3.951  32.920  1.00  0.00     0.202 C 
BRANCH  12  16
ATOM     16  O   UNL     1      32.217  -0.983  34.043  1.00  0.00    -0.388 OA
ATOM     17  H   UNL     1      32.447  -0.475  33.238  1.00  0.00     0.211 HD
ENDBRANCH  12  16
BRANCH  14  18
ATOM     18  O   UNL     1      32.863  -2.341  31.595  1.00  0.00    -0.387 OA
ATOM     19  H   UNL     1      32.006  -2.082  31.213  1.00  0.00     0.211 HD
ENDBRANCH  14  18
BRANCH  15  20
ATOM     20  O   UNL     1      30.371  -3.497  32.087  1.00  0.00    -0.385 OA
ATOM     21  H   UNL     1      30.574  -2.555  31.815  1.00  0.00     0.211 HD
ENDBRANCH  15  20
ENDBRANCH   8   9
ENDBRANCH   7   8
ENDBRANCH   1   7
BRANCH   2  22
ATOM     22  O   UNL     1      26.912  -2.997  33.459  1.00  0.00    -0.387 OA
ATOM     23  H   UNL     1      26.665  -2.170  32.932  1.00  0.00     0.211 HD
ENDBRANCH   2  22
BRANCH   3  24
ATOM     24  O   UNL     1      24.135  -2.740  34.652  1.00  0.00    -0.387 OA
ATOM     25  H   UNL     1      23.723  -3.209  35.461  1.00  0.00     0.211 HD
ENDBRANCH   3  24
BRANCH   5  26
ATOM     26  O   UNL     1      25.788   0.859  37.819  1.00  0.00    -0.454 OA
BRANCH  26  27
ATOM     27  C   UNL     1      26.534   2.149  37.958  1.00  0.00     0.214 A 
ATOM     28  C   UNL     1      27.501   2.468  39.045  1.00  0.00     0.180 A 
ATOM     29  C   UNL     1      25.535   3.116  38.204  1.00  0.00     0.239 A 
ATOM     30  O   UNL     1      27.081   2.227  40.257  1.00  0.00    -0.452 OA
ATOM     31  C   UNL     1      25.038   3.200  39.554  1.00  0.00     0.111 A 
ATOM     32  O   UNL     1      24.933   3.678  37.276  1.00  0.00    -0.285 OA
ATOM     33  C   UNL     1      25.806   2.521  40.579  1.00  0.00     0.146 A 
ATOM     34  C   UNL     1      23.922   4.004  39.998  1.00  0.00     0.134 A 
ATOM     35  C   UNL     1      25.274   2.292  41.834  1.00  0.00     0.094 A 
ATOM     36  C   UNL     1      23.164   3.388  41.068  1.00  0.00     0.093 A 
ATOM     37  C   UNL     1      23.854   2.524  41.966  1.00  0.00     0.123 A 
BRANCH  28  38
ATOM     38  C   UNL     1      28.523   3.595  39.062  1.00  0.00     0.025 A 
ATOM     39  C   UNL     1      28.935   4.068  40.313  1.00  0.00     0.062 A 
ATOM     40  C   UNL     1      29.526   3.547  38.111  1.00  0.00     0.016 A 
ATOM     41  C   UNL     1      30.285   4.363  40.604  1.00  0.00     0.158 A 
ATOM     42  C   UNL     1      30.917   3.689  38.451  1.00  0.00     0.051 A 
ATOM     43  C   UNL     1      31.266   4.112  39.697  1.00  0.00     0.157 A 
BRANCH  41  44
ATOM     44  O   UNL     1      30.582   4.800  41.858  1.00  0.00    -0.504 OA
ATOM     45  H   UNL     1      31.155   4.355  42.563  1.00  0.00     0.293 HD
ENDBRANCH  41  44
BRANCH  43  46
ATOM     46  O   UNL     1      32.645   3.985  40.055  1.00  0.00    -0.504 OA
ATOM     47  H   UNL     1      33.159   4.816  40.059  1.00  0.00     0.293 HD
ENDBRANCH  43  46
ENDBRANCH  28  38
BRANCH  34  48
ATOM     48  O   UNL     1      23.695   5.331  39.611  1.00  0.00    -0.507 OA
ATOM     49  H   UNL     1      23.690   6.069  40.258  1.00  0.00     0.293 HD
ENDBRANCH  34  48
BRANCH  37  50
ATOM     50  O   UNL     1      23.162   1.910  42.993  1.00  0.00    -0.508 OA
ATOM     51  H   UNL     1      22.802   0.978  43.004  1.00  0.00     0.293 HD
ENDBRANCH  37  50
ENDBRANCH  26  27
ENDBRANCH   5  26
BRANCH   4  52
ATOM     52  O   UNL     1      24.104  -0.258  36.298  1.00  0.00    -0.384 OA
ATOM     53  H   UNL     1      24.760   0.558  36.170  1.00  0.00     0.211 HD
ENDBRANCH   4  52
TORSDOF 16
ENDMDL
MODEL 3
REMARK VINA RESULT:    -8.210      5.931      9.241
REMARK INTER + INTRA:         -14.048
REMARK INTER:                 -12.408
REMARK INTRA:                  -1.641
REMARK UNBOUND:                -1.278
REMARK SMILES C[C@@H]1O[C@H](OC[C@@H]2O[C@@H](Oc3c(-c4ccc(O)c(O)c4)oc4cc(O)cc(O)c4c3=O)[C@@H](O)[C@H](O)[C@H]2O)[C@@H](O)[C@@H](O)[C@H]1O
REMARK SMILES IDX 7 1 36 2 34 3 32 4 9 5 8 6 6 7 5 8 4 9 1 10 2 11 42 12 3 13
REMARK SMILES IDX 40 14 38 15 43 16 41 18 39 20 37 22 35 24 10 26 11 27 12 28
REMARK SMILES IDX 30 29 21 30 29 31 31 32 22 33 27 34 23 35 26 36 24 37 13 38
REMARK SMILES IDX 20 39 14 40 18 41 15 42 16 43 19 44 17 46 28 48 25 50 33 52
REMARK H PARENT 43 17 41 19 39 21 37 23 35 25 19 45 17 47 28 49 25 51 33 53
REMARK Flexibility Score: inf
ROOT
ATOM      1  C   UNL     1      32.065   3.426  41.199  1.00  0.00     0.180 C 
ATOM      2  C   UNL     1      32.333   4.801  41.962  1.00  0.00     0.177 C 
ATOM      3  C   UNL     1      30.869   5.377  42.301  1.00  0.00     0.180 C 
ATOM      4  C   UNL     1      29.680   5.177  41.211  1.00  0.00     0.214 C 
ATOM      5  C   UNL     1      29.504   3.862  40.277  1.00  0.00     0.339 C 
ATOM      6  O   UNL     1      30.713   3.073  40.551  1.00  0.00    -0.332 OA
ENDROOT
BRANCH   1   7
ATOM      7  C   UNL     1      33.487   3.291  40.235  1.00  0.00     0.198 C 
BRANCH   7   8
ATOM      8  O   UNL     1      34.880   3.139  40.766  1.00  0.00    -0.347 OA
BRANCH   8   9
ATOM      9  C   UNL     1      35.165   1.919  41.365  1.00  0.00     0.281 C 
ATOM     10  C   UNL     1      37.099  -1.037  40.634  1.00  0.00     0.041 C 
ATOM     11  C   UNL     1      35.752  -0.259  40.697  1.00  0.00     0.150 C 
ATOM     12  C   UNL     1      35.005  -0.685  42.057  1.00  0.00     0.174 C 
ATOM     13  O   UNL     1      36.070   1.118  40.599  1.00  0.00    -0.344 OA
ATOM     14  C   UNL     1      35.590   0.129  43.262  1.00  0.00     0.179 C 
ATOM     15  C   UNL     1      35.652   1.747  42.954  1.00  0.00     0.202 C 
BRANCH  12  16
ATOM     16  O   UNL     1      33.604  -0.601  41.927  1.00  0.00    -0.388 OA
ATOM     17  H   UNL     1      33.417  -0.790  40.985  1.00  0.00     0.211 HD
ENDBRANCH  12  16
BRANCH  14  18
ATOM     18  O   UNL     1      34.955  -0.215  44.434  1.00  0.00    -0.387 OA
ATOM     19  H   UNL     1      34.927   0.496  45.097  1.00  0.00     0.211 HD
ENDBRANCH  14  18
BRANCH  15  20
ATOM     20  O   UNL     1      34.694   2.455  43.668  1.00  0.00    -0.385 OA
ATOM     21  H   UNL     1      33.985   2.768  43.034  1.00  0.00     0.211 HD
ENDBRANCH  15  20
ENDBRANCH   8   9
ENDBRANCH   7   8
ENDBRANCH   1   7
BRANCH   2  22
ATOM     22  O   UNL     1      33.190   4.637  43.119  1.00  0.00    -0.387 OA
ATOM     23  H   UNL     1      33.828   5.419  43.185  1.00  0.00     0.211 HD
ENDBRANCH   2  22
BRANCH   3  24
ATOM     24  O   UNL     1      30.945   6.661  42.879  1.00  0.00    -0.387 OA
ATOM     25  H   UNL     1      31.812   7.076  42.533  1.00  0.00     0.211 HD
ENDBRANCH   3  24
BRANCH   5  26
ATOM     26  O   UNL     1      28.093   3.263  40.421  1.00  0.00    -0.454 OA
BRANCH  26  27
ATOM     27  C   UNL     1      27.212   2.435  39.538  1.00  0.00     0.214 A 
ATOM     28  C   UNL     1      26.504   2.932  38.325  1.00  0.00     0.180 A 
ATOM     29  C   UNL     1      26.116   2.083  40.356  1.00  0.00     0.239 A 
ATOM     30  O   UNL     1      25.826   4.035  38.485  1.00  0.00    -0.452 OA
ATOM     31  C   UNL     1      25.092   3.082  40.526  1.00  0.00     0.111 A 
ATOM     32  O   UNL     1      26.150   1.084  41.091  1.00  0.00    -0.285 OA
ATOM     33  C   UNL     1      25.121   4.213  39.619  1.00  0.00     0.146 A 
ATOM     34  C   UNL     1      23.966   2.996  41.429  1.00  0.00     0.134 A 
ATOM     35  C   UNL     1      24.381   5.352  39.876  1.00  0.00     0.094 A 
ATOM     36  C   UNL     1      23.581   4.277  41.984  1.00  0.00     0.093 A 
ATOM     37  C   UNL     1      23.810   5.444  41.200  1.00  0.00     0.123 A 
BRANCH  28  38
ATOM     38  C   UNL     1      25.883   2.093  37.219  1.00  0.00     0.025 A 
ATOM     39  C   UNL     1      26.257   0.746  37.149  1.00  0.00     0.062 A 
ATOM     40  C   UNL     1      24.554   2.334  36.919  1.00  0.00     0.016 A 
ATOM     41  C   UNL     1      25.325  -0.287  36.904  1.00  0.00     0.158 A 
ATOM     42  C   UNL     1      23.581   1.277  36.833  1.00  0.00     0.051 A 
ATOM     43  C   UNL     1      23.995  -0.021  36.812  1.00  0.00     0.157 A 
BRANCH  41  44
ATOM     44  O   UNL     1      25.789  -1.566  36.874  1.00  0.00    -0.504 OA
ATOM     45  H   UNL     1      25.474  -2.364  37.410  1.00  0.00     0.293 HD
ENDBRANCH  41  44
BRANCH  43  46
ATOM     46  O   UNL     1      22.985  -1.018  36.986  1.00  0.00    -0.504 OA
ATOM     47  H   UNL     1      22.156  -0.713  37.403  1.00  0.00     0.293 HD
ENDBRANCH  43  46
ENDBRANCH  28  38
BRANCH  34  48
ATOM     48  O   UNL     1      23.173   1.855  41.603  1.00  0.00    -0.507 OA
ATOM     49  H   UNL     1      23.367   1.010  41.144  1.00  0.00     0.293 HD
ENDBRANCH  34  48
BRANCH  37  50
ATOM     50  O   UNL     1      23.465   6.685  41.702  1.00  0.00    -0.508 OA
ATOM     51  H   UNL     1      24.037   7.503  41.732  1.00  0.00     0.293 HD
ENDBRANCH  37  50
ENDBRANCH  26  27
ENDBRANCH   5  26
BRANCH   4  52
ATOM     52  O   UNL     1      28.508   5.183  42.015  1.00  0.00    -0.384 OA
ATOM     53  H   UNL     1      28.645   6.064  42.579  1.00  0.00     0.211 HD
ENDBRANCH   4  52
TORSDOF 16
ENDMDL
MODEL 4
REMARK VINA RESULT:    -8.201      3.014      4.681
REMARK INTER + INTRA:         -14.034
REMARK INTER:                 -12.546
REMARK INTRA:                  -1.488
REMARK UNBOUND:                -1.278
REMARK SMILES C[C@@H]1O[C@H](OC[C@@H]2O[C@@H](Oc3c(-c4ccc(O)c(O)c4)oc4cc(O)cc(O)c4c3=O)[C@@H](O)[C@H](O)[C@H]2O)[C@@H](O)[C@@H](O)[C@H]1O
REMARK SMILES IDX 7 1 36 2 34 3 32 4 9 5 8 6 6 7 5 8 4 9 1 10 2 11 42 12 3 13
REMARK SMILES IDX 40 14 38 15 43 16 41 18 39 20 37 22 35 24 10 26 11 27 12 28
REMARK SMILES IDX 30 29 21 30 29 31 31 32 22 33 27 34 23 35 26 36 24 37 13 38
REMARK SMILES IDX 20 39 14 40 18 41 15 42 16 43 19 44 17 46 28 48 25 50 33 52
REMARK H PARENT 43 17 41 19 39 21 37 23 35 25 19 45 17 47 28 49 25 51 33 53
REMARK Flexibility Score: inf
ROOT
ATOM      1  C   UNL     1      27.638  -1.739  35.374  1.00  0.00     0.180 C 
ATOM      2  C   UNL     1      26.533  -2.762  34.848  1.00  0.00     0.177 C 
ATOM      3  C   UNL     1      25.141  -1.962  34.968  1.00  0.00     0.180 C 
ATOM      4  C   UNL     1      24.913  -0.977  36.239  1.00  0.00     0.214 C 
ATOM      5  C   UNL     1      26.078  -0.073  36.918  1.00  0.00     0.339 C 
ATOM      6  O   UNL     1      27.303  -0.504  36.232  1.00  0.00    -0.332 OA
ENDROOT
BRANCH   1   7
ATOM      7  C   UNL     1      28.853  -2.819  35.946  1.00  0.00     0.198 C 
BRANCH   7   8
ATOM      8  O   UNL     1      29.519  -3.884  35.127  1.00  0.00    -0.347 OA
BRANCH   8   9
ATOM      9  C   UNL     1      30.766  -3.554  34.611  1.00  0.00     0.281 C 
ATOM     10  C   UNL     1      34.218  -3.722  35.641  1.00  0.00     0.041 C 
ATOM     11  C   UNL     1      32.886  -2.945  35.427  1.00  0.00     0.150 C 
ATOM     12  C   UNL     1      32.999  -2.155  34.030  1.00  0.00     0.174 C 
ATOM     13  O   UNL     1      31.842  -3.901  35.488  1.00  0.00    -0.344 OA
ATOM     14  C   UNL     1      32.681  -3.127  32.842  1.00  0.00     0.179 C 
ATOM     15  C   UNL     1      31.285  -3.971  33.079  1.00  0.00     0.202 C 
BRANCH  12  16
ATOM     16  O   UNL     1      32.225  -0.977  34.037  1.00  0.00    -0.388 OA
ATOM     17  H   UNL     1      31.304  -1.268  33.874  1.00  0.00     0.211 HD
ENDBRANCH  12  16
BRANCH  14  18
ATOM     18  O   UNL     1      32.764  -2.465  31.638  1.00  0.00    -0.387 OA
ATOM     19  H   UNL     1      33.672  -2.339  31.314  1.00  0.00     0.211 HD
ENDBRANCH  14  18
BRANCH  15  20
ATOM     20  O   UNL     1      30.259  -3.528  32.254  1.00  0.00    -0.385 OA
ATOM     21  H   UNL     1      30.016  -2.593  32.515  1.00  0.00     0.211 HD
ENDBRANCH  15  20
ENDBRANCH   8   9
ENDBRANCH   7   8
ENDBRANCH   1   7
BRANCH   2  22
ATOM     22  O   UNL     1      26.821  -3.258  33.517  1.00  0.00    -0.387 OA
ATOM     23  H   UNL     1      27.798  -3.513  33.453  1.00  0.00     0.211 HD
ENDBRANCH   2  22
BRANCH   3  24
ATOM     24  O   UNL     1      24.045  -2.789  34.644  1.00  0.00    -0.387 OA
ATOM     25  H   UNL     1      23.442  -2.234  34.034  1.00  0.00     0.211 HD
ENDBRANCH   3  24
BRANCH   5  26
ATOM     26  O   UNL     1      25.663   1.408  36.986  1.00  0.00    -0.454 OA
BRANCH  26  27
ATOM     27  C   UNL     1      25.596   2.428  38.080  1.00  0.00     0.214 A 
ATOM     28  C   UNL     1      24.639   2.400  39.220  1.00  0.00     0.180 A 
ATOM     29  C   UNL     1      25.202   3.620  37.435  1.00  0.00     0.239 A 
ATOM     30  O   UNL     1      23.388   2.218  38.897  1.00  0.00    -0.452 OA
ATOM     31  C   UNL     1      23.798   3.763  37.148  1.00  0.00     0.111 A 
ATOM     32  O   UNL     1      26.032   4.379  36.912  1.00  0.00    -0.285 OA
ATOM     33  C   UNL     1      22.896   2.839  37.807  1.00  0.00     0.146 A 
ATOM     34  C   UNL     1      23.196   4.821  36.368  1.00  0.00     0.134 A 
ATOM     35  C   UNL     1      21.587   2.698  37.385  1.00  0.00     0.094 A 
ATOM     36  C   UNL     1      22.049   4.382  35.600  1.00  0.00     0.093 A 
ATOM     37  C   UNL     1      21.266   3.310  36.117  1.00  0.00     0.123 A 
BRANCH  28  38
ATOM     38  C   UNL     1      24.732   3.193  40.515  1.00  0.00     0.025 A 
ATOM     39  C   UNL     1      23.645   4.009  40.847  1.00  0.00     0.062 A 
ATOM     40  C   UNL     1      25.325   2.564  41.595  1.00  0.00     0.016 A 
ATOM     41  C   UNL     1      23.132   4.090  42.161  1.00  0.00     0.158 A 
ATOM     42  C   UNL     1      24.707   2.517  42.894  1.00  0.00     0.051 A 
ATOM     43  C   UNL     1      23.623   3.300  43.153  1.00  0.00     0.157 A 
BRANCH  41  44
ATOM     44  O   UNL     1      22.060   4.900  42.374  1.00  0.00    -0.504 OA
ATOM     45  H   UNL     1      21.615   5.541  41.730  1.00  0.00     0.293 HD
ENDBRANCH  41  44
BRANCH  43  46
ATOM     46  O   UNL     1      22.904   3.022  44.357  1.00  0.00    -0.504 OA
ATOM     47  H   UNL     1      22.342   2.224  44.340  1.00  0.00     0.293 HD
ENDBRANCH  43  46
ENDBRANCH  28  38
BRANCH  34  48
ATOM     48  O   UNL     1      23.522   6.178  36.485  1.00  0.00    -0.507 OA
ATOM     49  H   UNL     1      24.059   6.645  35.810  1.00  0.00     0.293 HD
ENDBRANCH  34  48
BRANCH  37  50
ATOM     50  O   UNL     1      20.170   2.858  35.406  1.00  0.00    -0.508 OA
ATOM     51  H   UNL     1      19.925   3.088  34.466  1.00  0.00     0.293 HD
ENDBRANCH  37  50
ENDBRANCH  26  27
ENDBRANCH   5  26
BRANCH   4  52
ATOM     52  O   UNL     1      23.989  -0.020  35.739  1.00  0.00    -0.384 OA
ATOM     53  H   UNL     1      23.955  -0.276  34.716  1.00  0.00     0.211 HD
ENDBRANCH   4  52
TORSDOF 16
ENDMDL
MODEL 5
REMARK VINA RESULT:    -8.178      2.006      4.105
REMARK INTER + INTRA:         -13.998
REMARK INTER:                 -12.464
REMARK INTRA:                  -1.534
REMARK UNBOUND:                -1.278
REMARK SMILES C[C@@H]1O[C@H](OC[C@@H]2O[C@@H](Oc3c(-c4ccc(O)c(O)c4)oc4cc(O)cc(O)c4c3=O)[C@@H](O)[C@H](O)[C@H]2O)[C@@H](O)[C@@H](O)[C@H]1O
REMARK SMILES IDX 7 1 36 2 34 3 32 4 9 5 8 6 6 7 5 8 4 9 1 10 2 11 42 12 3 13
REMARK SMILES IDX 40 14 38 15 43 16 41 18 39 20 37 22 35 24 10 26 11 27 12 28
REMARK SMILES IDX 30 29 21 30 29 31 31 32 22 33 27 34 23 35 26 36 24 37 13 38
REMARK SMILES IDX 20 39 14 40 18 41 15 42 16 43 19 44 17 46 28 48 25 50 33 52
REMARK H PARENT 43 17 41 19 39 21 37 23 35 25 19 45 17 47 28 49 25 51 33 53
REMARK Flexibility Score: inf
ROOT
ATOM      1  C   UNL     1      31.756  -3.241  34.544  1.00  0.00     0.180 C 
ATOM      2  C   UNL     1      31.862  -4.796  34.205  1.00  0.00     0.177 C 
ATOM      3  C   UNL     1      30.352  -5.253  33.884  1.00  0.00     0.180 C 
ATOM      4  C   UNL     1      29.140  -4.609  34.754  1.00  0.00     0.214 C 
ATOM      5  C   UNL     1      29.105  -3.075  35.282  1.00  0.00     0.339 C 
ATOM      6  O   UNL     1      30.433  -2.553  34.933  1.00  0.00    -0.332 OA
ENDROOT
BRANCH   1   7
ATOM      7  C   UNL     1      33.117  -3.026  35.576  1.00  0.00     0.198 C 
BRANCH   7   8
ATOM      8  O   UNL     1      34.522  -2.776  35.115  1.00  0.00    -0.347 OA
BRANCH   8   9
ATOM      9  C   UNL     1      34.660  -2.405  33.783  1.00  0.00     0.281 C 
ATOM     10  C   UNL     1      34.957   0.636  31.867  1.00  0.00     0.041 C 
ATOM     11  C   UNL     1      34.131  -0.562  32.421  1.00  0.00     0.150 C 
ATOM     12  C   UNL     1      34.044  -1.673  31.260  1.00  0.00     0.174 C 
ATOM     13  O   UNL     1      34.778  -0.990  33.607  1.00  0.00    -0.344 OA
ATOM     14  C   UNL     1      35.361  -2.524  31.239  1.00  0.00     0.179 C 
ATOM     15  C   UNL     1      35.772  -3.080  32.735  1.00  0.00     0.202 C 
BRANCH  12  16
ATOM     16  O   UNL     1      32.864  -2.436  31.361  1.00  0.00    -0.388 OA
ATOM     17  H   UNL     1      32.628  -2.430  32.311  1.00  0.00     0.211 HD
ENDBRANCH  12  16
BRANCH  14  18
ATOM     18  O   UNL     1      35.300  -3.487  30.257  1.00  0.00    -0.387 OA
ATOM     19  H   UNL     1      35.865  -3.307  29.486  1.00  0.00     0.211 HD
ENDBRANCH  14  18
BRANCH  15  20
ATOM     20  O   UNL     1      35.556  -4.446  32.865  1.00  0.00    -0.385 OA
ATOM     21  H   UNL     1      34.910  -4.601  33.613  1.00  0.00     0.211 HD
ENDBRANCH  15  20
ENDBRANCH   8   9
ENDBRANCH   7   8
ENDBRANCH   1   7
BRANCH   2  22
ATOM     22  O   UNL     1      32.805  -5.070  33.139  1.00  0.00    -0.387 OA
ATOM     23  H   UNL     1      33.443  -4.292  33.040  1.00  0.00     0.211 HD
ENDBRANCH   2  22
BRANCH   3  24
ATOM     24  O   UNL     1      30.271  -6.646  33.679  1.00  0.00    -0.387 OA
ATOM     25  H   UNL     1      30.312  -7.071  34.607  1.00  0.00     0.211 HD
ENDBRANCH   3  24
BRANCH   5  26
ATOM     26  O   UNL     1      27.812  -2.365  34.841  1.00  0.00    -0.454 OA
BRANCH  26  27
ATOM     27  C   UNL     1      26.581  -1.894  35.551  1.00  0.00     0.214 A 
ATOM     28  C   UNL     1      25.451  -1.162  34.915  1.00  0.00     0.180 A 
ATOM     29  C   UNL     1      27.045  -0.922  36.463  1.00  0.00     0.239 A 
ATOM     30  O   UNL     1      25.790  -0.138  34.182  1.00  0.00    -0.452 OA
ATOM     31  C   UNL     1      27.299   0.392  35.930  1.00  0.00     0.111 A 
ATOM     32  O   UNL     1      27.457  -1.233  37.591  1.00  0.00    -0.285 OA
ATOM     33  C   UNL     1      26.776   0.676  34.608  1.00  0.00     0.146 A 
ATOM     34  C   UNL     1      27.913   1.491  36.641  1.00  0.00     0.134 A 
ATOM     35  C   UNL     1      27.205   1.779  33.893  1.00  0.00     0.094 A 
ATOM     36  C   UNL     1      28.730   2.335  35.792  1.00  0.00     0.093 A 
ATOM     37  C   UNL     1      28.369   2.454  34.419  1.00  0.00     0.123 A 
BRANCH  28  38
ATOM     38  C   UNL     1      24.056  -0.957  35.484  1.00  0.00     0.025 A 
ATOM     39  C   UNL     1      23.951  -0.241  36.682  1.00  0.00     0.062 A 
ATOM     40  C   UNL     1      23.038  -0.710  34.580  1.00  0.00     0.016 A 
ATOM     41  C   UNL     1      22.951   0.733  36.897  1.00  0.00     0.158 A 
ATOM     42  C   UNL     1      22.125   0.392  34.731  1.00  0.00     0.051 A 
ATOM     43  C   UNL     1      22.093   1.085  35.903  1.00  0.00     0.157 A 
BRANCH  41  44
ATOM     44  O   UNL     1      22.948   1.386  38.091  1.00  0.00    -0.504 OA
ATOM     45  H   UNL     1      23.728   1.581  38.706  1.00  0.00     0.293 HD
ENDBRANCH  41  44
BRANCH  43  46
ATOM     46  O   UNL     1      21.361   2.313  35.902  1.00  0.00    -0.504 OA
ATOM     47  H   UNL     1      21.615   2.956  35.212  1.00  0.00     0.293 HD
ENDBRANCH  43  46
ENDBRANCH  28  38
BRANCH  34  48
ATOM     48  O   UNL     1      27.603   1.859  37.955  1.00  0.00    -0.507 OA
ATOM     49  H   UNL     1      28.266   2.264  38.554  1.00  0.00     0.293 HD
ENDBRANCH  34  48
BRANCH  37  50
ATOM     50  O   UNL     1      29.131   3.241  33.577  1.00  0.00    -0.508 OA
ATOM     51  H   UNL     1      29.049   4.227  33.435  1.00  0.00     0.293 HD
ENDBRANCH  37  50
ENDBRANCH  26  27
ENDBRANCH   5  26
BRANCH   4  52
ATOM     52  O   UNL     1      28.033  -4.688  33.866  1.00  0.00    -0.384 OA
ATOM     53  H   UNL     1      27.836  -3.668  33.685  1.00  0.00     0.211 HD
ENDBRANCH   4  52
TORSDOF 16
ENDMDL
MODEL 6
REMARK VINA RESULT:    -8.106      6.589      9.867
REMARK INTER + INTRA:         -13.886
REMARK INTER:                 -12.635
REMARK INTRA:                  -1.251
REMARK UNBOUND:                -1.278
REMARK SMILES C[C@@H]1O[C@H](OC[C@@H]2O[C@@H](Oc3c(-c4ccc(O)c(O)c4)oc4cc(O)cc(O)c4c3=O)[C@@H](O)[C@H](O)[C@H]2O)[C@@H](O)[C@@H](O)[C@H]1O
REMARK SMILES IDX 7 1 36 2 34 3 32 4 9 5 8 6 6 7 5 8 4 9 1 10 2 11 42 12 3 13
REMARK SMILES IDX 40 14 38 15 43 16 41 18 39 20 37 22 35 24 10 26 11 27 12 28
REMARK SMILES IDX 30 29 21 30 29 31 31 32 22 33 27 34 23 35 26 36 24 37 13 38
REMARK SMILES IDX 20 39 14 40 18 41 15 42 16 43 19 44 17 46 28 48 25 50 33 52
REMARK H PARENT 43 17 41 19 39 21 37 23 35 25 19 45 17 47 28 49 25 51 33 53
REMARK Flexibility Score: inf
ROOT
ATOM      1  C   UNL     1      30.606   4.326  41.762  1.00  0.00     0.180 C 
ATOM      2  C   UNL     1      30.970   5.577  42.683  1.00  0.00     0.177 C 
ATOM      3  C   UNL     1      29.566   6.320  42.942  1.00  0.00     0.180 C 
ATOM      4  C   UNL     1      28.482   6.386  41.733  1.00  0.00     0.214 C 
ATOM      5  C   UNL     1      28.235   5.196  40.657  1.00  0.00     0.339 C 
ATOM      6  O   UNL     1      29.295   4.224  40.959  1.00  0.00    -0.332 OA
ENDROOT
BRANCH   1   7
ATOM      7  C   UNL     1      32.091   4.079  40.925  1.00  0.00     0.198 C 
BRANCH   7   8
ATOM      8  O   UNL     1      32.550   2.776  40.344  1.00  0.00    -0.347 OA
BRANCH   8   9
ATOM      9  C   UNL     1      33.498   2.086  41.089  1.00  0.00     0.281 C 
ATOM     10  C   UNL     1      36.946   1.079  40.764  1.00  0.00     0.041 C 
ATOM     11  C   UNL     1      35.418   0.786  40.696  1.00  0.00     0.150 C 
ATOM     12  C   UNL     1      34.997   0.069  42.074  1.00  0.00     0.174 C 
ATOM     13  O   UNL     1      34.775   2.024  40.448  1.00  0.00    -0.344 OA
ATOM     14  C   UNL     1      34.792   1.148  43.193  1.00  0.00     0.179 C 
ATOM     15  C   UNL     1      33.820   2.385  42.701  1.00  0.00     0.202 C 
BRANCH  12  16
ATOM     16  O   UNL     1      33.898  -0.794  41.893  1.00  0.00    -0.388 OA
ATOM     17  H   UNL     1      33.433  -0.811  42.756  1.00  0.00     0.211 HD
ENDBRANCH  12  16
BRANCH  14  18
ATOM     18  O   UNL     1      34.421   0.552  44.378  1.00  0.00    -0.387 OA
ATOM     19  H   UNL     1      34.186  -0.388  44.295  1.00  0.00     0.211 HD
ENDBRANCH  14  18
BRANCH  15  20
ATOM     20  O   UNL     1      32.567   2.338  43.299  1.00  0.00    -0.385 OA
ATOM     21  H   UNL     1      32.623   1.766  44.119  1.00  0.00     0.211 HD
ENDBRANCH  15  20
ENDBRANCH   8   9
ENDBRANCH   7   8
ENDBRANCH   1   7
BRANCH   2  22
ATOM     22  O   UNL     1      31.671   5.193  43.891  1.00  0.00    -0.387 OA
ATOM     23  H   UNL     1      31.415   4.248  44.148  1.00  0.00     0.211 HD
ENDBRANCH   2  22
BRANCH   3  24
ATOM     24  O   UNL     1      29.747   7.525  43.653  1.00  0.00    -0.387 OA
ATOM     25  H   UNL     1      29.988   7.256  44.608  1.00  0.00     0.211 HD
ENDBRANCH   3  24
BRANCH   5  26
ATOM     26  O   UNL     1      26.751   4.790  40.609  1.00  0.00    -0.454 OA
BRANCH  26  27
ATOM     27  C   UNL     1      25.951   3.845  39.768  1.00  0.00     0.214 A 
ATOM     28  C   UNL     1      24.691   4.190  39.052  1.00  0.00     0.180 A 
ATOM     29  C   UNL     1      25.479   2.871  40.675  1.00  0.00     0.239 A 
ATOM     30  O   UNL     1      23.788   4.799  39.770  1.00  0.00    -0.452 OA
ATOM     31  C   UNL     1      24.325   3.228  41.460  1.00  0.00     0.111 A 
ATOM     32  O   UNL     1      26.159   1.877  40.971  1.00  0.00    -0.285 OA
ATOM     33  C   UNL     1      23.583   4.400  41.041  1.00  0.00     0.146 A 
ATOM     34  C   UNL     1      23.767   2.454  42.546  1.00  0.00     0.134 A 
ATOM     35  C   UNL     1      22.653   4.992  41.875  1.00  0.00     0.094 A 
ATOM     36  C   UNL     1      23.205   3.272  43.601  1.00  0.00     0.093 A 
ATOM     37  C   UNL     1      22.667   4.543  43.249  1.00  0.00     0.123 A 
BRANCH  28  38
ATOM     38  C   UNL     1      24.025   3.399  37.936  1.00  0.00     0.025 A 
ATOM     39  C   UNL     1      24.725   2.301  37.423  1.00  0.00     0.062 A 
ATOM     40  C   UNL     1      22.658   3.213  38.028  1.00  0.00     0.016 A 
ATOM     41  C   UNL     1      24.095   1.071  37.132  1.00  0.00     0.158 A 
ATOM     42  C   UNL     1      22.046   1.918  37.889  1.00  0.00     0.051 A 
ATOM     43  C   UNL     1      22.783   0.870  37.426  1.00  0.00     0.157 A 
BRANCH  41  44
ATOM     44  O   UNL     1      24.870   0.059  36.654  1.00  0.00    -0.504 OA
ATOM     45  H   UNL     1      25.862   0.065  36.453  1.00  0.00     0.293 HD
ENDBRANCH  41  44
BRANCH  43  46
ATOM     46  O   UNL     1      22.201  -0.429  37.555  1.00  0.00    -0.504 OA
ATOM     47  H   UNL     1      21.639  -0.716  36.810  1.00  0.00     0.293 HD
ENDBRANCH  43  46
ENDBRANCH  28  38
BRANCH  34  48
ATOM     48  O   UNL     1      23.575   1.067  42.517  1.00  0.00    -0.507 OA
ATOM     49  H   UNL     1      24.165   0.470  42.008  1.00  0.00     0.293 HD
ENDBRANCH  34  48
BRANCH  37  50
ATOM     50  O   UNL     1      22.132   5.356  44.230  1.00  0.00    -0.508 OA
ATOM     51  H   UNL     1      22.439   5.439  45.178  1.00  0.00     0.293 HD
ENDBRANCH  37  50
ENDBRANCH  26  27
ENDBRANCH   5  26
BRANCH   4  52
ATOM     52  O   UNL     1      27.243   6.485  42.421  1.00  0.00    -0.384 OA
ATOM     53  H   UNL     1      26.712   5.668  42.016  1.00  0.00     0.211 HD
ENDBRANCH   4  52
TORSDOF 16
ENDMDL
MODEL 7
REMARK VINA RESULT:    -7.934      5.534      9.551
REMARK INTER + INTRA:         -13.618
REMARK INTER:                 -11.970
REMARK INTRA:                  -1.648
REMARK UNBOUND:                -1.278
REMARK SMILES C[C@@H]1O[C@H](OC[C@@H]2O[C@@H](Oc3c(-c4ccc(O)c(O)c4)oc4cc(O)cc(O)c4c3=O)[C@@H](O)[C@H](O)[C@H]2O)[C@@H](O)[C@@H](O)[C@H]1O
REMARK SMILES IDX 7 1 36 2 34 3 32 4 9 5 8 6 6 7 5 8 4 9 1 10 2 11 42 12 3 13
REMARK SMILES IDX 40 14 38 15 43 16 41 18 39 20 37 22 35 24 10 26 11 27 12 28
REMARK SMILES IDX 30 29 21 30 29 31 31 32 22 33 27 34 23 35 26 36 24 37 13 38
REMARK SMILES IDX 20 39 14 40 18 41 15 42 16 43 19 44 17 46 28 48 25 50 33 52
REMARK H PARENT 43 17 41 19 39 21 37 23 35 25 19 45 17 47 28 49 25 51 33 53
REMARK Flexibility Score: inf
ROOT
ATOM      1  C   UNL     1      30.641   4.955  42.277  1.00  0.00     0.180 C 
ATOM      2  C   UNL     1      30.393   6.247  43.179  1.00  0.00     0.177 C 
ATOM      3  C   UNL     1      29.036   6.896  42.604  1.00  0.00     0.180 C 
ATOM      4  C   UNL     1      28.772   6.861  41.001  1.00  0.00     0.214 C 
ATOM      5  C   UNL     1      29.200   5.635  40.028  1.00  0.00     0.339 C 
ATOM      6  O   UNL     1      29.975   4.745  40.904  1.00  0.00    -0.332 OA
ENDROOT
BRANCH   1   7
ATOM      7  C   UNL     1      32.353   4.794  42.382  1.00  0.00     0.198 C 
BRANCH   7   8
ATOM      8  O   UNL     1      33.078   3.757  43.186  1.00  0.00    -0.347 OA
BRANCH   8   9
ATOM      9  C   UNL     1      33.638   2.715  42.458  1.00  0.00     0.281 C 
ATOM     10  C   UNL     1      35.631   2.298  39.480  1.00  0.00     0.041 C 
ATOM     11  C   UNL     1      34.268   2.282  40.234  1.00  0.00     0.150 C 
ATOM     12  C   UNL     1      33.946   0.756  40.628  1.00  0.00     0.174 C 
ATOM     13  O   UNL     1      34.399   3.166  41.333  1.00  0.00    -0.344 OA
ATOM     14  C   UNL     1      34.727   0.367  41.930  1.00  0.00     0.179 C 
ATOM     15  C   UNL     1      34.532   1.476  43.133  1.00  0.00     0.202 C 
BRANCH  12  16
ATOM     16  O   UNL     1      32.558   0.520  40.694  1.00  0.00    -0.388 OA
ATOM     17  H   UNL     1      32.462  -0.447  40.820  1.00  0.00     0.211 HD
ENDBRANCH  12  16
BRANCH  14  18
ATOM     18  O   UNL     1      34.456  -0.934  42.288  1.00  0.00    -0.387 OA
ATOM     19  H   UNL     1      33.584  -1.060  42.702  1.00  0.00     0.211 HD
ENDBRANCH  14  18
BRANCH  15  20
ATOM     20  O   UNL     1      33.717   1.004  44.154  1.00  0.00    -0.385 OA
ATOM     21  H   UNL     1      32.856   0.683  43.758  1.00  0.00     0.211 HD
ENDBRANCH  15  20
ENDBRANCH   8   9
ENDBRANCH   7   8
ENDBRANCH   1   7
BRANCH   2  22
ATOM     22  O   UNL     1      30.350   5.938  44.594  1.00  0.00    -0.387 OA
ATOM     23  H   UNL     1      31.291   5.909  44.965  1.00  0.00     0.211 HD
ENDBRANCH   2  22
BRANCH   3  24
ATOM     24  O   UNL     1      28.749   8.125  43.234  1.00  0.00    -0.387 OA
ATOM     25  H   UNL     1      28.030   7.924  43.931  1.00  0.00     0.211 HD
ENDBRANCH   3  24
BRANCH   5  26
ATOM     26  O   UNL     1      27.996   5.126  39.214  1.00  0.00    -0.454 OA
BRANCH  26  27
ATOM     27  C   UNL     1      27.652   3.826  38.555  1.00  0.00     0.214 A 
ATOM     28  C   UNL     1      26.466   3.594  37.685  1.00  0.00     0.180 A 
ATOM     29  C   UNL     1      27.371   2.947  39.623  1.00  0.00     0.239 A 
ATOM     30  O   UNL     1      25.326   4.000  38.173  1.00  0.00    -0.452 OA
ATOM     31  C   UNL     1      26.062   3.051  40.215  1.00  0.00     0.111 A 
ATOM     32  O   UNL     1      28.270   2.308  40.191  1.00  0.00    -0.285 OA
ATOM     33  C   UNL     1      25.068   3.810  39.482  1.00  0.00     0.146 A 
ATOM     34  C   UNL     1      25.613   2.362  41.404  1.00  0.00     0.134 A 
ATOM     35  C   UNL     1      23.892   4.214  40.086  1.00  0.00     0.094 A 
ATOM     36  C   UNL     1      24.682   3.139  42.197  1.00  0.00     0.093 A 
ATOM     37  C   UNL     1      23.842   4.070  41.522  1.00  0.00     0.123 A 
BRANCH  28  38
ATOM     38  C   UNL     1      26.241   2.429  36.734  1.00  0.00     0.025 A 
ATOM     39  C   UNL     1      27.375   1.753  36.269  1.00  0.00     0.062 A 
ATOM     40  C   UNL     1      25.153   1.613  36.987  1.00  0.00     0.016 A 
ATOM     41  C   UNL     1      27.432   0.345  36.176  1.00  0.00     0.158 A 
ATOM     42  C   UNL     1      25.263   0.180  37.049  1.00  0.00     0.051 A 
ATOM     43  C   UNL     1      26.406  -0.428  36.624  1.00  0.00     0.157 A 
BRANCH  41  44
ATOM     44  O   UNL     1      28.589  -0.215  35.729  1.00  0.00    -0.504 OA
ATOM     45  H   UNL     1      29.417  -0.459  36.256  1.00  0.00     0.293 HD
ENDBRANCH  41  44
BRANCH  43  46
ATOM     46  O   UNL     1      26.555  -1.812  36.948  1.00  0.00    -0.504 OA
ATOM     47  H   UNL     1      27.381  -2.051  37.412  1.00  0.00     0.293 HD
ENDBRANCH  43  46
ENDBRANCH  28  38
BRANCH  34  48
ATOM     48  O   UNL     1      25.858   1.011  41.680  1.00  0.00    -0.507 OA
ATOM     49  H   UNL     1      25.670   0.615  42.558  1.00  0.00     0.293 HD
ENDBRANCH  34  48
BRANCH  37  50
ATOM     50  O   UNL     1      22.948   4.836  42.247  1.00  0.00    -0.508 OA
ATOM     51  H   UNL     1      22.002   4.607  42.473  1.00  0.00     0.293 HD
ENDBRANCH  37  50
ENDBRANCH  26  27
ENDBRANCH   5  26
BRANCH   4  52
ATOM     52  O   UNL     1      27.354   6.888  40.911  1.00  0.00    -0.384 OA
ATOM     53  H   UNL     1      27.212   6.999  39.872  1.00  0.00     0.211 HD
ENDBRANCH   4  52
TORSDOF 16
ENDMDL
MODEL 8
REMARK VINA RESULT:    -7.930      2.315      5.197
REMARK INTER + INTRA:         -13.612
REMARK INTER:                 -11.981
REMARK INTRA:                  -1.631
REMARK UNBOUND:                -1.278
REMARK SMILES C[C@@H]1O[C@H](OC[C@@H]2O[C@@H](Oc3c(-c4ccc(O)c(O)c4)oc4cc(O)cc(O)c4c3=O)[C@@H](O)[C@H](O)[C@H]2O)[C@@H](O)[C@@H](O)[C@H]1O
REMARK SMILES IDX 7 1 36 2 34 3 32 4 9 5 8 6 6 7 5 8 4 9 1 10 2 11 42 12 3 13
REMARK SMILES IDX 40 14 38 15 43 16 41 18 39 20 37 22 35 24 10 26 11 27 12 28
REMARK SMILES IDX 30 29 21 30 29 31 31 32 22 33 27 34 23 35 26 36 24 37 13 38
REMARK SMILES IDX 20 39 14 40 18 41 15 42 16 43 19 44 17 46 28 48 25 50 33 52
REMARK H PARENT 43 17 41 19 39 21 37 23 35 25 19 45 17 47 28 49 25 51 33 53
REMARK Flexibility Score: inf
ROOT
ATOM      1  C   UNL     1      28.160  -2.185  35.569  1.00  0.00     0.180 C 
ATOM      2  C   UNL     1      27.036  -3.038  34.825  1.00  0.00     0.177 C 
ATOM      3  C   UNL     1      25.715  -2.121  34.884  1.00  0.00     0.180 C 
ATOM      4  C   UNL     1      25.431  -1.245  36.223  1.00  0.00     0.214 C 
ATOM      5  C   UNL     1      26.585  -0.530  37.112  1.00  0.00     0.339 C 
ATOM      6  O   UNL     1      27.838  -1.012  36.514  1.00  0.00    -0.332 OA
ENDROOT
BRANCH   1   7
ATOM      7  C   UNL     1      29.203  -3.429  36.145  1.00  0.00     0.198 C 
BRANCH   7   8
ATOM      8  O   UNL     1      29.949  -4.401  35.282  1.00  0.00    -0.347 OA
BRANCH   8   9
ATOM      9  C   UNL     1      31.094  -3.906  34.670  1.00  0.00     0.281 C 
ATOM     10  C   UNL     1      34.640  -3.792  35.317  1.00  0.00     0.041 C 
ATOM     11  C   UNL     1      33.224  -3.143  35.311  1.00  0.00     0.150 C 
ATOM     12  C   UNL     1      33.105  -2.244  33.982  1.00  0.00     0.174 C 
ATOM     13  O   UNL     1      32.289  -4.204  35.397  1.00  0.00    -0.344 OA
ATOM     14  C   UNL     1      32.750  -3.152  32.755  1.00  0.00     0.179 C 
ATOM     15  C   UNL     1      31.476  -4.151  33.062  1.00  0.00     0.202 C 
BRANCH  12  16
ATOM     16  O   UNL     1      32.228  -1.156  34.170  1.00  0.00    -0.388 OA
ATOM     17  H   UNL     1      31.610  -1.184  33.410  1.00  0.00     0.211 HD
ENDBRANCH  12  16
BRANCH  14  18
ATOM     18  O   UNL     1      32.635  -2.397  31.610  1.00  0.00    -0.387 OA
ATOM     19  H   UNL     1      32.813  -2.887  30.789  1.00  0.00     0.211 HD
ENDBRANCH  14  18
BRANCH  15  20
ATOM     20  O   UNL     1      30.326  -3.757  32.389  1.00  0.00    -0.385 OA
ATOM     21  H   UNL     1      29.960  -4.543  31.889  1.00  0.00     0.211 HD
ENDBRANCH  15  20
ENDBRANCH   8   9
ENDBRANCH   7   8
ENDBRANCH   1   7
BRANCH   2  22
ATOM     22  O   UNL     1      27.429  -3.429  33.486  1.00  0.00    -0.387 OA
ATOM     23  H   UNL     1      26.614  -3.719  32.962  1.00  0.00     0.211 HD
ENDBRANCH   2  22
BRANCH   3  24
ATOM     24  O   UNL     1      24.595  -2.801  34.362  1.00  0.00    -0.387 OA
ATOM     25  H   UNL     1      24.690  -2.763  33.345  1.00  0.00     0.211 HD
ENDBRANCH   3  24
BRANCH   5  26
ATOM     26  O   UNL     1      26.297   0.971  37.294  1.00  0.00    -0.454 OA
BRANCH  26  27
ATOM     27  C   UNL     1      25.871   1.823  38.449  1.00  0.00     0.214 A 
ATOM     28  C   UNL     1      25.376   3.223  38.345  1.00  0.00     0.180 A 
ATOM     29  C   UNL     1      27.048   2.015  39.205  1.00  0.00     0.239 A 
ATOM     30  O   UNL     1      26.115   4.026  37.630  1.00  0.00    -0.452 OA
ATOM     31  C   UNL     1      27.959   3.026  38.731  1.00  0.00     0.111 A 
ATOM     32  O   UNL     1      27.407   1.199  40.067  1.00  0.00    -0.285 OA
ATOM     33  C   UNL     1      27.456   3.945  37.729  1.00  0.00     0.146 A 
ATOM     34  C   UNL     1      29.280   3.288  39.255  1.00  0.00     0.134 A 
ATOM     35  C   UNL     1      28.316   4.749  37.004  1.00  0.00     0.094 A 
ATOM     36  C   UNL     1      30.223   3.713  38.241  1.00  0.00     0.093 A 
ATOM     37  C   UNL     1      29.720   4.428  37.116  1.00  0.00     0.123 A 
BRANCH  28  38
ATOM     38  C   UNL     1      24.626   4.012  39.407  1.00  0.00     0.025 A 
ATOM     39  C   UNL     1      24.565   3.460  40.692  1.00  0.00     0.062 A 
ATOM     40  C   UNL     1      24.764   5.388  39.383  1.00  0.00     0.016 A 
ATOM     41  C   UNL     1      24.745   4.235  41.859  1.00  0.00     0.158 A 
ATOM     42  C   UNL     1      25.109   6.148  40.555  1.00  0.00     0.051 A 
ATOM     43  C   UNL     1      25.076   5.551  41.779  1.00  0.00     0.157 A 
BRANCH  41  44
ATOM     44  O   UNL     1      24.685   3.597  43.060  1.00  0.00    -0.504 OA
ATOM     45  H   UNL     1      23.873   3.398  43.629  1.00  0.00     0.293 HD
ENDBRANCH  41  44
BRANCH  43  46
ATOM     46  O   UNL     1      25.671   6.273  42.861  1.00  0.00    -0.504 OA
ATOM     47  H   UNL     1      25.422   7.215  42.928  1.00  0.00     0.293 HD
ENDBRANCH  43  46
ENDBRANCH  28  38
BRANCH  34  48
ATOM     48  O   UNL     1      29.597   3.347  40.618  1.00  0.00    -0.507 OA
ATOM     49  H   UNL     1      30.520   3.277  40.943  1.00  0.00     0.293 HD
ENDBRANCH  34  48
BRANCH  37  50
ATOM     50  O   UNL     1      30.588   4.841  36.123  1.00  0.00    -0.508 OA
ATOM     51  H   UNL     1      31.306   4.300  35.687  1.00  0.00     0.293 HD
ENDBRANCH  37  50
ENDBRANCH  26  27
ENDBRANCH   5  26
BRANCH   4  52
ATOM     52  O   UNL     1      24.657  -0.158  35.734  1.00  0.00    -0.384 OA
ATOM     53  H   UNL     1      25.380   0.608  35.682  1.00  0.00     0.211 HD
ENDBRANCH   4  52
TORSDOF 16
ENDMDL
MODEL 9
REMARK VINA RESULT:    -7.870      2.434      3.732
REMARK INTER + INTRA:         -13.519
REMARK INTER:                 -11.622
REMARK INTRA:                  -1.897
REMARK UNBOUND:                -1.278
REMARK SMILES C[C@@H]1O[C@H](OC[C@@H]2O[C@@H](Oc3c(-c4ccc(O)c(O)c4)oc4cc(O)cc(O)c4c3=O)[C@@H](O)[C@H](O)[C@H]2O)[C@@H](O)[C@@H](O)[C@H]1O
REMARK SMILES IDX 7 1 36 2 34 3 32 4 9 5 8 6 6 7 5 8 4 9 1 10 2 11 42 12 3 13
REMARK SMILES IDX 40 14 38 15 43 16 41 18 39 20 37 22 35 24 10 26 11 27 12 28
REMARK SMILES IDX 30 29 21 30 29 31 31 32 22 33 27 34 23 35 26 36 24 37 13 38
REMARK SMILES IDX 20 39 14 40 18 41 15 42 16 43 19 44 17 46 28 48 25 50 33 52
REMARK H PARENT 43 17 41 19 39 21 37 23 35 25 19 45 17 47 28 49 25 51 33 53
REMARK Flexibility Score: inf
ROOT
ATOM      1  C   UNL     1      28.242  -2.167  35.269  1.00  0.00     0.180 C 
ATOM      2  C   UNL     1      27.176  -3.199  34.683  1.00  0.00     0.177 C 
ATOM      3  C   UNL     1      25.868  -2.312  34.377  1.00  0.00     0.180 C 
ATOM      4  C   UNL     1      25.480  -1.113  35.403  1.00  0.00     0.214 C 
ATOM      5  C   UNL     1      26.562  -0.176  36.168  1.00  0.00     0.339 C 
ATOM      6  O   UNL     1      27.855  -0.787  35.834  1.00  0.00    -0.332 OA
ENDROOT
BRANCH   1   7
ATOM      7  C   UNL     1      29.212  -3.202  36.246  1.00  0.00     0.198 C 
BRANCH   7   8
ATOM      8  O   UNL     1      30.173  -4.230  35.729  1.00  0.00    -0.347 OA
BRANCH   8   9
ATOM      9  C   UNL     1      31.262  -3.733  35.022  1.00  0.00     0.281 C 
ATOM     10  C   UNL     1      34.817  -3.357  35.496  1.00  0.00     0.041 C 
ATOM     11  C   UNL     1      33.365  -2.793  35.491  1.00  0.00     0.150 C 
ATOM     12  C   UNL     1      33.140  -2.035  34.090  1.00  0.00     0.174 C 
ATOM     13  O   UNL     1      32.500  -3.891  35.720  1.00  0.00    -0.344 OA
ATOM     14  C   UNL     1      32.794  -3.077  32.972  1.00  0.00     0.179 C 
ATOM     15  C   UNL     1      31.595  -4.112  33.429  1.00  0.00     0.202 C 
BRANCH  12  16
ATOM     16  O   UNL     1      32.208  -0.986  34.212  1.00  0.00    -0.388 OA
ATOM     17  H   UNL     1      32.727  -0.161  34.111  1.00  0.00     0.211 HD
ENDBRANCH  12  16
BRANCH  14  18
ATOM     18  O   UNL     1      32.588  -2.445  31.766  1.00  0.00    -0.387 OA
ATOM     19  H   UNL     1      32.315  -1.515  31.846  1.00  0.00     0.211 HD
ENDBRANCH  14  18
BRANCH  15  20
ATOM     20  O   UNL     1      30.398  -3.851  32.774  1.00  0.00    -0.385 OA
ATOM     21  H   UNL     1      29.649  -3.904  33.436  1.00  0.00     0.211 HD
ENDBRANCH  15  20
ENDBRANCH   8   9
ENDBRANCH   7   8
ENDBRANCH   1   7
BRANCH   2  22
ATOM     22  O   UNL     1      27.680  -3.929  33.537  1.00  0.00    -0.387 OA
ATOM     23  H   UNL     1      28.659  -4.144  33.674  1.00  0.00     0.211 HD
ENDBRANCH   2  22
BRANCH   3  24
ATOM     24  O   UNL     1      24.789  -3.118  33.959  1.00  0.00    -0.387 OA
ATOM     25  H   UNL     1      23.954  -2.533  34.033  1.00  0.00     0.211 HD
ENDBRANCH   3  24
BRANCH   5  26
ATOM     26  O   UNL     1      26.280   1.317  35.917  1.00  0.00    -0.454 OA
BRANCH  26  27
ATOM     27  C   UNL     1      25.821   2.454  36.775  1.00  0.00     0.214 A 
ATOM     28  C   UNL     1      24.818   2.351  37.871  1.00  0.00     0.180 A 
ATOM     29  C   UNL     1      25.150   3.323  35.887  1.00  0.00     0.239 A 
ATOM     30  O   UNL     1      23.710   1.736  37.561  1.00  0.00    -0.452 OA
ATOM     31  C   UNL     1      23.797   2.972  35.541  1.00  0.00     0.111 A 
ATOM     32  O   UNL     1      25.761   4.188  35.240  1.00  0.00    -0.285 OA
ATOM     33  C   UNL     1      23.154   1.958  36.354  1.00  0.00     0.146 A 
ATOM     34  C   UNL     1      22.979   3.627  34.545  1.00  0.00     0.134 A 
ATOM     35  C   UNL     1      21.986   1.345  35.938  1.00  0.00     0.094 A 
ATOM     36  C   UNL     1      22.084   2.721  33.855  1.00  0.00     0.093 A 
ATOM     37  C   UNL     1      21.611   1.579  34.562  1.00  0.00     0.123 A 
BRANCH  28  38
ATOM     38  C   UNL     1      24.561   3.364  38.976  1.00  0.00     0.025 A 
ATOM     39  C   UNL     1      23.791   2.942  40.066  1.00  0.00     0.062 A 
ATOM     40  C   UNL     1      25.604   4.211  39.307  1.00  0.00     0.016 A 
ATOM     41  C   UNL     1      24.125   3.267  41.400  1.00  0.00     0.158 A 
ATOM     42  C   UNL     1      26.037   4.405  40.665  1.00  0.00     0.051 A 
ATOM     43  C   UNL     1      25.272   3.937  41.690  1.00  0.00     0.157 A 
BRANCH  41  44
ATOM     44  O   UNL     1      23.320   2.791  42.389  1.00  0.00    -0.504 OA
ATOM     45  H   UNL     1      23.461   1.987  42.986  1.00  0.00     0.293 HD
ENDBRANCH  41  44
BRANCH  43  46
ATOM     46  O   UNL     1      25.873   3.929  42.988  1.00  0.00    -0.504 OA
ATOM     47  H   UNL     1      26.581   3.271  43.122  1.00  0.00     0.293 HD
ENDBRANCH  43  46
ENDBRANCH  28  38
BRANCH  34  48
ATOM     48  O   UNL     1      22.879   5.015  34.386  1.00  0.00    -0.507 OA
ATOM     49  H   UNL     1      22.226   5.551  34.886  1.00  0.00     0.293 HD
ENDBRANCH  34  48
BRANCH  37  50
ATOM     50  O   UNL     1      20.764   0.686  33.933  1.00  0.00    -0.508 OA
ATOM     51  H   UNL     1      19.767   0.651  34.001  1.00  0.00     0.293 HD
ENDBRANCH  37  50
ENDBRANCH  26  27
ENDBRANCH   5  26
BRANCH   4  52
ATOM     52  O   UNL     1      24.768  -0.204  34.576  1.00  0.00    -0.384 OA
ATOM     53  H   UNL     1      25.357  -0.211  33.700  1.00  0.00     0.211 HD
ENDBRANCH   4  52
TORSDOF 16
ENDMDL
