MODEL 1
REMARK VINA RESULT:    -4.225      0.000      0.000
REMARK INTER + INTRA:          -5.089
REMARK INTER:                  -4.966
REMARK INTRA:                  -0.123
REMARK UNBOUND:                -0.123
REMARK SMILES O=C([O-])C=Cc1ccc(O)c(O)c1
REMARK SMILES IDX 6 1 13 2 7 3 11 4 8 5 9 6 5 7 4 8 2 9 1 10 3 11 12 12 10 14
REMARK H PARENT 12 13 10 15
REMARK Flexibility Score: inf
ROOT
ATOM      1  C   UNL     1     -11.618  81.985  -9.782  1.00  0.00    -0.022 A 
ATOM      2  C   UNL     1     -12.626  82.967  -9.735  1.00  0.00     0.058 A 
ATOM      3  C   UNL     1     -11.548  81.141 -10.899  1.00  0.00     0.012 A 
ATOM      4  C   UNL     1     -13.562  83.089 -10.771  1.00  0.00     0.157 A 
ATOM      5  C   UNL     1     -12.478  81.252 -11.933  1.00  0.00     0.051 A 
ATOM      6  C   UNL     1     -13.491  82.215 -11.882  1.00  0.00     0.157 A 
ENDROOT
BRANCH   1   7
ATOM      7  C   UNL     1     -10.601  81.833  -8.712  1.00  0.00     0.010 C 
ATOM      8  C   UNL     1     -10.852  81.271  -7.521  1.00  0.00     0.025 C 
BRANCH   8   9
ATOM      9  C   UNL     1      -9.814  81.126  -6.486  1.00  0.00     0.064 C 
ATOM     10  O   UNL     1      -9.764  80.103  -5.753  1.00  0.00    -0.545 OA
ATOM     11  O   UNL     1      -8.873  82.133  -6.317  1.00  0.00    -0.545 OA
ENDBRANCH   8   9
ENDBRANCH   1   7
BRANCH   4  12
ATOM     12  O   UNL     1     -14.533  84.085 -10.659  1.00  0.00    -0.504 OA
ATOM     13  H   UNL     1     -14.335  85.041 -10.400  1.00  0.00     0.293 HD
ENDBRANCH   4  12
BRANCH   6  14
ATOM     14  O   UNL     1     -14.393  82.271 -12.946  1.00  0.00    -0.504 OA
ATOM     15  H   UNL     1     -15.144  82.943 -13.015  1.00  0.00     0.293 HD
ENDBRANCH   6  14
TORSDOF 4
ENDMDL
MODEL 2
REMARK VINA RESULT:    -4.177     14.344     14.712
REMARK INTER + INTRA:          -5.033
REMARK INTER:                  -4.906
REMARK INTRA:                  -0.126
REMARK UNBOUND:                -0.123
REMARK SMILES O=C([O-])C=Cc1ccc(O)c(O)c1
REMARK SMILES IDX 6 1 13 2 7 3 11 4 8 5 9 6 5 7 4 8 2 9 1 10 3 11 12 12 10 14
REMARK H PARENT 12 13 10 15
REMARK Flexibility Score: inf
ROOT
ATOM      1  C   UNL     1      -3.884  91.722 -16.982  1.00  0.00    -0.022 A 
ATOM      2  C   UNL     1      -5.101  91.330 -17.571  1.00  0.00     0.058 A 
ATOM      3  C   UNL     1      -2.883  92.268 -17.798  1.00  0.00     0.012 A 
ATOM      4  C   UNL     1      -5.307  91.455 -18.952  1.00  0.00     0.157 A 
ATOM      5  C   UNL     1      -3.078  92.393 -19.174  1.00  0.00     0.051 A 
ATOM      6  C   UNL     1      -4.279  91.988 -19.765  1.00  0.00     0.157 A 
ENDROOT
BRANCH   1   7
ATOM      7  C   UNL     1      -3.632  91.618 -15.523  1.00  0.00     0.010 C 
ATOM      8  C   UNL     1      -4.210  92.410 -14.609  1.00  0.00     0.025 C 
BRANCH   8   9
ATOM      9  C   UNL     1      -3.946  92.269 -13.167  1.00  0.00     0.064 C 
ATOM     10  O   UNL     1      -3.945  91.139 -12.612  1.00  0.00    -0.545 OA
ATOM     11  O   UNL     1      -3.690  93.403 -12.406  1.00  0.00    -0.545 OA
ENDBRANCH   8   9
ENDBRANCH   1   7
BRANCH   4  12
ATOM     12  O   UNL     1      -6.538  91.046 -19.467  1.00  0.00    -0.504 OA
ATOM     13  H   UNL     1      -7.071  90.267 -19.106  1.00  0.00     0.293 HD
ENDBRANCH   4  12
BRANCH   6  14
ATOM     14  O   UNL     1      -4.409  92.134 -21.147  1.00  0.00    -0.504 OA
ATOM     15  H   UNL     1      -3.645  92.029 -21.800  1.00  0.00     0.293 HD
ENDBRANCH   6  14
TORSDOF 4
ENDMDL
MODEL 3
REMARK VINA RESULT:    -4.080      5.137      7.248
REMARK INTER + INTRA:          -4.919
REMARK INTER:                  -4.796
REMARK INTRA:                  -0.123
REMARK UNBOUND:                -0.123
REMARK SMILES O=C([O-])C=Cc1ccc(O)c(O)c1
REMARK SMILES IDX 6 1 13 2 7 3 11 4 8 5 9 6 5 7 4 8 2 9 1 10 3 11 12 12 10 14
REMARK H PARENT 12 13 10 15
REMARK Flexibility Score: inf
ROOT
ATOM      1  C   UNL     1     -15.129  78.713  -6.688  1.00  0.00    -0.022 A 
ATOM      2  C   UNL     1     -14.060  79.541  -7.079  1.00  0.00     0.058 A 
ATOM      3  C   UNL     1     -14.862  77.381  -6.343  1.00  0.00     0.012 A 
ATOM      4  C   UNL     1     -12.751  79.044  -7.149  1.00  0.00     0.157 A 
ATOM      5  C   UNL     1     -13.562  76.876  -6.414  1.00  0.00     0.051 A 
ATOM      6  C   UNL     1     -12.501  77.691  -6.817  1.00  0.00     0.157 A 
ENDROOT
BRANCH   1   7
ATOM      7  C   UNL     1     -16.526  79.205  -6.589  1.00  0.00     0.010 C 
ATOM      8  C   UNL     1     -16.955  80.347  -7.145  1.00  0.00     0.025 C 
BRANCH   8   9
ATOM      9  C   UNL     1     -18.352  80.799  -7.037  1.00  0.00     0.064 C 
ATOM     10  O   UNL     1     -19.297  80.115  -7.513  1.00  0.00    -0.545 OA
ATOM     11  O   UNL     1     -18.634  81.998  -6.396  1.00  0.00    -0.545 OA
ENDBRANCH   8   9
ENDBRANCH   1   7
BRANCH   4  12
ATOM     12  O   UNL     1     -11.741  79.922  -7.544  1.00  0.00    -0.504 OA
ATOM     13  H   UNL     1     -11.563  80.185  -8.503  1.00  0.00     0.293 HD
ENDBRANCH   4  12
BRANCH   6  14
ATOM     14  O   UNL     1     -11.226  77.124  -6.873  1.00  0.00    -0.504 OA
ATOM     15  H   UNL     1     -11.012  76.186  -6.566  1.00  0.00     0.293 HD
ENDBRANCH   6  14
TORSDOF 4
ENDMDL
MODEL 4
REMARK VINA RESULT:    -3.994     12.910     13.349
REMARK INTER + INTRA:          -4.817
REMARK INTER:                  -4.693
REMARK INTRA:                  -0.124
REMARK UNBOUND:                -0.123
REMARK SMILES O=C([O-])C=Cc1ccc(O)c(O)c1
REMARK SMILES IDX 6 1 13 2 7 3 11 4 8 5 9 6 5 7 4 8 2 9 1 10 3 11 12 12 10 14
REMARK H PARENT 12 13 10 15
REMARK Flexibility Score: inf
ROOT
ATOM      1  C   UNL     1      -4.181  92.250 -13.382  1.00  0.00    -0.022 A 
ATOM      2  C   UNL     1      -4.427  90.875 -13.202  1.00  0.00     0.058 A 
ATOM      3  C   UNL     1      -4.177  92.771 -14.684  1.00  0.00     0.012 A 
ATOM      4  C   UNL     1      -4.638  90.030 -14.300  1.00  0.00     0.157 A 
ATOM      5  C   UNL     1      -4.382  91.936 -15.784  1.00  0.00     0.051 A 
ATOM      6  C   UNL     1      -4.609  90.567 -15.609  1.00  0.00     0.157 A 
ENDROOT
BRANCH   1   7
ATOM      7  C   UNL     1      -3.966  93.178 -12.245  1.00  0.00     0.010 C 
ATOM      8  C   UNL     1      -4.305  92.898 -10.979  1.00  0.00     0.025 C 
BRANCH   8   9
ATOM      9  C   UNL     1      -4.065  93.839  -9.873  1.00  0.00     0.064 C 
ATOM     10  O   UNL     1      -4.919  94.006  -8.962  1.00  0.00    -0.545 OA
ATOM     11  O   UNL     1      -2.875  94.554  -9.831  1.00  0.00    -0.545 OA
ENDBRANCH   8   9
ENDBRANCH   1   7
BRANCH   4  12
ATOM     12  O   UNL     1      -4.875  88.678 -14.046  1.00  0.00    -0.504 OA
ATOM     13  H   UNL     1      -4.471  88.168 -13.274  1.00  0.00     0.293 HD
ENDBRANCH   4  12
BRANCH   6  14
ATOM     14  O   UNL     1      -4.802  89.787 -16.750  1.00  0.00    -0.504 OA
ATOM     15  H   UNL     1      -5.361  90.072 -17.541  1.00  0.00     0.293 HD
ENDBRANCH   6  14
TORSDOF 4
ENDMDL
MODEL 5
REMARK VINA RESULT:    -3.954     13.112     13.578
REMARK INTER + INTRA:          -4.770
REMARK INTER:                  -4.636
REMARK INTRA:                  -0.134
REMARK UNBOUND:                -0.123
REMARK SMILES O=C([O-])C=Cc1ccc(O)c(O)c1
REMARK SMILES IDX 6 1 13 2 7 3 11 4 8 5 9 6 5 7 4 8 2 9 1 10 3 11 12 12 10 14
REMARK H PARENT 12 13 10 15
REMARK Flexibility Score: inf
ROOT
ATOM      1  C   UNL     1      -5.175  90.976 -16.828  1.00  0.00    -0.022 A 
ATOM      2  C   UNL     1      -5.847  91.462 -17.966  1.00  0.00     0.058 A 
ATOM      3  C   UNL     1      -3.782  90.825 -16.877  1.00  0.00     0.012 A 
ATOM      4  C   UNL     1      -5.146  91.768 -19.141  1.00  0.00     0.157 A 
ATOM      5  C   UNL     1      -3.077  91.123 -18.044  1.00  0.00     0.051 A 
ATOM      6  C   UNL     1      -3.742  91.590 -19.182  1.00  0.00     0.157 A 
ENDROOT
BRANCH   1   7
ATOM      7  C   UNL     1      -5.880  90.654 -15.562  1.00  0.00     0.010 C 
ATOM      8  C   UNL     1      -5.850  89.447 -14.979  1.00  0.00     0.025 C 
BRANCH   8   9
ATOM      9  C   UNL     1      -6.551  89.166 -13.715  1.00  0.00     0.064 C 
ATOM     10  O   UNL     1      -7.743  88.759 -13.709  1.00  0.00    -0.545 OA
ATOM     11  O   UNL     1      -5.887  89.350 -12.510  1.00  0.00    -0.545 OA
ENDBRANCH   8   9
ENDBRANCH   1   7
BRANCH   4  12
ATOM     12  O   UNL     1      -5.876  92.246 -20.230  1.00  0.00    -0.504 OA
ATOM     13  H   UNL     1      -6.609  91.726 -20.690  1.00  0.00     0.293 HD
ENDBRANCH   4  12
BRANCH   6  14
ATOM     14  O   UNL     1      -2.979  91.864 -20.318  1.00  0.00    -0.504 OA
ATOM     15  H   UNL     1      -2.023  92.189 -20.292  1.00  0.00     0.293 HD
ENDBRANCH   6  14
TORSDOF 4
ENDMDL
MODEL 6
REMARK VINA RESULT:    -3.947      4.923      7.310
REMARK INTER + INTRA:          -4.762
REMARK INTER:                  -4.638
REMARK INTRA:                  -0.124
REMARK UNBOUND:                -0.123
REMARK SMILES O=C([O-])C=Cc1ccc(O)c(O)c1
REMARK SMILES IDX 6 1 13 2 7 3 11 4 8 5 9 6 5 7 4 8 2 9 1 10 3 11 12 12 10 14
REMARK H PARENT 12 13 10 15
REMARK Flexibility Score: inf
ROOT
ATOM      1  C   UNL     1      -7.051  83.746  -9.011  1.00  0.00    -0.022 A 
ATOM      2  C   UNL     1      -6.220  82.877  -9.744  1.00  0.00     0.058 A 
ATOM      3  C   UNL     1      -6.467  84.807  -8.306  1.00  0.00     0.012 A 
ATOM      4  C   UNL     1      -4.829  83.048  -9.752  1.00  0.00     0.157 A 
ATOM      5  C   UNL     1      -5.082  84.982  -8.305  1.00  0.00     0.051 A 
ATOM      6  C   UNL     1      -4.252  84.111  -9.018  1.00  0.00     0.157 A 
ENDROOT
BRANCH   1   7
ATOM      7  C   UNL     1      -8.529  83.606  -8.988  1.00  0.00     0.010 C 
ATOM      8  C   UNL     1      -9.179  82.504  -9.386  1.00  0.00     0.025 C 
BRANCH   8   9
ATOM      9  C   UNL     1     -10.647  82.396  -9.337  1.00  0.00     0.064 C 
ATOM     10  O   UNL     1     -11.263  81.560 -10.050  1.00  0.00    -0.545 OA
ATOM     11  O   UNL     1     -11.365  83.228  -8.488  1.00  0.00    -0.545 OA
ENDBRANCH   8   9
ENDBRANCH   1   7
BRANCH   4  12
ATOM     12  O   UNL     1      -4.066  82.150 -10.500  1.00  0.00    -0.504 OA
ATOM     13  H   UNL     1      -3.585  82.391 -11.355  1.00  0.00     0.293 HD
ENDBRANCH   4  12
BRANCH   6  14
ATOM     14  O   UNL     1      -2.875  84.338  -8.972  1.00  0.00    -0.504 OA
ATOM     15  H   UNL     1      -2.180  83.635  -9.180  1.00  0.00     0.293 HD
ENDBRANCH   6  14
TORSDOF 4
ENDMDL
MODEL 7
REMARK VINA RESULT:    -3.920     11.667     12.109
REMARK INTER + INTRA:          -4.730
REMARK INTER:                  -4.606
REMARK INTRA:                  -0.124
REMARK UNBOUND:                -0.123
REMARK SMILES O=C([O-])C=Cc1ccc(O)c(O)c1
REMARK SMILES IDX 6 1 13 2 7 3 11 4 8 5 9 6 5 7 4 8 2 9 1 10 3 11 12 12 10 14
REMARK H PARENT 12 13 10 15
REMARK Flexibility Score: inf
ROOT
ATOM      1  C   UNL     1      -4.925  89.934 -14.552  1.00  0.00    -0.022 A 
ATOM      2  C   UNL     1      -5.593  90.080 -15.783  1.00  0.00     0.058 A 
ATOM      3  C   UNL     1      -3.596  90.369 -14.448  1.00  0.00     0.012 A 
ATOM      4  C   UNL     1      -4.940  90.625 -16.897  1.00  0.00     0.157 A 
ATOM      5  C   UNL     1      -2.937  90.909 -15.554  1.00  0.00     0.051 A 
ATOM      6  C   UNL     1      -3.592  91.039 -16.782  1.00  0.00     0.157 A 
ENDROOT
BRANCH   1   7
ATOM      7  C   UNL     1      -5.585  89.374 -13.347  1.00  0.00     0.010 C 
ATOM      8  C   UNL     1      -6.906  89.431 -13.126  1.00  0.00     0.025 C 
BRANCH   8   9
ATOM      9  C   UNL     1      -7.529  88.853 -11.923  1.00  0.00     0.064 C 
ATOM     10  O   UNL     1      -8.660  89.238 -11.527  1.00  0.00    -0.545 OA
ATOM     11  O   UNL     1      -6.858  87.864 -11.216  1.00  0.00    -0.545 OA
ENDBRANCH   8   9
ENDBRANCH   1   7
BRANCH   4  12
ATOM     12  O   UNL     1      -5.664  90.739 -18.085  1.00  0.00    -0.504 OA
ATOM     13  H   UNL     1      -6.271  91.516 -18.305  1.00  0.00     0.293 HD
ENDBRANCH   4  12
BRANCH   6  14
ATOM     14  O   UNL     1      -2.875  91.582 -17.850  1.00  0.00    -0.504 OA
ATOM     15  H   UNL     1      -2.137  91.096 -18.340  1.00  0.00     0.293 HD
ENDBRANCH   6  14
TORSDOF 4
ENDMDL
MODEL 8
REMARK VINA RESULT:    -3.815     13.050     13.464
REMARK INTER + INTRA:          -4.606
REMARK INTER:                  -4.484
REMARK INTRA:                  -0.122
REMARK UNBOUND:                -0.123
REMARK SMILES O=C([O-])C=Cc1ccc(O)c(O)c1
REMARK SMILES IDX 6 1 13 2 7 3 11 4 8 5 9 6 5 7 4 8 2 9 1 10 3 11 12 12 10 14
REMARK H PARENT 12 13 10 15
REMARK Flexibility Score: inf
ROOT
ATOM      1  C   UNL     1      -4.488  91.631 -13.131  1.00  0.00    -0.022 A 
ATOM      2  C   UNL     1      -3.951  92.241 -14.281  1.00  0.00     0.058 A 
ATOM      3  C   UNL     1      -5.114  90.383 -13.257  1.00  0.00     0.012 A 
ATOM      4  C   UNL     1      -4.059  91.630 -15.538  1.00  0.00     0.157 A 
ATOM      5  C   UNL     1      -5.230  89.769 -14.505  1.00  0.00     0.051 A 
ATOM      6  C   UNL     1      -4.713  90.380 -15.652  1.00  0.00     0.157 A 
ENDROOT
BRANCH   1   7
ATOM      7  C   UNL     1      -4.382  92.240 -11.781  1.00  0.00     0.010 C 
ATOM      8  C   UNL     1      -4.053  93.521 -11.566  1.00  0.00     0.025 C 
BRANCH   8   9
ATOM      9  C   UNL     1      -3.970  94.095 -10.212  1.00  0.00     0.064 C 
ATOM     10  O   UNL     1      -2.875  94.506  -9.745  1.00  0.00    -0.545 OA
ATOM     11  O   UNL     1      -5.119  94.188  -9.438  1.00  0.00    -0.545 OA
ENDBRANCH   8   9
ENDBRANCH   1   7
BRANCH   4  12
ATOM     12  O   UNL     1      -3.504  92.291 -16.634  1.00  0.00    -0.504 OA
ATOM     13  H   UNL     1      -3.567  93.288 -16.785  1.00  0.00     0.293 HD
ENDBRANCH   4  12
BRANCH   6  14
ATOM     14  O   UNL     1      -4.866  89.716 -16.870  1.00  0.00    -0.504 OA
ATOM     15  H   UNL     1      -5.414  90.071 -17.641  1.00  0.00     0.293 HD
ENDBRANCH   6  14
TORSDOF 4
ENDMDL
