MODEL 1
REMARK VINA RESULT:    -4.970      0.000      0.000
REMARK INTER + INTRA:          -5.260
REMARK INTER:                  -5.260
REMARK INTRA:                   0.000
REMARK UNBOUND:                 0.000
REMARK SMILES O=c1ccc2cc(O)c(O)cc2o1
REMARK SMILES IDX 4 1 3 2 2 3 1 4 13 5 12 6 11 7 9 8 7 9 6 10 5 11 8 12 10 14
REMARK H PARENT 8 13 10 15
REMARK Flexibility Score: inf
ROOT
ATOM      1  C   UNL     1      16.706  -7.223   6.496  1.00  0.00     0.019 A 
ATOM      2  C   UNL     1      16.748  -5.829   6.504  1.00  0.00     0.094 A 
ATOM      3  C   UNL     1      17.155  -5.169   7.668  1.00  0.00     0.336 A 
ATOM      4  O   UNL     1      17.200  -3.911   7.695  1.00  0.00    -0.246 OA
ATOM      5  O   UNL     1      17.497  -5.863   8.750  1.00  0.00    -0.423 OA
ATOM      6  C   UNL     1      17.471  -7.193   8.785  1.00  0.00     0.142 A 
ATOM      7  C   UNL     1      17.842  -7.869   9.952  1.00  0.00     0.098 A 
ATOM      8  C   UNL     1      17.816  -9.271   9.995  1.00  0.00     0.161 A 
ATOM      9  C   UNL     1      17.418 -10.000   8.864  1.00  0.00     0.158 A 
ATOM     10  C   UNL     1      17.045  -9.327   7.691  1.00  0.00     0.062 A 
ATOM     11  C   UNL     1      17.071  -7.926   7.648  1.00  0.00     0.022 A 
ENDROOT
BRANCH   9  12
ATOM     12  O   UNL     1      17.396 -11.392   8.915  1.00  0.00    -0.504 OA
ATOM     13  H   UNL     1      18.145 -11.920   9.349  1.00  0.00     0.293 HD
ENDBRANCH   9  12
BRANCH   8  14
ATOM     14  O   UNL     1      18.185  -9.947  11.156  1.00  0.00    -0.504 OA
ATOM     15  H   UNL     1      18.652 -10.847  11.121  1.00  0.00     0.293 HD
ENDBRANCH   8  14
TORSDOF 2
ENDMDL
MODEL 2
REMARK VINA RESULT:    -4.850      1.790      4.657
REMARK INTER + INTRA:          -5.133
REMARK INTER:                  -5.133
REMARK INTRA:                   0.000
REMARK UNBOUND:                 0.000
REMARK SMILES O=c1ccc2cc(O)c(O)cc2o1
REMARK SMILES IDX 4 1 3 2 2 3 1 4 13 5 12 6 11 7 9 8 7 9 6 10 5 11 8 12 10 14
REMARK H PARENT 8 13 10 15
REMARK Flexibility Score: inf
ROOT
ATOM      1  C   UNL     1      17.446  -9.990   9.271  1.00  0.00     0.019 A 
ATOM      2  C   UNL     1      17.002 -10.948   8.360  1.00  0.00     0.094 A 
ATOM      3  C   UNL     1      16.603 -10.538   7.084  1.00  0.00     0.336 A 
ATOM      4  O   UNL     1      16.199 -11.388   6.247  1.00  0.00    -0.246 OA
ATOM      5  O   UNL     1      16.647  -9.252   6.746  1.00  0.00    -0.423 OA
ATOM      6  C   UNL     1      17.064  -8.306   7.583  1.00  0.00     0.142 A 
ATOM      7  C   UNL     1      17.089  -6.969   7.172  1.00  0.00     0.098 A 
ATOM      8  C   UNL     1      17.527  -5.968   8.052  1.00  0.00     0.161 A 
ATOM      9  C   UNL     1      17.942  -6.305   9.349  1.00  0.00     0.158 A 
ATOM     10  C   UNL     1      17.920  -7.644   9.766  1.00  0.00     0.062 A 
ATOM     11  C   UNL     1      17.482  -8.646   8.888  1.00  0.00     0.022 A 
ENDROOT
BRANCH   9  12
ATOM     12  O   UNL     1      18.377  -5.305  10.215  1.00  0.00    -0.504 OA
ATOM     13  H   UNL     1      19.205  -5.422  10.789  1.00  0.00     0.293 HD
ENDBRANCH   9  12
BRANCH   8  14
ATOM     14  O   UNL     1      17.553  -4.635   7.645  1.00  0.00    -0.504 OA
ATOM     15  H   UNL     1      16.720  -4.058   7.666  1.00  0.00     0.293 HD
ENDBRANCH   8  14
TORSDOF 2
ENDMDL
MODEL 3
REMARK VINA RESULT:    -4.847      1.174      2.268
REMARK INTER + INTRA:          -5.131
REMARK INTER:                  -5.131
REMARK INTRA:                   0.000
REMARK UNBOUND:                 0.000
REMARK SMILES O=c1ccc2cc(O)c(O)cc2o1
REMARK SMILES IDX 4 1 3 2 2 3 1 4 13 5 12 6 11 7 9 8 7 9 6 10 5 11 8 12 10 14
REMARK H PARENT 8 13 10 15
REMARK Flexibility Score: inf
ROOT
ATOM      1  C   UNL     1      17.303  -5.733   8.951  1.00  0.00     0.019 A 
ATOM      2  C   UNL     1      16.712  -5.052   7.887  1.00  0.00     0.094 A 
ATOM      3  C   UNL     1      16.139  -5.788   6.845  1.00  0.00     0.336 A 
ATOM      4  O   UNL     1      15.601  -5.191   5.875  1.00  0.00    -0.246 OA
ATOM      5  O   UNL     1      16.158  -7.118   6.869  1.00  0.00    -0.423 OA
ATOM      6  C   UNL     1      16.711  -7.807   7.865  1.00  0.00     0.142 A 
ATOM      7  C   UNL     1      16.702  -9.205   7.837  1.00  0.00     0.098 A 
ATOM      8  C   UNL     1      17.284  -9.936   8.884  1.00  0.00     0.161 A 
ATOM      9  C   UNL     1      17.877  -9.265   9.963  1.00  0.00     0.158 A 
ATOM     10  C   UNL     1      17.889  -7.863   9.996  1.00  0.00     0.062 A 
ATOM     11  C   UNL     1      17.309  -7.131   8.951  1.00  0.00     0.022 A 
ENDROOT
BRANCH   9  12
ATOM     12  O   UNL     1      18.452  -9.999  10.999  1.00  0.00    -0.504 OA
ATOM     13  H   UNL     1      18.315  -9.743  11.970  1.00  0.00     0.293 HD
ENDBRANCH   9  12
BRANCH   8  14
ATOM     14  O   UNL     1      17.276 -11.330   8.859  1.00  0.00    -0.504 OA
ATOM     15  H   UNL     1      16.819 -11.844   8.114  1.00  0.00     0.293 HD
ENDBRANCH   8  14
TORSDOF 2
ENDMDL
MODEL 4
REMARK VINA RESULT:    -4.839     14.874     17.148
REMARK INTER + INTRA:          -5.121
REMARK INTER:                  -5.121
REMARK INTRA:                   0.000
REMARK UNBOUND:                 0.000
REMARK SMILES O=c1ccc2cc(O)c(O)cc2o1
REMARK SMILES IDX 4 1 3 2 2 3 1 4 13 5 12 6 11 7 9 8 7 9 6 10 5 11 8 12 10 14
REMARK H PARENT 8 13 10 15
REMARK Flexibility Score: inf
ROOT
ATOM      1  C   UNL     1      13.999 -14.887  21.093  1.00  0.00     0.019 A 
ATOM      2  C   UNL     1      13.721 -15.327  19.799  1.00  0.00     0.094 A 
ATOM      3  C   UNL     1      12.939 -16.473  19.625  1.00  0.00     0.336 A 
ATOM      4  O   UNL     1      12.677 -16.885  18.464  1.00  0.00    -0.246 OA
ATOM      5  O   UNL     1      12.467 -17.133  20.679  1.00  0.00    -0.423 OA
ATOM      6  C   UNL     1      12.708 -16.748  21.930  1.00  0.00     0.142 A 
ATOM      7  C   UNL     1      12.185 -17.482  23.000  1.00  0.00     0.098 A 
ATOM      8  C   UNL     1      12.437 -17.081  24.321  1.00  0.00     0.161 A 
ATOM      9  C   UNL     1      13.214 -15.941  24.572  1.00  0.00     0.158 A 
ATOM     10  C   UNL     1      13.740 -15.201  23.503  1.00  0.00     0.062 A 
ATOM     11  C   UNL     1      13.490 -15.601  22.183  1.00  0.00     0.022 A 
ENDROOT
BRANCH   9  12
ATOM     12  O   UNL     1      13.458 -15.549  25.887  1.00  0.00    -0.504 OA
ATOM     13  H   UNL     1      12.764 -15.674  26.616  1.00  0.00     0.293 HD
ENDBRANCH   9  12
BRANCH   8  14
ATOM     14  O   UNL     1      11.918 -17.810  25.389  1.00  0.00    -0.504 OA
ATOM     15  H   UNL     1      11.299 -17.385  26.071  1.00  0.00     0.293 HD
ENDBRANCH   8  14
TORSDOF 2
ENDMDL
MODEL 5
REMARK VINA RESULT:    -4.713      1.543      4.780
REMARK INTER + INTRA:          -4.989
REMARK INTER:                  -4.989
REMARK INTRA:                   0.000
REMARK UNBOUND:                 0.000
REMARK SMILES O=c1ccc2cc(O)c(O)cc2o1
REMARK SMILES IDX 4 1 3 2 2 3 1 4 13 5 12 6 11 7 9 8 7 9 6 10 5 11 8 12 10 14
REMARK H PARENT 8 13 10 15
REMARK Flexibility Score: inf
ROOT
ATOM      1  C   UNL     1      15.585  -8.078   8.736  1.00  0.00     0.019 A 
ATOM      2  C   UNL     1      16.297  -8.882   9.625  1.00  0.00     0.094 A 
ATOM      3  C   UNL     1      17.611  -8.533   9.953  1.00  0.00     0.336 A 
ATOM      4  O   UNL     1      18.270  -9.247  10.755  1.00  0.00    -0.246 OA
ATOM      5  O   UNL     1      18.171  -7.449   9.424  1.00  0.00    -0.423 OA
ATOM      6  C   UNL     1      17.528  -6.654   8.572  1.00  0.00     0.142 A 
ATOM      7  C   UNL     1      18.169  -5.527   8.047  1.00  0.00     0.098 A 
ATOM      8  C   UNL     1      17.495  -4.687   7.148  1.00  0.00     0.161 A 
ATOM      9  C   UNL     1      16.175  -4.975   6.773  1.00  0.00     0.158 A 
ATOM     10  C   UNL     1      15.527  -6.104   7.297  1.00  0.00     0.062 A 
ATOM     11  C   UNL     1      16.199  -6.944   8.195  1.00  0.00     0.022 A 
ENDROOT
BRANCH   9  12
ATOM     12  O   UNL     1      15.513  -4.134   5.881  1.00  0.00    -0.504 OA
ATOM     13  H   UNL     1      15.356  -3.155   6.091  1.00  0.00     0.293 HD
ENDBRANCH   9  12
BRANCH   8  14
ATOM     14  O   UNL     1      18.131  -3.563   6.624  1.00  0.00    -0.504 OA
ATOM     15  H   UNL     1      18.968  -3.643   6.057  1.00  0.00     0.293 HD
ENDBRANCH   8  14
TORSDOF 2
ENDMDL
MODEL 6
REMARK VINA RESULT:    -4.691     15.717     17.302
REMARK INTER + INTRA:          -4.965
REMARK INTER:                  -4.965
REMARK INTRA:                   0.000
REMARK UNBOUND:                 0.000
REMARK SMILES O=c1ccc2cc(O)c(O)cc2o1
REMARK SMILES IDX 4 1 3 2 2 3 1 4 13 5 12 6 11 7 9 8 7 9 6 10 5 11 8 12 10 14
REMARK H PARENT 8 13 10 15
REMARK Flexibility Score: inf
ROOT
ATOM      1  C   UNL     1      12.561 -16.601  20.362  1.00  0.00     0.019 A 
ATOM      2  C   UNL     1      12.081 -17.905  20.241  1.00  0.00     0.094 A 
ATOM      3  C   UNL     1      12.301 -18.808  21.286  1.00  0.00     0.336 A 
ATOM      4  O   UNL     1      11.875 -19.990  21.197  1.00  0.00    -0.246 OA
ATOM      5  O   UNL     1      12.958 -18.427  22.379  1.00  0.00    -0.423 OA
ATOM      6  C   UNL     1      13.433 -17.194  22.535  1.00  0.00     0.142 A 
ATOM      7  C   UNL     1      14.116 -16.850  23.705  1.00  0.00     0.098 A 
ATOM      8  C   UNL     1      14.619 -15.551  23.874  1.00  0.00     0.161 A 
ATOM      9  C   UNL     1      14.436 -14.592  22.867  1.00  0.00     0.158 A 
ATOM     10  C   UNL     1      13.751 -14.931  21.691  1.00  0.00     0.062 A 
ATOM     11  C   UNL     1      13.249 -16.228  21.521  1.00  0.00     0.022 A 
ENDROOT
BRANCH   9  12
ATOM     12  O   UNL     1      14.938 -13.304  23.043  1.00  0.00    -0.504 OA
ATOM     13  H   UNL     1      15.895 -13.070  22.807  1.00  0.00     0.293 HD
ENDBRANCH   9  12
BRANCH   8  14
ATOM     14  O   UNL     1      15.300 -15.206  25.040  1.00  0.00    -0.504 OA
ATOM     15  H   UNL     1      16.306 -15.305  25.115  1.00  0.00     0.293 HD
ENDBRANCH   8  14
TORSDOF 2
ENDMDL
MODEL 7
REMARK VINA RESULT:    -4.591      2.467      4.197
REMARK INTER + INTRA:          -4.859
REMARK INTER:                  -4.859
REMARK INTRA:                   0.000
REMARK UNBOUND:                 0.000
REMARK SMILES O=c1ccc2cc(O)c(O)cc2o1
REMARK SMILES IDX 4 1 3 2 2 3 1 4 13 5 12 6 11 7 9 8 7 9 6 10 5 11 8 12 10 14
REMARK H PARENT 8 13 10 15
REMARK Flexibility Score: inf
ROOT
ATOM      1  C   UNL     1      15.828  -8.446   9.346  1.00  0.00     0.019 A 
ATOM      2  C   UNL     1      14.749  -8.829   8.549  1.00  0.00     0.094 A 
ATOM      3  C   UNL     1      14.663  -8.338   7.242  1.00  0.00     0.336 A 
ATOM      4  O   UNL     1      13.697  -8.672   6.507  1.00  0.00    -0.246 OA
ATOM      5  O   UNL     1      15.598  -7.518   6.767  1.00  0.00    -0.423 OA
ATOM      6  C   UNL     1      16.643  -7.128   7.493  1.00  0.00     0.142 A 
ATOM      7  C   UNL     1      17.595  -6.265   6.942  1.00  0.00     0.098 A 
ATOM      8  C   UNL     1      18.698  -5.850   7.703  1.00  0.00     0.161 A 
ATOM      9  C   UNL     1      18.850  -6.302   9.022  1.00  0.00     0.158 A 
ATOM     10  C   UNL     1      17.898  -7.169   9.580  1.00  0.00     0.062 A 
ATOM     11  C   UNL     1      16.795  -7.583   8.821  1.00  0.00     0.022 A 
ENDROOT
BRANCH   9  12
ATOM     12  O   UNL     1      19.949  -5.887   9.771  1.00  0.00    -0.504 OA
ATOM     13  H   UNL     1      20.564  -5.149   9.446  1.00  0.00     0.293 HD
ENDBRANCH   9  12
BRANCH   8  14
ATOM     14  O   UNL     1      19.648  -4.990   7.155  1.00  0.00    -0.504 OA
ATOM     15  H   UNL     1      19.379  -4.201   6.578  1.00  0.00     0.293 HD
ENDBRANCH   8  14
TORSDOF 2
ENDMDL
MODEL 8
REMARK VINA RESULT:    -4.474      2.382      3.008
REMARK INTER + INTRA:          -4.735
REMARK INTER:                  -4.735
REMARK INTRA:                   0.000
REMARK UNBOUND:                 0.000
REMARK SMILES O=c1ccc2cc(O)c(O)cc2o1
REMARK SMILES IDX 4 1 3 2 2 3 1 4 13 5 12 6 11 7 9 8 7 9 6 10 5 11 8 12 10 14
REMARK H PARENT 8 13 10 15
REMARK Flexibility Score: inf
ROOT
ATOM      1  C   UNL     1      14.195  -8.247   7.944  1.00  0.00     0.019 A 
ATOM      2  C   UNL     1      13.481  -7.447   7.052  1.00  0.00     0.094 A 
ATOM      3  C   UNL     1      14.000  -6.197   6.698  1.00  0.00     0.336 A 
ATOM      4  O   UNL     1      13.370  -5.460   5.894  1.00  0.00    -0.246 OA
ATOM      5  O   UNL     1      15.157  -5.779   7.205  1.00  0.00    -0.423 OA
ATOM      6  C   UNL     1      15.870  -6.511   8.058  1.00  0.00     0.142 A 
ATOM      7  C   UNL     1      17.080  -6.020   8.559  1.00  0.00     0.098 A 
ATOM      8  C   UNL     1      17.835  -6.788   9.459  1.00  0.00     0.161 A 
ATOM      9  C   UNL     1      17.377  -8.051   9.860  1.00  0.00     0.158 A 
ATOM     10  C   UNL     1      16.164  -8.548   9.360  1.00  0.00     0.062 A 
ATOM     11  C   UNL     1      15.408  -7.783   8.461  1.00  0.00     0.022 A 
ENDROOT
BRANCH   9  12
ATOM     12  O   UNL     1      18.133  -8.807  10.753  1.00  0.00    -0.504 OA
ATOM     13  H   UNL     1      18.301  -9.795  10.603  1.00  0.00     0.293 HD
ENDBRANCH   9  12
BRANCH   8  14
ATOM     14  O   UNL     1      19.041  -6.301   9.959  1.00  0.00    -0.504 OA
ATOM     15  H   UNL     1      19.832  -6.118   9.352  1.00  0.00     0.293 HD
ENDBRANCH   8  14
TORSDOF 2
ENDMDL
MODEL 9
REMARK VINA RESULT:    -4.393     14.694     16.845
REMARK INTER + INTRA:          -4.650
REMARK INTER:                  -4.650
REMARK INTRA:                   0.000
REMARK UNBOUND:                 0.000
REMARK SMILES O=c1ccc2cc(O)c(O)cc2o1
REMARK SMILES IDX 4 1 3 2 2 3 1 4 13 5 12 6 11 7 9 8 7 9 6 10 5 11 8 12 10 14
REMARK H PARENT 8 13 10 15
REMARK Flexibility Score: inf
ROOT
ATOM      1  C   UNL     1      11.895 -17.420  20.425  1.00  0.00     0.019 A 
ATOM      2  C   UNL     1      12.383 -16.797  19.276  1.00  0.00     0.094 A 
ATOM      3  C   UNL     1      13.307 -15.756  19.409  1.00  0.00     0.336 A 
ATOM      4  O   UNL     1      13.759 -15.180  18.384  1.00  0.00    -0.246 OA
ATOM      5  O   UNL     1      13.715 -15.367  20.615  1.00  0.00    -0.423 OA
ATOM      6  C   UNL     1      13.275 -15.935  21.736  1.00  0.00     0.142 A 
ATOM      7  C   UNL     1      13.740 -15.485  22.976  1.00  0.00     0.098 A 
ATOM      8  C   UNL     1      13.279 -16.079  24.161  1.00  0.00     0.161 A 
ATOM      9  C   UNL     1      12.351 -17.129  24.104  1.00  0.00     0.158 A 
ATOM     10  C   UNL     1      11.882 -17.585  22.863  1.00  0.00     0.062 A 
ATOM     11  C   UNL     1      12.341 -16.991  21.679  1.00  0.00     0.022 A 
ENDROOT
BRANCH   9  12
ATOM     12  O   UNL     1      11.900 -17.714  25.285  1.00  0.00    -0.504 OA
ATOM     13  H   UNL     1      12.500 -18.309  25.845  1.00  0.00     0.293 HD
ENDBRANCH   9  12
BRANCH   8  14
ATOM     14  O   UNL     1      13.740 -15.632  25.398  1.00  0.00    -0.504 OA
ATOM     15  H   UNL     1      13.105 -15.284  26.106  1.00  0.00     0.293 HD
ENDBRANCH   8  14
TORSDOF 2
ENDMDL
