MODEL 1
REMARK VINA RESULT:    -7.489      0.000      0.000
REMARK INTER + INTRA:         -12.192
REMARK INTER:                 -10.773
REMARK INTRA:                  -1.419
REMARK UNBOUND:                -1.419
REMARK SMILES O=c1c(O[C@H]2O[C@@H](CO)[C@H](O)[C@H](O)[C@@H]2O)c(-c2ccc(O)cc2)oc2cc(O)cc(O)c12
REMARK SMILES IDX 4 1 3 2 16 3 24 4 2 5 25 6 1 7 32 8 26 9 30 10 27 11 29 12
REMARK SMILES IDX 17 13 18 14 19 15 20 16 23 17 22 18 21 19 31 21 28 23 5 25
REMARK SMILES IDX 14 26 6 27 12 28 7 29 10 30 15 31 13 33 8 35 9 36 11 38
REMARK H PARENT 21 20 31 22 28 24 15 32 13 34 9 37 11 39
REMARK Flexibility Score: inf
ROOT
ATOM      1  O   UNL     1     -38.064   5.598  81.691  1.00  0.00    -0.454 OA
ENDROOT
BRANCH   1   2
ATOM      2  C   UNL     1     -38.773   5.031  80.616  1.00  0.00     0.214 A 
ATOM      3  C   UNL     1     -38.284   4.986  79.294  1.00  0.00     0.180 A 
ATOM      4  O   UNL     1     -39.011   4.425  78.334  1.00  0.00    -0.452 OA
ATOM      5  C   UNL     1     -40.040   4.499  80.876  1.00  0.00     0.239 A 
ATOM      6  C   UNL     1     -40.217   3.909  78.543  1.00  0.00     0.146 A 
ATOM      7  O   UNL     1     -40.488   4.532  82.054  1.00  0.00    -0.285 OA
ATOM      8  C   UNL     1     -40.793   3.926  79.833  1.00  0.00     0.111 A 
ATOM      9  C   UNL     1     -40.916   3.351  77.469  1.00  0.00     0.094 A 
ATOM     10  C   UNL     1     -42.081   3.370  80.022  1.00  0.00     0.134 A 
ATOM     11  C   UNL     1     -42.189   2.810  77.657  1.00  0.00     0.123 A 
ATOM     12  C   UNL     1     -42.770   2.824  78.930  1.00  0.00     0.093 A 
BRANCH   3  13
ATOM     13  C   UNL     1     -36.986   5.556  78.916  1.00  0.00     0.021 A 
ATOM     14  C   UNL     1     -36.891   6.879  78.460  1.00  0.00     0.016 A 
ATOM     15  C   UNL     1     -35.642   7.420  78.139  1.00  0.00     0.047 A 
ATOM     16  C   UNL     1     -34.486   6.647  78.272  1.00  0.00     0.115 A 
ATOM     17  C   UNL     1     -35.830   4.770  79.018  1.00  0.00     0.016 A 
ATOM     18  C   UNL     1     -34.582   5.317  78.707  1.00  0.00     0.047 A 
BRANCH  16  19
ATOM     19  O   UNL     1     -33.247   7.205  77.963  1.00  0.00    -0.508 OA
ATOM     20  H   UNL     1     -32.789   7.853  78.594  1.00  0.00     0.293 HD
ENDBRANCH  16  19
ENDBRANCH   3  13
BRANCH  10  21
ATOM     21  O   UNL     1     -42.679   3.355  81.282  1.00  0.00    -0.507 OA
ATOM     22  H   UNL     1     -42.856   2.490  81.779  1.00  0.00     0.293 HD
ENDBRANCH  10  21
BRANCH  11  23
ATOM     23  O   UNL     1     -42.871   2.262  76.572  1.00  0.00    -0.508 OA
ATOM     24  H   UNL     1     -43.582   2.786  76.073  1.00  0.00     0.293 HD
ENDBRANCH  11  23
ENDBRANCH   1   2
BRANCH   1  25
ATOM     25  C   UNL     1     -36.878   5.083  82.309  1.00  0.00     0.339 C 
ATOM     26  C   UNL     1     -37.164   4.629  83.761  1.00  0.00     0.214 C 
ATOM     27  O   UNL     1     -35.909   6.120  82.257  1.00  0.00    -0.332 OA
ATOM     28  C   UNL     1     -35.891   4.032  84.405  1.00  0.00     0.180 C 
ATOM     29  C   UNL     1     -34.811   5.996  83.161  1.00  0.00     0.179 C 
ATOM     30  C   UNL     1     -34.596   4.577  83.751  1.00  0.00     0.177 C 
BRANCH  26  31
ATOM     31  O   UNL     1     -38.202   3.680  83.790  1.00  0.00    -0.384 OA
ATOM     32  H   UNL     1     -39.060   4.165  83.672  1.00  0.00     0.211 HD
ENDBRANCH  26  31
BRANCH  28  33
ATOM     33  O   UNL     1     -35.915   2.627  84.324  1.00  0.00    -0.387 OA
ATOM     34  H   UNL     1     -35.727   2.284  85.237  1.00  0.00     0.211 HD
ENDBRANCH  28  33
BRANCH  29  35
ATOM     35  C   UNL     1     -34.923   7.073  84.256  1.00  0.00     0.191 C 
BRANCH  35  36
ATOM     36  O   UNL     1     -35.884   8.033  83.898  1.00  0.00    -0.394 OA
ATOM     37  H   UNL     1     -36.766   7.616  84.078  1.00  0.00     0.210 HD
ENDBRANCH  35  36
ENDBRANCH  29  35
BRANCH  30  38
ATOM     38  O   UNL     1     -34.172   3.709  82.726  1.00  0.00    -0.387 OA
ATOM     39  H   UNL     1     -34.985   3.265  82.367  1.00  0.00     0.211 HD
ENDBRANCH  30  38
ENDBRANCH   1  25
TORSDOF 11
ENDMDL
MODEL 2
REMARK VINA RESULT:    -6.821      0.965      1.986
REMARK INTER + INTRA:         -11.231
REMARK INTER:                 -10.009
REMARK INTRA:                  -1.222
REMARK UNBOUND:                -1.419
REMARK SMILES O=c1c(O[C@H]2O[C@@H](CO)[C@H](O)[C@H](O)[C@@H]2O)c(-c2ccc(O)cc2)oc2cc(O)cc(O)c12
REMARK SMILES IDX 4 1 3 2 16 3 24 4 2 5 25 6 1 7 32 8 26 9 30 10 27 11 29 12
REMARK SMILES IDX 17 13 18 14 19 15 20 16 23 17 22 18 21 19 31 21 28 23 5 25
REMARK SMILES IDX 14 26 6 27 12 28 7 29 10 30 15 31 13 33 8 35 9 36 11 38
REMARK H PARENT 21 20 31 22 28 24 15 32 13 34 9 37 11 39
REMARK Flexibility Score: inf
ROOT
ATOM      1  O   UNL     1     -38.442   6.285  81.383  1.00  0.00    -0.454 OA
ENDROOT
BRANCH   1   2
ATOM      2  C   UNL     1     -39.058   5.500  80.391  1.00  0.00     0.214 A 
ATOM      3  C   UNL     1     -38.526   5.317  79.097  1.00  0.00     0.180 A 
ATOM      4  O   UNL     1     -39.164   4.553  78.218  1.00  0.00    -0.452 OA
ATOM      5  C   UNL     1     -40.273   4.882  80.705  1.00  0.00     0.239 A 
ATOM      6  C   UNL     1     -40.318   3.950  78.480  1.00  0.00     0.146 A 
ATOM      7  O   UNL     1     -40.758   5.038  81.858  1.00  0.00    -0.285 OA
ATOM      8  C   UNL     1     -40.932   4.092  79.744  1.00  0.00     0.111 A 
ATOM      9  C   UNL     1     -40.925   3.176  77.487  1.00  0.00     0.094 A 
ATOM     10  C   UNL     1     -42.164   3.439  79.992  1.00  0.00     0.134 A 
ATOM     11  C   UNL     1     -42.144   2.540  77.731  1.00  0.00     0.123 A 
ATOM     12  C   UNL     1     -42.762   2.675  78.979  1.00  0.00     0.093 A 
BRANCH   3  13
ATOM     13  C   UNL     1     -37.280   5.957  78.661  1.00  0.00     0.021 A 
ATOM     14  C   UNL     1     -37.282   7.278  78.188  1.00  0.00     0.016 A 
ATOM     15  C   UNL     1     -36.081   7.887  77.811  1.00  0.00     0.047 A 
ATOM     16  C   UNL     1     -34.877   7.186  77.906  1.00  0.00     0.115 A 
ATOM     17  C   UNL     1     -36.077   5.243  78.726  1.00  0.00     0.016 A 
ATOM     18  C   UNL     1     -34.876   5.858  78.358  1.00  0.00     0.047 A 
BRANCH  16  19
ATOM     19  O   UNL     1     -33.686   7.812  77.542  1.00  0.00    -0.508 OA
ATOM     20  H   UNL     1     -33.502   8.777  77.788  1.00  0.00     0.293 HD
ENDBRANCH  16  19
ENDBRANCH   3  13
BRANCH  10  21
ATOM     21  O   UNL     1     -42.796   3.543  81.231  1.00  0.00    -0.507 OA
ATOM     22  H   UNL     1     -42.373   3.184  82.078  1.00  0.00     0.293 HD
ENDBRANCH  10  21
BRANCH  11  23
ATOM     23  O   UNL     1     -42.734   1.775  76.726  1.00  0.00    -0.508 OA
ATOM     24  H   UNL     1     -42.397   0.847  76.499  1.00  0.00     0.293 HD
ENDBRANCH  11  23
ENDBRANCH   1   2
BRANCH   1  25
ATOM     25  C   UNL     1     -37.647   5.819  82.481  1.00  0.00     0.339 C 
ATOM     26  C   UNL     1     -36.460   6.774  82.749  1.00  0.00     0.214 C 
ATOM     27  O   UNL     1     -37.210   4.511  82.141  1.00  0.00    -0.332 OA
ATOM     28  C   UNL     1     -35.635   6.290  83.964  1.00  0.00     0.180 C 
ATOM     29  C   UNL     1     -36.089   4.016  82.872  1.00  0.00     0.179 C 
ATOM     30  C   UNL     1     -35.778   4.764  84.195  1.00  0.00     0.177 C 
BRANCH  26  31
ATOM     31  O   UNL     1     -36.918   8.085  82.978  1.00  0.00    -0.384 OA
ATOM     32  H   UNL     1     -36.507   8.408  83.821  1.00  0.00     0.211 HD
ENDBRANCH  26  31
BRANCH  28  33
ATOM     33  O   UNL     1     -36.016   6.989  85.125  1.00  0.00    -0.387 OA
ATOM     34  H   UNL     1     -36.718   6.445  85.569  1.00  0.00     0.211 HD
ENDBRANCH  28  33
BRANCH  29  35
ATOM     35  C   UNL     1     -34.863   3.939  81.943  1.00  0.00     0.191 C 
BRANCH  35  36
ATOM     36  O   UNL     1     -33.727   3.544  82.669  1.00  0.00    -0.394 OA
ATOM     37  H   UNL     1     -33.600   4.232  83.372  1.00  0.00     0.210 HD
ENDBRANCH  35  36
ENDBRANCH  29  35
BRANCH  30  38
ATOM     38  O   UNL     1     -36.808   4.513  85.122  1.00  0.00    -0.387 OA
ATOM     39  H   UNL     1     -37.195   5.392  85.372  1.00  0.00     0.211 HD
ENDBRANCH  30  38
ENDBRANCH   1  25
TORSDOF 11
ENDMDL
MODEL 3
REMARK VINA RESULT:    -6.807      2.047      6.296
REMARK INTER + INTRA:         -11.210
REMARK INTER:                  -9.919
REMARK INTRA:                  -1.291
REMARK UNBOUND:                -1.419
REMARK SMILES O=c1c(O[C@H]2O[C@@H](CO)[C@H](O)[C@H](O)[C@@H]2O)c(-c2ccc(O)cc2)oc2cc(O)cc(O)c12
REMARK SMILES IDX 4 1 3 2 16 3 24 4 2 5 25 6 1 7 32 8 26 9 30 10 27 11 29 12
REMARK SMILES IDX 17 13 18 14 19 15 20 16 23 17 22 18 21 19 31 21 28 23 5 25
REMARK SMILES IDX 14 26 6 27 12 28 7 29 10 30 15 31 13 33 8 35 9 36 11 38
REMARK H PARENT 21 20 31 22 28 24 15 32 13 34 9 37 11 39
REMARK Flexibility Score: inf
ROOT
ATOM      1  O   UNL     1     -37.498   3.236  81.198  1.00  0.00    -0.454 OA
ENDROOT
BRANCH   1   2
ATOM      2  C   UNL     1     -37.009   4.185  80.281  1.00  0.00     0.214 A 
ATOM      3  C   UNL     1     -37.752   4.663  79.180  1.00  0.00     0.180 A 
ATOM      4  O   UNL     1     -37.223   5.566  78.363  1.00  0.00    -0.452 OA
ATOM      5  C   UNL     1     -35.709   4.665  80.466  1.00  0.00     0.239 A 
ATOM      6  C   UNL     1     -35.993   6.045  78.507  1.00  0.00     0.146 A 
ATOM      7  O   UNL     1     -35.036   4.246  81.446  1.00  0.00    -0.285 OA
ATOM      8  C   UNL     1     -35.171   5.610  79.571  1.00  0.00     0.111 A 
ATOM      9  C   UNL     1     -35.513   6.984  77.589  1.00  0.00     0.094 A 
ATOM     10  C   UNL     1     -33.863   6.137  79.696  1.00  0.00     0.134 A 
ATOM     11  C   UNL     1     -34.220   7.496  77.710  1.00  0.00     0.123 A 
ATOM     12  C   UNL     1     -33.398   7.071  78.759  1.00  0.00     0.093 A 
BRANCH   3  13
ATOM     13  C   UNL     1     -39.107   4.188  78.880  1.00  0.00     0.021 A 
ATOM     14  C   UNL     1     -40.229   4.951  79.236  1.00  0.00     0.016 A 
ATOM     15  C   UNL     1     -41.512   4.503  78.911  1.00  0.00     0.047 A 
ATOM     16  C   UNL     1     -41.683   3.295  78.230  1.00  0.00     0.115 A 
ATOM     17  C   UNL     1     -39.280   2.961  78.226  1.00  0.00     0.016 A 
ATOM     18  C   UNL     1     -40.564   2.519  77.892  1.00  0.00     0.047 A 
BRANCH  16  19
ATOM     19  O   UNL     1     -42.968   2.868  77.898  1.00  0.00    -0.508 OA
ATOM     20  H   UNL     1     -43.764   3.091  78.483  1.00  0.00     0.293 HD
ENDBRANCH  16  19
ENDBRANCH   3  13
BRANCH  10  21
ATOM     21  O   UNL     1     -33.026   5.744  80.739  1.00  0.00    -0.507 OA
ATOM     22  H   UNL     1     -32.085   6.107  80.836  1.00  0.00     0.293 HD
ENDBRANCH  10  21
BRANCH  11  23
ATOM     23  O   UNL     1     -33.761   8.429  76.781  1.00  0.00    -0.508 OA
ATOM     24  H   UNL     1     -32.876   8.908  76.905  1.00  0.00     0.293 HD
ENDBRANCH  11  23
ENDBRANCH   1   2
BRANCH   1  25
ATOM     25  C   UNL     1     -38.437   3.465  82.257  1.00  0.00     0.339 C 
ATOM     26  C   UNL     1     -37.713   3.617  83.615  1.00  0.00     0.214 C 
ATOM     27  O   UNL     1     -39.332   2.362  82.252  1.00  0.00    -0.332 OA
ATOM     28  C   UNL     1     -38.728   3.910  84.745  1.00  0.00     0.180 C 
ATOM     29  C   UNL     1     -40.080   2.158  83.450  1.00  0.00     0.179 C 
ATOM     30  C   UNL     1     -40.144   3.379  84.406  1.00  0.00     0.177 C 
BRANCH  26  31
ATOM     31  O   UNL     1     -36.757   4.648  83.556  1.00  0.00    -0.384 OA
ATOM     32  H   UNL     1     -37.232   5.490  83.328  1.00  0.00     0.211 HD
ENDBRANCH  26  31
BRANCH  28  33
ATOM     33  O   UNL     1     -38.784   5.292  85.007  1.00  0.00    -0.387 OA
ATOM     34  H   UNL     1     -38.410   5.426  85.917  1.00  0.00     0.211 HD
ENDBRANCH  28  33
BRANCH  29  35
ATOM     35  C   UNL     1     -39.580   0.887  84.160  1.00  0.00     0.191 C 
BRANCH  35  36
ATOM     36  O   UNL     1     -39.025  -0.004  83.226  1.00  0.00    -0.394 OA
ATOM     37  H   UNL     1     -39.782  -0.541  82.878  1.00  0.00     0.210 HD
ENDBRANCH  35  36
ENDBRANCH  29  35
BRANCH  30  38
ATOM     38  O   UNL     1     -40.910   4.398  83.807  1.00  0.00    -0.387 OA
ATOM     39  H   UNL     1     -41.691   3.960  83.379  1.00  0.00     0.211 HD
ENDBRANCH  30  38
ENDBRANCH   1  25
TORSDOF 11
ENDMDL
MODEL 4
REMARK VINA RESULT:    -6.751      1.914      2.894
REMARK INTER + INTRA:         -11.130
REMARK INTER:                  -9.995
REMARK INTRA:                  -1.136
REMARK UNBOUND:                -1.419
REMARK SMILES O=c1c(O[C@H]2O[C@@H](CO)[C@H](O)[C@H](O)[C@@H]2O)c(-c2ccc(O)cc2)oc2cc(O)cc(O)c12
REMARK SMILES IDX 4 1 3 2 16 3 24 4 2 5 25 6 1 7 32 8 26 9 30 10 27 11 29 12
REMARK SMILES IDX 17 13 18 14 19 15 20 16 23 17 22 18 21 19 31 21 28 23 5 25
REMARK SMILES IDX 14 26 6 27 12 28 7 29 10 30 15 31 13 33 8 35 9 36 11 38
REMARK H PARENT 21 20 31 22 28 24 15 32 13 34 9 37 11 39
REMARK Flexibility Score: inf
ROOT
ATOM      1  O   UNL     1     -37.885   5.309  81.940  1.00  0.00    -0.454 OA
ENDROOT
BRANCH   1   2
ATOM      2  C   UNL     1     -38.581   4.794  80.832  1.00  0.00     0.214 A 
ATOM      3  C   UNL     1     -38.023   4.683  79.540  1.00  0.00     0.180 A 
ATOM      4  O   UNL     1     -38.743   4.178  78.546  1.00  0.00    -0.452 OA
ATOM      5  C   UNL     1     -39.906   4.386  81.022  1.00  0.00     0.239 A 
ATOM      6  C   UNL     1     -40.002   3.779  78.688  1.00  0.00     0.146 A 
ATOM      7  O   UNL     1     -40.415   4.479  82.171  1.00  0.00    -0.285 OA
ATOM      8  C   UNL     1     -40.647   3.869  79.941  1.00  0.00     0.111 A 
ATOM      9  C   UNL     1     -40.687   3.272  77.580  1.00  0.00     0.094 A 
ATOM     10  C   UNL     1     -41.991   3.439  80.060  1.00  0.00     0.134 A 
ATOM     11  C   UNL     1     -42.015   2.856  77.699  1.00  0.00     0.123 A 
ATOM     12  C   UNL     1     -42.664   2.943  78.935  1.00  0.00     0.093 A 
BRANCH   3  13
ATOM     13  C   UNL     1     -36.658   5.124  79.234  1.00  0.00     0.021 A 
ATOM     14  C   UNL     1     -36.431   6.199  78.362  1.00  0.00     0.016 A 
ATOM     15  C   UNL     1     -35.126   6.631  78.108  1.00  0.00     0.047 A 
ATOM     16  C   UNL     1     -34.044   5.996  78.722  1.00  0.00     0.115 A 
ATOM     17  C   UNL     1     -35.571   4.466  79.825  1.00  0.00     0.016 A 
ATOM     18  C   UNL     1     -34.267   4.907  79.578  1.00  0.00     0.047 A 
BRANCH  16  19
ATOM     19  O   UNL     1     -32.749   6.449  78.473  1.00  0.00    -0.508 OA
ATOM     20  H   UNL     1     -32.581   7.322  77.988  1.00  0.00     0.293 HD
ENDBRANCH  16  19
ENDBRANCH   3  13
BRANCH  10  21
ATOM     21  O   UNL     1     -42.659   3.499  81.283  1.00  0.00    -0.507 OA
ATOM     22  H   UNL     1     -42.556   4.289  81.910  1.00  0.00     0.293 HD
ENDBRANCH  10  21
BRANCH  11  23
ATOM     23  O   UNL     1     -42.681   2.357  76.581  1.00  0.00    -0.508 OA
ATOM     24  H   UNL     1     -43.153   2.972  75.927  1.00  0.00     0.293 HD
ENDBRANCH  11  23
ENDBRANCH   1   2
BRANCH   1  25
ATOM     25  C   UNL     1     -37.727   6.689  82.294  1.00  0.00     0.339 C 
ATOM     26  C   UNL     1     -38.672   7.073  83.458  1.00  0.00     0.214 C 
ATOM     27  O   UNL     1     -37.995   7.443  81.121  1.00  0.00    -0.332 OA
ATOM     28  C   UNL     1     -38.463   8.550  83.865  1.00  0.00     0.180 C 
ATOM     29  C   UNL     1     -38.304   8.822  81.320  1.00  0.00     0.179 C 
ATOM     30  C   UNL     1     -37.893   9.400  82.700  1.00  0.00     0.177 C 
BRANCH  26  31
ATOM     31  O   UNL     1     -38.457   6.238  84.570  1.00  0.00    -0.384 OA
ATOM     32  H   UNL     1     -37.477   6.129  84.682  1.00  0.00     0.211 HD
ENDBRANCH  26  31
BRANCH  28  33
ATOM     33  O   UNL     1     -37.611   8.634  84.982  1.00  0.00    -0.387 OA
ATOM     34  H   UNL     1     -37.270   7.717  85.151  1.00  0.00     0.211 HD
ENDBRANCH  28  33
BRANCH  29  35
ATOM     35  C   UNL     1     -39.792   9.066  81.005  1.00  0.00     0.191 C 
BRANCH  35  36
ATOM     36  O   UNL     1     -40.317   7.987  80.275  1.00  0.00    -0.394 OA
ATOM     37  H   UNL     1     -41.296   8.003  80.430  1.00  0.00     0.210 HD
ENDBRANCH  35  36
ENDBRANCH  29  35
BRANCH  30  38
ATOM     38  O   UNL     1     -36.488   9.448  82.783  1.00  0.00    -0.387 OA
ATOM     39  H   UNL     1     -36.141   9.402  81.853  1.00  0.00     0.211 HD
ENDBRANCH  30  38
ENDBRANCH   1  25
TORSDOF 11
ENDMDL
MODEL 5
REMARK VINA RESULT:    -6.681      2.191      7.617
REMARK INTER + INTRA:         -11.030
REMARK INTER:                  -9.821
REMARK INTRA:                  -1.209
REMARK UNBOUND:                -1.419
REMARK SMILES O=c1c(O[C@H]2O[C@@H](CO)[C@H](O)[C@H](O)[C@@H]2O)c(-c2ccc(O)cc2)oc2cc(O)cc(O)c12
REMARK SMILES IDX 4 1 3 2 16 3 24 4 2 5 25 6 1 7 32 8 26 9 30 10 27 11 29 12
REMARK SMILES IDX 17 13 18 14 19 15 20 16 23 17 22 18 21 19 31 21 28 23 5 25
REMARK SMILES IDX 14 26 6 27 12 28 7 29 10 30 15 31 13 33 8 35 9 36 11 38
REMARK H PARENT 21 20 31 22 28 24 15 32 13 34 9 37 11 39
REMARK Flexibility Score: inf
ROOT
ATOM      1  O   UNL     1     -37.042   3.919  79.973  1.00  0.00    -0.454 OA
ENDROOT
BRANCH   1   2
ATOM      2  C   UNL     1     -36.202   4.873  80.577  1.00  0.00     0.214 A 
ATOM      3  C   UNL     1     -36.371   5.337  81.900  1.00  0.00     0.180 A 
ATOM      4  O   UNL     1     -35.530   6.233  82.402  1.00  0.00    -0.452 OA
ATOM      5  C   UNL     1     -35.153   5.398  79.816  1.00  0.00     0.239 A 
ATOM      6  C   UNL     1     -34.523   6.754  81.710  1.00  0.00     0.146 A 
ATOM      7  O   UNL     1     -34.992   4.991  78.634  1.00  0.00    -0.285 OA
ATOM      8  C   UNL     1     -34.289   6.360  80.374  1.00  0.00     0.111 A 
ATOM      9  C   UNL     1     -33.696   7.703  82.317  1.00  0.00     0.094 A 
ATOM     10  C   UNL     1     -33.209   6.936  79.662  1.00  0.00     0.134 A 
ATOM     11  C   UNL     1     -32.636   8.275  81.610  1.00  0.00     0.123 A 
ATOM     12  C   UNL     1     -32.397   7.894  80.285  1.00  0.00     0.093 A 
BRANCH   3  13
ATOM     13  C   UNL     1     -37.465   4.876  82.760  1.00  0.00     0.021 A 
ATOM     14  C   UNL     1     -38.608   5.668  82.950  1.00  0.00     0.016 A 
ATOM     15  C   UNL     1     -39.660   5.200  83.744  1.00  0.00     0.047 A 
ATOM     16  C   UNL     1     -39.578   3.943  84.349  1.00  0.00     0.115 A 
ATOM     17  C   UNL     1     -37.370   3.630  83.393  1.00  0.00     0.016 A 
ATOM     18  C   UNL     1     -38.427   3.160  84.178  1.00  0.00     0.047 A 
BRANCH  16  19
ATOM     19  O   UNL     1     -40.641   3.483  85.124  1.00  0.00    -0.508 OA
ATOM     20  H   UNL     1     -40.679   2.525  85.450  1.00  0.00     0.293 HD
ENDBRANCH  16  19
ENDBRANCH   3  13
BRANCH  10  21
ATOM     21  O   UNL     1     -32.937   6.564  78.345  1.00  0.00    -0.507 OA
ATOM     22  H   UNL     1     -31.988   6.443  78.009  1.00  0.00     0.293 HD
ENDBRANCH  10  21
BRANCH  11  23
ATOM     23  O   UNL     1     -31.826   9.223  82.233  1.00  0.00    -0.508 OA
ATOM     24  H   UNL     1     -32.221  10.021  82.719  1.00  0.00     0.293 HD
ENDBRANCH  11  23
ENDBRANCH   1   2
BRANCH   1  25
ATOM     25  C   UNL     1     -38.421   4.085  79.621  1.00  0.00     0.339 C 
ATOM     26  C   UNL     1     -38.787   3.216  78.395  1.00  0.00     0.214 C 
ATOM     27  O   UNL     1     -38.613   5.470  79.367  1.00  0.00    -0.332 OA
ATOM     28  C   UNL     1     -40.288   3.364  78.049  1.00  0.00     0.180 C 
ATOM     29  C   UNL     1     -39.773   5.812  78.611  1.00  0.00     0.179 C 
ATOM     30  C   UNL     1     -40.868   4.714  78.543  1.00  0.00     0.177 C 
BRANCH  26  31
ATOM     31  O   UNL     1     -38.487   1.863  78.637  1.00  0.00    -0.384 OA
ATOM     32  H   UNL     1     -38.567   1.704  79.613  1.00  0.00     0.211 HD
ENDBRANCH  26  31
BRANCH  28  33
ATOM     33  O   UNL     1     -41.024   2.297  78.597  1.00  0.00    -0.387 OA
ATOM     34  H   UNL     1     -41.980   2.481  78.405  1.00  0.00     0.211 HD
ENDBRANCH  28  33
BRANCH  29  35
ATOM     35  C   UNL     1     -39.350   6.302  77.213  1.00  0.00     0.191 C 
BRANCH  35  36
ATOM     36  O   UNL     1     -37.964   6.527  77.176  1.00  0.00    -0.394 OA
ATOM     37  H   UNL     1     -37.827   7.443  77.531  1.00  0.00     0.210 HD
ENDBRANCH  35  36
ENDBRANCH  29  35
BRANCH  30  38
ATOM     38  O   UNL     1     -41.442   4.553  79.818  1.00  0.00    -0.387 OA
ATOM     39  H   UNL     1     -42.427   4.545  79.694  1.00  0.00     0.211 HD
ENDBRANCH  30  38
ENDBRANCH   1  25
TORSDOF 11
ENDMDL
MODEL 6
REMARK VINA RESULT:    -6.674      2.756      7.489
REMARK INTER + INTRA:         -11.019
REMARK INTER:                  -9.688
REMARK INTRA:                  -1.331
REMARK UNBOUND:                -1.419
REMARK SMILES O=c1c(O[C@H]2O[C@@H](CO)[C@H](O)[C@H](O)[C@@H]2O)c(-c2ccc(O)cc2)oc2cc(O)cc(O)c12
REMARK SMILES IDX 4 1 3 2 16 3 24 4 2 5 25 6 1 7 32 8 26 9 30 10 27 11 29 12
REMARK SMILES IDX 17 13 18 14 19 15 20 16 23 17 22 18 21 19 31 21 28 23 5 25
REMARK SMILES IDX 14 26 6 27 12 28 7 29 10 30 15 31 13 33 8 35 9 36 11 38
REMARK H PARENT 21 20 31 22 28 24 15 32 13 34 9 37 11 39
REMARK Flexibility Score: inf
ROOT
ATOM      1  O   UNL     1     -38.654   5.972  77.697  1.00  0.00    -0.454 OA
ENDROOT
BRANCH   1   2
ATOM      2  C   UNL     1     -37.919   5.389  78.746  1.00  0.00     0.214 A 
ATOM      3  C   UNL     1     -38.435   4.393  79.602  1.00  0.00     0.180 A 
ATOM      4  O   UNL     1     -37.674   3.886  80.566  1.00  0.00    -0.452 OA
ATOM      5  C   UNL     1     -36.611   5.837  78.957  1.00  0.00     0.239 A 
ATOM      6  C   UNL     1     -36.429   4.285  80.796  1.00  0.00     0.146 A 
ATOM      7  O   UNL     1     -36.140   6.726  78.198  1.00  0.00    -0.285 OA
ATOM      8  C   UNL     1     -35.837   5.290  79.998  1.00  0.00     0.111 A 
ATOM      9  C   UNL     1     -35.707   3.703  81.842  1.00  0.00     0.094 A 
ATOM     10  C   UNL     1     -34.508   5.696  80.271  1.00  0.00     0.134 A 
ATOM     11  C   UNL     1     -34.400   4.112  82.114  1.00  0.00     0.123 A 
ATOM     12  C   UNL     1     -33.805   5.108  81.331  1.00  0.00     0.093 A 
BRANCH   3  13
ATOM     13  C   UNL     1     -39.807   3.890  79.486  1.00  0.00     0.021 A 
ATOM     14  C   UNL     1     -40.683   3.938  80.581  1.00  0.00     0.016 A 
ATOM     15  C   UNL     1     -42.000   3.489  80.445  1.00  0.00     0.047 A 
ATOM     16  C   UNL     1     -42.449   2.992  79.218  1.00  0.00     0.115 A 
ATOM     17  C   UNL     1     -40.249   3.362  78.265  1.00  0.00     0.016 A 
ATOM     18  C   UNL     1     -41.569   2.922  78.128  1.00  0.00     0.047 A 
BRANCH  16  19
ATOM     19  O   UNL     1     -43.769   2.563  79.093  1.00  0.00    -0.508 OA
ATOM     20  H   UNL     1     -44.024   1.593  79.239  1.00  0.00     0.293 HD
ENDBRANCH  16  19
ENDBRANCH   3  13
BRANCH  10  21
ATOM     21  O   UNL     1     -33.884   6.676  79.499  1.00  0.00    -0.507 OA
ATOM     22  H   UNL     1     -33.023   6.492  78.996  1.00  0.00     0.293 HD
ENDBRANCH  10  21
BRANCH  11  23
ATOM     23  O   UNL     1     -33.699   3.522  83.164  1.00  0.00    -0.508 OA
ATOM     24  H   UNL     1     -33.530   4.017  84.033  1.00  0.00     0.293 HD
ENDBRANCH  11  23
ENDBRANCH   1   2
BRANCH   1  25
ATOM     25  C   UNL     1     -39.496   7.129  77.773  1.00  0.00     0.339 C 
ATOM     26  C   UNL     1     -39.136   8.149  76.668  1.00  0.00     0.214 C 
ATOM     27  O   UNL     1     -39.324   7.672  79.075  1.00  0.00    -0.332 OA
ATOM     28  C   UNL     1     -40.079   9.374  76.727  1.00  0.00     0.180 C 
ATOM     29  C   UNL     1     -39.727   9.031  79.243  1.00  0.00     0.179 C 
ATOM     30  C   UNL     1     -40.672   9.583  78.144  1.00  0.00     0.177 C 
BRANCH  26  31
ATOM     31  O   UNL     1     -39.212   7.552  75.396  1.00  0.00    -0.384 OA
ATOM     32  H   UNL     1     -38.746   6.677  75.443  1.00  0.00     0.211 HD
ENDBRANCH  26  31
BRANCH  28  33
ATOM     33  O   UNL     1     -41.117   9.238  75.787  1.00  0.00    -0.387 OA
ATOM     34  H   UNL     1     -41.843   8.728  76.234  1.00  0.00     0.211 HD
ENDBRANCH  28  33
BRANCH  29  35
ATOM     35  C   UNL     1     -38.482   9.915  79.441  1.00  0.00     0.191 C 
BRANCH  35  36
ATOM     36  O   UNL     1     -37.338   9.115  79.602  1.00  0.00    -0.394 OA
ATOM     37  H   UNL     1     -37.645   8.178  79.504  1.00  0.00     0.210 HD
ENDBRANCH  35  36
ENDBRANCH  29  35
BRANCH  30  38
ATOM     38  O   UNL     1     -41.922   8.941  78.241  1.00  0.00    -0.387 OA
ATOM     39  H   UNL     1     -42.086   8.771  79.206  1.00  0.00     0.211 HD
ENDBRANCH  30  38
ENDBRANCH   1  25
TORSDOF 11
ENDMDL
MODEL 7
REMARK VINA RESULT:    -6.517      1.299      1.949
REMARK INTER + INTRA:         -10.793
REMARK INTER:                 -10.572
REMARK INTRA:                  -0.221
REMARK UNBOUND:                -1.419
REMARK SMILES O=c1c(O[C@H]2O[C@@H](CO)[C@H](O)[C@H](O)[C@@H]2O)c(-c2ccc(O)cc2)oc2cc(O)cc(O)c12
REMARK SMILES IDX 4 1 3 2 16 3 24 4 2 5 25 6 1 7 32 8 26 9 30 10 27 11 29 12
REMARK SMILES IDX 17 13 18 14 19 15 20 16 23 17 22 18 21 19 31 21 28 23 5 25
REMARK SMILES IDX 14 26 6 27 12 28 7 29 10 30 15 31 13 33 8 35 9 36 11 38
REMARK H PARENT 21 20 31 22 28 24 15 32 13 34 9 37 11 39
REMARK Flexibility Score: inf
ROOT
ATOM      1  O   UNL     1     -38.161   6.040  81.554  1.00  0.00    -0.454 OA
ENDROOT
BRANCH   1   2
ATOM      2  C   UNL     1     -38.855   5.363  80.534  1.00  0.00     0.214 A 
ATOM      3  C   UNL     1     -38.390   5.261  79.206  1.00  0.00     0.180 A 
ATOM      4  O   UNL     1     -39.101   4.597  78.302  1.00  0.00    -0.452 OA
ATOM      5  C   UNL     1     -40.082   4.774  80.857  1.00  0.00     0.239 A 
ATOM      6  C   UNL     1     -40.269   4.025  78.571  1.00  0.00     0.146 A 
ATOM      7  O   UNL     1     -40.508   4.858  82.041  1.00  0.00    -0.285 OA
ATOM      8  C   UNL     1     -40.819   4.091  79.871  1.00  0.00     0.111 A 
ATOM      9  C   UNL     1     -40.954   3.358  77.552  1.00  0.00     0.094 A 
ATOM     10  C   UNL     1     -42.068   3.474  80.126  1.00  0.00     0.134 A 
ATOM     11  C   UNL     1     -42.189   2.757  77.804  1.00  0.00     0.123 A 
ATOM     12  C   UNL     1     -42.744   2.818  79.087  1.00  0.00     0.093 A 
BRANCH   3  13
ATOM     13  C   UNL     1     -37.138   5.881  78.762  1.00  0.00     0.021 A 
ATOM     14  C   UNL     1     -37.088   7.246  78.443  1.00  0.00     0.016 A 
ATOM     15  C   UNL     1     -35.878   7.831  78.056  1.00  0.00     0.047 A 
ATOM     16  C   UNL     1     -34.715   7.060  77.989  1.00  0.00     0.115 A 
ATOM     17  C   UNL     1     -35.978   5.101  78.663  1.00  0.00     0.016 A 
ATOM     18  C   UNL     1     -34.767   5.690  78.287  1.00  0.00     0.047 A 
BRANCH  16  19
ATOM     19  O   UNL     1     -33.513   7.661  77.618  1.00  0.00    -0.508 OA
ATOM     20  H   UNL     1     -33.454   8.657  77.443  1.00  0.00     0.293 HD
ENDBRANCH  16  19
ENDBRANCH   3  13
BRANCH  10  21
ATOM     21  O   UNL     1     -42.639   3.506  81.398  1.00  0.00    -0.507 OA
ATOM     22  H   UNL     1     -43.395   2.885  81.660  1.00  0.00     0.293 HD
ENDBRANCH  10  21
BRANCH  11  23
ATOM     23  O   UNL     1     -42.858   2.100  76.772  1.00  0.00    -0.508 OA
ATOM     24  H   UNL     1     -43.757   1.656  76.922  1.00  0.00     0.293 HD
ENDBRANCH  11  23
ENDBRANCH   1   2
BRANCH   1  25
ATOM     25  C   UNL     1     -37.488   5.453  82.675  1.00  0.00     0.339 C 
ATOM     26  C   UNL     1     -37.234   3.945  82.440  1.00  0.00     0.214 C 
ATOM     27  O   UNL     1     -38.312   5.683  83.809  1.00  0.00    -0.332 OA
ATOM     28  C   UNL     1     -36.466   3.330  83.634  1.00  0.00     0.180 C 
ATOM     29  C   UNL     1     -38.065   4.849  84.941  1.00  0.00     0.179 C 
ATOM     30  C   UNL     1     -36.692   4.127  84.944  1.00  0.00     0.177 C 
BRANCH  26  31
ATOM     31  O   UNL     1     -36.507   3.742  81.253  1.00  0.00    -0.384 OA
ATOM     32  H   UNL     1     -37.148   3.771  80.496  1.00  0.00     0.211 HD
ENDBRANCH  26  31
BRANCH  28  33
ATOM     33  O   UNL     1     -35.091   3.258  83.347  1.00  0.00    -0.387 OA
ATOM     34  H   UNL     1     -34.760   2.409  83.742  1.00  0.00     0.211 HD
ENDBRANCH  28  33
BRANCH  29  35
ATOM     35  C   UNL     1     -39.240   3.871  85.125  1.00  0.00     0.191 C 
BRANCH  35  36
ATOM     36  O   UNL     1     -40.461   4.531  84.906  1.00  0.00    -0.394 OA
ATOM     37  H   UNL     1     -41.163   3.933  85.270  1.00  0.00     0.210 HD
ENDBRANCH  35  36
ENDBRANCH  29  35
BRANCH  30  38
ATOM     38  O   UNL     1     -35.668   5.079  85.110  1.00  0.00    -0.387 OA
ATOM     39  H   UNL     1     -34.910   4.615  85.553  1.00  0.00     0.211 HD
ENDBRANCH  30  38
ENDBRANCH   1  25
TORSDOF 11
ENDMDL
MODEL 8
REMARK VINA RESULT:    -6.452      2.736      5.487
REMARK INTER + INTRA:         -10.700
REMARK INTER:                  -9.459
REMARK INTRA:                  -1.240
REMARK UNBOUND:                -1.419
REMARK SMILES O=c1c(O[C@H]2O[C@@H](CO)[C@H](O)[C@H](O)[C@@H]2O)c(-c2ccc(O)cc2)oc2cc(O)cc(O)c12
REMARK SMILES IDX 4 1 3 2 16 3 24 4 2 5 25 6 1 7 32 8 26 9 30 10 27 11 29 12
REMARK SMILES IDX 17 13 18 14 19 15 20 16 23 17 22 18 21 19 31 21 28 23 5 25
REMARK SMILES IDX 14 26 6 27 12 28 7 29 10 30 15 31 13 33 8 35 9 36 11 38
REMARK H PARENT 21 20 31 22 28 24 15 32 13 34 9 37 11 39
REMARK Flexibility Score: inf
ROOT
ATOM      1  O   UNL     1     -38.839   5.737  78.902  1.00  0.00    -0.454 OA
ENDROOT
BRANCH   1   2
ATOM      2  C   UNL     1     -38.623   4.936  80.039  1.00  0.00     0.214 A 
ATOM      3  C   UNL     1     -37.356   4.738  80.627  1.00  0.00     0.180 A 
ATOM      4  O   UNL     1     -37.236   3.972  81.705  1.00  0.00    -0.452 OA
ATOM      5  C   UNL     1     -39.728   4.289  80.603  1.00  0.00     0.239 A 
ATOM      6  C   UNL     1     -38.260   3.344  82.270  1.00  0.00     0.146 A 
ATOM      7  O   UNL     1     -40.865   4.459  80.088  1.00  0.00    -0.285 OA
ATOM      8  C   UNL     1     -39.563   3.472  81.738  1.00  0.00     0.111 A 
ATOM      9  C   UNL     1     -38.037   2.547  83.396  1.00  0.00     0.094 A 
ATOM     10  C   UNL     1     -40.634   2.786  82.360  1.00  0.00     0.134 A 
ATOM     11  C   UNL     1     -39.094   1.867  84.003  1.00  0.00     0.123 A 
ATOM     12  C   UNL     1     -40.388   1.984  83.484  1.00  0.00     0.093 A 
BRANCH   3  13
ATOM     13  C   UNL     1     -36.134   5.339  80.081  1.00  0.00     0.021 A 
ATOM     14  C   UNL     1     -35.808   6.675  80.359  1.00  0.00     0.016 A 
ATOM     15  C   UNL     1     -34.622   7.223  79.862  1.00  0.00     0.047 A 
ATOM     16  C   UNL     1     -33.756   6.444  79.090  1.00  0.00     0.115 A 
ATOM     17  C   UNL     1     -35.282   4.567  79.280  1.00  0.00     0.016 A 
ATOM     18  C   UNL     1     -34.091   5.114  78.794  1.00  0.00     0.047 A 
BRANCH  16  19
ATOM     19  O   UNL     1     -32.569   6.999  78.616  1.00  0.00    -0.508 OA
ATOM     20  H   UNL     1     -31.680   6.796  79.056  1.00  0.00     0.293 HD
ENDBRANCH  16  19
ENDBRANCH   3  13
BRANCH  10  21
ATOM     21  O   UNL     1     -41.937   2.896  81.874  1.00  0.00    -0.507 OA
ATOM     22  H   UNL     1     -42.493   3.731  82.019  1.00  0.00     0.293 HD
ENDBRANCH  10  21
BRANCH  11  23
ATOM     23  O   UNL     1     -38.848   1.074  85.123  1.00  0.00    -0.508 OA
ATOM     24  H   UNL     1     -39.276   1.277  86.020  1.00  0.00     0.293 HD
ENDBRANCH  11  23
ENDBRANCH   1   2
BRANCH   1  25
ATOM     25  C   UNL     1     -38.878   7.168  78.851  1.00  0.00     0.339 C 
ATOM     26  C   UNL     1     -40.318   7.673  78.593  1.00  0.00     0.214 C 
ATOM     27  O   UNL     1     -37.984   7.564  77.821  1.00  0.00    -0.332 OA
ATOM     28  C   UNL     1     -40.360   9.219  78.586  1.00  0.00     0.180 C 
ATOM     29  C   UNL     1     -38.161   8.885  77.311  1.00  0.00     0.179 C 
ATOM     30  C   UNL     1     -38.989   9.838  78.214  1.00  0.00     0.177 C 
BRANCH  26  31
ATOM     31  O   UNL     1     -41.201   7.178  79.570  1.00  0.00    -0.384 OA
ATOM     32  H   UNL     1     -41.899   7.867  79.725  1.00  0.00     0.211 HD
ENDBRANCH  26  31
BRANCH  28  33
ATOM     33  O   UNL     1     -40.781   9.703  79.839  1.00  0.00    -0.387 OA
ATOM     34  H   UNL     1     -41.765   9.826  79.782  1.00  0.00     0.211 HD
ENDBRANCH  28  33
BRANCH  29  35
ATOM     35  C   UNL     1     -38.717   8.811  75.876  1.00  0.00     0.191 C 
BRANCH  35  36
ATOM     36  O   UNL     1     -39.015   7.481  75.538  1.00  0.00    -0.394 OA
ATOM     37  H   UNL     1     -38.673   6.926  76.285  1.00  0.00     0.210 HD
ENDBRANCH  35  36
ENDBRANCH  29  35
BRANCH  30  38
ATOM     38  O   UNL     1     -38.256  10.121  79.383  1.00  0.00    -0.387 OA
ATOM     39  H   UNL     1     -37.762  10.966  79.218  1.00  0.00     0.211 HD
ENDBRANCH  30  38
ENDBRANCH   1  25
TORSDOF 11
ENDMDL
MODEL 9
REMARK VINA RESULT:    -6.414      2.643      6.883
REMARK INTER + INTRA:         -10.645
REMARK INTER:                  -9.384
REMARK INTRA:                  -1.261
REMARK UNBOUND:                -1.419
REMARK SMILES O=c1c(O[C@H]2O[C@@H](CO)[C@H](O)[C@H](O)[C@@H]2O)c(-c2ccc(O)cc2)oc2cc(O)cc(O)c12
REMARK SMILES IDX 4 1 3 2 16 3 24 4 2 5 25 6 1 7 32 8 26 9 30 10 27 11 29 12
REMARK SMILES IDX 17 13 18 14 19 15 20 16 23 17 22 18 21 19 31 21 28 23 5 25
REMARK SMILES IDX 14 26 6 27 12 28 7 29 10 30 15 31 13 33 8 35 9 36 11 38
REMARK H PARENT 21 20 31 22 28 24 15 32 13 34 9 37 11 39
REMARK Flexibility Score: inf
ROOT
ATOM      1  O   UNL     1     -39.860   5.964  79.901  1.00  0.00    -0.454 OA
ENDROOT
BRANCH   1   2
ATOM      2  C   UNL     1     -38.543   6.344  79.584  1.00  0.00     0.214 A 
ATOM      3  C   UNL     1     -38.225   7.362  78.659  1.00  0.00     0.180 A 
ATOM      4  O   UNL     1     -36.955   7.669  78.419  1.00  0.00    -0.452 OA
ATOM      5  C   UNL     1     -37.495   5.662  80.210  1.00  0.00     0.239 A 
ATOM      6  C   UNL     1     -35.934   7.044  78.994  1.00  0.00     0.146 A 
ATOM      7  O   UNL     1     -37.767   4.752  81.039  1.00  0.00    -0.285 OA
ATOM      8  C   UNL     1     -36.159   6.002  79.921  1.00  0.00     0.111 A 
ATOM      9  C   UNL     1     -34.630   7.426  78.670  1.00  0.00     0.094 A 
ATOM     10  C   UNL     1     -35.050   5.353  80.515  1.00  0.00     0.134 A 
ATOM     11  C   UNL     1     -33.537   6.780  79.252  1.00  0.00     0.123 A 
ATOM     12  C   UNL     1     -33.748   5.744  80.169  1.00  0.00     0.093 A 
BRANCH   3  13
ATOM     13  C   UNL     1     -39.253   8.103  77.921  1.00  0.00     0.021 A 
ATOM     14  C   UNL     1     -39.253   8.125  76.519  1.00  0.00     0.016 A 
ATOM     15  C   UNL     1     -40.261   8.805  75.829  1.00  0.00     0.047 A 
ATOM     16  C   UNL     1     -41.273   9.464  76.533  1.00  0.00     0.115 A 
ATOM     17  C   UNL     1     -40.249   8.791  78.628  1.00  0.00     0.016 A 
ATOM     18  C   UNL     1     -41.263   9.462  77.936  1.00  0.00     0.047 A 
BRANCH  16  19
ATOM     19  O   UNL     1     -42.280  10.125  75.832  1.00  0.00    -0.508 OA
ATOM     20  H   UNL     1     -42.176  11.091  75.545  1.00  0.00     0.293 HD
ENDBRANCH  16  19
ENDBRANCH   3  13
BRANCH  10  21
ATOM     21  O   UNL     1     -35.229   4.328  81.444  1.00  0.00    -0.507 OA
ATOM     22  H   UNL     1     -35.565   4.510  82.382  1.00  0.00     0.293 HD
ENDBRANCH  10  21
BRANCH  11  23
ATOM     23  O   UNL     1     -32.244   7.173  78.911  1.00  0.00    -0.508 OA
ATOM     24  H   UNL     1     -31.957   7.271  77.944  1.00  0.00     0.293 HD
ENDBRANCH  11  23
ENDBRANCH   1   2
BRANCH   1  25
ATOM     25  C   UNL     1     -40.618   4.902  79.307  1.00  0.00     0.339 C 
ATOM     26  C   UNL     1     -41.005   3.841  80.364  1.00  0.00     0.214 C 
ATOM     27  O   UNL     1     -39.811   4.354  78.275  1.00  0.00    -0.332 OA
ATOM     28  C   UNL     1     -41.862   2.723  79.725  1.00  0.00     0.180 C 
ATOM     29  C   UNL     1     -40.168   3.047  77.828  1.00  0.00     0.179 C 
ATOM     30  C   UNL     1     -41.602   2.588  78.203  1.00  0.00     0.177 C 
BRANCH  26  31
ATOM     31  O   UNL     1     -41.711   4.432  81.428  1.00  0.00    -0.384 OA
ATOM     32  H   UNL     1     -41.097   4.491  82.205  1.00  0.00     0.211 HD
ENDBRANCH  26  31
BRANCH  28  33
ATOM     33  O   UNL     1     -43.229   2.959  79.960  1.00  0.00    -0.387 OA
ATOM     34  H   UNL     1     -43.590   3.389  79.141  1.00  0.00     0.211 HD
ENDBRANCH  28  33
BRANCH  29  35
ATOM     35  C   UNL     1     -39.096   2.038  78.280  1.00  0.00     0.191 C 
BRANCH  35  36
ATOM     36  O   UNL     1     -38.024   2.709  78.891  1.00  0.00    -0.394 OA
ATOM     37  H   UNL     1     -38.180   2.640  79.868  1.00  0.00     0.210 HD
ENDBRANCH  35  36
ENDBRANCH  29  35
BRANCH  30  38
ATOM     38  O   UNL     1     -42.538   3.359  77.486  1.00  0.00    -0.387 OA
ATOM     39  H   UNL     1     -42.594   2.972  76.573  1.00  0.00     0.211 HD
ENDBRANCH  30  38
ENDBRANCH   1  25
TORSDOF 11
ENDMDL
