MODEL 1
REMARK VINA RESULT:    -4.939      0.000      0.000
REMARK INTER + INTRA:          -8.949
REMARK INTER:                  -7.827
REMARK INTRA:                  -1.122
REMARK UNBOUND:                -1.122
REMARK SMILES CCCCCCCCCCCC(=O)[O-]
REMARK SMILES IDX 7 1 8 2 9 3 10 4 11 5 12 6 13 7 14 8 6 9 5 10 4 11 3 12 2 13
REMARK SMILES IDX 1 14
REMARK H PARENT
REMARK Flexibility Score: inf
ROOT
ATOM      1  C   UNL     1       5.815  54.439  23.085  1.00  0.00     0.000 C 
ENDROOT
BRANCH   1   2
ATOM      2  C   UNL     1       6.989  54.111  24.019  1.00  0.00     0.000 C 
BRANCH   2   3
ATOM      3  C   UNL     1       7.911  53.056  23.390  1.00  0.00     0.000 C 
BRANCH   3   4
ATOM      4  C   UNL     1       9.309  53.034  24.029  1.00  0.00     0.006 C 
BRANCH   4   5
ATOM      5  C   UNL     1       9.871  54.440  24.273  1.00  0.00     0.053 C 
BRANCH   5   6
ATOM      6  C   UNL     1      10.134  54.652  25.730  1.00  0.00     0.041 C 
ATOM      7  O   UNL     1      11.292  54.481  26.196  1.00  0.00    -0.550 OA
ATOM      8  O   UNL     1       9.091  54.988  26.583  1.00  0.00    -0.550 OA
ENDBRANCH   5   6
ENDBRANCH   4   5
ENDBRANCH   3   4
ENDBRANCH   2   3
ENDBRANCH   1   2
BRANCH   1   9
ATOM      9  C   UNL     1       5.807  55.907  22.631  1.00  0.00     0.000 C 
BRANCH   9  10
ATOM     10  C   UNL     1       7.197  56.561  22.720  1.00  0.00    -0.000 C 
BRANCH  10  11
ATOM     11  C   UNL     1       8.038  56.333  21.453  1.00  0.00    -0.000 C 
BRANCH  11  12
ATOM     12  C   UNL     1       7.215  55.745  20.293  1.00  0.00    -0.000 C 
BRANCH  12  13
ATOM     13  C   UNL     1       7.628  54.306  19.948  1.00  0.00    -0.003 C 
ATOM     14  C   UNL     1       6.468  53.473  19.407  1.00  0.00     0.004 C 
ENDBRANCH  12  13
ENDBRANCH  11  12
ENDBRANCH  10  11
ENDBRANCH   9  10
ENDBRANCH   1   9
TORSDOF 10
ENDMDL
MODEL 2
REMARK VINA RESULT:    -4.905      1.256      2.659
REMARK INTER + INTRA:          -8.895
REMARK INTER:                  -7.913
REMARK INTRA:                  -0.982
REMARK UNBOUND:                -1.122
REMARK SMILES CCCCCCCCCCCC(=O)[O-]
REMARK SMILES IDX 7 1 8 2 9 3 10 4 11 5 12 6 13 7 14 8 6 9 5 10 4 11 3 12 2 13
REMARK SMILES IDX 1 14
REMARK H PARENT
REMARK Flexibility Score: inf
ROOT
ATOM      1  C   UNL     1       8.536  54.010  22.248  1.00  0.00     0.000 C 
ENDROOT
BRANCH   1   2
ATOM      2  C   UNL     1       7.806  53.124  23.269  1.00  0.00     0.000 C 
BRANCH   2   3
ATOM      3  C   UNL     1       7.215  53.971  24.406  1.00  0.00     0.000 C 
BRANCH   3   4
ATOM      4  C   UNL     1       8.004  53.833  25.718  1.00  0.00     0.006 C 
BRANCH   4   5
ATOM      5  C   UNL     1       8.946  55.017  25.970  1.00  0.00     0.053 C 
BRANCH   5   6
ATOM      6  C   UNL     1      10.372  54.569  25.924  1.00  0.00     0.041 C 
ATOM      7  O   UNL     1      10.854  54.093  24.862  1.00  0.00    -0.550 OA
ATOM      8  O   UNL     1      11.156  54.629  27.069  1.00  0.00    -0.550 OA
ENDBRANCH   5   6
ENDBRANCH   4   5
ENDBRANCH   3   4
ENDBRANCH   2   3
ENDBRANCH   1   2
BRANCH   1   9
ATOM      9  C   UNL     1       7.842  54.033  20.876  1.00  0.00     0.000 C 
BRANCH   9  10
ATOM     10  C   UNL     1       7.195  55.393  20.563  1.00  0.00    -0.000 C 
BRANCH  10  11
ATOM     11  C   UNL     1       7.847  56.549  21.339  1.00  0.00    -0.000 C 
BRANCH  11  12
ATOM     12  C   UNL     1       7.000  57.012  22.538  1.00  0.00    -0.000 C 
BRANCH  12  13
ATOM     13  C   UNL     1       5.526  56.598  22.412  1.00  0.00    -0.003 C 
ATOM     14  C   UNL     1       4.582  57.795  22.318  1.00  0.00     0.004 C 
ENDBRANCH  12  13
ENDBRANCH  11  12
ENDBRANCH  10  11
ENDBRANCH   9  10
ENDBRANCH   1   9
TORSDOF 10
ENDMDL
MODEL 3
REMARK VINA RESULT:    -4.803      3.163      5.105
REMARK INTER + INTRA:          -8.734
REMARK INTER:                  -7.644
REMARK INTRA:                  -1.089
REMARK UNBOUND:                -1.122
REMARK SMILES CCCCCCCCCCCC(=O)[O-]
REMARK SMILES IDX 7 1 8 2 9 3 10 4 11 5 12 6 13 7 14 8 6 9 5 10 4 11 3 12 2 13
REMARK SMILES IDX 1 14
REMARK H PARENT
REMARK Flexibility Score: inf
ROOT
ATOM      1  C   UNL     1       7.023  53.834  23.392  1.00  0.00     0.000 C 
ENDROOT
BRANCH   1   2
ATOM      2  C   UNL     1       5.891  54.844  23.153  1.00  0.00     0.000 C 
BRANCH   2   3
ATOM      3  C   UNL     1       6.422  56.109  22.463  1.00  0.00     0.000 C 
BRANCH   3   4
ATOM      4  C   UNL     1       7.629  55.825  21.553  1.00  0.00     0.006 C 
BRANCH   4   5
ATOM      5  C   UNL     1       7.308  56.022  20.067  1.00  0.00     0.053 C 
BRANCH   5   6
ATOM      6  C   UNL     1       7.106  54.699  19.397  1.00  0.00     0.041 C 
ATOM      7  O   UNL     1       7.568  53.649  19.917  1.00  0.00    -0.550 OA
ATOM      8  O   UNL     1       6.453  54.632  18.173  1.00  0.00    -0.550 OA
ENDBRANCH   5   6
ENDBRANCH   4   5
ENDBRANCH   3   4
ENDBRANCH   2   3
ENDBRANCH   1   2
BRANCH   1   9
ATOM      9  C   UNL     1       7.205  53.484  24.878  1.00  0.00     0.000 C 
BRANCH   9  10
ATOM     10  C   UNL     1       8.229  54.394  25.579  1.00  0.00    -0.000 C 
BRANCH  10  11
ATOM     11  C   UNL     1       9.310  54.915  24.617  1.00  0.00    -0.000 C 
BRANCH  11  12
ATOM     12  C   UNL     1      10.476  53.925  24.443  1.00  0.00    -0.000 C 
BRANCH  12  13
ATOM     13  C   UNL     1      10.380  53.128  23.133  1.00  0.00    -0.003 C 
ATOM     14  C   UNL     1      10.163  51.634  23.366  1.00  0.00     0.004 C 
ENDBRANCH  12  13
ENDBRANCH  11  12
ENDBRANCH  10  11
ENDBRANCH   9  10
ENDBRANCH   1   9
TORSDOF 10
ENDMDL
MODEL 4
REMARK VINA RESULT:    -4.774      2.991      5.413
REMARK INTER + INTRA:          -8.688
REMARK INTER:                  -7.630
REMARK INTRA:                  -1.058
REMARK UNBOUND:                -1.122
REMARK SMILES CCCCCCCCCCCC(=O)[O-]
REMARK SMILES IDX 7 1 8 2 9 3 10 4 11 5 12 6 13 7 14 8 6 9 5 10 4 11 3 12 2 13
REMARK SMILES IDX 1 14
REMARK H PARENT
REMARK Flexibility Score: inf
ROOT
ATOM      1  C   UNL     1       6.109  54.184  23.107  1.00  0.00     0.000 C 
ENDROOT
BRANCH   1   2
ATOM      2  C   UNL     1       6.008  55.682  22.781  1.00  0.00     0.000 C 
BRANCH   2   3
ATOM      3  C   UNL     1       7.403  56.317  22.684  1.00  0.00     0.000 C 
BRANCH   3   4
ATOM      4  C   UNL     1       8.134  55.945  21.383  1.00  0.00     0.006 C 
BRANCH   4   5
ATOM      5  C   UNL     1       7.215  55.980  20.157  1.00  0.00     0.053 C 
BRANCH   5   6
ATOM      6  C   UNL     1       7.153  54.631  19.512  1.00  0.00     0.041 C 
ATOM      7  O   UNL     1       7.884  53.695  19.931  1.00  0.00    -0.550 OA
ATOM      8  O   UNL     1       6.326  54.422  18.417  1.00  0.00    -0.550 OA
ENDBRANCH   5   6
ENDBRANCH   4   5
ENDBRANCH   3   4
ENDBRANCH   2   3
ENDBRANCH   1   2
BRANCH   1   9
ATOM      9  C   UNL     1       7.282  53.857  24.046  1.00  0.00     0.000 C 
BRANCH   9  10
ATOM     10  C   UNL     1       8.213  52.774  23.474  1.00  0.00    -0.000 C 
BRANCH  10  11
ATOM     11  C   UNL     1       9.633  52.849  24.058  1.00  0.00    -0.000 C 
BRANCH  11  12
ATOM     12  C   UNL     1      10.143  54.295  24.195  1.00  0.00    -0.000 C 
BRANCH  12  13
ATOM     13  C   UNL     1      10.693  54.594  25.598  1.00  0.00    -0.003 C 
ATOM     14  C   UNL     1       9.590  54.757  26.642  1.00  0.00     0.004 C 
ENDBRANCH  12  13
ENDBRANCH  11  12
ENDBRANCH  10  11
ENDBRANCH   9  10
ENDBRANCH   1   9
TORSDOF 10
ENDMDL
MODEL 5
REMARK VINA RESULT:    -4.729      2.914      4.925
REMARK INTER + INTRA:          -8.616
REMARK INTER:                  -7.583
REMARK INTRA:                  -1.033
REMARK UNBOUND:                -1.122
REMARK SMILES CCCCCCCCCCCC(=O)[O-]
REMARK SMILES IDX 7 1 8 2 9 3 10 4 11 5 12 6 13 7 14 8 6 9 5 10 4 11 3 12 2 13
REMARK SMILES IDX 1 14
REMARK H PARENT
REMARK Flexibility Score: inf
ROOT
ATOM      1  C   UNL     1       8.378  54.391  25.976  1.00  0.00     0.000 C 
ENDROOT
BRANCH   1   2
ATOM      2  C   UNL     1       7.296  53.985  24.963  1.00  0.00     0.000 C 
BRANCH   2   3
ATOM      3  C   UNL     1       7.275  54.949  23.768  1.00  0.00     0.000 C 
BRANCH   3   4
ATOM      4  C   UNL     1       6.150  54.630  22.769  1.00  0.00     0.006 C 
BRANCH   4   5
ATOM      5  C   UNL     1       6.607  53.697  21.642  1.00  0.00     0.053 C 
BRANCH   5   6
ATOM      6  C   UNL     1       7.206  54.487  20.521  1.00  0.00     0.041 C 
ATOM      7  O   UNL     1       7.692  53.898  19.519  1.00  0.00    -0.550 OA
ATOM      8  O   UNL     1       7.272  55.872  20.604  1.00  0.00    -0.550 OA
ENDBRANCH   5   6
ENDBRANCH   4   5
ENDBRANCH   3   4
ENDBRANCH   2   3
ENDBRANCH   1   2
BRANCH   1   9
ATOM      9  C   UNL     1       9.583  55.079  25.315  1.00  0.00     0.000 C 
BRANCH   9  10
ATOM     10  C   UNL     1      10.613  54.073  24.771  1.00  0.00    -0.000 C 
BRANCH  10  11
ATOM     11  C   UNL     1      10.631  54.021  23.235  1.00  0.00    -0.000 C 
BRANCH  11  12
ATOM     12  C   UNL     1      10.281  52.628  22.683  1.00  0.00    -0.000 C 
BRANCH  12  13
ATOM     13  C   UNL     1       9.698  51.698  23.760  1.00  0.00    -0.003 C 
ATOM     14  C   UNL     1      10.347  50.315  23.759  1.00  0.00     0.004 C 
ENDBRANCH  12  13
ENDBRANCH  11  12
ENDBRANCH  10  11
ENDBRANCH   9  10
ENDBRANCH   1   9
TORSDOF 10
ENDMDL
MODEL 6
REMARK VINA RESULT:    -4.654      2.288      4.457
REMARK INTER + INTRA:          -8.497
REMARK INTER:                  -7.332
REMARK INTRA:                  -1.165
REMARK UNBOUND:                -1.122
REMARK SMILES CCCCCCCCCCCC(=O)[O-]
REMARK SMILES IDX 7 1 8 2 9 3 10 4 11 5 12 6 13 7 14 8 6 9 5 10 4 11 3 12 2 13
REMARK SMILES IDX 1 14
REMARK H PARENT
REMARK Flexibility Score: inf
ROOT
ATOM      1  C   UNL     1       6.730  53.996  24.117  1.00  0.00     0.000 C 
ENDROOT
BRANCH   1   2
ATOM      2  C   UNL     1       6.747  53.135  22.845  1.00  0.00     0.000 C 
BRANCH   2   3
ATOM      3  C   UNL     1       6.521  53.999  21.596  1.00  0.00     0.000 C 
BRANCH   3   4
ATOM      4  C   UNL     1       7.773  54.796  21.192  1.00  0.00     0.006 C 
BRANCH   4   5
ATOM      5  C   UNL     1       7.472  56.275  20.924  1.00  0.00     0.053 C 
BRANCH   5   6
ATOM      6  C   UNL     1       6.902  56.921  22.147  1.00  0.00     0.041 C 
ATOM      7  O   UNL     1       5.702  57.305  22.160  1.00  0.00    -0.550 OA
ATOM      8  O   UNL     1       7.708  57.146  23.255  1.00  0.00    -0.550 OA
ENDBRANCH   5   6
ENDBRANCH   4   5
ENDBRANCH   3   4
ENDBRANCH   2   3
ENDBRANCH   1   2
BRANCH   1   9
ATOM      9  C   UNL     1       7.699  53.485  25.196  1.00  0.00     0.000 C 
BRANCH   9  10
ATOM     10  C   UNL     1       8.363  54.628  25.983  1.00  0.00    -0.000 C 
BRANCH  10  11
ATOM     11  C   UNL     1       9.580  55.218  25.252  1.00  0.00    -0.000 C 
BRANCH  11  12
ATOM     12  C   UNL     1      10.587  54.140  24.811  1.00  0.00    -0.000 C 
BRANCH  12  13
ATOM     13  C   UNL     1      10.599  53.936  23.287  1.00  0.00    -0.003 C 
ATOM     14  C   UNL     1      10.316  52.490  22.884  1.00  0.00     0.004 C 
ENDBRANCH  12  13
ENDBRANCH  11  12
ENDBRANCH  10  11
ENDBRANCH   9  10
ENDBRANCH   1   9
TORSDOF 10
ENDMDL
MODEL 7
REMARK VINA RESULT:    -4.599      2.125      3.252
REMARK INTER + INTRA:          -8.410
REMARK INTER:                  -7.623
REMARK INTRA:                  -0.787
REMARK UNBOUND:                -1.122
REMARK SMILES CCCCCCCCCCCC(=O)[O-]
REMARK SMILES IDX 7 1 8 2 9 3 10 4 11 5 12 6 13 7 14 8 6 9 5 10 4 11 3 12 2 13
REMARK SMILES IDX 1 14
REMARK H PARENT
REMARK Flexibility Score: inf
ROOT
ATOM      1  C   UNL     1       7.976  54.916  21.863  1.00  0.00     0.000 C 
ENDROOT
BRANCH   1   2
ATOM      2  C   UNL     1       7.308  53.696  22.514  1.00  0.00     0.000 C 
BRANCH   2   3
ATOM      3  C   UNL     1       6.880  54.009  23.956  1.00  0.00     0.000 C 
BRANCH   3   4
ATOM      4  C   UNL     1       7.806  53.367  25.001  1.00  0.00     0.006 C 
BRANCH   4   5
ATOM      5  C   UNL     1       8.625  54.402  25.782  1.00  0.00     0.053 C 
BRANCH   5   6
ATOM      6  C   UNL     1      10.053  54.383  25.334  1.00  0.00     0.041 C 
ATOM      7  O   UNL     1      10.922  55.046  25.960  1.00  0.00    -0.550 OA
ATOM      8  O   UNL     1      10.416  53.673  24.197  1.00  0.00    -0.550 OA
ENDBRANCH   5   6
ENDBRANCH   4   5
ENDBRANCH   3   4
ENDBRANCH   2   3
ENDBRANCH   1   2
BRANCH   1   9
ATOM      9  C   UNL     1       7.612  56.237  22.561  1.00  0.00     0.000 C 
BRANCH   9  10
ATOM     10  C   UNL     1       6.517  57.018  21.812  1.00  0.00    -0.000 C 
BRANCH  10  11
ATOM     11  C   UNL     1       5.187  57.053  22.582  1.00  0.00    -0.000 C 
BRANCH  11  12
ATOM     12  C   UNL     1       4.319  58.269  22.212  1.00  0.00    -0.000 C 
BRANCH  12  13
ATOM     13  C   UNL     1       2.886  57.872  21.824  1.00  0.00    -0.003 C 
ATOM     14  C   UNL     1       2.279  58.803  20.776  1.00  0.00     0.004 C 
ENDBRANCH  12  13
ENDBRANCH  11  12
ENDBRANCH  10  11
ENDBRANCH   9  10
ENDBRANCH   1   9
TORSDOF 10
ENDMDL
MODEL 8
REMARK VINA RESULT:    -4.579      2.730      5.382
REMARK INTER + INTRA:          -8.379
REMARK INTER:                  -7.460
REMARK INTRA:                  -0.919
REMARK UNBOUND:                -1.122
REMARK SMILES CCCCCCCCCCCC(=O)[O-]
REMARK SMILES IDX 7 1 8 2 9 3 10 4 11 5 12 6 13 7 14 8 6 9 5 10 4 11 3 12 2 13
REMARK SMILES IDX 1 14
REMARK H PARENT
REMARK Flexibility Score: inf
ROOT
ATOM      1  C   UNL     1       7.299  53.459  22.297  1.00  0.00     0.000 C 
ENDROOT
BRANCH   1   2
ATOM      2  C   UNL     1       8.049  54.086  21.112  1.00  0.00     0.000 C 
BRANCH   2   3
ATOM      3  C   UNL     1       7.266  55.274  20.535  1.00  0.00     0.000 C 
BRANCH   3   4
ATOM      4  C   UNL     1       7.656  56.613  21.182  1.00  0.00     0.006 C 
BRANCH   4   5
ATOM      5  C   UNL     1       7.027  56.806  22.567  1.00  0.00     0.053 C 
BRANCH   5   6
ATOM      6  C   UNL     1       5.534  56.768  22.472  1.00  0.00     0.041 C 
ATOM      7  O   UNL     1       4.898  57.785  22.089  1.00  0.00    -0.550 OA
ATOM      8  O   UNL     1       4.842  55.627  22.854  1.00  0.00    -0.550 OA
ENDBRANCH   5   6
ENDBRANCH   4   5
ENDBRANCH   3   4
ENDBRANCH   2   3
ENDBRANCH   1   2
BRANCH   1   9
ATOM      9  C   UNL     1       8.245  52.912  23.378  1.00  0.00     0.000 C 
BRANCH   9  10
ATOM     10  C   UNL     1       9.661  53.508  23.281  1.00  0.00    -0.000 C 
BRANCH  10  11
ATOM     11  C   UNL     1       9.874  54.681  24.252  1.00  0.00    -0.000 C 
BRANCH  11  12
ATOM     12  C   UNL     1       8.855  54.690  25.405  1.00  0.00    -0.000 C 
BRANCH  12  13
ATOM     13  C   UNL     1       9.529  54.724  26.786  1.00  0.00    -0.003 C 
ATOM     14  C   UNL     1      11.052  54.636  26.701  1.00  0.00     0.004 C 
ENDBRANCH  12  13
ENDBRANCH  11  12
ENDBRANCH  10  11
ENDBRANCH   9  10
ENDBRANCH   1   9
TORSDOF 10
ENDMDL
MODEL 9
REMARK VINA RESULT:    -4.512      2.058      2.719
REMARK INTER + INTRA:          -8.272
REMARK INTER:                  -7.401
REMARK INTRA:                  -0.871
REMARK UNBOUND:                -1.122
REMARK SMILES CCCCCCCCCCCC(=O)[O-]
REMARK SMILES IDX 7 1 8 2 9 3 10 4 11 5 12 6 13 7 14 8 6 9 5 10 4 11 3 12 2 13
REMARK SMILES IDX 1 14
REMARK H PARENT
REMARK Flexibility Score: inf
ROOT
ATOM      1  C   UNL     1       7.158  53.721  24.478  1.00  0.00     0.000 C 
ENDROOT
BRANCH   1   2
ATOM      2  C   UNL     1       8.033  54.010  25.707  1.00  0.00     0.000 C 
BRANCH   2   3
ATOM      3  C   UNL     1       9.209  54.926  25.338  1.00  0.00     0.000 C 
BRANCH   3   4
ATOM      4  C   UNL     1      10.460  54.141  24.909  1.00  0.00     0.006 C 
BRANCH   4   5
ATOM      5  C   UNL     1      10.608  54.050  23.386  1.00  0.00     0.053 C 
BRANCH   5   6
ATOM      6  C   UNL     1      10.256  52.677  22.908  1.00  0.00     0.041 C 
ATOM      7  O   UNL     1       9.901  52.493  21.714  1.00  0.00    -0.550 OA
ATOM      8  O   UNL     1      10.272  51.607  23.794  1.00  0.00    -0.550 OA
ENDBRANCH   5   6
ENDBRANCH   4   5
ENDBRANCH   3   4
ENDBRANCH   2   3
ENDBRANCH   1   2
BRANCH   1   9
ATOM      9  C   UNL     1       6.751  54.996  23.722  1.00  0.00     0.000 C 
BRANCH   9  10
ATOM     10  C   UNL     1       5.701  54.727  22.630  1.00  0.00    -0.000 C 
BRANCH  10  11
ATOM     11  C   UNL     1       6.240  53.830  21.504  1.00  0.00    -0.000 C 
BRANCH  11  12
ATOM     12  C   UNL     1       7.370  54.499  20.701  1.00  0.00    -0.000 C 
BRANCH  12  13
ATOM     13  C   UNL     1       7.490  53.939  19.274  1.00  0.00    -0.003 C 
ATOM     14  C   UNL     1       6.575  54.654  18.282  1.00  0.00     0.004 C 
ENDBRANCH  12  13
ENDBRANCH  11  12
ENDBRANCH  10  11
ENDBRANCH   9  10
ENDBRANCH   1   9
TORSDOF 10
ENDMDL
