MODEL 1
REMARK VINA RESULT:   170.130      0.000      0.000
REMARK INTER + INTRA:         186.179
REMARK INTER:                 185.049
REMARK INTRA:                   1.130
REMARK UNBOUND:                 1.130
REMARK SMILES C[C@@H]1[C@H]2C3=CC[C@H]4[C@]5(C)CC[C@H](O)C(C)(C)[C@@H]5CC[C@@]4(C)[C@@]3(C)CC[C@@]2(C(=O)[O-])CC[C@@H]1C
REMARK SMILES IDX 26 1 30 2 25 3 3 4 31 5 24 6 4 7 2 8 32 9 22 10 5 11 1 12
REMARK SMILES IDX 33 13 23 14 20 15 6 16 7 17 19 18 21 19 8 20 18 21 17 22
REMARK SMILES IDX 10 23 9 24 14 25 11 26 12 27 15 28 16 29 27 30 28 31 29 32
REMARK SMILES IDX 13 33
REMARK H PARENT 13 34
REMARK Flexibility Score: inf
ROOT
ATOM      1  C   UNL     1     -13.790  -4.334  14.573  1.00  0.00     0.017 C 
ATOM      2  C   UNL     1     -12.264  -4.486  14.788  1.00  0.00     0.014 C 
ATOM      3  C   UNL     1     -14.317  -5.745  14.224  1.00  0.00     0.014 C 
ATOM      4  C   UNL     1     -14.196  -3.325  13.402  1.00  0.00     0.030 C 
ATOM      5  C   UNL     1     -11.532  -3.172  14.595  1.00  0.00     0.004 C 
ATOM      6  C   UNL     1     -15.844  -5.797  14.157  1.00  0.00     0.013 C 
ATOM      7  C   UNL     1     -15.414  -3.850  12.558  1.00  0.00    -0.063 C 
ATOM      8  C   UNL     1     -13.001  -2.736  12.531  1.00  0.00    -0.003 C 
ATOM      9  C   UNL     1     -11.538  -2.848  13.103  1.00  0.00    -0.011 C 
ATOM     10  C   UNL     1     -16.503  -4.720  13.212  1.00  0.00    -0.006 C 
ATOM     11  C   UNL     1     -15.675  -3.352  11.332  1.00  0.00    -0.027 C 
ATOM     12  C   UNL     1     -13.321  -1.327  11.967  1.00  0.00     0.008 C 
ATOM     13  C   UNL     1     -10.596  -1.666  12.820  1.00  0.00     0.008 C 
ATOM     14  C   UNL     1     -17.355  -3.751  14.083  1.00  0.00     0.017 C 
ATOM     15  C   UNL     1     -17.434  -5.445  12.100  1.00  0.00    -0.020 C 
ATOM     16  C   UNL     1     -17.039  -3.294  10.714  1.00  0.00     0.032 C 
ATOM     17  C   UNL     1     -18.095  -4.376  11.142  1.00  0.00     0.006 C 
ATOM     18  C   UNL     1     -16.582  -6.388  11.190  1.00  0.00     0.008 C 
ATOM     19  C   UNL     1     -18.539  -6.270  12.857  1.00  0.00     0.012 C 
ATOM     20  C   UNL     1     -18.904  -4.916   9.860  1.00  0.00    -0.025 C 
ATOM     21  C   UNL     1     -17.337  -6.964   9.982  1.00  0.00     0.005 C 
ATOM     22  C   UNL     1     -17.996  -5.912   9.032  1.00  0.00     0.003 C 
ATOM     23  C   UNL     1     -20.227  -5.652  10.246  1.00  0.00     0.010 C 
ATOM     24  C   UNL     1     -19.333  -3.640   9.039  1.00  0.00     0.012 C 
ATOM     25  C   UNL     1     -18.738  -6.616   7.809  1.00  0.00    -0.006 C 
ATOM     26  C   UNL     1     -20.983  -6.266   9.053  1.00  0.00     0.033 C 
ATOM     27  C   UNL     1     -20.109  -7.249   8.233  1.00  0.00     0.120 C 
ATOM     28  C   UNL     1     -17.844  -7.723   7.172  1.00  0.00     0.014 C 
ATOM     29  C   UNL     1     -18.981  -5.606   6.644  1.00  0.00     0.014 C 
ENDROOT
BRANCH   1  30
ATOM     30  C   UNL     1     -14.355  -3.887  15.928  1.00  0.00     0.048 C 
ATOM     31  O   UNL     1     -15.431  -4.373  16.369  1.00  0.00    -0.550 OA
ATOM     32  O   UNL     1     -13.630  -3.044  16.760  1.00  0.00    -0.550 OA
ENDBRANCH   1  30
BRANCH  27  33
ATOM     33  O   UNL     1     -19.894  -8.469   8.914  1.00  0.00    -0.393 OA
ATOM     34  H   UNL     1     -19.441  -8.320   9.787  1.00  0.00     0.210 HD
ENDBRANCH  27  33
TORSDOF 2
ENDMDL
MODEL 2
REMARK VINA RESULT:   171.576      1.707      7.828
REMARK INTER + INTRA:         187.751
REMARK INTER:                 186.202
REMARK INTRA:                   1.549
REMARK UNBOUND:                 1.130
REMARK SMILES C[C@@H]1[C@H]2C3=CC[C@H]4[C@]5(C)CC[C@H](O)C(C)(C)[C@@H]5CC[C@@]4(C)[C@@]3(C)CC[C@@]2(C(=O)[O-])CC[C@@H]1C
REMARK SMILES IDX 26 1 30 2 25 3 3 4 31 5 24 6 4 7 2 8 32 9 22 10 5 11 1 12
REMARK SMILES IDX 33 13 23 14 20 15 6 16 7 17 19 18 21 19 8 20 18 21 17 22
REMARK SMILES IDX 10 23 9 24 14 25 11 26 12 27 15 28 16 29 27 30 28 31 29 32
REMARK SMILES IDX 13 33
REMARK H PARENT 13 34
REMARK Flexibility Score: inf
ROOT
ATOM      1  C   UNL     1     -18.853  -6.064   9.770  1.00  0.00     0.017 C 
ATOM      2  C   UNL     1     -20.036  -5.800   8.807  1.00  0.00     0.014 C 
ATOM      3  C   UNL     1     -18.889  -4.927  10.817  1.00  0.00     0.014 C 
ATOM      4  C   UNL     1     -17.417  -6.076   9.068  1.00  0.00     0.030 C 
ATOM      5  C   UNL     1     -19.827  -6.463   7.459  1.00  0.00     0.004 C 
ATOM      6  C   UNL     1     -17.886  -5.146  11.951  1.00  0.00     0.013 C 
ATOM      7  C   UNL     1     -16.318  -5.373   9.945  1.00  0.00    -0.063 C 
ATOM      8  C   UNL     1     -17.381  -5.674   7.528  1.00  0.00    -0.003 C 
ATOM      9  C   UNL     1     -18.734  -5.691   6.723  1.00  0.00    -0.011 C 
ATOM     10  C   UNL     1     -16.404  -5.408  11.482  1.00  0.00    -0.006 C 
ATOM     11  C   UNL     1     -15.157  -4.955   9.401  1.00  0.00    -0.027 C 
ATOM     12  C   UNL     1     -16.218  -6.362   6.766  1.00  0.00     0.008 C 
ATOM     13  C   UNL     1     -18.659  -6.158   5.259  1.00  0.00     0.008 C 
ATOM     14  C   UNL     1     -16.000  -6.852  11.898  1.00  0.00     0.017 C 
ATOM     15  C   UNL     1     -15.403  -4.326  12.158  1.00  0.00    -0.020 C 
ATOM     16  C   UNL     1     -13.861  -4.849  10.146  1.00  0.00     0.032 C 
ATOM     17  C   UNL     1     -13.915  -4.574  11.692  1.00  0.00     0.006 C 
ATOM     18  C   UNL     1     -15.771  -2.873  11.714  1.00  0.00     0.008 C 
ATOM     19  C   UNL     1     -15.525  -4.465  13.721  1.00  0.00     0.012 C 
ATOM     20  C   UNL     1     -12.805  -3.485  12.111  1.00  0.00    -0.025 C 
ATOM     21  C   UNL     1     -14.759  -1.798  12.141  1.00  0.00     0.005 C 
ATOM     22  C   UNL     1     -13.283  -2.040  11.684  1.00  0.00     0.003 C 
ATOM     23  C   UNL     1     -12.512  -3.481  13.646  1.00  0.00     0.010 C 
ATOM     24  C   UNL     1     -11.464  -3.927  11.408  1.00  0.00     0.012 C 
ATOM     25  C   UNL     1     -12.324  -0.860  12.168  1.00  0.00    -0.006 C 
ATOM     26  C   UNL     1     -11.525  -2.390  14.100  1.00  0.00     0.033 C 
ATOM     27  C   UNL     1     -11.981  -0.964  13.695  1.00  0.00     0.120 C 
ATOM     28  C   UNL     1     -12.963   0.533  11.885  1.00  0.00     0.014 C 
ATOM     29  C   UNL     1     -10.997  -0.845  11.346  1.00  0.00     0.014 C 
ENDROOT
BRANCH   1  30
ATOM     30  C   UNL     1     -19.164  -7.406  10.447  1.00  0.00     0.048 C 
ATOM     31  O   UNL     1     -19.877  -8.269   9.869  1.00  0.00    -0.550 OA
ATOM     32  O   UNL     1     -18.559  -7.756  11.647  1.00  0.00    -0.550 OA
ENDBRANCH   1  30
BRANCH  27  33
ATOM     33  O   UNL     1     -13.071  -0.510  14.472  1.00  0.00    -0.393 OA
ATOM     34  H   UNL     1     -13.339  -1.189  15.150  1.00  0.00     0.210 HD
ENDBRANCH  27  33
TORSDOF 2
ENDMDL
