MODEL 1
REMARK VINA RESULT:     5.115      0.000      0.000
REMARK INTER + INTRA:           6.406
REMARK INTER:                   6.161
REMARK INTRA:                   0.244
REMARK UNBOUND:                 0.244
REMARK SMILES O=c1c(O)c(-c2ccc(O)c(O)c2)oc2cc(O)cc(O)c12
REMARK SMILES IDX 5 1 3 2 2 3 1 4 22 5 20 6 19 7 17 8 16 9 15 10 14 11 6 12
REMARK SMILES IDX 7 13 8 14 9 15 13 16 11 17 10 18 12 20 4 22 21 24 18 26
REMARK H PARENT 10 19 12 21 4 23 21 25 18 27
REMARK Flexibility Score: inf
ROOT
ATOM      1  C   UNL     1      13.944 -14.039  -1.170  1.00  0.00     0.180 A 
ATOM      2  C   UNL     1      13.913 -13.246  -0.010  1.00  0.00     0.208 A 
ATOM      3  C   UNL     1      14.191 -13.841   1.231  1.00  0.00     0.238 A 
ATOM      4  O   UNL     1      14.108 -13.137   2.271  1.00  0.00    -0.285 OA
ATOM      5  C   UNL     1      14.513 -15.219   1.294  1.00  0.00     0.111 A 
ATOM      6  C   UNL     1      14.851 -15.917   2.493  1.00  0.00     0.134 A 
ATOM      7  C   UNL     1      15.024 -17.306   2.456  1.00  0.00     0.093 A 
ATOM      8  C   UNL     1      14.935 -18.012   1.255  1.00  0.00     0.123 A 
ATOM      9  C   UNL     1      14.664 -17.331   0.071  1.00  0.00     0.094 A 
ATOM     10  C   UNL     1      14.450 -15.950   0.080  1.00  0.00     0.146 A 
ATOM     11  O   UNL     1      14.184 -15.342  -1.070  1.00  0.00    -0.452 OA
ENDROOT
BRANCH   1  12
ATOM     12  C   UNL     1      13.686 -13.478  -2.516  1.00  0.00     0.025 A 
ATOM     13  C   UNL     1      12.708 -12.483  -2.674  1.00  0.00     0.016 A 
ATOM     14  C   UNL     1      12.435 -11.955  -3.938  1.00  0.00     0.051 A 
ATOM     15  C   UNL     1      13.120 -12.423  -5.064  1.00  0.00     0.157 A 
ATOM     16  C   UNL     1      14.360 -13.962  -3.652  1.00  0.00     0.062 A 
ATOM     17  C   UNL     1      14.084 -13.434  -4.922  1.00  0.00     0.158 A 
BRANCH  15  18
ATOM     18  O   UNL     1      12.826 -11.875  -6.312  1.00  0.00    -0.504 OA
ATOM     19  H   UNL     1      11.888 -11.881  -6.695  1.00  0.00     0.293 HD
ENDBRANCH  15  18
BRANCH  17  20
ATOM     20  O   UNL     1      14.761 -13.916  -6.041  1.00  0.00    -0.504 OA
ATOM     21  H   UNL     1      14.637 -13.501  -6.957  1.00  0.00     0.293 HD
ENDBRANCH  17  20
ENDBRANCH   1  12
BRANCH   2  22
ATOM     22  O   UNL     1      13.571 -11.893  -0.094  1.00  0.00    -0.502 OA
ATOM     23  H   UNL     1      12.841 -11.553  -0.710  1.00  0.00     0.293 HD
ENDBRANCH   2  22
BRANCH   6  24
ATOM     24  O   UNL     1      15.055 -15.294   3.728  1.00  0.00    -0.507 OA
ATOM     25  H   UNL     1      15.334 -14.332   3.847  1.00  0.00     0.293 HD
ENDBRANCH   6  24
BRANCH   8  26
ATOM     26  O   UNL     1      15.123 -19.393   1.225  1.00  0.00    -0.508 OA
ATOM     27  H   UNL     1      15.796 -19.822   0.600  1.00  0.00     0.293 HD
ENDBRANCH   8  26
TORSDOF 6
ENDMDL
MODEL 2
REMARK VINA RESULT:     5.304      2.275      4.253
REMARK INTER + INTRA:           6.633
REMARK INTER:                   6.817
REMARK INTRA:                  -0.184
REMARK UNBOUND:                 0.244
REMARK SMILES O=c1c(O)c(-c2ccc(O)c(O)c2)oc2cc(O)cc(O)c12
REMARK SMILES IDX 5 1 3 2 2 3 1 4 22 5 20 6 19 7 17 8 16 9 15 10 14 11 6 12
REMARK SMILES IDX 7 13 8 14 9 15 13 16 11 17 10 18 12 20 4 22 21 24 18 26
REMARK H PARENT 10 19 12 21 4 23 21 25 18 27
REMARK Flexibility Score: inf
ROOT
ATOM      1  C   UNL     1      14.329 -15.253   1.428  1.00  0.00     0.180 A 
ATOM      2  C   UNL     1      14.588 -16.629   1.308  1.00  0.00     0.208 A 
ATOM      3  C   UNL     1      14.840 -17.380   2.467  1.00  0.00     0.238 A 
ATOM      4  O   UNL     1      15.125 -18.600   2.347  1.00  0.00    -0.285 OA
ATOM      5  C   UNL     1      14.814 -16.748   3.734  1.00  0.00     0.111 A 
ATOM      6  C   UNL     1      15.015 -17.419   4.978  1.00  0.00     0.134 A 
ATOM      7  C   UNL     1      15.098 -16.672   6.159  1.00  0.00     0.093 A 
ATOM      8  C   UNL     1      14.921 -15.287   6.149  1.00  0.00     0.123 A 
ATOM      9  C   UNL     1      14.665 -14.630   4.948  1.00  0.00     0.094 A 
ATOM     10  C   UNL     1      14.613 -15.343   3.747  1.00  0.00     0.146 A 
ATOM     11  O   UNL     1      14.377 -14.677   2.624  1.00  0.00    -0.452 OA
ENDROOT
BRANCH   1  12
ATOM     12  C   UNL     1      14.030 -14.401   0.254  1.00  0.00     0.025 A 
ATOM     13  C   UNL     1      14.883 -13.330  -0.056  1.00  0.00     0.016 A 
ATOM     14  C   UNL     1      14.608 -12.501  -1.147  1.00  0.00     0.051 A 
ATOM     15  C   UNL     1      13.473 -12.719  -1.933  1.00  0.00     0.157 A 
ATOM     16  C   UNL     1      12.877 -14.607  -0.525  1.00  0.00     0.062 A 
ATOM     17  C   UNL     1      12.600 -13.774  -1.619  1.00  0.00     0.158 A 
BRANCH  15  18
ATOM     18  O   UNL     1      13.226 -11.876  -3.017  1.00  0.00    -0.504 OA
ATOM     19  H   UNL     1      13.433 -10.885  -2.985  1.00  0.00     0.293 HD
ENDBRANCH  15  18
BRANCH  17  20
ATOM     20  O   UNL     1      11.458 -13.989  -2.390  1.00  0.00    -0.504 OA
ATOM     21  H   UNL     1      11.147 -14.922  -2.631  1.00  0.00     0.293 HD
ENDBRANCH  17  20
ENDBRANCH   1  12
BRANCH   2  22
ATOM     22  O   UNL     1      14.631 -17.228   0.045  1.00  0.00    -0.502 OA
ATOM     23  H   UNL     1      15.379 -17.052  -0.615  1.00  0.00     0.293 HD
ENDBRANCH   2  22
BRANCH   6  24
ATOM     24  O   UNL     1      15.111 -18.807   5.109  1.00  0.00    -0.507 OA
ATOM     25  H   UNL     1      14.400 -19.397   5.516  1.00  0.00     0.293 HD
ENDBRANCH   6  24
BRANCH   8  26
ATOM     26  O   UNL     1      14.989 -14.552   7.332  1.00  0.00    -0.508 OA
ATOM     27  H   UNL     1      15.528 -14.877   8.127  1.00  0.00     0.293 HD
ENDBRANCH   8  26
TORSDOF 6
ENDMDL
MODEL 3
REMARK VINA RESULT:     7.791     19.857     22.273
REMARK INTER + INTRA:           9.629
REMARK INTER:                   9.824
REMARK INTRA:                  -0.195
REMARK UNBOUND:                 0.244
REMARK SMILES O=c1c(O)c(-c2ccc(O)c(O)c2)oc2cc(O)cc(O)c12
REMARK SMILES IDX 5 1 3 2 2 3 1 4 22 5 20 6 19 7 17 8 16 9 15 10 14 11 6 12
REMARK SMILES IDX 7 13 8 14 9 15 13 16 11 17 10 18 12 20 4 22 21 24 18 26
REMARK H PARENT 10 19 12 21 4 23 21 25 18 27
REMARK Flexibility Score: inf
ROOT
ATOM      1  C   UNL     1       0.538 -30.908  -3.296  1.00  0.00     0.180 A 
ATOM      2  C   UNL     1      -0.744 -30.941  -3.872  1.00  0.00     0.208 A 
ATOM      3  C   UNL     1      -0.869 -31.235  -5.239  1.00  0.00     0.238 A 
ATOM      4  O   UNL     1      -2.015 -31.209  -5.760  1.00  0.00    -0.285 OA
ATOM      5  C   UNL     1       0.287 -31.507  -6.009  1.00  0.00     0.111 A 
ATOM      6  C   UNL     1       0.275 -31.855  -7.394  1.00  0.00     0.134 A 
ATOM      7  C   UNL     1       1.486 -31.974  -8.086  1.00  0.00     0.093 A 
ATOM      8  C   UNL     1       2.709 -31.822  -7.430  1.00  0.00     0.123 A 
ATOM      9  C   UNL     1       2.732 -31.542  -6.066  1.00  0.00     0.094 A 
ATOM     10  C   UNL     1       1.540 -31.380  -5.355  1.00  0.00     0.146 A 
ATOM     11  O   UNL     1       1.608 -31.103  -4.058  1.00  0.00    -0.452 OA
ENDROOT
BRANCH   1  12
ATOM     12  C   UNL     1       0.748 -30.631  -1.856  1.00  0.00     0.025 A 
ATOM     13  C   UNL     1       0.300 -31.558  -0.902  1.00  0.00     0.016 A 
ATOM     14  C   UNL     1       0.470 -31.306   0.462  1.00  0.00     0.051 A 
ATOM     15  C   UNL     1       1.074 -30.121   0.893  1.00  0.00     0.157 A 
ATOM     16  C   UNL     1       1.337 -29.430  -1.420  1.00  0.00     0.062 A 
ATOM     17  C   UNL     1       1.506 -29.176  -0.051  1.00  0.00     0.158 A 
BRANCH  15  18
ATOM     18  O   UNL     1       1.232 -29.899   2.261  1.00  0.00    -0.504 OA
ATOM     19  H   UNL     1       1.045 -30.620   2.948  1.00  0.00     0.293 HD
ENDBRANCH  15  18
BRANCH  17  20
ATOM     20  O   UNL     1       2.096 -27.985   0.371  1.00  0.00    -0.504 OA
ATOM     21  H   UNL     1       1.947 -27.619   1.304  1.00  0.00     0.293 HD
ENDBRANCH  17  20
ENDBRANCH   1  12
BRANCH   2  22
ATOM     22  O   UNL     1      -1.870 -30.648  -3.097  1.00  0.00    -0.502 OA
ATOM     23  H   UNL     1      -1.942 -29.804  -2.540  1.00  0.00     0.293 HD
ENDBRANCH   2  22
BRANCH   6  24
ATOM     24  O   UNL     1      -0.889 -32.119  -8.122  1.00  0.00    -0.507 OA
ATOM     25  H   UNL     1      -0.909 -32.505  -9.054  1.00  0.00     0.293 HD
ENDBRANCH   6  24
BRANCH   8  26
ATOM     26  O   UNL     1       3.910 -31.959  -8.123  1.00  0.00    -0.508 OA
ATOM     27  H   UNL     1       4.616 -31.231  -8.108  1.00  0.00     0.293 HD
ENDBRANCH   8  26
TORSDOF 6
ENDMDL
