MODEL 1
REMARK VINA RESULT:    -0.193      0.000      0.000
REMARK INTER + INTRA:          -0.440
REMARK INTER:                  -0.238
REMARK INTRA:                  -0.202
REMARK UNBOUND:                -0.202
REMARK SMILES Oc1cc(O)c2cc(O)c(-c3cc(O)c(O)c(O)c3)[o+]c2c1
REMARK SMILES IDX 10 1 20 2 21 3 22 4 2 5 3 6 4 7 6 8 7 9 8 10 11 11 12 12
REMARK SMILES IDX 13 13 19 14 15 15 17 16 14 17 16 19 18 21 9 23 1 25 5 27
REMARK H PARENT 14 18 16 20 18 22 9 24 1 26 5 28
REMARK Flexibility Score: inf
ROOT
ATOM      1  C   UNL     1      39.222  21.970  36.654  1.00  0.00     0.402 A 
ATOM      2  O   UNL     1      40.202  21.454  35.913  1.00  0.00    -0.202 OA
ATOM      3  C   UNL     1      40.051  20.368  35.163  1.00  0.00     0.368 A 
ATOM      4  C   UNL     1      41.131  19.886  34.417  1.00  0.00     0.162 A 
ATOM      5  C   UNL     1      40.985  18.740  33.625  1.00  0.00     0.128 A 
ATOM      6  C   UNL     1      39.755  18.075  33.580  1.00  0.00     0.093 A 
ATOM      7  C   UNL     1      38.663  18.547  34.322  1.00  0.00     0.136 A 
ATOM      8  C   UNL     1      38.809  19.698  35.118  1.00  0.00     0.125 A 
ATOM      9  C   UNL     1      37.751  20.218  35.873  1.00  0.00     0.078 A 
ATOM     10  C   UNL     1      37.947  21.370  36.642  1.00  0.00     0.223 A 
ENDROOT
BRANCH   1  11
ATOM     11  C   UNL     1      39.515  23.180  37.456  1.00  0.00     0.091 A 
ATOM     12  C   UNL     1      40.477  23.164  38.481  1.00  0.00     0.068 A 
ATOM     13  C   UNL     1      40.757  24.322  39.214  1.00  0.00     0.162 A 
ATOM     14  C   UNL     1      38.861  24.384  37.154  1.00  0.00     0.068 A 
ATOM     15  C   UNL     1      40.082  25.519  38.920  1.00  0.00     0.200 A 
ATOM     16  C   UNL     1      39.133  25.549  37.884  1.00  0.00     0.162 A 
BRANCH  13  17
ATOM     17  O   UNL     1      41.715  24.265  40.226  1.00  0.00    -0.504 OA
ATOM     18  H   UNL     1      42.556  24.829  40.205  1.00  0.00     0.293 HD
ENDBRANCH  13  17
BRANCH  15  19
ATOM     19  O   UNL     1      40.365  26.669  39.660  1.00  0.00    -0.502 OA
ATOM     20  H   UNL     1      39.665  27.378  39.844  1.00  0.00     0.293 HD
ENDBRANCH  15  19
BRANCH  16  21
ATOM     21  O   UNL     1      38.465  26.734  37.582  1.00  0.00    -0.504 OA
ATOM     22  H   UNL     1      38.575  27.193  36.685  1.00  0.00     0.293 HD
ENDBRANCH  16  21
ENDBRANCH   1  11
BRANCH  10  23
ATOM     23  O   UNL     1      36.885  21.923  37.356  1.00  0.00    -0.500 OA
ATOM     24  H   UNL     1      37.037  22.567  38.124  1.00  0.00     0.294 HD
ENDBRANCH  10  23
BRANCH   5  25
ATOM     25  O   UNL     1      42.056  18.253  32.879  1.00  0.00    -0.507 OA
ATOM     26  H   UNL     1      42.218  17.259  32.769  1.00  0.00     0.293 HD
ENDBRANCH   5  25
BRANCH   7  27
ATOM     27  O   UNL     1      37.440  17.875  34.267  1.00  0.00    -0.507 OA
ATOM     28  H   UNL     1      37.162  17.218  34.987  1.00  0.00     0.293 HD
ENDBRANCH   7  27
TORSDOF 7
ENDMDL
MODEL 2
REMARK VINA RESULT:    -0.099      0.044      1.795
REMARK INTER + INTRA:          -0.323
REMARK INTER:                  -0.129
REMARK INTRA:                  -0.194
REMARK UNBOUND:                -0.202
REMARK SMILES Oc1cc(O)c2cc(O)c(-c3cc(O)c(O)c(O)c3)[o+]c2c1
REMARK SMILES IDX 10 1 20 2 21 3 22 4 2 5 3 6 4 7 6 8 7 9 8 10 11 11 12 12
REMARK SMILES IDX 13 13 19 14 15 15 17 16 14 17 16 19 18 21 9 23 1 25 5 27
REMARK H PARENT 14 18 16 20 18 22 9 24 1 26 5 28
REMARK Flexibility Score: inf
ROOT
ATOM      1  C   UNL     1      39.226  22.011  36.625  1.00  0.00     0.402 A 
ATOM      2  O   UNL     1      40.198  21.487  35.881  1.00  0.00    -0.202 OA
ATOM      3  C   UNL     1      40.043  20.389  35.149  1.00  0.00     0.368 A 
ATOM      4  C   UNL     1      41.117  19.899  34.399  1.00  0.00     0.162 A 
ATOM      5  C   UNL     1      40.965  18.740  33.626  1.00  0.00     0.128 A 
ATOM      6  C   UNL     1      39.737  18.071  33.604  1.00  0.00     0.093 A 
ATOM      7  C   UNL     1      38.651  18.551  34.351  1.00  0.00     0.136 A 
ATOM      8  C   UNL     1      38.803  19.715  35.128  1.00  0.00     0.125 A 
ATOM      9  C   UNL     1      37.752  20.243  35.886  1.00  0.00     0.078 A 
ATOM     10  C   UNL     1      37.952  21.407  36.636  1.00  0.00     0.223 A 
ENDROOT
BRANCH   1  11
ATOM     11  C   UNL     1      39.523  23.234  37.405  1.00  0.00     0.091 A 
ATOM     12  C   UNL     1      38.840  24.439  37.166  1.00  0.00     0.068 A 
ATOM     13  C   UNL     1      39.118  25.579  37.928  1.00  0.00     0.162 A 
ATOM     14  C   UNL     1      40.465  23.179  38.443  1.00  0.00     0.068 A 
ATOM     15  C   UNL     1      40.079  25.523  38.951  1.00  0.00     0.200 A 
ATOM     16  C   UNL     1      40.752  24.316  39.210  1.00  0.00     0.162 A 
BRANCH  13  17
ATOM     17  O   UNL     1      38.423  26.757  37.656  1.00  0.00    -0.504 OA
ATOM     18  H   UNL     1      38.604  27.618  38.159  1.00  0.00     0.293 HD
ENDBRANCH  13  17
BRANCH  15  19
ATOM     19  O   UNL     1      40.353  26.667  39.703  1.00  0.00    -0.502 OA
ATOM     20  H   UNL     1      40.984  27.388  39.377  1.00  0.00     0.293 HD
ENDBRANCH  15  19
BRANCH  16  21
ATOM     21  O   UNL     1      41.701  24.250  40.229  1.00  0.00    -0.504 OA
ATOM     22  H   UNL     1      41.489  24.551  41.173  1.00  0.00     0.293 HD
ENDBRANCH  16  21
ENDBRANCH   1  11
BRANCH  10  23
ATOM     23  O   UNL     1      36.896  21.967  37.353  1.00  0.00    -0.500 OA
ATOM     24  H   UNL     1      36.826  21.871  38.360  1.00  0.00     0.294 HD
ENDBRANCH  10  23
BRANCH   5  25
ATOM     25  O   UNL     1      42.030  18.246  32.875  1.00  0.00    -0.507 OA
ATOM     26  H   UNL     1      42.977  18.244  33.235  1.00  0.00     0.293 HD
ENDBRANCH   5  25
BRANCH   7  27
ATOM     27  O   UNL     1      37.430  17.876  34.319  1.00  0.00    -0.507 OA
ATOM     28  H   UNL     1      36.783  17.984  33.547  1.00  0.00     0.293 HD
ENDBRANCH   7  27
TORSDOF 7
ENDMDL
