MODEL 1
REMARK VINA RESULT:    -5.824      0.000      0.000
REMARK INTER + INTRA:          -7.175
REMARK INTER:                  -7.015
REMARK INTRA:                  -0.159
REMARK UNBOUND:                -0.159
REMARK SMILES O=c1c(O)c(-c2ccc(O)c(O)c2)oc2cc(O)cc(O)c12
REMARK SMILES IDX 5 1 3 2 2 3 1 4 22 5 20 6 19 7 17 8 16 9 15 10 14 11 6 12
REMARK SMILES IDX 7 13 8 14 9 15 13 16 11 17 10 18 12 20 4 22 21 24 18 26
REMARK H PARENT 10 19 12 21 4 23 21 25 18 27
REMARK Flexibility Score: inf
ROOT
ATOM      1  C   UNL     1      35.964 181.099 173.341  1.00  0.00     0.180 A 
ATOM      2  C   UNL     1      35.764 182.366 173.918  1.00  0.00     0.208 A 
ATOM      3  C   UNL     1      36.875 183.079 174.395  1.00  0.00     0.238 A 
ATOM      4  O   UNL     1      36.685 184.188 174.960  1.00  0.00    -0.285 OA
ATOM      5  C   UNL     1      38.172 182.525 174.277  1.00  0.00     0.111 A 
ATOM      6  C   UNL     1      39.374 183.177 174.689  1.00  0.00     0.134 A 
ATOM      7  C   UNL     1      40.587 182.481 174.643  1.00  0.00     0.093 A 
ATOM      8  C   UNL     1      40.656 181.183 174.139  1.00  0.00     0.123 A 
ATOM      9  C   UNL     1      39.497 180.557 173.677  1.00  0.00     0.094 A 
ATOM     10  C   UNL     1      38.264 181.212 173.744  1.00  0.00     0.146 A 
ATOM     11  O   UNL     1      37.184 180.579 173.304  1.00  0.00    -0.452 OA
ENDROOT
BRANCH   1  12
ATOM     12  C   UNL     1      34.845 180.298 172.794  1.00  0.00     0.025 A 
ATOM     13  C   UNL     1      34.592 179.019 173.313  1.00  0.00     0.016 A 
ATOM     14  C   UNL     1      33.554 178.237 172.796  1.00  0.00     0.051 A 
ATOM     15  C   UNL     1      32.767 178.718 171.743  1.00  0.00     0.157 A 
ATOM     16  C   UNL     1      34.064 180.768 171.721  1.00  0.00     0.062 A 
ATOM     17  C   UNL     1      33.025 179.983 171.201  1.00  0.00     0.158 A 
BRANCH  15  18
ATOM     18  O   UNL     1      31.730 177.942 171.226  1.00  0.00    -0.504 OA
ATOM     19  H   UNL     1      31.830 176.942 171.099  1.00  0.00     0.293 HD
ENDBRANCH  15  18
BRANCH  17  20
ATOM     20  O   UNL     1      32.248 180.453 170.143  1.00  0.00    -0.504 OA
ATOM     21  H   UNL     1      32.385 181.378 169.754  1.00  0.00     0.293 HD
ENDBRANCH  17  20
ENDBRANCH   1  12
BRANCH   2  22
ATOM     22  O   UNL     1      34.472 182.885 174.045  1.00  0.00    -0.502 OA
ATOM     23  H   UNL     1      33.686 182.320 174.345  1.00  0.00     0.293 HD
ENDBRANCH   2  22
BRANCH   6  24
ATOM     24  O   UNL     1      39.431 184.505 175.123  1.00  0.00    -0.507 OA
ATOM     25  H   UNL     1      38.994 184.855 175.963  1.00  0.00     0.293 HD
ENDBRANCH   6  24
BRANCH   8  26
ATOM     26  O   UNL     1      41.883 180.526 174.094  1.00  0.00    -0.508 OA
ATOM     27  H   UNL     1      42.741 181.021 173.879  1.00  0.00     0.293 HD
ENDBRANCH   8  26
TORSDOF 6
ENDMDL
MODEL 2
REMARK VINA RESULT:    -5.773      0.829      1.527
REMARK INTER + INTRA:          -7.113
REMARK INTER:                  -6.816
REMARK INTRA:                  -0.297
REMARK UNBOUND:                -0.159
REMARK SMILES O=c1c(O)c(-c2ccc(O)c(O)c2)oc2cc(O)cc(O)c12
REMARK SMILES IDX 5 1 3 2 2 3 1 4 22 5 20 6 19 7 17 8 16 9 15 10 14 11 6 12
REMARK SMILES IDX 7 13 8 14 9 15 13 16 11 17 10 18 12 20 4 22 21 24 18 26
REMARK H PARENT 10 19 12 21 4 23 21 25 18 27
REMARK Flexibility Score: inf
ROOT
ATOM      1  C   UNL     1      35.761 181.157 173.017  1.00  0.00     0.180 A 
ATOM      2  C   UNL     1      35.628 182.431 173.598  1.00  0.00     0.208 A 
ATOM      3  C   UNL     1      36.786 183.142 173.952  1.00  0.00     0.238 A 
ATOM      4  O   UNL     1      36.660 184.257 174.522  1.00  0.00    -0.285 OA
ATOM      5  C   UNL     1      38.061 182.578 173.708  1.00  0.00     0.111 A 
ATOM      6  C   UNL     1      39.302 183.226 173.989  1.00  0.00     0.134 A 
ATOM      7  C   UNL     1      40.501 182.523 173.827  1.00  0.00     0.093 A 
ATOM      8  C   UNL     1      40.510 181.219 173.331  1.00  0.00     0.123 A 
ATOM      9  C   UNL     1      39.307 180.596 172.997  1.00  0.00     0.094 A 
ATOM     10  C   UNL     1      38.092 181.260 173.182  1.00  0.00     0.146 A 
ATOM     11  O   UNL     1      36.969 180.629 172.861  1.00  0.00    -0.452 OA
ENDROOT
BRANCH   1  12
ATOM     12  C   UNL     1      34.589 180.358 172.594  1.00  0.00     0.025 A 
ATOM     13  C   UNL     1      33.955 180.651 171.376  1.00  0.00     0.016 A 
ATOM     14  C   UNL     1      32.833 179.923 170.967  1.00  0.00     0.051 A 
ATOM     15  C   UNL     1      32.322 178.902 171.778  1.00  0.00     0.157 A 
ATOM     16  C   UNL     1      34.058 179.345 173.414  1.00  0.00     0.062 A 
ATOM     17  C   UNL     1      32.932 178.616 173.005  1.00  0.00     0.158 A 
BRANCH  15  18
ATOM     18  O   UNL     1      31.205 178.172 171.374  1.00  0.00    -0.504 OA
ATOM     19  H   UNL     1      31.292 177.232 171.006  1.00  0.00     0.293 HD
ENDBRANCH  15  18
BRANCH  17  20
ATOM     20  O   UNL     1      32.412 177.609 173.817  1.00  0.00    -0.504 OA
ATOM     21  H   UNL     1      31.779 177.815 174.580  1.00  0.00     0.293 HD
ENDBRANCH  17  20
ENDBRANCH   1  12
BRANCH   2  22
ATOM     22  O   UNL     1      34.359 182.959 173.851  1.00  0.00    -0.502 OA
ATOM     23  H   UNL     1      33.513 182.407 173.764  1.00  0.00     0.293 HD
ENDBRANCH   2  22
BRANCH   6  24
ATOM     24  O   UNL     1      39.410 184.558 174.401  1.00  0.00    -0.507 OA
ATOM     25  H   UNL     1      39.910 185.277 173.900  1.00  0.00     0.293 HD
ENDBRANCH   6  24
BRANCH   8  26
ATOM     26  O   UNL     1      41.724 180.554 173.168  1.00  0.00    -0.508 OA
ATOM     27  H   UNL     1      42.156 180.457 172.257  1.00  0.00     0.293 HD
ENDBRANCH   8  26
TORSDOF 6
ENDMDL
MODEL 3
REMARK VINA RESULT:    -5.647      1.691      6.993
REMARK INTER + INTRA:          -6.962
REMARK INTER:                  -6.645
REMARK INTRA:                  -0.317
REMARK UNBOUND:                -0.159
REMARK SMILES O=c1c(O)c(-c2ccc(O)c(O)c2)oc2cc(O)cc(O)c12
REMARK SMILES IDX 5 1 3 2 2 3 1 4 22 5 20 6 19 7 17 8 16 9 15 10 14 11 6 12
REMARK SMILES IDX 7 13 8 14 9 15 13 16 11 17 10 18 12 20 4 22 21 24 18 26
REMARK H PARENT 10 19 12 21 4 23 21 25 18 27
REMARK Flexibility Score: inf
ROOT
ATOM      1  C   UNL     1      35.644 180.632 172.873  1.00  0.00     0.180 A 
ATOM      2  C   UNL     1      34.902 180.899 171.708  1.00  0.00     0.208 A 
ATOM      3  C   UNL     1      33.765 180.124 171.433  1.00  0.00     0.238 A 
ATOM      4  O   UNL     1      33.138 180.331 170.362  1.00  0.00    -0.285 OA
ATOM      5  C   UNL     1      33.374 179.101 172.331  1.00  0.00     0.111 A 
ATOM      6  C   UNL     1      32.217 178.281 172.172  1.00  0.00     0.134 A 
ATOM      7  C   UNL     1      32.000 177.215 173.053  1.00  0.00     0.093 A 
ATOM      8  C   UNL     1      32.860 176.980 174.126  1.00  0.00     0.123 A 
ATOM      9  C   UNL     1      33.962 177.812 174.326  1.00  0.00     0.094 A 
ATOM     10  C   UNL     1      34.226 178.862 173.442  1.00  0.00     0.146 A 
ATOM     11  O   UNL     1      35.290 179.624 173.661  1.00  0.00    -0.452 OA
ENDROOT
BRANCH   1  12
ATOM     12  C   UNL     1      36.840 181.423 173.244  1.00  0.00     0.025 A 
ATOM     13  C   UNL     1      36.695 182.545 174.076  1.00  0.00     0.016 A 
ATOM     14  C   UNL     1      37.808 183.318 174.422  1.00  0.00     0.051 A 
ATOM     15  C   UNL     1      39.076 182.988 173.928  1.00  0.00     0.157 A 
ATOM     16  C   UNL     1      38.113 181.108 172.735  1.00  0.00     0.062 A 
ATOM     17  C   UNL     1      39.229 181.885 173.080  1.00  0.00     0.158 A 
BRANCH  15  18
ATOM     18  O   UNL     1      40.189 183.754 174.272  1.00  0.00    -0.504 OA
ATOM     19  H   UNL     1      40.541 183.781 175.222  1.00  0.00     0.293 HD
ENDBRANCH  15  18
BRANCH  17  20
ATOM     20  O   UNL     1      40.490 181.567 172.578  1.00  0.00    -0.504 OA
ATOM     21  H   UNL     1      41.275 182.200 172.675  1.00  0.00     0.293 HD
ENDBRANCH  17  20
ENDBRANCH   1  12
BRANCH   2  22
ATOM     22  O   UNL     1      35.319 181.899 170.824  1.00  0.00    -0.502 OA
ATOM     23  H   UNL     1      35.131 181.857 169.829  1.00  0.00     0.293 HD
ENDBRANCH   2  22
BRANCH   6  24
ATOM     24  O   UNL     1      31.245 178.486 171.189  1.00  0.00    -0.507 OA
ATOM     25  H   UNL     1      31.439 178.751 170.235  1.00  0.00     0.293 HD
ENDBRANCH   6  24
BRANCH   8  26
ATOM     26  O   UNL     1      32.604 175.920 174.992  1.00  0.00    -0.508 OA
ATOM     27  H   UNL     1      33.349 175.465 175.508  1.00  0.00     0.293 HD
ENDBRANCH   8  26
TORSDOF 6
ENDMDL
MODEL 4
REMARK VINA RESULT:    -5.370      1.404      2.023
REMARK INTER + INTRA:          -6.628
REMARK INTER:                  -6.377
REMARK INTRA:                  -0.251
REMARK UNBOUND:                -0.159
REMARK SMILES O=c1c(O)c(-c2ccc(O)c(O)c2)oc2cc(O)cc(O)c12
REMARK SMILES IDX 5 1 3 2 2 3 1 4 22 5 20 6 19 7 17 8 16 9 15 10 14 11 6 12
REMARK SMILES IDX 7 13 8 14 9 15 13 16 11 17 10 18 12 20 4 22 21 24 18 26
REMARK H PARENT 10 19 12 21 4 23 21 25 18 27
REMARK Flexibility Score: inf
ROOT
ATOM      1  C   UNL     1      35.011 180.827 172.984  1.00  0.00     0.180 A 
ATOM      2  C   UNL     1      34.551 182.047 173.511  1.00  0.00     0.208 A 
ATOM      3  C   UNL     1      35.488 183.023 173.885  1.00  0.00     0.238 A 
ATOM      4  O   UNL     1      35.073 184.090 174.407  1.00  0.00    -0.285 OA
ATOM      5  C   UNL     1      36.871 182.776 173.712  1.00  0.00     0.111 A 
ATOM      6  C   UNL     1      37.907 183.709 174.018  1.00  0.00     0.134 A 
ATOM      7  C   UNL     1      39.245 183.309 173.929  1.00  0.00     0.093 A 
ATOM      8  C   UNL     1      39.588 182.033 173.484  1.00  0.00     0.123 A 
ATOM      9  C   UNL     1      38.585 181.132 173.125  1.00  0.00     0.094 A 
ATOM     10  C   UNL     1      37.239 181.489 173.237  1.00  0.00     0.146 A 
ATOM     11  O   UNL     1      36.316 180.599 172.895  1.00  0.00    -0.452 OA
ENDROOT
BRANCH   1  12
ATOM     12  C   UNL     1      34.084 179.759 172.545  1.00  0.00     0.025 A 
ATOM     13  C   UNL     1      33.346 179.927 171.362  1.00  0.00     0.016 A 
ATOM     14  C   UNL     1      32.449 178.941 170.940  1.00  0.00     0.051 A 
ATOM     15  C   UNL     1      32.268 177.780 171.703  1.00  0.00     0.157 A 
ATOM     16  C   UNL     1      33.882 178.600 173.318  1.00  0.00     0.062 A 
ATOM     17  C   UNL     1      32.981 177.612 172.896  1.00  0.00     0.158 A 
BRANCH  15  18
ATOM     18  O   UNL     1      31.376 176.794 171.285  1.00  0.00    -0.504 OA
ATOM     19  H   UNL     1      30.707 176.380 171.924  1.00  0.00     0.293 HD
ENDBRANCH  15  18
BRANCH  17  20
ATOM     20  O   UNL     1      32.787 176.463 173.661  1.00  0.00    -0.504 OA
ATOM     21  H   UNL     1      33.028 175.544 173.309  1.00  0.00     0.293 HD
ENDBRANCH  17  20
ENDBRANCH   1  12
BRANCH   2  22
ATOM     22  O   UNL     1      33.182 182.261 173.694  1.00  0.00    -0.502 OA
ATOM     23  H   UNL     1      32.524 182.267 172.923  1.00  0.00     0.293 HD
ENDBRANCH   2  22
BRANCH   6  24
ATOM     24  O   UNL     1      37.674 185.038 174.384  1.00  0.00    -0.507 OA
ATOM     25  H   UNL     1      36.794 185.519 174.276  1.00  0.00     0.293 HD
ENDBRANCH   6  24
BRANCH   8  26
ATOM     26  O   UNL     1      40.931 181.675 173.393  1.00  0.00    -0.508 OA
ATOM     27  H   UNL     1      41.476 181.865 172.560  1.00  0.00     0.293 HD
ENDBRANCH   8  26
TORSDOF 6
ENDMDL
MODEL 5
REMARK VINA RESULT:    -5.223      1.266      1.602
REMARK INTER + INTRA:          -6.451
REMARK INTER:                  -6.231
REMARK INTRA:                  -0.220
REMARK UNBOUND:                -0.159
REMARK SMILES O=c1c(O)c(-c2ccc(O)c(O)c2)oc2cc(O)cc(O)c12
REMARK SMILES IDX 5 1 3 2 2 3 1 4 22 5 20 6 19 7 17 8 16 9 15 10 14 11 6 12
REMARK SMILES IDX 7 13 8 14 9 15 13 16 11 17 10 18 12 20 4 22 21 24 18 26
REMARK H PARENT 10 19 12 21 4 23 21 25 18 27
REMARK Flexibility Score: inf
ROOT
ATOM      1  C   UNL     1      35.230 180.526 173.427  1.00  0.00     0.180 A 
ATOM      2  C   UNL     1      34.754 181.848 173.462  1.00  0.00     0.208 A 
ATOM      3  C   UNL     1      35.673 182.899 173.610  1.00  0.00     0.238 A 
ATOM      4  O   UNL     1      35.236 184.076 173.696  1.00  0.00    -0.285 OA
ATOM      5  C   UNL     1      37.057 182.617 173.707  1.00  0.00     0.111 A 
ATOM      6  C   UNL     1      38.080 183.606 173.819  1.00  0.00     0.134 A 
ATOM      7  C   UNL     1      39.404 183.207 174.039  1.00  0.00     0.093 A 
ATOM      8  C   UNL     1      39.753 181.858 174.085  1.00  0.00     0.123 A 
ATOM      9  C   UNL     1      38.769 180.882 173.917  1.00  0.00     0.094 A 
ATOM     10  C   UNL     1      37.434 181.248 173.732  1.00  0.00     0.146 A 
ATOM     11  O   UNL     1      36.527 180.290 173.587  1.00  0.00    -0.452 OA
ENDROOT
BRANCH   1  12
ATOM     12  C   UNL     1      34.326 179.367 173.249  1.00  0.00     0.025 A 
ATOM     13  C   UNL     1      34.192 178.428 174.284  1.00  0.00     0.016 A 
ATOM     14  C   UNL     1      33.360 177.316 174.128  1.00  0.00     0.051 A 
ATOM     15  C   UNL     1      32.663 177.119 172.930  1.00  0.00     0.157 A 
ATOM     16  C   UNL     1      33.640 179.153 172.039  1.00  0.00     0.062 A 
ATOM     17  C   UNL     1      32.806 178.036 171.882  1.00  0.00     0.158 A 
BRANCH  15  18
ATOM     18  O   UNL     1      31.831 176.012 172.771  1.00  0.00    -0.504 OA
ATOM     19  H   UNL     1      30.876 176.110 172.445  1.00  0.00     0.293 HD
ENDBRANCH  15  18
BRANCH  17  20
ATOM     20  O   UNL     1      32.123 177.829 170.685  1.00  0.00    -0.504 OA
ATOM     21  H   UNL     1      31.328 178.399 170.422  1.00  0.00     0.293 HD
ENDBRANCH  17  20
ENDBRANCH   1  12
BRANCH   2  22
ATOM     22  O   UNL     1      33.381 182.103 173.387  1.00  0.00    -0.502 OA
ATOM     23  H   UNL     1      32.739 181.486 172.904  1.00  0.00     0.293 HD
ENDBRANCH   2  22
BRANCH   6  24
ATOM     24  O   UNL     1      37.854 184.980 173.696  1.00  0.00    -0.507 OA
ATOM     25  H   UNL     1      37.061 185.469 174.083  1.00  0.00     0.293 HD
ENDBRANCH   6  24
BRANCH   8  26
ATOM     26  O   UNL     1      41.083 181.498 174.290  1.00  0.00    -0.508 OA
ATOM     27  H   UNL     1      41.473 181.419 175.222  1.00  0.00     0.293 HD
ENDBRANCH   8  26
TORSDOF 6
ENDMDL
MODEL 6
REMARK VINA RESULT:    -4.848      2.140      6.852
REMARK INTER + INTRA:          -5.999
REMARK INTER:                  -5.676
REMARK INTRA:                  -0.323
REMARK UNBOUND:                -0.159
REMARK SMILES O=c1c(O)c(-c2ccc(O)c(O)c2)oc2cc(O)cc(O)c12
REMARK SMILES IDX 5 1 3 2 2 3 1 4 22 5 20 6 19 7 17 8 16 9 15 10 14 11 6 12
REMARK SMILES IDX 7 13 8 14 9 15 13 16 11 17 10 18 12 20 4 22 21 24 18 26
REMARK H PARENT 10 19 12 21 4 23 21 25 18 27
REMARK Flexibility Score: inf
ROOT
ATOM      1  C   UNL     1      35.524 180.547 173.674  1.00  0.00     0.180 A 
ATOM      2  C   UNL     1      34.718 181.520 174.292  1.00  0.00     0.208 A 
ATOM      3  C   UNL     1      33.349 181.259 174.465  1.00  0.00     0.238 A 
ATOM      4  O   UNL     1      32.623 182.155 174.968  1.00  0.00    -0.285 OA
ATOM      5  C   UNL     1      32.806 180.025 174.033  1.00  0.00     0.111 A 
ATOM      6  C   UNL     1      31.442 179.638 174.194  1.00  0.00     0.134 A 
ATOM      7  C   UNL     1      30.988 178.449 173.613  1.00  0.00     0.093 A 
ATOM      8  C   UNL     1      31.861 177.600 172.933  1.00  0.00     0.123 A 
ATOM      9  C   UNL     1      33.210 177.939 172.820  1.00  0.00     0.094 A 
ATOM     10  C   UNL     1      33.685 179.137 173.359  1.00  0.00     0.146 A 
ATOM     11  O   UNL     1      34.973 179.428 173.221  1.00  0.00    -0.452 OA
ENDROOT
BRANCH   1  12
ATOM     12  C   UNL     1      36.979 180.739 173.479  1.00  0.00     0.025 A 
ATOM     13  C   UNL     1      37.444 181.367 172.313  1.00  0.00     0.016 A 
ATOM     14  C   UNL     1      38.815 181.539 172.098  1.00  0.00     0.051 A 
ATOM     15  C   UNL     1      39.739 181.072 173.040  1.00  0.00     0.157 A 
ATOM     16  C   UNL     1      37.914 180.253 174.412  1.00  0.00     0.062 A 
ATOM     17  C   UNL     1      39.289 180.423 174.196  1.00  0.00     0.158 A 
BRANCH  15  18
ATOM     18  O   UNL     1      41.107 181.243 172.831  1.00  0.00    -0.504 OA
ATOM     19  H   UNL     1      41.625 181.980 173.295  1.00  0.00     0.293 HD
ENDBRANCH  15  18
BRANCH  17  20
ATOM     20  O   UNL     1      40.213 179.946 175.125  1.00  0.00    -0.504 OA
ATOM     21  H   UNL     1      40.276 180.333 176.059  1.00  0.00     0.293 HD
ENDBRANCH  17  20
ENDBRANCH   1  12
BRANCH   2  22
ATOM     22  O   UNL     1      35.270 182.741 174.691  1.00  0.00    -0.502 OA
ATOM     23  H   UNL     1      35.761 182.854 175.569  1.00  0.00     0.293 HD
ENDBRANCH   2  22
BRANCH   6  24
ATOM     24  O   UNL     1      30.507 180.369 174.934  1.00  0.00    -0.507 OA
ATOM     25  H   UNL     1      30.268 180.188 175.897  1.00  0.00     0.293 HD
ENDBRANCH   6  24
BRANCH   8  26
ATOM     26  O   UNL     1      31.377 176.416 172.380  1.00  0.00    -0.508 OA
ATOM     27  H   UNL     1      31.923 175.880 171.715  1.00  0.00     0.293 HD
ENDBRANCH   8  26
TORSDOF 6
ENDMDL
MODEL 7
REMARK VINA RESULT:    -4.822      2.549      4.336
REMARK INTER + INTRA:          -5.967
REMARK INTER:                  -5.707
REMARK INTRA:                  -0.261
REMARK UNBOUND:                -0.159
REMARK SMILES O=c1c(O)c(-c2ccc(O)c(O)c2)oc2cc(O)cc(O)c12
REMARK SMILES IDX 5 1 3 2 2 3 1 4 22 5 20 6 19 7 17 8 16 9 15 10 14 11 6 12
REMARK SMILES IDX 7 13 8 14 9 15 13 16 11 17 10 18 12 20 4 22 21 24 18 26
REMARK H PARENT 10 19 12 21 4 23 21 25 18 27
REMARK Flexibility Score: inf
ROOT
ATOM      1  C   UNL     1      33.355 179.076 172.914  1.00  0.00     0.180 A 
ATOM      2  C   UNL     1      34.177 178.932 174.046  1.00  0.00     0.208 A 
ATOM      3  C   UNL     1      35.351 179.696 174.135  1.00  0.00     0.238 A 
ATOM      4  O   UNL     1      36.111 179.523 175.123  1.00  0.00    -0.285 OA
ATOM      5  C   UNL     1      35.682 180.605 173.101  1.00  0.00     0.111 A 
ATOM      6  C   UNL     1      36.826 181.459 173.105  1.00  0.00     0.134 A 
ATOM      7  C   UNL     1      37.122 182.222 171.970  1.00  0.00     0.093 A 
ATOM      8  C   UNL     1      36.283 182.214 170.857  1.00  0.00     0.123 A 
ATOM      9  C   UNL     1      35.130 181.429 170.864  1.00  0.00     0.094 A 
ATOM     10  C   UNL     1      34.826 180.628 171.967  1.00  0.00     0.146 A 
ATOM     11  O   UNL     1      33.725 179.887 171.931  1.00  0.00    -0.452 OA
ENDROOT
BRANCH   1  12
ATOM     12  C   UNL     1      32.089 178.324 172.759  1.00  0.00     0.025 A 
ATOM     13  C   UNL     1      30.968 178.693 173.520  1.00  0.00     0.016 A 
ATOM     14  C   UNL     1      29.769 177.983 173.406  1.00  0.00     0.051 A 
ATOM     15  C   UNL     1      29.679 176.886 172.541  1.00  0.00     0.157 A 
ATOM     16  C   UNL     1      31.999 177.207 171.907  1.00  0.00     0.062 A 
ATOM     17  C   UNL     1      30.797 176.494 171.794  1.00  0.00     0.158 A 
BRANCH  15  18
ATOM     18  O   UNL     1      28.485 176.176 172.422  1.00  0.00    -0.504 OA
ATOM     19  H   UNL     1      28.352 175.481 171.696  1.00  0.00     0.293 HD
ENDBRANCH  15  18
BRANCH  17  20
ATOM     20  O   UNL     1      30.709 175.392 170.945  1.00  0.00    -0.504 OA
ATOM     21  H   UNL     1      31.054 174.480 171.220  1.00  0.00     0.293 HD
ENDBRANCH  17  20
ENDBRANCH   1  12
BRANCH   2  22
ATOM     22  O   UNL     1      33.844 178.013 175.045  1.00  0.00    -0.502 OA
ATOM     23  H   UNL     1      32.919 177.967 175.455  1.00  0.00     0.293 HD
ENDBRANCH   2  22
BRANCH   6  24
ATOM     24  O   UNL     1      37.680 181.611 174.202  1.00  0.00    -0.507 OA
ATOM     25  H   UNL     1      37.561 181.150 175.092  1.00  0.00     0.293 HD
ENDBRANCH   6  24
BRANCH   8  26
ATOM     26  O   UNL     1      36.601 182.999 169.750  1.00  0.00    -0.508 OA
ATOM     27  H   UNL     1      37.116 182.621 168.963  1.00  0.00     0.293 HD
ENDBRANCH   8  26
TORSDOF 6
ENDMDL
MODEL 8
REMARK VINA RESULT:    -4.785      7.640     10.949
REMARK INTER + INTRA:          -5.924
REMARK INTER:                  -5.601
REMARK INTRA:                  -0.323
REMARK UNBOUND:                -0.159
REMARK SMILES O=c1c(O)c(-c2ccc(O)c(O)c2)oc2cc(O)cc(O)c12
REMARK SMILES IDX 5 1 3 2 2 3 1 4 22 5 20 6 19 7 17 8 16 9 15 10 14 11 6 12
REMARK SMILES IDX 7 13 8 14 9 15 13 16 11 17 10 18 12 20 4 22 21 24 18 26
REMARK H PARENT 10 19 12 21 4 23 21 25 18 27
REMARK Flexibility Score: inf
ROOT
ATOM      1  C   UNL     1      32.740 172.295 172.939  1.00  0.00     0.180 A 
ATOM      2  C   UNL     1      32.181 171.510 173.963  1.00  0.00     0.208 A 
ATOM      3  C   UNL     1      32.742 170.253 174.240  1.00  0.00     0.238 A 
ATOM      4  O   UNL     1      32.204 169.532 175.120  1.00  0.00    -0.285 OA
ATOM      5  C   UNL     1      33.863 169.804 173.502  1.00  0.00     0.111 A 
ATOM      6  C   UNL     1      34.538 168.565 173.724  1.00  0.00     0.134 A 
ATOM      7  C   UNL     1      35.554 168.165 172.849  1.00  0.00     0.093 A 
ATOM      8  C   UNL     1      35.966 168.985 171.799  1.00  0.00     0.123 A 
ATOM      9  C   UNL     1      35.354 170.225 171.608  1.00  0.00     0.094 A 
ATOM     10  C   UNL     1      34.312 170.636 172.443  1.00  0.00     0.146 A 
ATOM     11  O   UNL     1      33.749 171.818 172.221  1.00  0.00    -0.452 OA
ENDROOT
BRANCH   1  12
ATOM     12  C   UNL     1      32.219 173.641 172.605  1.00  0.00     0.025 A 
ATOM     13  C   UNL     1      32.725 174.764 173.278  1.00  0.00     0.016 A 
ATOM     14  C   UNL     1      32.232 176.041 172.994  1.00  0.00     0.051 A 
ATOM     15  C   UNL     1      31.218 176.210 172.043  1.00  0.00     0.157 A 
ATOM     16  C   UNL     1      31.186 173.814 171.665  1.00  0.00     0.062 A 
ATOM     17  C   UNL     1      30.691 175.095 171.381  1.00  0.00     0.158 A 
BRANCH  15  18
ATOM     18  O   UNL     1      30.726 177.482 171.754  1.00  0.00    -0.504 OA
ATOM     19  H   UNL     1      31.098 178.309 172.208  1.00  0.00     0.293 HD
ENDBRANCH  15  18
BRANCH  17  20
ATOM     20  O   UNL     1      29.671 175.265 170.446  1.00  0.00    -0.504 OA
ATOM     21  H   UNL     1      29.617 174.696 169.610  1.00  0.00     0.293 HD
ENDBRANCH  17  20
ENDBRANCH   1  12
BRANCH   2  22
ATOM     22  O   UNL     1      31.060 171.964 174.664  1.00  0.00    -0.502 OA
ATOM     23  H   UNL     1      30.880 171.706 175.627  1.00  0.00     0.293 HD
ENDBRANCH   2  22
BRANCH   6  24
ATOM     24  O   UNL     1      34.267 167.713 174.799  1.00  0.00    -0.507 OA
ATOM     25  H   UNL     1      34.695 167.781 175.710  1.00  0.00     0.293 HD
ENDBRANCH   6  24
BRANCH   8  26
ATOM     26  O   UNL     1      36.991 168.562 170.957  1.00  0.00    -0.508 OA
ATOM     27  H   UNL     1      37.964 168.621 171.234  1.00  0.00     0.293 HD
ENDBRANCH   8  26
TORSDOF 6
ENDMDL
MODEL 9
REMARK VINA RESULT:    -4.700     17.516     20.507
REMARK INTER + INTRA:          -5.821
REMARK INTER:                  -5.505
REMARK INTRA:                  -0.316
REMARK UNBOUND:                -0.159
REMARK SMILES O=c1c(O)c(-c2ccc(O)c(O)c2)oc2cc(O)cc(O)c12
REMARK SMILES IDX 5 1 3 2 2 3 1 4 22 5 20 6 19 7 17 8 16 9 15 10 14 11 6 12
REMARK SMILES IDX 7 13 8 14 9 15 13 16 11 17 10 18 12 20 4 22 21 24 18 26
REMARK H PARENT 10 19 12 21 4 23 21 25 18 27
REMARK Flexibility Score: inf
ROOT
ATOM      1  C   UNL     1      29.143 167.826 160.845  1.00  0.00     0.180 A 
ATOM      2  C   UNL     1      30.008 167.032 161.619  1.00  0.00     0.208 A 
ATOM      3  C   UNL     1      30.990 166.265 160.972  1.00  0.00     0.238 A 
ATOM      4  O   UNL     1      31.724 165.514 161.665  1.00  0.00    -0.285 OA
ATOM      5  C   UNL     1      31.106 166.314 159.562  1.00  0.00     0.111 A 
ATOM      6  C   UNL     1      32.091 165.611 158.805  1.00  0.00     0.134 A 
ATOM      7  C   UNL     1      32.030 165.630 157.406  1.00  0.00     0.093 A 
ATOM      8  C   UNL     1      31.063 166.380 156.737  1.00  0.00     0.123 A 
ATOM      9  C   UNL     1      30.132 167.119 157.467  1.00  0.00     0.094 A 
ATOM     10  C   UNL     1      30.144 167.091 158.864  1.00  0.00     0.146 A 
ATOM     11  O   UNL     1      29.235 167.800 159.522  1.00  0.00    -0.452 OA
ENDROOT
BRANCH   1  12
ATOM     12  C   UNL     1      28.099 168.680 161.457  1.00  0.00     0.025 A 
ATOM     13  C   UNL     1      26.764 168.247 161.456  1.00  0.00     0.016 A 
ATOM     14  C   UNL     1      25.759 169.047 162.009  1.00  0.00     0.051 A 
ATOM     15  C   UNL     1      26.075 170.297 162.556  1.00  0.00     0.157 A 
ATOM     16  C   UNL     1      28.408 169.946 161.990  1.00  0.00     0.062 A 
ATOM     17  C   UNL     1      27.400 170.749 162.542  1.00  0.00     0.158 A 
BRANCH  15  18
ATOM     18  O   UNL     1      25.077 171.097 163.110  1.00  0.00    -0.504 OA
ATOM     19  H   UNL     1      24.095 170.918 162.933  1.00  0.00     0.293 HD
ENDBRANCH  15  18
BRANCH  17  20
ATOM     20  O   UNL     1      27.709 172.000 163.075  1.00  0.00    -0.504 OA
ATOM     21  H   UNL     1      27.667 172.178 164.071  1.00  0.00     0.293 HD
ENDBRANCH  17  20
ENDBRANCH   1  12
BRANCH   2  22
ATOM     22  O   UNL     1      29.861 166.981 163.009  1.00  0.00    -0.502 OA
ATOM     23  H   UNL     1      29.626 166.127 163.500  1.00  0.00     0.293 HD
ENDBRANCH   2  22
BRANCH   6  24
ATOM     24  O   UNL     1      33.155 164.906 159.374  1.00  0.00    -0.507 OA
ATOM     25  H   UNL     1      33.441 163.977 159.103  1.00  0.00     0.293 HD
ENDBRANCH   6  24
BRANCH   8  26
ATOM     26  O   UNL     1      31.042 166.389 155.344  1.00  0.00    -0.508 OA
ATOM     27  H   UNL     1      30.696 165.598 154.814  1.00  0.00     0.293 HD
ENDBRANCH   8  26
TORSDOF 6
ENDMDL
