MODEL 1
REMARK VINA RESULT:    -0.261      0.000      0.000
REMARK INTER + INTRA:          -1.844
REMARK INTER:                  -0.596
REMARK INTRA:                  -1.248
REMARK UNBOUND:                -1.248
REMARK SMILES CCCCCCCCCCCCCCCCCCCCCCCC(=O)[O-]
REMARK SMILES IDX 13 1 14 2 15 3 16 4 17 5 18 6 19 7 20 8 21 9 22 10 23 11
REMARK SMILES IDX 24 12 25 13 26 14 12 15 11 16 10 17 9 18 8 19 7 20 6 21 5 22
REMARK SMILES IDX 4 23 3 24 2 25 1 26
REMARK H PARENT
REMARK Flexibility Score: inf
ROOT
ATOM      1  C   UNL     1      -6.085  35.307  23.585  1.00  0.00     0.000 C 
ENDROOT
BRANCH   1   2
ATOM      2  C   UNL     1      -5.894  35.547  25.089  1.00  0.00     0.000 C 
BRANCH   2   3
ATOM      3  C   UNL     1      -5.635  37.034  25.379  1.00  0.00     0.000 C 
BRANCH   3   4
ATOM      4  C   UNL     1      -6.080  37.956  24.230  1.00  0.00     0.000 C 
BRANCH   4   5
ATOM      5  C   UNL     1      -5.059  39.039  23.835  1.00  0.00     0.000 C 
BRANCH   5   6
ATOM      6  C   UNL     1      -5.718  40.296  23.245  1.00  0.00     0.000 C 
BRANCH   6   7
ATOM      7  C   UNL     1      -6.067  40.089  21.764  1.00  0.00     0.000 C 
BRANCH   7   8
ATOM      8  C   UNL     1      -5.819  38.648  21.283  1.00  0.00     0.000 C 
BRANCH   8   9
ATOM      9  C   UNL     1      -4.936  38.525  20.027  1.00  0.00     0.000 C 
BRANCH   9  10
ATOM     10  C   UNL     1      -3.686  37.662  20.257  1.00  0.00     0.006 C 
BRANCH  10  11
ATOM     11  C   UNL     1      -2.798  37.643  19.009  1.00  0.00     0.053 C 
BRANCH  11  12
ATOM     12  C   UNL     1      -1.363  37.458  19.390  1.00  0.00     0.041 C 
ATOM     13  O   UNL     1      -0.448  37.887  18.639  1.00  0.00    -0.550 OA
ATOM     14  O   UNL     1      -1.036  36.855  20.597  1.00  0.00    -0.550 OA
ENDBRANCH  11  12
ENDBRANCH  10  11
ENDBRANCH   9  10
ENDBRANCH   8   9
ENDBRANCH   7   8
ENDBRANCH   6   7
ENDBRANCH   5   6
ENDBRANCH   4   5
ENDBRANCH   3   4
ENDBRANCH   2   3
ENDBRANCH   1   2
BRANCH   1  15
ATOM     15  C   UNL     1      -4.800  34.825  22.883  1.00  0.00     0.000 C 
BRANCH  15  16
ATOM     16  C   UNL     1      -4.776  35.025  21.356  1.00  0.00     0.000 C 
BRANCH  16  17
ATOM     17  C   UNL     1      -6.125  34.718  20.690  1.00  0.00     0.000 C 
BRANCH  17  18
ATOM     18  C   UNL     1      -6.080  35.033  19.189  1.00  0.00    -0.000 C 
BRANCH  18  19
ATOM     19  C   UNL     1      -5.037  34.192  18.430  1.00  0.00    -0.000 C 
BRANCH  19  20
ATOM     20  C   UNL     1      -3.711  34.916  18.116  1.00  0.00    -0.000 C 
BRANCH  20  21
ATOM     21  C   UNL     1      -3.331  34.969  16.625  1.00  0.00    -0.000 C 
BRANCH  21  22
ATOM     22  C   UNL     1      -2.699  36.296  16.166  1.00  0.00    -0.000 C 
BRANCH  22  23
ATOM     23  C   UNL     1      -2.448  36.368  14.644  1.00  0.00    -0.000 C 
BRANCH  23  24
ATOM     24  C   UNL     1      -3.653  36.929  13.875  1.00  0.00    -0.000 C 
BRANCH  24  25
ATOM     25  C   UNL     1      -4.474  37.877  14.756  1.00  0.00    -0.003 C 
ATOM     26  C   UNL     1      -4.653  39.236  14.087  1.00  0.00     0.004 C 
ENDBRANCH  24  25
ENDBRANCH  23  24
ENDBRANCH  22  23
ENDBRANCH  21  22
ENDBRANCH  20  21
ENDBRANCH  19  20
ENDBRANCH  18  19
ENDBRANCH  17  18
ENDBRANCH  16  17
ENDBRANCH  15  16
ENDBRANCH   1  15
TORSDOF 22
ENDMDL
MODEL 2
REMARK VINA RESULT:     0.778      0.994      2.016
REMARK INTER + INTRA:           0.531
REMARK INTER:                  -0.024
REMARK INTRA:                   0.556
REMARK UNBOUND:                -1.248
REMARK SMILES CCCCCCCCCCCCCCCCCCCCCCCC(=O)[O-]
REMARK SMILES IDX 13 1 14 2 15 3 16 4 17 5 18 6 19 7 20 8 21 9 22 10 23 11
REMARK SMILES IDX 24 12 25 13 26 14 12 15 11 16 10 17 9 18 8 19 7 20 6 21 5 22
REMARK SMILES IDX 4 23 3 24 2 25 1 26
REMARK H PARENT
REMARK Flexibility Score: inf
ROOT
ATOM      1  C   UNL     1      -6.063  35.216  21.890  1.00  0.00     0.000 C 
ENDROOT
BRANCH   1   2
ATOM      2  C   UNL     1      -5.248  34.944  23.162  1.00  0.00     0.000 C 
BRANCH   2   3
ATOM      3  C   UNL     1      -6.025  35.380  24.414  1.00  0.00     0.000 C 
BRANCH   3   4
ATOM      4  C   UNL     1      -6.070  36.908  24.593  1.00  0.00     0.000 C 
BRANCH   4   5
ATOM      5  C   UNL     1      -5.430  37.714  23.447  1.00  0.00     0.000 C 
BRANCH   5   6
ATOM      6  C   UNL     1      -5.395  39.225  23.725  1.00  0.00     0.000 C 
BRANCH   6   7
ATOM      7  C   UNL     1      -5.416  40.025  22.415  1.00  0.00     0.000 C 
BRANCH   7   8
ATOM      8  C   UNL     1      -6.125  39.283  21.268  1.00  0.00     0.000 C 
BRANCH   8   9
ATOM      9  C   UNL     1      -5.318  38.130  20.642  1.00  0.00     0.000 C 
BRANCH   9  10
ATOM     10  C   UNL     1      -3.803  38.381  20.662  1.00  0.00     0.006 C 
BRANCH  10  11
ATOM     11  C   UNL     1      -3.045  37.193  20.061  1.00  0.00     0.053 C 
BRANCH  11  12
ATOM     12  C   UNL     1      -1.616  37.557  19.808  1.00  0.00     0.041 C 
ATOM     13  O   UNL     1      -1.323  38.387  18.907  1.00  0.00    -0.550 OA
ATOM     14  O   UNL     1      -0.610  37.018  20.599  1.00  0.00    -0.550 OA
ENDBRANCH  11  12
ENDBRANCH  10  11
ENDBRANCH   9  10
ENDBRANCH   8   9
ENDBRANCH   7   8
ENDBRANCH   6   7
ENDBRANCH   5   6
ENDBRANCH   4   5
ENDBRANCH   3   4
ENDBRANCH   2   3
ENDBRANCH   1   2
BRANCH   1  15
ATOM     15  C   UNL     1      -5.757  34.220  20.754  1.00  0.00     0.000 C 
BRANCH  15  16
ATOM     16  C   UNL     1      -5.714  34.834  19.342  1.00  0.00     0.000 C 
BRANCH  16  17
ATOM     17  C   UNL     1      -4.289  35.160  18.873  1.00  0.00     0.000 C 
BRANCH  17  18
ATOM     18  C   UNL     1      -4.276  35.547  17.388  1.00  0.00    -0.000 C 
BRANCH  18  19
ATOM     19  C   UNL     1      -2.980  36.265  16.966  1.00  0.00    -0.000 C 
BRANCH  19  20
ATOM     20  C   UNL     1      -2.607  36.125  15.476  1.00  0.00    -0.000 C 
BRANCH  20  21
ATOM     21  C   UNL     1      -3.762  35.700  14.550  1.00  0.00    -0.000 C 
BRANCH  21  22
ATOM     22  C   UNL     1      -4.606  36.862  13.995  1.00  0.00    -0.000 C 
BRANCH  22  23
ATOM     23  C   UNL     1      -3.838  38.198  13.908  1.00  0.00    -0.000 C 
BRANCH  23  24
ATOM     24  C   UNL     1      -4.513  39.318  14.715  1.00  0.00    -0.000 C 
BRANCH  24  25
ATOM     25  C   UNL     1      -5.594  40.018  13.884  1.00  0.00    -0.003 C 
ATOM     26  C   UNL     1      -5.546  41.531  14.077  1.00  0.00     0.004 C 
ENDBRANCH  24  25
ENDBRANCH  23  24
ENDBRANCH  22  23
ENDBRANCH  21  22
ENDBRANCH  20  21
ENDBRANCH  19  20
ENDBRANCH  18  19
ENDBRANCH  17  18
ENDBRANCH  16  17
ENDBRANCH  15  16
ENDBRANCH   1  15
TORSDOF 22
ENDMDL
MODEL 3
REMARK VINA RESULT:     1.314      2.163      4.205
REMARK INTER + INTRA:           1.757
REMARK INTER:                   3.846
REMARK INTRA:                  -2.090
REMARK UNBOUND:                -1.248
REMARK SMILES CCCCCCCCCCCCCCCCCCCCCCCC(=O)[O-]
REMARK SMILES IDX 13 1 14 2 15 3 16 4 17 5 18 6 19 7 20 8 21 9 22 10 23 11
REMARK SMILES IDX 24 12 25 13 26 14 12 15 11 16 10 17 9 18 8 19 7 20 6 21 5 22
REMARK SMILES IDX 4 23 3 24 2 25 1 26
REMARK H PARENT
REMARK Flexibility Score: inf
ROOT
ATOM      1  C   UNL     1      -5.211  37.913  19.652  1.00  0.00     0.000 C 
ENDROOT
BRANCH   1   2
ATOM      2  C   UNL     1      -6.121  39.032  20.178  1.00  0.00     0.000 C 
BRANCH   2   3
ATOM      3  C   UNL     1      -5.952  39.209  21.695  1.00  0.00     0.000 C 
BRANCH   3   4
ATOM      4  C   UNL     1      -5.657  40.664  22.101  1.00  0.00     0.000 C 
BRANCH   4   5
ATOM      5  C   UNL     1      -5.659  40.928  23.618  1.00  0.00     0.000 C 
BRANCH   5   6
ATOM      6  C   UNL     1      -5.758  39.640  24.449  1.00  0.00     0.000 C 
BRANCH   6   7
ATOM      7  C   UNL     1      -4.368  39.033  24.689  1.00  0.00     0.000 C 
BRANCH   7   8
ATOM      8  C   UNL     1      -4.401  37.798  25.607  1.00  0.00     0.000 C 
BRANCH   8   9
ATOM      9  C   UNL     1      -5.785  37.141  25.764  1.00  0.00     0.000 C 
BRANCH   9  10
ATOM     10  C   UNL     1      -5.941  35.866  24.922  1.00  0.00     0.006 C 
BRANCH  10  11
ATOM     11  C   UNL     1      -6.100  36.207  23.437  1.00  0.00     0.053 C 
BRANCH  11  12
ATOM     12  C   UNL     1      -5.768  35.020  22.588  1.00  0.00     0.041 C 
ATOM     13  O   UNL     1      -6.055  35.018  21.362  1.00  0.00    -0.550 OA
ATOM     14  O   UNL     1      -5.097  33.937  23.139  1.00  0.00    -0.550 OA
ENDBRANCH  11  12
ENDBRANCH  10  11
ENDBRANCH   9  10
ENDBRANCH   8   9
ENDBRANCH   7   8
ENDBRANCH   6   7
ENDBRANCH   5   6
ENDBRANCH   4   5
ENDBRANCH   3   4
ENDBRANCH   2   3
ENDBRANCH   1   2
BRANCH   1  15
ATOM     15  C   UNL     1      -3.879  37.808  20.420  1.00  0.00     0.000 C 
BRANCH  15  16
ATOM     16  C   UNL     1      -3.111  36.489  20.215  1.00  0.00     0.000 C 
BRANCH  16  17
ATOM     17  C   UNL     1      -1.637  36.704  19.844  1.00  0.00     0.000 C 
BRANCH  17  18
ATOM     18  C   UNL     1      -1.470  37.937  18.947  1.00  0.00    -0.000 C 
BRANCH  18  19
ATOM     19  C   UNL     1      -2.070  37.743  17.542  1.00  0.00    -0.000 C 
BRANCH  19  20
ATOM     20  C   UNL     1      -1.959  36.313  16.973  1.00  0.00    -0.000 C 
BRANCH  20  21
ATOM     21  C   UNL     1      -3.180  35.833  16.166  1.00  0.00    -0.000 C 
BRANCH  21  22
ATOM     22  C   UNL     1      -3.018  35.919  14.637  1.00  0.00    -0.000 C 
BRANCH  22  23
ATOM     23  C   UNL     1      -3.274  37.331  14.067  1.00  0.00    -0.000 C 
BRANCH  23  24
ATOM     24  C   UNL     1      -4.681  37.853  14.399  1.00  0.00    -0.000 C 
BRANCH  24  25
ATOM     25  C   UNL     1      -4.874  39.280  13.875  1.00  0.00    -0.003 C 
ATOM     26  C   UNL     1      -4.902  40.289  15.020  1.00  0.00     0.004 C 
ENDBRANCH  24  25
ENDBRANCH  23  24
ENDBRANCH  22  23
ENDBRANCH  21  22
ENDBRANCH  20  21
ENDBRANCH  19  20
ENDBRANCH  18  19
ENDBRANCH  17  18
ENDBRANCH  16  17
ENDBRANCH  15  16
ENDBRANCH   1  15
TORSDOF 22
ENDMDL
MODEL 4
REMARK VINA RESULT:     2.072      1.967      4.733
REMARK INTER + INTRA:           3.489
REMARK INTER:                   5.190
REMARK INTRA:                  -1.701
REMARK UNBOUND:                -1.248
REMARK SMILES CCCCCCCCCCCCCCCCCCCCCCCC(=O)[O-]
REMARK SMILES IDX 13 1 14 2 15 3 16 4 17 5 18 6 19 7 20 8 21 9 22 10 23 11
REMARK SMILES IDX 24 12 25 13 26 14 12 15 11 16 10 17 9 18 8 19 7 20 6 21 5 22
REMARK SMILES IDX 4 23 3 24 2 25 1 26
REMARK H PARENT
REMARK Flexibility Score: inf
ROOT
ATOM      1  C   UNL     1      -4.574  37.631  19.271  1.00  0.00     0.000 C 
ENDROOT
BRANCH   1   2
ATOM      2  C   UNL     1      -5.882  38.160  19.877  1.00  0.00     0.000 C 
BRANCH   2   3
ATOM      3  C   UNL     1      -5.784  38.240  21.408  1.00  0.00     0.000 C 
BRANCH   3   4
ATOM      4  C   UNL     1      -5.894  39.679  21.943  1.00  0.00     0.000 C 
BRANCH   4   5
ATOM      5  C   UNL     1      -5.110  39.952  23.239  1.00  0.00     0.000 C 
BRANCH   5   6
ATOM      6  C   UNL     1      -5.555  39.058  24.407  1.00  0.00     0.000 C 
BRANCH   6   7
ATOM      7  C   UNL     1      -4.342  38.525  25.184  1.00  0.00     0.000 C 
BRANCH   7   8
ATOM      8  C   UNL     1      -4.702  37.381  26.149  1.00  0.00     0.000 C 
BRANCH   8   9
ATOM      9  C   UNL     1      -5.965  36.584  25.772  1.00  0.00     0.000 C 
BRANCH   9  10
ATOM     10  C   UNL     1      -5.656  35.338  24.929  1.00  0.00     0.006 C 
BRANCH  10  11
ATOM     11  C   UNL     1      -6.120  35.528  23.481  1.00  0.00     0.053 C 
BRANCH  11  12
ATOM     12  C   UNL     1      -5.251  34.749  22.545  1.00  0.00     0.041 C 
ATOM     13  O   UNL     1      -4.482  33.856  22.989  1.00  0.00    -0.550 OA
ATOM     14  O   UNL     1      -5.326  34.973  21.177  1.00  0.00    -0.550 OA
ENDBRANCH  11  12
ENDBRANCH  10  11
ENDBRANCH   9  10
ENDBRANCH   8   9
ENDBRANCH   7   8
ENDBRANCH   6   7
ENDBRANCH   5   6
ENDBRANCH   4   5
ENDBRANCH   3   4
ENDBRANCH   2   3
ENDBRANCH   1   2
BRANCH   1  15
ATOM     15  C   UNL     1      -3.359  37.824  20.198  1.00  0.00     0.000 C 
BRANCH  15  16
ATOM     16  C   UNL     1      -2.427  36.604  20.314  1.00  0.00     0.000 C 
BRANCH  16  17
ATOM     17  C   UNL     1      -0.998  36.890  19.829  1.00  0.00     0.000 C 
BRANCH  17  18
ATOM     18  C   UNL     1      -0.962  38.138  18.936  1.00  0.00    -0.000 C 
BRANCH  18  19
ATOM     19  C   UNL     1      -1.037  37.805  17.435  1.00  0.00    -0.000 C 
BRANCH  19  20
ATOM     20  C   UNL     1      -1.118  36.301  17.099  1.00  0.00    -0.000 C 
BRANCH  20  21
ATOM     21  C   UNL     1      -1.685  35.971  15.706  1.00  0.00    -0.000 C 
BRANCH  21  22
ATOM     22  C   UNL     1      -3.121  36.469  15.459  1.00  0.00    -0.000 C 
BRANCH  22  23
ATOM     23  C   UNL     1      -4.102  36.116  16.598  1.00  0.00    -0.000 C 
BRANCH  23  24
ATOM     24  C   UNL     1      -3.952  34.663  17.075  1.00  0.00    -0.000 C 
BRANCH  24  25
ATOM     25  C   UNL     1      -4.676  34.446  18.409  1.00  0.00    -0.003 C 
ATOM     26  C   UNL     1      -5.890  33.538  18.236  1.00  0.00     0.004 C 
ENDBRANCH  24  25
ENDBRANCH  23  24
ENDBRANCH  22  23
ENDBRANCH  21  22
ENDBRANCH  20  21
ENDBRANCH  19  20
ENDBRANCH  18  19
ENDBRANCH  17  18
ENDBRANCH  16  17
ENDBRANCH  15  16
ENDBRANCH   1  15
TORSDOF 22
ENDMDL
MODEL 5
REMARK VINA RESULT:     2.089      1.959      6.498
REMARK INTER + INTRA:           3.529
REMARK INTER:                   1.958
REMARK INTRA:                   1.571
REMARK UNBOUND:                -1.248
REMARK SMILES CCCCCCCCCCCCCCCCCCCCCCCC(=O)[O-]
REMARK SMILES IDX 13 1 14 2 15 3 16 4 17 5 18 6 19 7 20 8 21 9 22 10 23 11
REMARK SMILES IDX 24 12 25 13 26 14 12 15 11 16 10 17 9 18 8 19 7 20 6 21 5 22
REMARK SMILES IDX 4 23 3 24 2 25 1 26
REMARK H PARENT
REMARK Flexibility Score: inf
ROOT
ATOM      1  C   UNL     1      -4.862  34.837  22.514  1.00  0.00     0.000 C 
ENDROOT
BRANCH   1   2
ATOM      2  C   UNL     1      -5.215  34.141  21.192  1.00  0.00     0.000 C 
BRANCH   2   3
ATOM      3  C   UNL     1      -5.702  35.159  20.149  1.00  0.00     0.000 C 
BRANCH   3   4
ATOM      4  C   UNL     1      -5.980  34.525  18.775  1.00  0.00     0.000 C 
BRANCH   4   5
ATOM      5  C   UNL     1      -4.727  34.067  18.006  1.00  0.00     0.000 C 
BRANCH   5   6
ATOM      6  C   UNL     1      -4.001  35.223  17.301  1.00  0.00     0.000 C 
BRANCH   6   7
ATOM      7  C   UNL     1      -3.577  36.301  18.309  1.00  0.00     0.000 C 
BRANCH   7   8
ATOM      8  C   UNL     1      -2.510  37.260  17.751  1.00  0.00     0.000 C 
BRANCH   8   9
ATOM      9  C   UNL     1      -2.029  36.937  16.324  1.00  0.00     0.000 C 
BRANCH   9  10
ATOM     10  C   UNL     1      -2.921  35.911  15.610  1.00  0.00     0.006 C 
BRANCH  10  11
ATOM     11  C   UNL     1      -3.290  36.393  14.203  1.00  0.00     0.053 C 
BRANCH  11  12
ATOM     12  C   UNL     1      -4.272  37.519  14.274  1.00  0.00     0.041 C 
ATOM     13  O   UNL     1      -3.899  38.664  14.642  1.00  0.00    -0.550 OA
ATOM     14  O   UNL     1      -5.590  37.317  13.887  1.00  0.00    -0.550 OA
ENDBRANCH  11  12
ENDBRANCH  10  11
ENDBRANCH   9  10
ENDBRANCH   8   9
ENDBRANCH   7   8
ENDBRANCH   6   7
ENDBRANCH   5   6
ENDBRANCH   4   5
ENDBRANCH   3   4
ENDBRANCH   2   3
ENDBRANCH   1   2
BRANCH   1  15
ATOM     15  C   UNL     1      -6.103  35.278  23.314  1.00  0.00     0.000 C 
BRANCH  15  16
ATOM     16  C   UNL     1      -6.084  34.901  24.808  1.00  0.00     0.000 C 
BRANCH  16  17
ATOM     17  C   UNL     1      -5.966  36.119  25.734  1.00  0.00     0.000 C 
BRANCH  17  18
ATOM     18  C   UNL     1      -5.701  37.398  24.928  1.00  0.00    -0.000 C 
BRANCH  18  19
ATOM     19  C   UNL     1      -4.444  38.154  25.398  1.00  0.00    -0.000 C 
BRANCH  19  20
ATOM     20  C   UNL     1      -4.202  39.515  24.712  1.00  0.00    -0.000 C 
BRANCH  20  21
ATOM     21  C   UNL     1      -5.398  40.485  24.743  1.00  0.00    -0.000 C 
BRANCH  21  22
ATOM     22  C   UNL     1      -5.889  40.948  23.360  1.00  0.00    -0.000 C 
BRANCH  22  23
ATOM     23  C   UNL     1      -6.102  39.791  22.360  1.00  0.00    -0.000 C 
BRANCH  23  24
ATOM     24  C   UNL     1      -6.125  40.271  20.901  1.00  0.00    -0.000 C 
BRANCH  24  25
ATOM     25  C   UNL     1      -5.960  39.093  19.933  1.00  0.00    -0.003 C 
ATOM     26  C   UNL     1      -5.070  38.007  20.531  1.00  0.00     0.004 C 
ENDBRANCH  24  25
ENDBRANCH  23  24
ENDBRANCH  22  23
ENDBRANCH  21  22
ENDBRANCH  20  21
ENDBRANCH  19  20
ENDBRANCH  18  19
ENDBRANCH  17  18
ENDBRANCH  16  17
ENDBRANCH  15  16
ENDBRANCH   1  15
TORSDOF 22
ENDMDL
MODEL 6
REMARK VINA RESULT:     2.236      1.073      2.568
REMARK INTER + INTRA:           3.865
REMARK INTER:                   5.327
REMARK INTRA:                  -1.462
REMARK UNBOUND:                -1.248
REMARK SMILES CCCCCCCCCCCCCCCCCCCCCCCC(=O)[O-]
REMARK SMILES IDX 13 1 14 2 15 3 16 4 17 5 18 6 19 7 20 8 21 9 22 10 23 11
REMARK SMILES IDX 24 12 25 13 26 14 12 15 11 16 10 17 9 18 8 19 7 20 6 21 5 22
REMARK SMILES IDX 4 23 3 24 2 25 1 26
REMARK H PARENT
REMARK Flexibility Score: inf
ROOT
ATOM      1  C   UNL     1      -6.079  37.651  24.498  1.00  0.00     0.000 C 
ENDROOT
BRANCH   1   2
ATOM      2  C   UNL     1      -5.343  38.939  24.895  1.00  0.00     0.000 C 
BRANCH   2   3
ATOM      3  C   UNL     1      -5.022  39.791  23.658  1.00  0.00     0.000 C 
BRANCH   3   4
ATOM      4  C   UNL     1      -6.044  39.609  22.521  1.00  0.00     0.000 C 
BRANCH   4   5
ATOM      5  C   UNL     1      -5.916  40.617  21.364  1.00  0.00     0.000 C 
BRANCH   5   6
ATOM      6  C   UNL     1      -6.125  39.974  19.985  1.00  0.00     0.000 C 
BRANCH   6   7
ATOM      7  C   UNL     1      -6.098  38.442  20.083  1.00  0.00     0.000 C 
BRANCH   7   8
ATOM      8  C   UNL     1      -4.769  37.832  19.602  1.00  0.00     0.000 C 
BRANCH   8   9
ATOM      9  C   UNL     1      -3.882  37.245  20.716  1.00  0.00     0.000 C 
BRANCH   9  10
ATOM     10  C   UNL     1      -2.412  37.100  20.295  1.00  0.00     0.006 C 
BRANCH  10  11
ATOM     11  C   UNL     1      -2.200  37.607  18.865  1.00  0.00     0.053 C 
BRANCH  11  12
ATOM     12  C   UNL     1      -0.776  38.018  18.659  1.00  0.00     0.041 C 
ATOM     13  O   UNL     1      -0.477  39.236  18.548  1.00  0.00    -0.550 OA
ATOM     14  O   UNL     1       0.228  37.059  18.639  1.00  0.00    -0.550 OA
ENDBRANCH  11  12
ENDBRANCH  10  11
ENDBRANCH   9  10
ENDBRANCH   8   9
ENDBRANCH   7   8
ENDBRANCH   6   7
ENDBRANCH   5   6
ENDBRANCH   4   5
ENDBRANCH   3   4
ENDBRANCH   2   3
ENDBRANCH   1   2
BRANCH   1  15
ATOM     15  C   UNL     1      -5.204  36.390  24.634  1.00  0.00     0.000 C 
BRANCH  15  16
ATOM     16  C   UNL     1      -5.979  35.059  24.669  1.00  0.00     0.000 C 
BRANCH  16  17
ATOM     17  C   UNL     1      -5.794  34.223  23.395  1.00  0.00     0.000 C 
BRANCH  17  18
ATOM     18  C   UNL     1      -6.106  35.052  22.143  1.00  0.00    -0.000 C 
BRANCH  18  19
ATOM     19  C   UNL     1      -5.107  34.810  20.997  1.00  0.00    -0.000 C 
BRANCH  19  20
ATOM     20  C   UNL     1      -5.656  33.996  19.807  1.00  0.00    -0.000 C 
BRANCH  20  21
ATOM     21  C   UNL     1      -5.681  34.742  18.460  1.00  0.00    -0.000 C 
BRANCH  21  22
ATOM     22  C   UNL     1      -4.387  34.627  17.635  1.00  0.00    -0.000 C 
BRANCH  22  23
ATOM     23  C   UNL     1      -4.002  35.932  16.903  1.00  0.00    -0.000 C 
BRANCH  23  24
ATOM     24  C   UNL     1      -2.685  35.802  16.123  1.00  0.00    -0.000 C 
BRANCH  24  25
ATOM     25  C   UNL     1      -2.932  35.884  14.612  1.00  0.00    -0.003 C 
ATOM     26  C   UNL     1      -3.604  37.201  14.234  1.00  0.00     0.004 C 
ENDBRANCH  24  25
ENDBRANCH  23  24
ENDBRANCH  22  23
ENDBRANCH  21  22
ENDBRANCH  20  21
ENDBRANCH  19  20
ENDBRANCH  18  19
ENDBRANCH  17  18
ENDBRANCH  16  17
ENDBRANCH  15  16
ENDBRANCH   1  15
TORSDOF 22
ENDMDL
MODEL 7
REMARK VINA RESULT:     2.415      1.218      6.695
REMARK INTER + INTRA:           4.273
REMARK INTER:                   4.281
REMARK INTRA:                  -0.008
REMARK UNBOUND:                -1.248
REMARK SMILES CCCCCCCCCCCCCCCCCCCCCCCC(=O)[O-]
REMARK SMILES IDX 13 1 14 2 15 3 16 4 17 5 18 6 19 7 20 8 21 9 22 10 23 11
REMARK SMILES IDX 24 12 25 13 26 14 12 15 11 16 10 17 9 18 8 19 7 20 6 21 5 22
REMARK SMILES IDX 4 23 3 24 2 25 1 26
REMARK H PARENT
REMARK Flexibility Score: inf
ROOT
ATOM      1  C   UNL     1      -5.059  36.614  20.454  1.00  0.00     0.000 C 
ENDROOT
BRANCH   1   2
ATOM      2  C   UNL     1      -6.107  35.493  20.406  1.00  0.00     0.000 C 
BRANCH   2   3
ATOM      3  C   UNL     1      -5.931  34.632  19.146  1.00  0.00     0.000 C 
BRANCH   3   4
ATOM      4  C   UNL     1      -4.469  34.559  18.667  1.00  0.00     0.000 C 
BRANCH   4   5
ATOM      5  C   UNL     1      -4.261  34.855  17.170  1.00  0.00     0.000 C 
BRANCH   5   6
ATOM      6  C   UNL     1      -4.047  36.349  16.881  1.00  0.00     0.000 C 
BRANCH   6   7
ATOM      7  C   UNL     1      -3.807  36.589  15.383  1.00  0.00     0.000 C 
BRANCH   7   8
ATOM      8  C   UNL     1      -2.412  36.136  14.917  1.00  0.00     0.000 C 
BRANCH   8   9
ATOM      9  C   UNL     1      -1.272  36.412  15.914  1.00  0.00     0.000 C 
BRANCH   9  10
ATOM     10  C   UNL     1      -1.762  36.530  17.365  1.00  0.00     0.006 C 
BRANCH  10  11
ATOM     11  C   UNL     1      -0.897  37.517  18.156  1.00  0.00     0.053 C 
BRANCH  11  12
ATOM     12  C   UNL     1      -1.134  37.362  19.625  1.00  0.00     0.041 C 
ATOM     13  O   UNL     1      -2.297  37.471  20.095  1.00  0.00    -0.550 OA
ATOM     14  O   UNL     1      -0.077  37.049  20.470  1.00  0.00    -0.550 OA
ENDBRANCH  11  12
ENDBRANCH  10  11
ENDBRANCH   9  10
ENDBRANCH   8   9
ENDBRANCH   7   8
ENDBRANCH   6   7
ENDBRANCH   5   6
ENDBRANCH   4   5
ENDBRANCH   3   4
ENDBRANCH   2   3
ENDBRANCH   1   2
BRANCH   1  15
ATOM     15  C   UNL     1      -5.572  37.944  19.868  1.00  0.00     0.000 C 
BRANCH  15  16
ATOM     16  C   UNL     1      -5.175  39.203  20.662  1.00  0.00     0.000 C 
BRANCH  16  17
ATOM     17  C   UNL     1      -6.125  39.500  21.831  1.00  0.00     0.000 C 
BRANCH  17  18
ATOM     18  C   UNL     1      -5.371  40.145  23.002  1.00  0.00    -0.000 C 
BRANCH  18  19
ATOM     19  C   UNL     1      -5.231  39.207  24.215  1.00  0.00    -0.000 C 
BRANCH  19  20
ATOM     20  C   UNL     1      -5.772  37.777  24.005  1.00  0.00    -0.000 C 
BRANCH  20  21
ATOM     21  C   UNL     1      -5.862  36.918  25.281  1.00  0.00    -0.000 C 
BRANCH  21  22
ATOM     22  C   UNL     1      -5.601  35.416  25.067  1.00  0.00    -0.000 C 
BRANCH  22  23
ATOM     23  C   UNL     1      -5.551  35.002  23.580  1.00  0.00    -0.000 C 
BRANCH  23  24
ATOM     24  C   UNL     1      -5.087  33.550  23.389  1.00  0.00    -0.000 C 
BRANCH  24  25
ATOM     25  C   UNL     1      -4.165  33.424  22.171  1.00  0.00    -0.003 C 
ATOM     26  C   UNL     1      -3.045  34.461  22.217  1.00  0.00     0.004 C 
ENDBRANCH  24  25
ENDBRANCH  23  24
ENDBRANCH  22  23
ENDBRANCH  21  22
ENDBRANCH  20  21
ENDBRANCH  19  20
ENDBRANCH  18  19
ENDBRANCH  17  18
ENDBRANCH  16  17
ENDBRANCH  15  16
ENDBRANCH   1  15
TORSDOF 22
ENDMDL
MODEL 8
REMARK VINA RESULT:     2.607      2.190      7.390
REMARK INTER + INTRA:           4.712
REMARK INTER:                   5.568
REMARK INTRA:                  -0.856
REMARK UNBOUND:                -1.248
REMARK SMILES CCCCCCCCCCCCCCCCCCCCCCCC(=O)[O-]
REMARK SMILES IDX 13 1 14 2 15 3 16 4 17 5 18 6 19 7 20 8 21 9 22 10 23 11
REMARK SMILES IDX 24 12 25 13 26 14 12 15 11 16 10 17 9 18 8 19 7 20 6 21 5 22
REMARK SMILES IDX 4 23 3 24 2 25 1 26
REMARK H PARENT
REMARK Flexibility Score: inf
ROOT
ATOM      1  C   UNL     1      -3.820  36.679  15.566  1.00  0.00     0.000 C 
ENDROOT
BRANCH   1   2
ATOM      2  C   UNL     1      -2.687  35.769  15.069  1.00  0.00     0.000 C 
BRANCH   2   3
ATOM      3  C   UNL     1      -1.326  36.252  15.594  1.00  0.00     0.000 C 
BRANCH   3   4
ATOM      4  C   UNL     1      -1.283  36.377  17.128  1.00  0.00     0.000 C 
BRANCH   4   5
ATOM      5  C   UNL     1      -1.974  37.630  17.696  1.00  0.00     0.000 C 
BRANCH   5   6
ATOM      6  C   UNL     1      -1.295  38.162  18.967  1.00  0.00     0.000 C 
BRANCH   6   7
ATOM      7  C   UNL     1      -1.537  37.220  20.156  1.00  0.00     0.000 C 
BRANCH   7   8
ATOM      8  C   UNL     1      -3.029  36.931  20.399  1.00  0.00     0.000 C 
BRANCH   8   9
ATOM      9  C   UNL     1      -3.995  38.003  19.861  1.00  0.00     0.000 C 
BRANCH   9  10
ATOM     10  C   UNL     1      -5.396  37.913  20.485  1.00  0.00     0.006 C 
BRANCH  10  11
ATOM     11  C   UNL     1      -5.991  39.308  20.697  1.00  0.00     0.053 C 
BRANCH  11  12
ATOM     12  C   UNL     1      -5.813  39.744  22.117  1.00  0.00     0.041 C 
ATOM     13  O   UNL     1      -5.691  40.966  22.395  1.00  0.00    -0.550 OA
ATOM     14  O   UNL     1      -5.831  38.805  23.140  1.00  0.00    -0.550 OA
ENDBRANCH  11  12
ENDBRANCH  10  11
ENDBRANCH   9  10
ENDBRANCH   8   9
ENDBRANCH   7   8
ENDBRANCH   6   7
ENDBRANCH   5   6
ENDBRANCH   4   5
ENDBRANCH   3   4
ENDBRANCH   2   3
ENDBRANCH   1   2
BRANCH   1  15
ATOM     15  C   UNL     1      -4.875  35.927  16.400  1.00  0.00     0.000 C 
BRANCH  15  16
ATOM     16  C   UNL     1      -4.312  35.099  17.571  1.00  0.00     0.000 C 
BRANCH  16  17
ATOM     17  C   UNL     1      -5.329  34.102  18.145  1.00  0.00     0.000 C 
BRANCH  17  18
ATOM     18  C   UNL     1      -5.857  34.578  19.504  1.00  0.00    -0.000 C 
BRANCH  18  19
ATOM     19  C   UNL     1      -4.790  34.531  20.613  1.00  0.00    -0.000 C 
BRANCH  19  20
ATOM     20  C   UNL     1      -5.302  34.092  22.000  1.00  0.00    -0.000 C 
BRANCH  20  21
ATOM     21  C   UNL     1      -5.921  35.213  22.855  1.00  0.00    -0.000 C 
BRANCH  21  22
ATOM     22  C   UNL     1      -6.125  34.857  24.339  1.00  0.00    -0.000 C 
BRANCH  22  23
ATOM     23  C   UNL     1      -5.915  36.050  25.296  1.00  0.00    -0.000 C 
BRANCH  23  24
ATOM     24  C   UNL     1      -4.473  36.579  25.270  1.00  0.00    -0.000 C 
BRANCH  24  25
ATOM     25  C   UNL     1      -4.297  37.742  26.253  1.00  0.00    -0.003 C 
ATOM     26  C   UNL     1      -2.970  37.637  27.000  1.00  0.00     0.004 C 
ENDBRANCH  24  25
ENDBRANCH  23  24
ENDBRANCH  22  23
ENDBRANCH  21  22
ENDBRANCH  20  21
ENDBRANCH  19  20
ENDBRANCH  18  19
ENDBRANCH  17  18
ENDBRANCH  16  17
ENDBRANCH  15  16
ENDBRANCH   1  15
TORSDOF 22
ENDMDL
