MODEL 1
REMARK VINA RESULT:    10.510      0.000      0.000
REMARK INTER + INTRA:          22.492
REMARK INTER:                  22.798
REMARK INTRA:                  -0.306
REMARK UNBOUND:                -0.306
REMARK SMILES CCCCCCCCCCCCCCCCCCCCCC(=O)[O-]
REMARK SMILES IDX 12 1 11 2 10 3 9 4 8 5 7 6 6 7 5 8 4 9 3 10 2 11 1 12 13 13
REMARK SMILES IDX 14 14 15 15 16 16 17 17 18 18 19 19 20 20 21 21 22 22 23 23
REMARK SMILES IDX 24 24
REMARK H PARENT
REMARK Flexibility Score: inf
ROOT
ATOM      1  C   UNL     1     -14.530  31.664 -17.981  1.00  0.00     0.000 C 
ENDROOT
BRANCH   1   2
ATOM      2  C   UNL     1     -14.874  32.049 -19.435  1.00  0.00     0.000 C 
BRANCH   2   3
ATOM      3  C   UNL     1     -15.993  33.092 -19.594  1.00  0.00     0.000 C 
BRANCH   3   4
ATOM      4  C   UNL     1     -15.924  34.210 -18.541  1.00  0.00    -0.000 C 
BRANCH   4   5
ATOM      5  C   UNL     1     -16.919  35.351 -18.816  1.00  0.00    -0.000 C 
BRANCH   5   6
ATOM      6  C   UNL     1     -17.057  35.709 -20.312  1.00  0.00    -0.000 C 
BRANCH   6   7
ATOM      7  C   UNL     1     -18.296  35.059 -20.952  1.00  0.00    -0.000 C 
BRANCH   7   8
ATOM      8  C   UNL     1     -19.482  36.032 -21.084  1.00  0.00    -0.000 C 
BRANCH   8   9
ATOM      9  C   UNL     1     -20.529  35.938 -19.960  1.00  0.00    -0.000 C 
BRANCH   9  10
ATOM     10  C   UNL     1     -20.016  35.166 -18.732  1.00  0.00    -0.000 C 
BRANCH  10  11
ATOM     11  C   UNL     1     -19.735  36.085 -17.532  1.00  0.00    -0.003 C 
ATOM     12  C   UNL     1     -20.890  36.125 -16.531  1.00  0.00     0.004 C 
ENDBRANCH  10  11
ENDBRANCH   9  10
ENDBRANCH   8   9
ENDBRANCH   7   8
ENDBRANCH   6   7
ENDBRANCH   5   6
ENDBRANCH   4   5
ENDBRANCH   3   4
ENDBRANCH   2   3
ENDBRANCH   1   2
BRANCH   1  13
ATOM     13  C   UNL     1     -14.396  30.153 -17.715  1.00  0.00     0.000 C 
BRANCH  13  14
ATOM     14  C   UNL     1     -13.939  29.778 -16.292  1.00  0.00     0.000 C 
BRANCH  14  15
ATOM     15  C   UNL     1     -13.032  28.529 -16.235  1.00  0.00     0.000 C 
BRANCH  15  16
ATOM     16  C   UNL     1     -12.161  28.368 -17.492  1.00  0.00     0.000 C 
BRANCH  16  17
ATOM     17  C   UNL     1     -12.272  26.968 -18.122  1.00  0.00     0.000 C 
BRANCH  17  18
ATOM     18  C   UNL     1     -11.906  26.934 -19.622  1.00  0.00     0.000 C 
BRANCH  18  19
ATOM     19  C   UNL     1     -11.731  25.500 -20.142  1.00  0.00     0.000 C 
BRANCH  19  20
ATOM     20  C   UNL     1     -13.085  24.786 -20.260  1.00  0.00     0.006 C 
BRANCH  20  21
ATOM     21  C   UNL     1     -12.938  23.258 -20.272  1.00  0.00     0.053 C 
BRANCH  21  22
ATOM     22  C   UNL     1     -14.116  22.580 -19.642  1.00  0.00     0.041 C 
ATOM     23  O   UNL     1     -14.415  21.400 -19.966  1.00  0.00    -0.550 OA
ATOM     24  O   UNL     1     -14.864  23.240 -18.677  1.00  0.00    -0.550 OA
ENDBRANCH  21  22
ENDBRANCH  20  21
ENDBRANCH  19  20
ENDBRANCH  18  19
ENDBRANCH  17  18
ENDBRANCH  16  17
ENDBRANCH  15  16
ENDBRANCH  14  15
ENDBRANCH  13  14
ENDBRANCH   1  13
TORSDOF 20
ENDMDL
MODEL 2
REMARK VINA RESULT:    10.535      3.789     11.042
REMARK INTER + INTRA:          22.546
REMARK INTER:                  23.387
REMARK INTRA:                  -0.841
REMARK UNBOUND:                -0.306
REMARK SMILES CCCCCCCCCCCCCCCCCCCCCC(=O)[O-]
REMARK SMILES IDX 12 1 11 2 10 3 9 4 8 5 7 6 6 7 5 8 4 9 3 10 2 11 1 12 13 13
REMARK SMILES IDX 14 14 15 15 16 16 17 17 18 18 19 19 20 20 21 21 22 22 23 23
REMARK SMILES IDX 24 24
REMARK H PARENT
REMARK Flexibility Score: inf
ROOT
ATOM      1  C   UNL     1     -14.629  30.385 -17.601  1.00  0.00     0.000 C 
ENDROOT
BRANCH   1   2
ATOM      2  C   UNL     1     -13.703  29.813 -16.508  1.00  0.00     0.000 C 
BRANCH   2   3
ATOM      3  C   UNL     1     -13.671  28.278 -16.407  1.00  0.00     0.000 C 
BRANCH   3   4
ATOM      4  C   UNL     1     -12.298  27.683 -16.761  1.00  0.00    -0.000 C 
BRANCH   4   5
ATOM      5  C   UNL     1     -11.960  27.811 -18.257  1.00  0.00    -0.000 C 
BRANCH   5   6
ATOM      6  C   UNL     1     -11.464  26.495 -18.896  1.00  0.00    -0.000 C 
BRANCH   6   7
ATOM      7  C   UNL     1     -12.461  25.940 -19.929  1.00  0.00    -0.000 C 
BRANCH   7   8
ATOM      8  C   UNL     1     -12.220  24.456 -20.258  1.00  0.00    -0.000 C 
BRANCH   8   9
ATOM      9  C   UNL     1     -13.482  23.657 -20.627  1.00  0.00    -0.000 C 
BRANCH   9  10
ATOM     10  C   UNL     1     -14.331  23.285 -19.398  1.00  0.00    -0.000 C 
BRANCH  10  11
ATOM     11  C   UNL     1     -14.414  21.766 -19.177  1.00  0.00    -0.003 C 
ATOM     12  C   UNL     1     -14.521  20.980 -20.484  1.00  0.00     0.004 C 
ENDBRANCH  10  11
ENDBRANCH   9  10
ENDBRANCH   8   9
ENDBRANCH   7   8
ENDBRANCH   6   7
ENDBRANCH   5   6
ENDBRANCH   4   5
ENDBRANCH   3   4
ENDBRANCH   2   3
ENDBRANCH   1   2
BRANCH   1  13
ATOM     13  C   UNL     1     -14.161  31.709 -18.233  1.00  0.00     0.000 C 
BRANCH  13  14
ATOM     14  C   UNL     1     -15.212  32.426 -19.103  1.00  0.00     0.000 C 
BRANCH  14  15
ATOM     15  C   UNL     1     -14.972  33.945 -19.249  1.00  0.00     0.000 C 
BRANCH  15  16
ATOM     16  C   UNL     1     -16.177  34.785 -18.793  1.00  0.00     0.000 C 
BRANCH  16  17
ATOM     17  C   UNL     1     -17.056  35.256 -19.964  1.00  0.00     0.000 C 
BRANCH  17  18
ATOM     18  C   UNL     1     -18.276  36.094 -19.524  1.00  0.00     0.000 C 
BRANCH  18  19
ATOM     19  C   UNL     1     -18.670  35.821 -18.065  1.00  0.00     0.000 C 
BRANCH  19  20
ATOM     20  C   UNL     1     -20.195  35.852 -17.889  1.00  0.00     0.006 C 
BRANCH  20  21
ATOM     21  C   UNL     1     -20.937  35.623 -19.213  1.00  0.00     0.053 C 
BRANCH  21  22
ATOM     22  C   UNL     1     -20.917  34.181 -19.620  1.00  0.00     0.041 C 
ATOM     23  O   UNL     1     -20.696  33.864 -20.819  1.00  0.00    -0.550 OA
ATOM     24  O   UNL     1     -21.113  33.188 -18.670  1.00  0.00    -0.550 OA
ENDBRANCH  21  22
ENDBRANCH  20  21
ENDBRANCH  19  20
ENDBRANCH  18  19
ENDBRANCH  17  18
ENDBRANCH  16  17
ENDBRANCH  15  16
ENDBRANCH  14  15
ENDBRANCH  13  14
ENDBRANCH   1  13
TORSDOF 20
ENDMDL
MODEL 3
REMARK VINA RESULT:    11.224      4.323     11.127
REMARK INTER + INTRA:          24.042
REMARK INTER:                  25.124
REMARK INTRA:                  -1.082
REMARK UNBOUND:                -0.306
REMARK SMILES CCCCCCCCCCCCCCCCCCCCCC(=O)[O-]
REMARK SMILES IDX 12 1 11 2 10 3 9 4 8 5 7 6 6 7 5 8 4 9 3 10 2 11 1 12 13 13
REMARK SMILES IDX 14 14 15 15 16 16 17 17 18 18 19 19 20 20 21 21 22 22 23 23
REMARK SMILES IDX 24 24
REMARK H PARENT
REMARK Flexibility Score: inf
ROOT
ATOM      1  C   UNL     1     -14.078  31.378 -17.948  1.00  0.00     0.000 C 
ENDROOT
BRANCH   1   2
ATOM      2  C   UNL     1     -14.235  29.952 -17.381  1.00  0.00     0.000 C 
BRANCH   2   3
ATOM      3  C   UNL     1     -13.577  29.711 -16.011  1.00  0.00     0.000 C 
BRANCH   3   4
ATOM      4  C   UNL     1     -12.647  28.486 -16.001  1.00  0.00    -0.000 C 
BRANCH   4   5
ATOM      5  C   UNL     1     -12.055  28.175 -17.388  1.00  0.00    -0.000 C 
BRANCH   5   6
ATOM      6  C   UNL     1     -12.479  26.800 -17.950  1.00  0.00    -0.000 C 
BRANCH   6   7
ATOM      7  C   UNL     1     -11.845  26.515 -19.323  1.00  0.00    -0.000 C 
BRANCH   7   8
ATOM      8  C   UNL     1     -12.751  25.669 -20.237  1.00  0.00    -0.000 C 
BRANCH   8   9
ATOM      9  C   UNL     1     -12.533  24.149 -20.143  1.00  0.00    -0.000 C 
BRANCH   9  10
ATOM     10  C   UNL     1     -13.504  23.353 -21.033  1.00  0.00    -0.000 C 
BRANCH  10  11
ATOM     11  C   UNL     1     -14.295  22.297 -20.245  1.00  0.00    -0.003 C 
ATOM     12  C   UNL     1     -14.572  22.717 -18.802  1.00  0.00     0.004 C 
ENDBRANCH  10  11
ENDBRANCH   9  10
ENDBRANCH   8   9
ENDBRANCH   7   8
ENDBRANCH   6   7
ENDBRANCH   5   6
ENDBRANCH   4   5
ENDBRANCH   3   4
ENDBRANCH   2   3
ENDBRANCH   1   2
BRANCH   1  13
ATOM     13  C   UNL     1     -15.321  31.942 -18.661  1.00  0.00     0.000 C 
BRANCH  13  14
ATOM     14  C   UNL     1     -15.134  33.331 -19.301  1.00  0.00     0.000 C 
BRANCH  14  15
ATOM     15  C   UNL     1     -15.969  33.547 -20.583  1.00  0.00     0.000 C 
BRANCH  15  16
ATOM     16  C   UNL     1     -16.319  35.025 -20.823  1.00  0.00     0.000 C 
BRANCH  16  17
ATOM     17  C   UNL     1     -17.772  35.365 -20.444  1.00  0.00     0.000 C 
BRANCH  17  18
ATOM     18  C   UNL     1     -18.732  34.158 -20.530  1.00  0.00     0.000 C 
BRANCH  18  19
ATOM     19  C   UNL     1     -20.201  34.594 -20.638  1.00  0.00     0.000 C 
BRANCH  19  20
ATOM     20  C   UNL     1     -20.880  34.590 -19.260  1.00  0.00     0.006 C 
BRANCH  20  21
ATOM     21  C   UNL     1     -20.988  35.998 -18.661  1.00  0.00     0.053 C 
BRANCH  21  22
ATOM     22  C   UNL     1     -20.328  36.085 -17.319  1.00  0.00     0.041 C 
ATOM     23  O   UNL     1     -21.025  36.117 -16.271  1.00  0.00    -0.550 OA
ATOM     24  O   UNL     1     -18.943  36.101 -17.225  1.00  0.00    -0.550 OA
ENDBRANCH  21  22
ENDBRANCH  20  21
ENDBRANCH  19  20
ENDBRANCH  18  19
ENDBRANCH  17  18
ENDBRANCH  16  17
ENDBRANCH  15  16
ENDBRANCH  14  15
ENDBRANCH  13  14
ENDBRANCH   1  13
TORSDOF 20
ENDMDL
MODEL 4
REMARK VINA RESULT:    11.246      0.861      1.499
REMARK INTER + INTRA:          24.088
REMARK INTER:                  25.109
REMARK INTRA:                  -1.020
REMARK UNBOUND:                -0.306
REMARK SMILES CCCCCCCCCCCCCCCCCCCCCC(=O)[O-]
REMARK SMILES IDX 12 1 11 2 10 3 9 4 8 5 7 6 6 7 5 8 4 9 3 10 2 11 1 12 13 13
REMARK SMILES IDX 14 14 15 15 16 16 17 17 18 18 19 19 20 20 21 21 22 22 23 23
REMARK SMILES IDX 24 24
REMARK H PARENT
REMARK Flexibility Score: inf
ROOT
ATOM      1  C   UNL     1     -14.677  30.331 -17.931  1.00  0.00     0.000 C 
ENDROOT
BRANCH   1   2
ATOM      2  C   UNL     1     -14.348  31.781 -18.343  1.00  0.00     0.000 C 
BRANCH   2   3
ATOM      3  C   UNL     1     -15.402  32.472 -19.224  1.00  0.00     0.000 C 
BRANCH   3   4
ATOM      4  C   UNL     1     -15.056  33.938 -19.535  1.00  0.00    -0.000 C 
BRANCH   4   5
ATOM      5  C   UNL     1     -15.568  34.913 -18.460  1.00  0.00    -0.000 C 
BRANCH   5   6
ATOM      6  C   UNL     1     -17.060  35.280 -18.615  1.00  0.00    -0.000 C 
BRANCH   6   7
ATOM      7  C   UNL     1     -17.329  36.087 -19.898  1.00  0.00    -0.000 C 
BRANCH   7   8
ATOM      8  C   UNL     1     -18.787  35.979 -20.380  1.00  0.00    -0.000 C 
BRANCH   8   9
ATOM      9  C   UNL     1     -19.385  34.562 -20.335  1.00  0.00    -0.000 C 
BRANCH   9  10
ATOM     10  C   UNL     1     -20.458  34.403 -19.243  1.00  0.00    -0.000 C 
BRANCH  10  11
ATOM     11  C   UNL     1     -21.013  35.753 -18.761  1.00  0.00    -0.003 C 
ATOM     12  C   UNL     1     -20.920  35.926 -17.246  1.00  0.00     0.004 C 
ENDBRANCH  10  11
ENDBRANCH   9  10
ENDBRANCH   8   9
ENDBRANCH   7   8
ENDBRANCH   6   7
ENDBRANCH   5   6
ENDBRANCH   4   5
ENDBRANCH   3   4
ENDBRANCH   2   3
ENDBRANCH   1   2
BRANCH   1  13
ATOM     13  C   UNL     1     -13.991  29.842 -16.642  1.00  0.00     0.000 C 
BRANCH  13  14
ATOM     14  C   UNL     1     -13.144  28.563 -16.796  1.00  0.00     0.000 C 
BRANCH  14  15
ATOM     15  C   UNL     1     -11.932  28.725 -17.739  1.00  0.00     0.000 C 
BRANCH  15  16
ATOM     16  C   UNL     1     -12.334  28.765 -19.223  1.00  0.00     0.000 C 
BRANCH  16  17
ATOM     17  C   UNL     1     -11.625  27.690 -20.065  1.00  0.00     0.000 C 
BRANCH  17  18
ATOM     18  C   UNL     1     -11.704  26.274 -19.453  1.00  0.00     0.000 C 
BRANCH  18  19
ATOM     19  C   UNL     1     -12.930  25.495 -19.952  1.00  0.00     0.000 C 
BRANCH  19  20
ATOM     20  C   UNL     1     -12.587  24.016 -20.184  1.00  0.00     0.006 C 
BRANCH  20  21
ATOM     21  C   UNL     1     -13.760  23.236 -20.793  1.00  0.00     0.053 C 
BRANCH  21  22
ATOM     22  C   UNL     1     -14.300  22.211 -19.843  1.00  0.00     0.041 C 
ATOM     23  O   UNL     1     -14.698  22.555 -18.699  1.00  0.00    -0.550 OA
ATOM     24  O   UNL     1     -14.392  20.882 -20.233  1.00  0.00    -0.550 OA
ENDBRANCH  21  22
ENDBRANCH  20  21
ENDBRANCH  19  20
ENDBRANCH  18  19
ENDBRANCH  17  18
ENDBRANCH  16  17
ENDBRANCH  15  16
ENDBRANCH  14  15
ENDBRANCH  13  14
ENDBRANCH   1  13
TORSDOF 20
ENDMDL
MODEL 5
REMARK VINA RESULT:    11.457      3.735     10.900
REMARK INTER + INTRA:          24.546
REMARK INTER:                  24.330
REMARK INTRA:                   0.216
REMARK UNBOUND:                -0.306
REMARK SMILES CCCCCCCCCCCCCCCCCCCCCC(=O)[O-]
REMARK SMILES IDX 12 1 11 2 10 3 9 4 8 5 7 6 6 7 5 8 4 9 3 10 2 11 1 12 13 13
REMARK SMILES IDX 14 14 15 15 16 16 17 17 18 18 19 19 20 20 21 21 22 22 23 23
REMARK SMILES IDX 24 24
REMARK H PARENT
REMARK Flexibility Score: inf
ROOT
ATOM      1  C   UNL     1     -13.627  30.023 -16.465  1.00  0.00     0.000 C 
ENDROOT
BRANCH   1   2
ATOM      2  C   UNL     1     -13.324  28.564 -16.064  1.00  0.00     0.000 C 
BRANCH   2   3
ATOM      3  C   UNL     1     -12.604  27.723 -17.132  1.00  0.00     0.000 C 
BRANCH   3   4
ATOM      4  C   UNL     1     -12.353  28.498 -18.436  1.00  0.00    -0.000 C 
BRANCH   4   5
ATOM      5  C   UNL     1     -11.732  27.623 -19.540  1.00  0.00    -0.000 C 
BRANCH   5   6
ATOM      6  C   UNL     1     -11.915  26.107 -19.308  1.00  0.00    -0.000 C 
BRANCH   6   7
ATOM      7  C   UNL     1     -12.867  25.474 -20.338  1.00  0.00    -0.000 C 
BRANCH   7   8
ATOM      8  C   UNL     1     -13.760  24.375 -19.733  1.00  0.00    -0.000 C 
BRANCH   8   9
ATOM      9  C   UNL     1     -13.819  23.066 -20.538  1.00  0.00    -0.000 C 
BRANCH   9  10
ATOM     10  C   UNL     1     -13.933  21.820 -19.642  1.00  0.00    -0.000 C 
BRANCH  10  11
ATOM     11  C   UNL     1     -14.713  20.679 -20.315  1.00  0.00    -0.003 C 
ATOM     12  C   UNL     1     -16.116  21.097 -20.755  1.00  0.00     0.004 C 
ENDBRANCH  10  11
ENDBRANCH   9  10
ENDBRANCH   8   9
ENDBRANCH   7   8
ENDBRANCH   6   7
ENDBRANCH   5   6
ENDBRANCH   4   5
ENDBRANCH   3   4
ENDBRANCH   2   3
ENDBRANCH   1   2
BRANCH   1  13
ATOM     13  C   UNL     1     -14.213  30.209 -17.876  1.00  0.00     0.000 C 
BRANCH  13  14
ATOM     14  C   UNL     1     -14.035  31.616 -18.479  1.00  0.00     0.000 C 
BRANCH  14  15
ATOM     15  C   UNL     1     -15.199  32.058 -19.392  1.00  0.00     0.000 C 
BRANCH  15  16
ATOM     16  C   UNL     1     -15.844  33.378 -18.939  1.00  0.00     0.000 C 
BRANCH  16  17
ATOM     17  C   UNL     1     -14.814  34.496 -18.698  1.00  0.00     0.000 C 
BRANCH  17  18
ATOM     18  C   UNL     1     -15.451  35.879 -18.441  1.00  0.00     0.000 C 
BRANCH  18  19
ATOM     19  C   UNL     1     -16.982  35.843 -18.564  1.00  0.00     0.000 C 
BRANCH  19  20
ATOM     20  C   UNL     1     -17.427  36.125 -20.007  1.00  0.00     0.006 C 
BRANCH  20  21
ATOM     21  C   UNL     1     -18.954  36.123 -20.155  1.00  0.00     0.053 C 
BRANCH  21  22
ATOM     22  C   UNL     1     -19.588  35.016 -19.369  1.00  0.00     0.041 C 
ATOM     23  O   UNL     1     -20.446  35.277 -18.485  1.00  0.00    -0.550 OA
ATOM     24  O   UNL     1     -19.255  33.695 -19.636  1.00  0.00    -0.550 OA
ENDBRANCH  21  22
ENDBRANCH  20  21
ENDBRANCH  19  20
ENDBRANCH  18  19
ENDBRANCH  17  18
ENDBRANCH  16  17
ENDBRANCH  15  16
ENDBRANCH  14  15
ENDBRANCH  13  14
ENDBRANCH   1  13
TORSDOF 20
ENDMDL
MODEL 6
REMARK VINA RESULT:    11.462      3.887     10.925
REMARK INTER + INTRA:          24.557
REMARK INTER:                  25.192
REMARK INTRA:                  -0.636
REMARK UNBOUND:                -0.306
REMARK SMILES CCCCCCCCCCCCCCCCCCCCCC(=O)[O-]
REMARK SMILES IDX 12 1 11 2 10 3 9 4 8 5 7 6 6 7 5 8 4 9 3 10 2 11 1 12 13 13
REMARK SMILES IDX 14 14 15 15 16 16 17 17 18 18 19 19 20 20 21 21 22 22 23 23
REMARK SMILES IDX 24 24
REMARK H PARENT
REMARK Flexibility Score: inf
ROOT
ATOM      1  C   UNL     1     -14.648  29.649 -17.159  1.00  0.00     0.000 C 
ENDROOT
BRANCH   1   2
ATOM      2  C   UNL     1     -13.935  29.104 -15.905  1.00  0.00     0.000 C 
BRANCH   2   3
ATOM      3  C   UNL     1     -12.531  28.522 -16.145  1.00  0.00     0.000 C 
BRANCH   3   4
ATOM      4  C   UNL     1     -12.488  27.527 -17.317  1.00  0.00    -0.000 C 
BRANCH   4   5
ATOM      5  C   UNL     1     -12.023  28.174 -18.633  1.00  0.00    -0.000 C 
BRANCH   5   6
ATOM      6  C   UNL     1     -12.076  27.221 -19.847  1.00  0.00    -0.000 C 
BRANCH   6   7
ATOM      7  C   UNL     1     -11.495  25.834 -19.521  1.00  0.00    -0.000 C 
BRANCH   7   8
ATOM      8  C   UNL     1     -12.118  24.709 -20.368  1.00  0.00    -0.000 C 
BRANCH   8   9
ATOM      9  C   UNL     1     -13.416  24.109 -19.799  1.00  0.00    -0.000 C 
BRANCH   9  10
ATOM     10  C   UNL     1     -13.475  22.578 -19.940  1.00  0.00    -0.000 C 
BRANCH  10  11
ATOM     11  C   UNL     1     -14.795  22.094 -20.563  1.00  0.00    -0.003 C 
ATOM     12  C   UNL     1     -14.964  20.576 -20.491  1.00  0.00     0.004 C 
ENDBRANCH  10  11
ENDBRANCH   9  10
ENDBRANCH   8   9
ENDBRANCH   7   8
ENDBRANCH   6   7
ENDBRANCH   5   6
ENDBRANCH   4   5
ENDBRANCH   3   4
ENDBRANCH   2   3
ENDBRANCH   1   2
BRANCH   1  13
ATOM     13  C   UNL     1     -14.133  31.007 -17.671  1.00  0.00     0.000 C 
BRANCH  13  14
ATOM     14  C   UNL     1     -14.692  31.446 -19.038  1.00  0.00     0.000 C 
BRANCH  14  15
ATOM     15  C   UNL     1     -15.741  32.575 -18.952  1.00  0.00     0.000 C 
BRANCH  15  16
ATOM     16  C   UNL     1     -15.723  33.501 -20.180  1.00  0.00     0.000 C 
BRANCH  16  17
ATOM     17  C   UNL     1     -16.298  34.898 -19.885  1.00  0.00     0.000 C 
BRANCH  17  18
ATOM     18  C   UNL     1     -17.398  35.336 -20.876  1.00  0.00     0.000 C 
BRANCH  18  19
ATOM     19  C   UNL     1     -18.719  34.588 -20.642  1.00  0.00     0.000 C 
BRANCH  19  20
ATOM     20  C   UNL     1     -19.917  35.418 -21.125  1.00  0.00     0.006 C 
BRANCH  20  21
ATOM     21  C   UNL     1     -21.084  35.388 -20.129  1.00  0.00     0.053 C 
BRANCH  21  22
ATOM     22  C   UNL     1     -20.734  34.633 -18.884  1.00  0.00     0.041 C 
ATOM     23  O   UNL     1     -21.115  33.441 -18.736  1.00  0.00    -0.550 OA
ATOM     24  O   UNL     1     -19.962  35.235 -17.899  1.00  0.00    -0.550 OA
ENDBRANCH  21  22
ENDBRANCH  20  21
ENDBRANCH  19  20
ENDBRANCH  18  19
ENDBRANCH  17  18
ENDBRANCH  16  17
ENDBRANCH  15  16
ENDBRANCH  14  15
ENDBRANCH  13  14
ENDBRANCH   1  13
TORSDOF 20
ENDMDL
MODEL 7
REMARK VINA RESULT:    12.323      0.942      1.862
REMARK INTER + INTRA:          26.424
REMARK INTER:                  26.559
REMARK INTRA:                  -0.134
REMARK UNBOUND:                -0.306
REMARK SMILES CCCCCCCCCCCCCCCCCCCCCC(=O)[O-]
REMARK SMILES IDX 12 1 11 2 10 3 9 4 8 5 7 6 6 7 5 8 4 9 3 10 2 11 1 12 13 13
REMARK SMILES IDX 14 14 15 15 16 16 17 17 18 18 19 19 20 20 21 21 22 22 23 23
REMARK SMILES IDX 24 24
REMARK H PARENT
REMARK Flexibility Score: inf
ROOT
ATOM      1  C   UNL     1     -14.209  29.976 -16.415  1.00  0.00     0.000 C 
ENDROOT
BRANCH   1   2
ATOM      2  C   UNL     1     -13.983  30.326 -17.901  1.00  0.00     0.000 C 
BRANCH   2   3
ATOM      3  C   UNL     1     -14.094  31.820 -18.251  1.00  0.00     0.000 C 
BRANCH   3   4
ATOM      4  C   UNL     1     -15.205  32.115 -19.272  1.00  0.00    -0.000 C 
BRANCH   4   5
ATOM      5  C   UNL     1     -15.627  33.595 -19.285  1.00  0.00    -0.000 C 
BRANCH   5   6
ATOM      6  C   UNL     1     -16.011  34.119 -20.686  1.00  0.00    -0.000 C 
BRANCH   6   7
ATOM      7  C   UNL     1     -17.138  35.166 -20.625  1.00  0.00    -0.000 C 
BRANCH   7   8
ATOM      8  C   UNL     1     -18.531  34.561 -20.875  1.00  0.00    -0.000 C 
BRANCH   8   9
ATOM      9  C   UNL     1     -19.684  35.580 -20.923  1.00  0.00    -0.000 C 
BRANCH   9  10
ATOM     10  C   UNL     1     -20.836  35.221 -19.968  1.00  0.00    -0.000 C 
BRANCH  10  11
ATOM     11  C   UNL     1     -20.560  35.657 -18.520  1.00  0.00    -0.003 C 
ATOM     12  C   UNL     1     -19.151  35.296 -18.049  1.00  0.00     0.004 C 
ENDBRANCH  10  11
ENDBRANCH   9  10
ENDBRANCH   8   9
ENDBRANCH   7   8
ENDBRANCH   6   7
ENDBRANCH   5   6
ENDBRANCH   4   5
ENDBRANCH   3   4
ENDBRANCH   2   3
ENDBRANCH   1   2
BRANCH   1  13
ATOM     13  C   UNL     1     -13.459  28.729 -15.912  1.00  0.00     0.000 C 
BRANCH  13  14
ATOM     14  C   UNL     1     -12.143  28.415 -16.649  1.00  0.00     0.000 C 
BRANCH  14  15
ATOM     15  C   UNL     1     -12.294  27.384 -17.788  1.00  0.00     0.000 C 
BRANCH  15  16
ATOM     16  C   UNL     1     -12.023  27.986 -19.177  1.00  0.00     0.000 C 
BRANCH  16  17
ATOM     17  C   UNL     1     -11.685  26.922 -20.236  1.00  0.00     0.000 C 
BRANCH  17  18
ATOM     18  C   UNL     1     -11.581  25.491 -19.664  1.00  0.00     0.000 C 
BRANCH  18  19
ATOM     19  C   UNL     1     -12.317  24.464 -20.536  1.00  0.00     0.000 C 
BRANCH  19  20
ATOM     20  C   UNL     1     -13.723  24.180 -19.986  1.00  0.00     0.006 C 
BRANCH  20  21
ATOM     21  C   UNL     1     -14.391  22.989 -20.686  1.00  0.00     0.053 C 
BRANCH  21  22
ATOM     22  C   UNL     1     -14.371  21.758 -19.833  1.00  0.00     0.041 C 
ATOM     23  O   UNL     1     -14.054  20.646 -20.332  1.00  0.00    -0.550 OA
ATOM     24  O   UNL     1     -14.672  21.845 -18.480  1.00  0.00    -0.550 OA
ENDBRANCH  21  22
ENDBRANCH  20  21
ENDBRANCH  19  20
ENDBRANCH  18  19
ENDBRANCH  17  18
ENDBRANCH  16  17
ENDBRANCH  15  16
ENDBRANCH  14  15
ENDBRANCH  13  14
ENDBRANCH   1  13
TORSDOF 20
ENDMDL
MODEL 8
REMARK VINA RESULT:    12.494      4.043     10.787
REMARK INTER + INTRA:          26.796
REMARK INTER:                  25.803
REMARK INTRA:                   0.994
REMARK UNBOUND:                -0.306
REMARK SMILES CCCCCCCCCCCCCCCCCCCCCC(=O)[O-]
REMARK SMILES IDX 12 1 11 2 10 3 9 4 8 5 7 6 6 7 5 8 4 9 3 10 2 11 1 12 13 13
REMARK SMILES IDX 14 14 15 15 16 16 17 17 18 18 19 19 20 20 21 21 22 22 23 23
REMARK SMILES IDX 24 24
REMARK H PARENT
REMARK Flexibility Score: inf
ROOT
ATOM      1  C   UNL     1     -13.740  29.584 -16.045  1.00  0.00     0.000 C 
ENDROOT
BRANCH   1   2
ATOM      2  C   UNL     1     -12.829  28.340 -15.968  1.00  0.00     0.000 C 
BRANCH   2   3
ATOM      3  C   UNL     1     -12.756  27.496 -17.252  1.00  0.00     0.000 C 
BRANCH   3   4
ATOM      4  C   UNL     1     -12.128  28.256 -18.433  1.00  0.00    -0.000 C 
BRANCH   4   5
ATOM      5  C   UNL     1     -11.736  27.330 -19.597  1.00  0.00    -0.000 C 
BRANCH   5   6
ATOM      6  C   UNL     1     -11.595  25.846 -19.191  1.00  0.00    -0.000 C 
BRANCH   6   7
ATOM      7  C   UNL     1     -11.994  24.892 -20.331  1.00  0.00    -0.000 C 
BRANCH   7   8
ATOM      8  C   UNL     1     -13.513  24.656 -20.411  1.00  0.00    -0.000 C 
BRANCH   8   9
ATOM      9  C   UNL     1     -13.931  23.227 -20.800  1.00  0.00    -0.000 C 
BRANCH   9  10
ATOM     10  C   UNL     1     -13.941  22.263 -19.600  1.00  0.00    -0.000 C 
BRANCH  10  11
ATOM     11  C   UNL     1     -14.339  20.832 -19.998  1.00  0.00    -0.003 C 
ATOM     12  C   UNL     1     -15.737  20.753 -20.609  1.00  0.00     0.004 C 
ENDBRANCH  10  11
ENDBRANCH   9  10
ENDBRANCH   8   9
ENDBRANCH   7   8
ENDBRANCH   6   7
ENDBRANCH   5   6
ENDBRANCH   4   5
ENDBRANCH   3   4
ENDBRANCH   2   3
ENDBRANCH   1   2
BRANCH   1  13
ATOM     13  C   UNL     1     -14.393  29.836 -17.416  1.00  0.00     0.000 C 
BRANCH  13  14
ATOM     14  C   UNL     1     -14.143  31.235 -18.012  1.00  0.00     0.000 C 
BRANCH  14  15
ATOM     15  C   UNL     1     -15.102  31.604 -19.165  1.00  0.00     0.000 C 
BRANCH  15  16
ATOM     16  C   UNL     1     -15.183  33.120 -19.410  1.00  0.00     0.000 C 
BRANCH  16  17
ATOM     17  C   UNL     1     -16.108  33.489 -20.583  1.00  0.00     0.000 C 
BRANCH  17  18
ATOM     18  C   UNL     1     -17.166  34.557 -20.226  1.00  0.00     0.000 C 
BRANCH  18  19
ATOM     19  C   UNL     1     -17.724  34.366 -18.808  1.00  0.00     0.000 C 
BRANCH  19  20
ATOM     20  C   UNL     1     -17.155  35.419 -17.845  1.00  0.00     0.006 C 
BRANCH  20  21
ATOM     21  C   UNL     1     -15.920  36.125 -18.420  1.00  0.00     0.053 C 
BRANCH  21  22
ATOM     22  C   UNL     1     -14.654  35.642 -17.781  1.00  0.00     0.041 C 
ATOM     23  O   UNL     1     -13.779  35.056 -18.472  1.00  0.00    -0.550 OA
ATOM     24  O   UNL     1     -14.428  35.866 -16.430  1.00  0.00    -0.550 OA
ENDBRANCH  21  22
ENDBRANCH  20  21
ENDBRANCH  19  20
ENDBRANCH  18  19
ENDBRANCH  17  18
ENDBRANCH  16  17
ENDBRANCH  15  16
ENDBRANCH  14  15
ENDBRANCH  13  14
ENDBRANCH   1  13
TORSDOF 20
ENDMDL
MODEL 9
REMARK VINA RESULT:    13.251      1.067      2.005
REMARK INTER + INTRA:          28.438
REMARK INTER:                  28.033
REMARK INTRA:                   0.405
REMARK UNBOUND:                -0.306
REMARK SMILES CCCCCCCCCCCCCCCCCCCCCC(=O)[O-]
REMARK SMILES IDX 12 1 11 2 10 3 9 4 8 5 7 6 6 7 5 8 4 9 3 10 2 11 1 12 13 13
REMARK SMILES IDX 14 14 15 15 16 16 17 17 18 18 19 19 20 20 21 21 22 22 23 23
REMARK SMILES IDX 24 24
REMARK H PARENT
REMARK Flexibility Score: inf
ROOT
ATOM      1  C   UNL     1     -14.558  31.045 -19.139  1.00  0.00     0.000 C 
ENDROOT
BRANCH   1   2
ATOM      2  C   UNL     1     -14.633  32.497 -19.657  1.00  0.00     0.000 C 
BRANCH   2   3
ATOM      3  C   UNL     1     -15.644  33.403 -18.934  1.00  0.00     0.000 C 
BRANCH   3   4
ATOM      4  C   UNL     1     -14.971  34.519 -18.118  1.00  0.00    -0.000 C 
BRANCH   4   5
ATOM      5  C   UNL     1     -15.411  35.928 -18.556  1.00  0.00    -0.000 C 
BRANCH   5   6
ATOM      6  C   UNL     1     -16.936  36.067 -18.757  1.00  0.00    -0.000 C 
BRANCH   6   7
ATOM      7  C   UNL     1     -17.718  35.811 -17.457  1.00  0.00    -0.000 C 
BRANCH   7   8
ATOM      8  C   UNL     1     -19.186  35.423 -17.706  1.00  0.00    -0.000 C 
BRANCH   8   9
ATOM      9  C   UNL     1     -19.791  35.970 -19.011  1.00  0.00    -0.000 C 
BRANCH   9  10
ATOM     10  C   UNL     1     -18.806  35.915 -20.193  1.00  0.00    -0.000 C 
BRANCH  10  11
ATOM     11  C   UNL     1     -18.972  34.643 -21.040  1.00  0.00    -0.003 C 
ATOM     12  C   UNL     1     -20.423  34.170 -21.125  1.00  0.00     0.004 C 
ENDBRANCH  10  11
ENDBRANCH   9  10
ENDBRANCH   8   9
ENDBRANCH   7   8
ENDBRANCH   6   7
ENDBRANCH   5   6
ENDBRANCH   4   5
ENDBRANCH   3   4
ENDBRANCH   2   3
ENDBRANCH   1   2
BRANCH   1  13
ATOM     13  C   UNL     1     -14.265  30.898 -17.635  1.00  0.00     0.000 C 
BRANCH  13  14
ATOM     14  C   UNL     1     -14.631  29.530 -17.027  1.00  0.00     0.000 C 
BRANCH  14  15
ATOM     15  C   UNL     1     -13.498  28.892 -16.194  1.00  0.00     0.000 C 
BRANCH  15  16
ATOM     16  C   UNL     1     -12.700  27.840 -16.981  1.00  0.00     0.000 C 
BRANCH  16  17
ATOM     17  C   UNL     1     -11.905  28.444 -18.153  1.00  0.00     0.000 C 
BRANCH  17  18
ATOM     18  C   UNL     1     -12.472  28.074 -19.541  1.00  0.00     0.000 C 
BRANCH  18  19
ATOM     19  C   UNL     1     -11.768  26.851 -20.147  1.00  0.00     0.000 C 
BRANCH  19  20
ATOM     20  C   UNL     1     -12.194  25.559 -19.435  1.00  0.00     0.006 C 
BRANCH  20  21
ATOM     21  C   UNL     1     -12.727  24.505 -20.413  1.00  0.00     0.053 C 
BRANCH  21  22
ATOM     22  C   UNL     1     -13.890  23.752 -19.843  1.00  0.00     0.041 C 
ATOM     23  O   UNL     1     -14.017  22.519 -20.062  1.00  0.00    -0.550 OA
ATOM     24  O   UNL     1     -14.818  24.408 -19.044  1.00  0.00    -0.550 OA
ENDBRANCH  21  22
ENDBRANCH  20  21
ENDBRANCH  19  20
ENDBRANCH  18  19
ENDBRANCH  17  18
ENDBRANCH  16  17
ENDBRANCH  15  16
ENDBRANCH  14  15
ENDBRANCH  13  14
ENDBRANCH   1  13
TORSDOF 20
ENDMDL
