MODEL 1
REMARK VINA RESULT:    -6.564      0.000      0.000
REMARK INTER + INTRA:          -8.479
REMARK INTER:                  -8.099
REMARK INTRA:                  -0.380
REMARK UNBOUND:                -0.380
REMARK SMILES Oc1cc(O)c2cc(O)c(-c3cc(O)c(O)c(O)c3)[o+]c2c1
REMARK SMILES IDX 10 1 20 2 21 3 22 4 2 5 3 6 4 7 6 8 7 9 8 10 11 11 12 12
REMARK SMILES IDX 13 13 19 14 15 15 17 16 14 17 16 19 18 21 9 23 1 25 5 27
REMARK H PARENT 14 18 16 20 18 22 9 24 1 26 5 28
REMARK Flexibility Score: inf
ROOT
ATOM      1  C   UNL     1     -22.062   7.524 -11.860  1.00  0.00     0.402 A 
ATOM      2  O   UNL     1     -22.733   6.474 -11.395  1.00  0.00    -0.202 OA
ATOM      3  C   UNL     1     -23.307   5.569 -12.181  1.00  0.00     0.368 A 
ATOM      4  C   UNL     1     -23.994   4.499 -11.599  1.00  0.00     0.162 A 
ATOM      5  C   UNL     1     -24.609   3.537 -12.399  1.00  0.00     0.128 A 
ATOM      6  C   UNL     1     -24.539   3.641 -13.793  1.00  0.00     0.093 A 
ATOM      7  C   UNL     1     -23.857   4.703 -14.401  1.00  0.00     0.136 A 
ATOM      8  C   UNL     1     -23.228   5.682 -13.590  1.00  0.00     0.125 A 
ATOM      9  C   UNL     1     -22.512   6.773 -14.111  1.00  0.00     0.078 A 
ATOM     10  C   UNL     1     -21.914   7.696 -13.248  1.00  0.00     0.223 A 
ENDROOT
BRANCH   1  11
ATOM     11  C   UNL     1     -21.475   8.469 -10.882  1.00  0.00     0.091 A 
ATOM     12  C   UNL     1     -22.217   9.547 -10.370  1.00  0.00     0.068 A 
ATOM     13  C   UNL     1     -21.651  10.417  -9.428  1.00  0.00     0.162 A 
ATOM     14  C   UNL     1     -20.171   8.253 -10.411  1.00  0.00     0.068 A 
ATOM     15  C   UNL     1     -20.336  10.206  -8.979  1.00  0.00     0.200 A 
ATOM     16  C   UNL     1     -19.598   9.117  -9.473  1.00  0.00     0.162 A 
BRANCH  13  17
ATOM     17  O   UNL     1     -22.394  11.487  -8.931  1.00  0.00    -0.504 OA
ATOM     18  H   UNL     1     -23.223  11.342  -8.366  1.00  0.00     0.293 HD
ENDBRANCH  13  17
BRANCH  15  19
ATOM     19  O   UNL     1     -19.755  11.066  -8.045  1.00  0.00    -0.502 OA
ATOM     20  H   UNL     1     -20.310  11.648  -7.430  1.00  0.00     0.293 HD
ENDBRANCH  15  19
BRANCH  16  21
ATOM     21  O   UNL     1     -18.293   8.876  -9.042  1.00  0.00    -0.504 OA
ATOM     22  H   UNL     1     -17.492   9.318  -9.478  1.00  0.00     0.293 HD
ENDBRANCH  16  21
ENDBRANCH   1  11
BRANCH  10  23
ATOM     23  O   UNL     1     -21.161   8.751 -13.764  1.00  0.00    -0.500 OA
ATOM     24  H   UNL     1     -20.151   8.701 -13.831  1.00  0.00     0.294 HD
ENDBRANCH  10  23
BRANCH   5  25
ATOM     25  O   UNL     1     -25.289   2.478 -11.800  1.00  0.00    -0.507 OA
ATOM     26  H   UNL     1     -25.209   2.290 -10.808  1.00  0.00     0.293 HD
ENDBRANCH   5  25
BRANCH   7  27
ATOM     27  O   UNL     1     -23.836   4.737 -15.798  1.00  0.00    -0.507 OA
ATOM     28  H   UNL     1     -23.107   5.171 -16.347  1.00  0.00     0.293 HD
ENDBRANCH   7  27
TORSDOF 7
ENDMDL
MODEL 2
REMARK VINA RESULT:    -6.499      1.266      7.105
REMARK INTER + INTRA:          -8.399
REMARK INTER:                  -8.226
REMARK INTRA:                  -0.173
REMARK UNBOUND:                -0.380
REMARK SMILES Oc1cc(O)c2cc(O)c(-c3cc(O)c(O)c(O)c3)[o+]c2c1
REMARK SMILES IDX 10 1 20 2 21 3 22 4 2 5 3 6 4 7 6 8 7 9 8 10 11 11 12 12
REMARK SMILES IDX 13 13 19 14 15 15 17 16 14 17 16 19 18 21 9 23 1 25 5 27
REMARK H PARENT 14 18 16 20 18 22 9 24 1 26 5 28
REMARK Flexibility Score: inf
ROOT
ATOM      1  C   UNL     1     -22.070   7.324 -11.673  1.00  0.00     0.402 A 
ATOM      2  O   UNL     1     -22.692   8.284 -10.995  1.00  0.00    -0.202 OA
ATOM      3  C   UNL     1     -22.052   9.264 -10.364  1.00  0.00     0.368 A 
ATOM      4  C   UNL     1     -22.794  10.228  -9.675  1.00  0.00     0.162 A 
ATOM      5  C   UNL     1     -22.149  11.265  -9.001  1.00  0.00     0.128 A 
ATOM      6  C   UNL     1     -20.751  11.342  -9.015  1.00  0.00     0.093 A 
ATOM      7  C   UNL     1     -19.986  10.389  -9.697  1.00  0.00     0.136 A 
ATOM      8  C   UNL     1     -20.638   9.334 -10.386  1.00  0.00     0.125 A 
ATOM      9  C   UNL     1     -19.953   8.342 -11.107  1.00  0.00     0.078 A 
ATOM     10  C   UNL     1     -20.666   7.336 -11.765  1.00  0.00     0.223 A 
ENDROOT
BRANCH   1  11
ATOM     11  C   UNL     1     -22.894   6.281 -12.326  1.00  0.00     0.091 A 
ATOM     12  C   UNL     1     -22.862   6.088 -13.717  1.00  0.00     0.068 A 
ATOM     13  C   UNL     1     -23.632   5.080 -14.315  1.00  0.00     0.162 A 
ATOM     14  C   UNL     1     -23.680   5.428 -11.536  1.00  0.00     0.068 A 
ATOM     15  C   UNL     1     -24.434   4.245 -13.518  1.00  0.00     0.200 A 
ATOM     16  C   UNL     1     -24.452   4.422 -12.124  1.00  0.00     0.162 A 
BRANCH  13  17
ATOM     17  O   UNL     1     -23.597   4.902 -15.696  1.00  0.00    -0.504 OA
ATOM     18  H   UNL     1     -22.845   4.394 -16.149  1.00  0.00     0.293 HD
ENDBRANCH  13  17
BRANCH  15  19
ATOM     19  O   UNL     1     -25.211   3.241 -14.097  1.00  0.00    -0.502 OA
ATOM     20  H   UNL     1     -26.077   2.922 -13.681  1.00  0.00     0.293 HD
ENDBRANCH  15  19
BRANCH  16  21
ATOM     21  O   UNL     1     -25.232   3.605 -11.305  1.00  0.00    -0.504 OA
ATOM     22  H   UNL     1     -24.927   2.683 -11.014  1.00  0.00     0.293 HD
ENDBRANCH  16  21
ENDBRANCH   1  11
BRANCH  10  23
ATOM     23  O   UNL     1     -19.989   6.380 -12.523  1.00  0.00    -0.500 OA
ATOM     24  H   UNL     1     -20.466   5.576 -12.916  1.00  0.00     0.294 HD
ENDBRANCH  10  23
BRANCH   5  25
ATOM     25  O   UNL     1     -22.906  12.216  -8.320  1.00  0.00    -0.507 OA
ATOM     26  H   UNL     1     -23.687  12.688  -8.761  1.00  0.00     0.293 HD
ENDBRANCH   5  25
BRANCH   7  27
ATOM     27  O   UNL     1     -18.596  10.534  -9.659  1.00  0.00    -0.507 OA
ATOM     28  H   UNL     1     -17.972  10.243 -10.398  1.00  0.00     0.293 HD
ENDBRANCH   7  27
TORSDOF 7
ENDMDL
MODEL 3
REMARK VINA RESULT:    -6.465      0.145      1.799
REMARK INTER + INTRA:          -8.357
REMARK INTER:                  -7.981
REMARK INTRA:                  -0.376
REMARK UNBOUND:                -0.380
REMARK SMILES Oc1cc(O)c2cc(O)c(-c3cc(O)c(O)c(O)c3)[o+]c2c1
REMARK SMILES IDX 10 1 20 2 21 3 22 4 2 5 3 6 4 7 6 8 7 9 8 10 11 11 12 12
REMARK SMILES IDX 13 13 19 14 15 15 17 16 14 17 16 19 18 21 9 23 1 25 5 27
REMARK H PARENT 14 18 16 20 18 22 9 24 1 26 5 28
REMARK Flexibility Score: inf
ROOT
ATOM      1  C   UNL     1     -21.989   7.395 -11.835  1.00  0.00     0.402 A 
ATOM      2  O   UNL     1     -22.722   6.373 -11.402  1.00  0.00    -0.202 OA
ATOM      3  C   UNL     1     -23.305   5.497 -12.214  1.00  0.00     0.368 A 
ATOM      4  C   UNL     1     -24.059   4.457 -11.664  1.00  0.00     0.162 A 
ATOM      5  C   UNL     1     -24.685   3.526 -12.493  1.00  0.00     0.128 A 
ATOM      6  C   UNL     1     -24.557   3.633 -13.883  1.00  0.00     0.093 A 
ATOM      7  C   UNL     1     -23.808   4.666 -14.459  1.00  0.00     0.136 A 
ATOM      8  C   UNL     1     -23.168   5.614 -13.619  1.00  0.00     0.125 A 
ATOM      9  C   UNL     1     -22.386   6.674 -14.106  1.00  0.00     0.078 A 
ATOM     10  C   UNL     1     -21.781   7.566 -13.216  1.00  0.00     0.223 A 
ENDROOT
BRANCH   1  11
ATOM     11  C   UNL     1     -21.398   8.309 -10.830  1.00  0.00     0.091 A 
ATOM     12  C   UNL     1     -20.098   8.111 -10.336  1.00  0.00     0.068 A 
ATOM     13  C   UNL     1     -19.547   9.000  -9.402  1.00  0.00     0.162 A 
ATOM     14  C   UNL     1     -22.128   9.429 -10.403  1.00  0.00     0.068 A 
ATOM     15  C   UNL     1     -20.294  10.107  -8.963  1.00  0.00     0.200 A 
ATOM     16  C   UNL     1     -21.587  10.320  -9.471  1.00  0.00     0.162 A 
BRANCH  13  17
ATOM     17  O   UNL     1     -18.259   8.791  -8.914  1.00  0.00    -0.504 OA
ATOM     18  H   UNL     1     -17.478   9.365  -9.211  1.00  0.00     0.293 HD
ENDBRANCH  13  17
BRANCH  15  19
ATOM     19  O   UNL     1     -19.764  10.999  -8.030  1.00  0.00    -0.502 OA
ATOM     20  H   UNL     1     -19.555  11.962  -8.263  1.00  0.00     0.293 HD
ENDBRANCH  15  19
BRANCH  16  21
ATOM     21  O   UNL     1     -22.351  11.413  -9.061  1.00  0.00    -0.504 OA
ATOM     22  H   UNL     1     -22.678  12.117  -9.713  1.00  0.00     0.293 HD
ENDBRANCH  16  21
ENDBRANCH   1  11
BRANCH  10  23
ATOM     23  O   UNL     1     -20.964   8.589 -13.697  1.00  0.00    -0.500 OA
ATOM     24  H   UNL     1     -21.164   9.565 -13.506  1.00  0.00     0.294 HD
ENDBRANCH  10  23
BRANCH   5  25
ATOM     25  O   UNL     1     -25.432   2.495 -11.926  1.00  0.00    -0.507 OA
ATOM     26  H   UNL     1     -25.927   1.821 -12.499  1.00  0.00     0.293 HD
ENDBRANCH   5  25
BRANCH   7  27
ATOM     27  O   UNL     1     -23.733   4.705 -15.853  1.00  0.00    -0.507 OA
ATOM     28  H   UNL     1     -23.470   5.522 -16.388  1.00  0.00     0.293 HD
ENDBRANCH   7  27
TORSDOF 7
ENDMDL
MODEL 4
REMARK VINA RESULT:    -6.227      1.216      7.139
REMARK INTER + INTRA:          -8.063
REMARK INTER:                  -7.684
REMARK INTRA:                  -0.379
REMARK UNBOUND:                -0.380
REMARK SMILES Oc1cc(O)c2cc(O)c(-c3cc(O)c(O)c(O)c3)[o+]c2c1
REMARK SMILES IDX 10 1 20 2 21 3 22 4 2 5 3 6 4 7 6 8 7 9 8 10 11 11 12 12
REMARK SMILES IDX 13 13 19 14 15 15 17 16 14 17 16 19 18 21 9 23 1 25 5 27
REMARK H PARENT 14 18 16 20 18 22 9 24 1 26 5 28
REMARK Flexibility Score: inf
ROOT
ATOM      1  C   UNL     1     -22.558   6.968 -11.470  1.00  0.00     0.402 A 
ATOM      2  O   UNL     1     -21.282   6.796 -11.136  1.00  0.00    -0.202 OA
ATOM      3  C   UNL     1     -20.555   7.728 -10.528  1.00  0.00     0.368 A 
ATOM      4  C   UNL     1     -19.219   7.455 -10.219  1.00  0.00     0.162 A 
ATOM      5  C   UNL     1     -18.432   8.416  -9.585  1.00  0.00     0.128 A 
ATOM      6  C   UNL     1     -18.981   9.661  -9.255  1.00  0.00     0.093 A 
ATOM      7  C   UNL     1     -20.316   9.959  -9.554  1.00  0.00     0.136 A 
ATOM      8  C   UNL     1     -21.121   8.984 -10.197  1.00  0.00     0.125 A 
ATOM      9  C   UNL     1     -22.471   9.189 -10.524  1.00  0.00     0.078 A 
ATOM     10  C   UNL     1     -23.203   8.178 -11.153  1.00  0.00     0.223 A 
ENDROOT
BRANCH   1  11
ATOM     11  C   UNL     1     -23.259   5.857 -12.153  1.00  0.00     0.091 A 
ATOM     12  C   UNL     1     -23.974   4.888 -11.429  1.00  0.00     0.068 A 
ATOM     13  C   UNL     1     -24.651   3.856 -12.094  1.00  0.00     0.162 A 
ATOM     14  C   UNL     1     -23.260   5.799 -13.555  1.00  0.00     0.068 A 
ATOM     15  C   UNL     1     -24.627   3.794 -13.498  1.00  0.00     0.200 A 
ATOM     16  C   UNL     1     -23.930   4.773 -14.227  1.00  0.00     0.162 A 
BRANCH  13  17
ATOM     17  O   UNL     1     -25.351   2.897 -11.366  1.00  0.00    -0.504 OA
ATOM     18  H   UNL     1     -26.266   3.090 -10.974  1.00  0.00     0.293 HD
ENDBRANCH  13  17
BRANCH  15  19
ATOM     19  O   UNL     1     -25.290   2.771 -14.177  1.00  0.00    -0.502 OA
ATOM     20  H   UNL     1     -25.885   2.951 -14.977  1.00  0.00     0.293 HD
ENDBRANCH  15  19
BRANCH  16  21
ATOM     21  O   UNL     1     -23.894   4.743 -15.621  1.00  0.00    -0.504 OA
ATOM     22  H   UNL     1     -24.415   4.061 -16.160  1.00  0.00     0.293 HD
ENDBRANCH  16  21
ENDBRANCH   1  11
BRANCH  10  23
ATOM     23  O   UNL     1     -24.557   8.363 -11.432  1.00  0.00    -0.500 OA
ATOM     24  H   UNL     1     -25.213   8.659 -10.716  1.00  0.00     0.294 HD
ENDBRANCH  10  23
BRANCH   5  25
ATOM     25  O   UNL     1     -17.103   8.125  -9.285  1.00  0.00    -0.507 OA
ATOM     26  H   UNL     1     -16.545   8.735  -8.699  1.00  0.00     0.293 HD
ENDBRANCH   5  25
BRANCH   7  27
ATOM     27  O   UNL     1     -20.787  11.225  -9.197  1.00  0.00    -0.507 OA
ATOM     28  H   UNL     1     -21.014  11.503  -8.252  1.00  0.00     0.293 HD
ENDBRANCH   7  27
TORSDOF 7
ENDMDL
MODEL 5
REMARK VINA RESULT:    -6.172      1.196      7.152
REMARK INTER + INTRA:          -7.996
REMARK INTER:                  -7.615
REMARK INTRA:                  -0.380
REMARK UNBOUND:                -0.380
REMARK SMILES Oc1cc(O)c2cc(O)c(-c3cc(O)c(O)c(O)c3)[o+]c2c1
REMARK SMILES IDX 10 1 20 2 21 3 22 4 2 5 3 6 4 7 6 8 7 9 8 10 11 11 12 12
REMARK SMILES IDX 13 13 19 14 15 15 17 16 14 17 16 19 18 21 9 23 1 25 5 27
REMARK H PARENT 14 18 16 20 18 22 9 24 1 26 5 28
REMARK Flexibility Score: inf
ROOT
ATOM      1  C   UNL     1     -22.582   6.952 -11.590  1.00  0.00     0.402 A 
ATOM      2  O   UNL     1     -21.310   6.759 -11.256  1.00  0.00    -0.202 OA
ATOM      3  C   UNL     1     -20.576   7.669 -10.622  1.00  0.00     0.368 A 
ATOM      4  C   UNL     1     -19.244   7.375 -10.315  1.00  0.00     0.162 A 
ATOM      5  C   UNL     1     -18.450   8.312  -9.655  1.00  0.00     0.128 A 
ATOM      6  C   UNL     1     -18.988   9.553  -9.296  1.00  0.00     0.093 A 
ATOM      7  C   UNL     1     -20.319   9.872  -9.592  1.00  0.00     0.136 A 
ATOM      8  C   UNL     1     -21.131   8.921 -10.262  1.00  0.00     0.125 A 
ATOM      9  C   UNL     1     -22.478   9.148 -10.588  1.00  0.00     0.078 A 
ATOM     10  C   UNL     1     -23.217   8.160 -11.245  1.00  0.00     0.223 A 
ENDROOT
BRANCH   1  11
ATOM     11  C   UNL     1     -23.292   5.865 -12.303  1.00  0.00     0.091 A 
ATOM     12  C   UNL     1     -23.254   5.763 -13.704  1.00  0.00     0.068 A 
ATOM     13  C   UNL     1     -23.914   4.713 -14.360  1.00  0.00     0.162 A 
ATOM     14  C   UNL     1     -23.969   4.882 -11.565  1.00  0.00     0.068 A 
ATOM     15  C   UNL     1     -24.608   3.746 -13.613  1.00  0.00     0.200 A 
ATOM     16  C   UNL     1     -24.630   3.833 -12.211  1.00  0.00     0.162 A 
BRANCH  13  17
ATOM     17  O   UNL     1     -23.875   4.625 -15.750  1.00  0.00    -0.504 OA
ATOM     18  H   UNL     1     -23.565   5.401 -16.324  1.00  0.00     0.293 HD
ENDBRANCH  13  17
BRANCH  15  19
ATOM     19  O   UNL     1     -25.274   2.698 -14.250  1.00  0.00    -0.502 OA
ATOM     20  H   UNL     1     -24.904   1.756 -14.269  1.00  0.00     0.293 HD
ENDBRANCH  15  19
BRANCH  16  21
ATOM     21  O   UNL     1     -25.304   2.885 -11.441  1.00  0.00    -0.504 OA
ATOM     22  H   UNL     1     -25.350   1.909 -11.707  1.00  0.00     0.293 HD
ENDBRANCH  16  21
ENDBRANCH   1  11
BRANCH  10  23
ATOM     23  O   UNL     1     -24.568   8.365 -11.524  1.00  0.00    -0.500 OA
ATOM     24  H   UNL     1     -25.129   9.020 -10.990  1.00  0.00     0.294 HD
ENDBRANCH  10  23
BRANCH   5  25
ATOM     25  O   UNL     1     -17.125   8.000  -9.357  1.00  0.00    -0.507 OA
ATOM     26  H   UNL     1     -16.393   8.699  -9.400  1.00  0.00     0.293 HD
ENDBRANCH   5  25
BRANCH   7  27
ATOM     27  O   UNL     1     -20.779  11.133  -9.205  1.00  0.00    -0.507 OA
ATOM     28  H   UNL     1     -20.832  11.935  -9.818  1.00  0.00     0.293 HD
ENDBRANCH   7  27
TORSDOF 7
ENDMDL
MODEL 6
REMARK VINA RESULT:    -6.014      1.713      3.059
REMARK INTER + INTRA:          -7.801
REMARK INTER:                  -7.718
REMARK INTRA:                  -0.083
REMARK UNBOUND:                -0.380
REMARK SMILES Oc1cc(O)c2cc(O)c(-c3cc(O)c(O)c(O)c3)[o+]c2c1
REMARK SMILES IDX 10 1 20 2 21 3 22 4 2 5 3 6 4 7 6 8 7 9 8 10 11 11 12 12
REMARK SMILES IDX 13 13 19 14 15 15 17 16 14 17 16 19 18 21 9 23 1 25 5 27
REMARK H PARENT 14 18 16 20 18 22 9 24 1 26 5 28
REMARK Flexibility Score: inf
ROOT
ATOM      1  C   UNL     1     -22.840   8.505 -10.208  1.00  0.00     0.402 A 
ATOM      2  O   UNL     1     -22.624   8.186 -11.481  1.00  0.00    -0.202 OA
ATOM      3  C   UNL     1     -23.141   7.108 -12.060  1.00  0.00     0.368 A 
ATOM      4  C   UNL     1     -22.854   6.854 -13.405  1.00  0.00     0.162 A 
ATOM      5  C   UNL     1     -23.380   5.728 -14.038  1.00  0.00     0.128 A 
ATOM      6  C   UNL     1     -24.200   4.846 -13.324  1.00  0.00     0.093 A 
ATOM      7  C   UNL     1     -24.502   5.077 -11.976  1.00  0.00     0.136 A 
ATOM      8  C   UNL     1     -23.971   6.223 -11.329  1.00  0.00     0.125 A 
ATOM      9  C   UNL     1     -24.230   6.542  -9.986  1.00  0.00     0.078 A 
ATOM     10  C   UNL     1     -23.675   7.692  -9.419  1.00  0.00     0.223 A 
ENDROOT
BRANCH   1  11
ATOM     11  C   UNL     1     -22.200   9.729  -9.674  1.00  0.00     0.091 A 
ATOM     12  C   UNL     1     -22.951  10.726  -9.028  1.00  0.00     0.068 A 
ATOM     13  C   UNL     1     -22.323  11.867  -8.509  1.00  0.00     0.162 A 
ATOM     14  C   UNL     1     -20.807   9.874  -9.762  1.00  0.00     0.068 A 
ATOM     15  C   UNL     1     -20.930  12.014  -8.622  1.00  0.00     0.200 A 
ATOM     16  C   UNL     1     -20.173  11.009  -9.249  1.00  0.00     0.162 A 
BRANCH  13  17
ATOM     17  O   UNL     1     -23.078  12.852  -7.875  1.00  0.00    -0.504 OA
ATOM     18  H   UNL     1     -22.960  13.062  -6.891  1.00  0.00     0.293 HD
ENDBRANCH  13  17
BRANCH  15  19
ATOM     19  O   UNL     1     -20.290  13.146  -8.116  1.00  0.00    -0.502 OA
ATOM     20  H   UNL     1     -19.303  13.317  -8.260  1.00  0.00     0.293 HD
ENDBRANCH  15  19
BRANCH  16  21
ATOM     21  O   UNL     1     -18.788  11.122  -9.371  1.00  0.00    -0.504 OA
ATOM     22  H   UNL     1     -18.153  10.746  -8.676  1.00  0.00     0.293 HD
ENDBRANCH  16  21
ENDBRANCH   1  11
BRANCH  10  23
ATOM     23  O   UNL     1     -23.972   8.036  -8.100  1.00  0.00    -0.500 OA
ATOM     24  H   UNL     1     -23.757   8.954  -7.727  1.00  0.00     0.294 HD
ENDBRANCH  10  23
BRANCH   5  25
ATOM     25  O   UNL     1     -23.084   5.493 -15.379  1.00  0.00    -0.507 OA
ATOM     26  H   UNL     1     -23.505   4.725 -15.889  1.00  0.00     0.293 HD
ENDBRANCH   5  25
BRANCH   7  27
ATOM     27  O   UNL     1     -25.324   4.148 -11.333  1.00  0.00    -0.507 OA
ATOM     28  H   UNL     1     -26.300   4.299 -11.124  1.00  0.00     0.293 HD
ENDBRANCH   7  27
TORSDOF 7
ENDMDL
MODEL 7
REMARK VINA RESULT:    -5.947      1.713      3.526
REMARK INTER + INTRA:          -7.719
REMARK INTER:                  -7.644
REMARK INTRA:                  -0.075
REMARK UNBOUND:                -0.380
REMARK SMILES Oc1cc(O)c2cc(O)c(-c3cc(O)c(O)c(O)c3)[o+]c2c1
REMARK SMILES IDX 10 1 20 2 21 3 22 4 2 5 3 6 4 7 6 8 7 9 8 10 11 11 12 12
REMARK SMILES IDX 13 13 19 14 15 15 17 16 14 17 16 19 18 21 9 23 1 25 5 27
REMARK H PARENT 14 18 16 20 18 22 9 24 1 26 5 28
REMARK Flexibility Score: inf
ROOT
ATOM      1  C   UNL     1     -22.722   8.535 -10.185  1.00  0.00     0.402 A 
ATOM      2  O   UNL     1     -22.524   8.234 -11.466  1.00  0.00    -0.202 OA
ATOM      3  C   UNL     1     -23.076   7.182 -12.061  1.00  0.00     0.368 A 
ATOM      4  C   UNL     1     -22.806   6.945 -13.412  1.00  0.00     0.162 A 
ATOM      5  C   UNL     1     -23.369   5.847 -14.062  1.00  0.00     0.128 A 
ATOM      6  C   UNL     1     -24.210   4.977 -13.359  1.00  0.00     0.093 A 
ATOM      7  C   UNL     1     -24.496   5.191 -12.006  1.00  0.00     0.136 A 
ATOM      8  C   UNL     1     -23.927   6.308 -11.341  1.00  0.00     0.125 A 
ATOM      9  C   UNL     1     -24.168   6.610  -9.991  1.00  0.00     0.078 A 
ATOM     10  C   UNL     1     -23.576   7.732  -9.406  1.00  0.00     0.223 A 
ENDROOT
BRANCH   1  11
ATOM     11  C   UNL     1     -22.042   9.729  -9.633  1.00  0.00     0.091 A 
ATOM     12  C   UNL     1     -20.656   9.910  -9.769  1.00  0.00     0.068 A 
ATOM     13  C   UNL     1     -20.033  11.058  -9.260  1.00  0.00     0.162 A 
ATOM     14  C   UNL     1     -22.804  10.731  -9.012  1.00  0.00     0.068 A 
ATOM     15  C   UNL     1     -20.801  12.046  -8.618  1.00  0.00     0.200 A 
ATOM     16  C   UNL     1     -22.191  11.878  -8.499  1.00  0.00     0.162 A 
BRANCH  13  17
ATOM     17  O   UNL     1     -18.657  11.224  -9.394  1.00  0.00    -0.504 OA
ATOM     18  H   UNL     1     -18.226  12.142  -9.373  1.00  0.00     0.293 HD
ENDBRANCH  13  17
BRANCH  15  19
ATOM     19  O   UNL     1     -20.197  13.193  -8.101  1.00  0.00    -0.502 OA
ATOM     20  H   UNL     1     -19.630  13.808  -8.671  1.00  0.00     0.293 HD
ENDBRANCH  15  19
BRANCH  16  21
ATOM     21  O   UNL     1     -22.982  12.843  -7.875  1.00  0.00    -0.504 OA
ATOM     22  H   UNL     1     -22.832  13.836  -8.014  1.00  0.00     0.293 HD
ENDBRANCH  16  21
ENDBRANCH   1  11
BRANCH  10  23
ATOM     23  O   UNL     1     -23.855   8.060  -8.079  1.00  0.00    -0.500 OA
ATOM     24  H   UNL     1     -24.062   7.348  -7.387  1.00  0.00     0.294 HD
ENDBRANCH  10  23
BRANCH   5  25
ATOM     25  O   UNL     1     -23.088   5.628 -15.409  1.00  0.00    -0.507 OA
ATOM     26  H   UNL     1     -23.235   6.349 -16.106  1.00  0.00     0.293 HD
ENDBRANCH   5  25
BRANCH   7  27
ATOM     27  O   UNL     1     -25.341   4.275 -11.374  1.00  0.00    -0.507 OA
ATOM     28  H   UNL     1     -25.022   3.498 -10.812  1.00  0.00     0.293 HD
ENDBRANCH   7  27
TORSDOF 7
ENDMDL
MODEL 8
REMARK VINA RESULT:    -5.481      1.860      7.074
REMARK INTER + INTRA:          -7.143
REMARK INTER:                  -7.078
REMARK INTRA:                  -0.065
REMARK UNBOUND:                -0.380
REMARK SMILES Oc1cc(O)c2cc(O)c(-c3cc(O)c(O)c(O)c3)[o+]c2c1
REMARK SMILES IDX 10 1 20 2 21 3 22 4 2 5 3 6 4 7 6 8 7 9 8 10 11 11 12 12
REMARK SMILES IDX 13 13 19 14 15 15 17 16 14 17 16 19 18 21 9 23 1 25 5 27
REMARK H PARENT 14 18 16 20 18 22 9 24 1 26 5 28
REMARK Flexibility Score: inf
ROOT
ATOM      1  C   UNL     1     -22.267   6.507 -11.309  1.00  0.00     0.402 A 
ATOM      2  O   UNL     1     -21.278   6.739 -12.168  1.00  0.00    -0.202 OA
ATOM      3  C   UNL     1     -20.444   7.768 -12.060  1.00  0.00     0.368 A 
ATOM      4  C   UNL     1     -19.436   7.930 -13.015  1.00  0.00     0.162 A 
ATOM      5  C   UNL     1     -18.549   9.003 -12.928  1.00  0.00     0.128 A 
ATOM      6  C   UNL     1     -18.667   9.922 -11.879  1.00  0.00     0.093 A 
ATOM      7  C   UNL     1     -19.668   9.782 -10.910  1.00  0.00     0.136 A 
ATOM      8  C   UNL     1     -20.571   8.691 -10.993  1.00  0.00     0.125 A 
ATOM      9  C   UNL     1     -21.596   8.463 -10.061  1.00  0.00     0.078 A 
ATOM     10  C   UNL     1     -22.445   7.362 -10.206  1.00  0.00     0.223 A 
ENDROOT
BRANCH   1  11
ATOM     11  C   UNL     1     -23.136   5.331 -11.543  1.00  0.00     0.091 A 
ATOM     12  C   UNL     1     -23.751   5.111 -12.787  1.00  0.00     0.068 A 
ATOM     13  C   UNL     1     -24.553   3.980 -12.996  1.00  0.00     0.162 A 
ATOM     14  C   UNL     1     -23.306   4.384 -10.521  1.00  0.00     0.068 A 
ATOM     15  C   UNL     1     -24.735   3.049 -11.959  1.00  0.00     0.200 A 
ATOM     16  C   UNL     1     -24.105   3.254 -10.720  1.00  0.00     0.162 A 
BRANCH  13  17
ATOM     17  O   UNL     1     -25.163   3.776 -14.232  1.00  0.00    -0.504 OA
ATOM     18  H   UNL     1     -24.873   4.284 -15.059  1.00  0.00     0.293 HD
ENDBRANCH  13  17
BRANCH  15  19
ATOM     19  O   UNL     1     -25.534   1.920 -12.149  1.00  0.00    -0.502 OA
ATOM     20  H   UNL     1     -25.617   1.463 -13.048  1.00  0.00     0.293 HD
ENDBRANCH  15  19
BRANCH  16  21
ATOM     21  O   UNL     1     -24.260   2.345  -9.674  1.00  0.00    -0.504 OA
ATOM     22  H   UNL     1     -24.650   2.615  -8.778  1.00  0.00     0.293 HD
ENDBRANCH  16  21
ENDBRANCH   1  11
BRANCH  10  23
ATOM     23  O   UNL     1     -23.431   7.107  -9.253  1.00  0.00    -0.500 OA
ATOM     24  H   UNL     1     -24.103   7.816  -8.979  1.00  0.00     0.294 HD
ENDBRANCH  10  23
BRANCH   5  25
ATOM     25  O   UNL     1     -17.551   9.148 -13.890  1.00  0.00    -0.507 OA
ATOM     26  H   UNL     1     -17.431  10.013 -14.403  1.00  0.00     0.293 HD
ENDBRANCH   5  25
BRANCH   7  27
ATOM     27  O   UNL     1     -19.721  10.743  -9.897  1.00  0.00    -0.507 OA
ATOM     28  H   UNL     1     -19.742  10.531  -8.910  1.00  0.00     0.293 HD
ENDBRANCH   7  27
TORSDOF 7
ENDMDL
MODEL 9
REMARK VINA RESULT:    -5.417      2.351      4.238
REMARK INTER + INTRA:          -7.064
REMARK INTER:                  -6.714
REMARK INTRA:                  -0.350
REMARK UNBOUND:                -0.380
REMARK SMILES Oc1cc(O)c2cc(O)c(-c3cc(O)c(O)c(O)c3)[o+]c2c1
REMARK SMILES IDX 10 1 20 2 21 3 22 4 2 5 3 6 4 7 6 8 7 9 8 10 11 11 12 12
REMARK SMILES IDX 13 13 19 14 15 15 17 16 14 17 16 19 18 21 9 23 1 25 5 27
REMARK H PARENT 14 18 16 20 18 22 9 24 1 26 5 28
REMARK Flexibility Score: inf
ROOT
ATOM      1  C   UNL     1     -21.974   7.067 -10.763  1.00  0.00     0.402 A 
ATOM      2  O   UNL     1     -22.481   5.943 -11.263  1.00  0.00    -0.202 OA
ATOM      3  C   UNL     1     -23.521   5.312 -10.728  1.00  0.00     0.368 A 
ATOM      4  C   UNL     1     -23.981   4.134 -11.324  1.00  0.00     0.162 A 
ATOM      5  C   UNL     1     -25.068   3.448 -10.783  1.00  0.00     0.128 A 
ATOM      6  C   UNL     1     -25.703   3.941  -9.637  1.00  0.00     0.093 A 
ATOM      7  C   UNL     1     -25.261   5.118  -9.021  1.00  0.00     0.136 A 
ATOM      8  C   UNL     1     -24.157   5.820  -9.570  1.00  0.00     0.125 A 
ATOM      9  C   UNL     1     -23.654   7.014  -9.029  1.00  0.00     0.078 A 
ATOM     10  C   UNL     1     -22.565   7.653  -9.629  1.00  0.00     0.223 A 
ENDROOT
BRANCH   1  11
ATOM     11  C   UNL     1     -20.806   7.672 -11.444  1.00  0.00     0.091 A 
ATOM     12  C   UNL     1     -19.509   7.553 -10.916  1.00  0.00     0.068 A 
ATOM     13  C   UNL     1     -18.412   8.113 -11.586  1.00  0.00     0.162 A 
ATOM     14  C   UNL     1     -20.986   8.329 -12.671  1.00  0.00     0.068 A 
ATOM     15  C   UNL     1     -18.606   8.789 -12.804  1.00  0.00     0.200 A 
ATOM     16  C   UNL     1     -19.898   8.891 -13.345  1.00  0.00     0.162 A 
BRANCH  13  17
ATOM     17  O   UNL     1     -17.132   7.995 -11.051  1.00  0.00    -0.504 OA
ATOM     18  H   UNL     1     -16.538   7.200 -11.261  1.00  0.00     0.293 HD
ENDBRANCH  13  17
BRANCH  15  19
ATOM     19  O   UNL     1     -17.526   9.357 -13.482  1.00  0.00    -0.502 OA
ATOM     20  H   UNL     1     -16.652   9.573 -13.019  1.00  0.00     0.293 HD
ENDBRANCH  15  19
BRANCH  16  21
ATOM     21  O   UNL     1     -20.122   9.549 -14.555  1.00  0.00    -0.504 OA
ATOM     22  H   UNL     1     -19.910   9.121 -15.449  1.00  0.00     0.293 HD
ENDBRANCH  16  21
ENDBRANCH   1  11
BRANCH  10  23
ATOM     23  O   UNL     1     -22.097   8.865  -9.120  1.00  0.00    -0.500 OA
ATOM     24  H   UNL     1     -21.161   8.957  -8.740  1.00  0.00     0.294 HD
ENDBRANCH  10  23
BRANCH   5  25
ATOM     25  O   UNL     1     -25.512   2.276 -11.392  1.00  0.00    -0.507 OA
ATOM     26  H   UNL     1     -26.498   2.050 -11.452  1.00  0.00     0.293 HD
ENDBRANCH   5  25
BRANCH   7  27
ATOM     27  O   UNL     1     -25.946   5.542  -7.879  1.00  0.00    -0.507 OA
ATOM     28  H   UNL     1     -26.599   6.312  -7.859  1.00  0.00     0.293 HD
ENDBRANCH   7  27
TORSDOF 7
ENDMDL
