MODEL 1
REMARK VINA RESULT:    -7.128      0.000      0.000
REMARK INTER + INTRA:          -8.909
REMARK INTER:                  -8.586
REMARK INTRA:                  -0.322
REMARK UNBOUND:                -0.322
REMARK SMILES O=c1c(O)c(-c2ccc(O)c(O)c2)oc2cc(O)cc(O)c12
REMARK SMILES IDX 5 1 3 2 2 3 1 4 22 5 20 6 19 7 17 8 16 9 15 10 14 11 6 12
REMARK SMILES IDX 7 13 8 14 9 15 13 16 11 17 10 18 12 20 4 22 21 24 18 26
REMARK H PARENT 10 19 12 21 4 23 21 25 18 27
REMARK Flexibility Score: inf
ROOT
ATOM      1  C   UNL     1       9.376  11.587 -15.752  1.00  0.00     0.180 A 
ATOM      2  C   UNL     1      10.035  10.410 -16.157  1.00  0.00     0.208 A 
ATOM      3  C   UNL     1       9.712   9.200 -15.525  1.00  0.00     0.238 A 
ATOM      4  O   UNL     1      10.289   8.137 -15.885  1.00  0.00    -0.285 OA
ATOM      5  C   UNL     1       8.755   9.188 -14.489  1.00  0.00     0.111 A 
ATOM      6  C   UNL     1       8.375   8.012 -13.799  1.00  0.00     0.134 A 
ATOM      7  C   UNL     1       7.420   8.083 -12.774  1.00  0.00     0.093 A 
ATOM      8  C   UNL     1       6.839   9.306 -12.426  1.00  0.00     0.123 A 
ATOM      9  C   UNL     1       7.210  10.471 -13.105  1.00  0.00     0.094 A 
ATOM     10  C   UNL     1       8.159  10.419 -14.130  1.00  0.00     0.146 A 
ATOM     11  O   UNL     1       8.488  11.540 -14.762  1.00  0.00    -0.452 OA
ENDROOT
BRANCH   1  12
ATOM     12  C   UNL     1       9.648  12.899 -16.383  1.00  0.00     0.025 A 
ATOM     13  C   UNL     1      10.621  13.771 -15.868  1.00  0.00     0.016 A 
ATOM     14  C   UNL     1      10.877  14.994 -16.496  1.00  0.00     0.051 A 
ATOM     15  C   UNL     1      10.176  15.357 -17.650  1.00  0.00     0.157 A 
ATOM     16  C   UNL     1       8.960  13.257 -17.554  1.00  0.00     0.062 A 
ATOM     17  C   UNL     1       9.215  14.483 -18.185  1.00  0.00     0.158 A 
BRANCH  15  18
ATOM     18  O   UNL     1      10.451  16.584 -18.253  1.00  0.00    -0.504 OA
ATOM     19  H   UNL     1       9.725  17.266 -18.439  1.00  0.00     0.293 HD
ENDBRANCH  15  18
BRANCH  17  20
ATOM     20  O   UNL     1       8.517  14.835 -19.340  1.00  0.00    -0.504 OA
ATOM     21  H   UNL     1       8.971  14.871 -20.245  1.00  0.00     0.293 HD
ENDBRANCH  17  20
ENDBRANCH   1  12
BRANCH   2  22
ATOM     22  O   UNL     1      11.017  10.457 -17.150  1.00  0.00    -0.502 OA
ATOM     23  H   UNL     1      11.022   9.821 -17.938  1.00  0.00     0.293 HD
ENDBRANCH   2  22
BRANCH   6  24
ATOM     24  O   UNL     1       8.937   6.776 -14.122  1.00  0.00    -0.507 OA
ATOM     25  H   UNL     1       8.675   6.274 -14.962  1.00  0.00     0.293 HD
ENDBRANCH   6  24
BRANCH   8  26
ATOM     26  O   UNL     1       5.894   9.350 -11.403  1.00  0.00    -0.508 OA
ATOM     27  H   UNL     1       5.837  10.139 -10.769  1.00  0.00     0.293 HD
ENDBRANCH   8  26
TORSDOF 6
ENDMDL
MODEL 2
REMARK VINA RESULT:    -6.924      1.776      7.344
REMARK INTER + INTRA:          -8.663
REMARK INTER:                  -8.362
REMARK INTRA:                  -0.301
REMARK UNBOUND:                -0.322
REMARK SMILES O=c1c(O)c(-c2ccc(O)c(O)c2)oc2cc(O)cc(O)c12
REMARK SMILES IDX 5 1 3 2 2 3 1 4 22 5 20 6 19 7 17 8 16 9 15 10 14 11 6 12
REMARK SMILES IDX 7 13 8 14 9 15 13 16 11 17 10 18 12 20 4 22 21 24 18 26
REMARK H PARENT 10 19 12 21 4 23 21 25 18 27
REMARK Flexibility Score: inf
ROOT
ATOM      1  C   UNL     1       9.517  12.395 -16.991  1.00  0.00     0.180 A 
ATOM      2  C   UNL     1      10.185  13.524 -16.477  1.00  0.00     0.208 A 
ATOM      3  C   UNL     1      10.165  14.718 -17.214  1.00  0.00     0.238 A 
ATOM      4  O   UNL     1      10.751  15.738 -16.760  1.00  0.00    -0.285 OA
ATOM      5  C   UNL     1       9.497  14.759 -18.455  1.00  0.00     0.111 A 
ATOM      6  C   UNL     1       9.433  15.922 -19.261  1.00  0.00     0.134 A 
ATOM      7  C   UNL     1       8.756  15.881 -20.490  1.00  0.00     0.093 A 
ATOM      8  C   UNL     1       8.144  14.702 -20.927  1.00  0.00     0.123 A 
ATOM      9  C   UNL     1       8.204  13.551 -20.134  1.00  0.00     0.094 A 
ATOM     10  C   UNL     1       8.872  13.574 -18.906  1.00  0.00     0.146 A 
ATOM     11  O   UNL     1       8.909  12.468 -18.172  1.00  0.00    -0.452 OA
ENDROOT
BRANCH   1  12
ATOM     12  C   UNL     1       9.476  11.106 -16.263  1.00  0.00     0.025 A 
ATOM     13  C   UNL     1      10.372  10.066 -16.566  1.00  0.00     0.016 A 
ATOM     14  C   UNL     1      10.330   8.867 -15.850  1.00  0.00     0.051 A 
ATOM     15  C   UNL     1       9.405   8.692 -14.816  1.00  0.00     0.157 A 
ATOM     16  C   UNL     1       8.562  10.935 -15.210  1.00  0.00     0.062 A 
ATOM     17  C   UNL     1       8.519   9.733 -14.491  1.00  0.00     0.158 A 
BRANCH  15  18
ATOM     18  O   UNL     1       9.386   7.483 -14.120  1.00  0.00    -0.504 OA
ATOM     19  H   UNL     1      10.173   6.847 -14.126  1.00  0.00     0.293 HD
ENDBRANCH  15  18
BRANCH  17  20
ATOM     20  O   UNL     1       7.599   9.568 -13.456  1.00  0.00    -0.504 OA
ATOM     21  H   UNL     1       6.712  10.058 -13.451  1.00  0.00     0.293 HD
ENDBRANCH  17  20
ENDBRANCH   1  12
BRANCH   2  22
ATOM     22  O   UNL     1      10.882  13.443 -15.268  1.00  0.00    -0.502 OA
ATOM     23  H   UNL     1      10.598  12.824 -14.519  1.00  0.00     0.293 HD
ENDBRANCH   2  22
BRANCH   6  24
ATOM     24  O   UNL     1      10.034  17.113 -18.854  1.00  0.00    -0.507 OA
ATOM     25  H   UNL     1      10.277  17.841 -19.515  1.00  0.00     0.293 HD
ENDBRANCH   6  24
BRANCH   8  26
ATOM     26  O   UNL     1       7.479  14.688 -22.151  1.00  0.00    -0.508 OA
ATOM     27  H   UNL     1       7.959  14.906 -23.016  1.00  0.00     0.293 HD
ENDBRANCH   8  26
TORSDOF 6
ENDMDL
MODEL 3
REMARK VINA RESULT:    -6.778      3.504      6.408
REMARK INTER + INTRA:          -8.487
REMARK INTER:                  -8.398
REMARK INTRA:                  -0.088
REMARK UNBOUND:                -0.322
REMARK SMILES O=c1c(O)c(-c2ccc(O)c(O)c2)oc2cc(O)cc(O)c12
REMARK SMILES IDX 5 1 3 2 2 3 1 4 22 5 20 6 19 7 17 8 16 9 15 10 14 11 6 12
REMARK SMILES IDX 7 13 8 14 9 15 13 16 11 17 10 18 12 20 4 22 21 24 18 26
REMARK H PARENT 10 19 12 21 4 23 21 25 18 27
REMARK Flexibility Score: inf
ROOT
ATOM      1  C   UNL     1       8.002  16.143 -18.517  1.00  0.00     0.180 A 
ATOM      2  C   UNL     1       8.077  15.867 -19.896  1.00  0.00     0.208 A 
ATOM      3  C   UNL     1       8.410  14.568 -20.311  1.00  0.00     0.238 A 
ATOM      4  O   UNL     1       8.470  14.306 -21.544  1.00  0.00    -0.285 OA
ATOM      5  C   UNL     1       8.681  13.577 -19.346  1.00  0.00     0.111 A 
ATOM      6  C   UNL     1       9.027  12.245 -19.680  1.00  0.00     0.134 A 
ATOM      7  C   UNL     1       9.291  11.318 -18.661  1.00  0.00     0.093 A 
ATOM      8  C   UNL     1       9.216  11.695 -17.317  1.00  0.00     0.123 A 
ATOM      9  C   UNL     1       8.874  13.009 -16.981  1.00  0.00     0.094 A 
ATOM     10  C   UNL     1       8.606  13.947 -17.983  1.00  0.00     0.146 A 
ATOM     11  O   UNL     1       8.278  15.186 -17.636  1.00  0.00    -0.452 OA
ENDROOT
BRANCH   1  12
ATOM     12  C   UNL     1       7.638  17.483 -18.002  1.00  0.00     0.025 A 
ATOM     13  C   UNL     1       6.539  17.663 -17.145  1.00  0.00     0.016 A 
ATOM     14  C   UNL     1       6.229  18.934 -16.652  1.00  0.00     0.051 A 
ATOM     15  C   UNL     1       7.016  20.038 -16.996  1.00  0.00     0.157 A 
ATOM     16  C   UNL     1       8.439  18.590 -18.328  1.00  0.00     0.062 A 
ATOM     17  C   UNL     1       8.129  19.865 -17.835  1.00  0.00     0.158 A 
BRANCH  15  18
ATOM     18  O   UNL     1       6.681  21.294 -16.490  1.00  0.00    -0.504 OA
ATOM     19  H   UNL     1       6.601  21.469 -15.496  1.00  0.00     0.293 HD
ENDBRANCH  15  18
BRANCH  17  20
ATOM     20  O   UNL     1       8.923  20.960 -18.175  1.00  0.00    -0.504 OA
ATOM     21  H   UNL     1       9.806  21.140 -17.712  1.00  0.00     0.293 HD
ENDBRANCH  17  20
ENDBRANCH   1  12
BRANCH   2  22
ATOM     22  O   UNL     1       7.852  16.880 -20.833  1.00  0.00    -0.502 OA
ATOM     23  H   UNL     1       8.549  17.580 -21.052  1.00  0.00     0.293 HD
ENDBRANCH   2  22
BRANCH   6  24
ATOM     24  O   UNL     1       9.112  11.837 -21.011  1.00  0.00    -0.507 OA
ATOM     25  H   UNL     1       8.902  10.887 -21.293  1.00  0.00     0.293 HD
ENDBRANCH   6  24
BRANCH   8  26
ATOM     26  O   UNL     1       9.484  10.755 -16.324  1.00  0.00    -0.508 OA
ATOM     27  H   UNL     1       9.330  10.962 -15.344  1.00  0.00     0.293 HD
ENDBRANCH   8  26
TORSDOF 6
ENDMDL
MODEL 4
REMARK VINA RESULT:    -6.573      2.114      3.199
REMARK INTER + INTRA:          -8.240
REMARK INTER:                  -8.278
REMARK INTRA:                   0.038
REMARK UNBOUND:                -0.322
REMARK SMILES O=c1c(O)c(-c2ccc(O)c(O)c2)oc2cc(O)cc(O)c12
REMARK SMILES IDX 5 1 3 2 2 3 1 4 22 5 20 6 19 7 17 8 16 9 15 10 14 11 6 12
REMARK SMILES IDX 7 13 8 14 9 15 13 16 11 17 10 18 12 20 4 22 21 24 18 26
REMARK H PARENT 10 19 12 21 4 23 21 25 18 27
REMARK Flexibility Score: inf
ROOT
ATOM      1  C   UNL     1       8.764  12.697 -18.268  1.00  0.00     0.180 A 
ATOM      2  C   UNL     1       9.237  11.422 -18.635  1.00  0.00     0.208 A 
ATOM      3  C   UNL     1       9.322  10.422 -17.655  1.00  0.00     0.238 A 
ATOM      4  O   UNL     1       9.734   9.273 -17.973  1.00  0.00    -0.285 OA
ATOM      5  C   UNL     1       8.954  10.716 -16.326  1.00  0.00     0.111 A 
ATOM      6  C   UNL     1       9.014   9.766 -15.277  1.00  0.00     0.134 A 
ATOM      7  C   UNL     1       8.638  10.138 -13.978  1.00  0.00     0.093 A 
ATOM      8  C   UNL     1       8.206  11.439 -13.707  1.00  0.00     0.123 A 
ATOM      9  C   UNL     1       8.145  12.382 -14.738  1.00  0.00     0.094 A 
ATOM     10  C   UNL     1       8.513  12.028 -16.040  1.00  0.00     0.146 A 
ATOM     11  O   UNL     1       8.440  12.941 -17.002  1.00  0.00    -0.452 OA
ENDROOT
BRANCH   1  12
ATOM     12  C   UNL     1       8.628  13.798 -19.249  1.00  0.00     0.025 A 
ATOM     13  C   UNL     1       8.046  13.586 -20.510  1.00  0.00     0.016 A 
ATOM     14  C   UNL     1       7.906  14.647 -21.410  1.00  0.00     0.051 A 
ATOM     15  C   UNL     1       8.331  15.932 -21.061  1.00  0.00     0.157 A 
ATOM     16  C   UNL     1       9.035  15.094 -18.893  1.00  0.00     0.062 A 
ATOM     17  C   UNL     1       8.895  16.159 -19.795  1.00  0.00     0.158 A 
BRANCH  15  18
ATOM     18  O   UNL     1       8.180  16.970 -21.981  1.00  0.00    -0.504 OA
ATOM     19  H   UNL     1       8.382  16.848 -22.966  1.00  0.00     0.293 HD
ENDBRANCH  15  18
BRANCH  17  20
ATOM     20  O   UNL     1       9.315  17.440 -19.436  1.00  0.00    -0.504 OA
ATOM     21  H   UNL     1       8.928  17.920 -18.632  1.00  0.00     0.293 HD
ENDBRANCH  17  20
ENDBRANCH   1  12
BRANCH   2  22
ATOM     22  O   UNL     1       9.643  11.170 -19.949  1.00  0.00    -0.502 OA
ATOM     23  H   UNL     1       9.598  11.874 -20.674  1.00  0.00     0.293 HD
ENDBRANCH   2  22
BRANCH   6  24
ATOM     24  O   UNL     1       9.442   8.459 -15.515  1.00  0.00    -0.507 OA
ATOM     25  H   UNL     1      10.356   8.260 -15.907  1.00  0.00     0.293 HD
ENDBRANCH   6  24
BRANCH   8  26
ATOM     26  O   UNL     1       7.840  11.783 -12.407  1.00  0.00    -0.508 OA
ATOM     27  H   UNL     1       8.411  11.525 -11.611  1.00  0.00     0.293 HD
ENDBRANCH   8  26
TORSDOF 6
ENDMDL
MODEL 5
REMARK VINA RESULT:    -6.509      2.906      7.417
REMARK INTER + INTRA:          -8.163
REMARK INTER:                  -8.182
REMARK INTRA:                   0.019
REMARK UNBOUND:                -0.322
REMARK SMILES O=c1c(O)c(-c2ccc(O)c(O)c2)oc2cc(O)cc(O)c12
REMARK SMILES IDX 5 1 3 2 2 3 1 4 22 5 20 6 19 7 17 8 16 9 15 10 14 11 6 12
REMARK SMILES IDX 7 13 8 14 9 15 13 16 11 17 10 18 12 20 4 22 21 24 18 26
REMARK H PARENT 10 19 12 21 4 23 21 25 18 27
REMARK Flexibility Score: inf
ROOT
ATOM      1  C   UNL     1       7.228   8.280 -14.976  1.00  0.00     0.180 A 
ATOM      2  C   UNL     1       6.964   8.589 -13.628  1.00  0.00     0.208 A 
ATOM      3  C   UNL     1       7.304   9.861 -13.144  1.00  0.00     0.238 A 
ATOM      4  O   UNL     1       7.064  10.154 -11.941  1.00  0.00    -0.285 OA
ATOM      5  C   UNL     1       7.918  10.793 -14.006  1.00  0.00     0.111 A 
ATOM      6  C   UNL     1       8.297  12.095 -13.597  1.00  0.00     0.134 A 
ATOM      7  C   UNL     1       8.912  12.962 -14.513  1.00  0.00     0.093 A 
ATOM      8  C   UNL     1       9.156  12.553 -15.827  1.00  0.00     0.123 A 
ATOM      9  C   UNL     1       8.784  11.268 -16.237  1.00  0.00     0.094 A 
ATOM     10  C   UNL     1       8.169  10.391 -15.339  1.00  0.00     0.146 A 
ATOM     11  O   UNL     1       7.821   9.179 -15.756  1.00  0.00    -0.452 OA
ENDROOT
BRANCH   1  12
ATOM     12  C   UNL     1       6.880   6.967 -15.566  1.00  0.00     0.025 A 
ATOM     13  C   UNL     1       6.173   6.872 -16.776  1.00  0.00     0.016 A 
ATOM     14  C   UNL     1       5.876   5.621 -17.325  1.00  0.00     0.051 A 
ATOM     15  C   UNL     1       6.291   4.450 -16.682  1.00  0.00     0.157 A 
ATOM     16  C   UNL     1       7.313   5.789 -14.933  1.00  0.00     0.062 A 
ATOM     17  C   UNL     1       7.016   4.534 -15.482  1.00  0.00     0.158 A 
BRANCH  15  18
ATOM     18  O   UNL     1       5.978   3.216 -17.253  1.00  0.00    -0.504 OA
ATOM     19  H   UNL     1       5.617   3.136 -18.195  1.00  0.00     0.293 HD
ENDBRANCH  15  18
BRANCH  17  20
ATOM     20  O   UNL     1       7.439   3.371 -14.840  1.00  0.00    -0.504 OA
ATOM     21  H   UNL     1       8.408   3.075 -14.862  1.00  0.00     0.293 HD
ENDBRANCH  17  20
ENDBRANCH   1  12
BRANCH   2  22
ATOM     22  O   UNL     1       6.400   7.631 -12.781  1.00  0.00    -0.502 OA
ATOM     23  H   UNL     1       5.674   6.996 -13.087  1.00  0.00     0.293 HD
ENDBRANCH   2  22
BRANCH   6  24
ATOM     24  O   UNL     1       8.068  12.532 -12.292  1.00  0.00    -0.507 OA
ATOM     25  H   UNL     1       8.669  13.214 -11.845  1.00  0.00     0.293 HD
ENDBRANCH   6  24
BRANCH   8  26
ATOM     26  O   UNL     1       9.769  13.433 -16.716  1.00  0.00    -0.508 OA
ATOM     27  H   UNL     1       9.628  13.357 -17.717  1.00  0.00     0.293 HD
ENDBRANCH   8  26
TORSDOF 6
ENDMDL
MODEL 6
REMARK VINA RESULT:    -6.482      1.970      7.257
REMARK INTER + INTRA:          -8.130
REMARK INTER:                  -7.805
REMARK INTRA:                  -0.325
REMARK UNBOUND:                -0.322
REMARK SMILES O=c1c(O)c(-c2ccc(O)c(O)c2)oc2cc(O)cc(O)c12
REMARK SMILES IDX 5 1 3 2 2 3 1 4 22 5 20 6 19 7 17 8 16 9 15 10 14 11 6 12
REMARK SMILES IDX 7 13 8 14 9 15 13 16 11 17 10 18 12 20 4 22 21 24 18 26
REMARK H PARENT 10 19 12 21 4 23 21 25 18 27
REMARK Flexibility Score: inf
ROOT
ATOM      1  C   UNL     1       8.593  11.921 -17.600  1.00  0.00     0.180 A 
ATOM      2  C   UNL     1       7.918  11.632 -18.802  1.00  0.00     0.208 A 
ATOM      3  C   UNL     1       7.779  12.645 -19.763  1.00  0.00     0.238 A 
ATOM      4  O   UNL     1       7.184  12.396 -20.847  1.00  0.00    -0.285 OA
ATOM      5  C   UNL     1       8.297  13.930 -19.500  1.00  0.00     0.111 A 
ATOM      6  C   UNL     1       8.196  15.007 -20.413  1.00  0.00     0.134 A 
ATOM      7  C   UNL     1       8.730  16.260 -20.075  1.00  0.00     0.093 A 
ATOM      8  C   UNL     1       9.362  16.455 -18.844  1.00  0.00     0.123 A 
ATOM      9  C   UNL     1       9.465  15.395 -17.938  1.00  0.00     0.094 A 
ATOM     10  C   UNL     1       8.940  14.139 -18.258  1.00  0.00     0.146 A 
ATOM     11  O   UNL     1       9.057  13.148 -17.382  1.00  0.00    -0.452 OA
ENDROOT
BRANCH   1  12
ATOM     12  C   UNL     1       8.797  10.900 -16.547  1.00  0.00     0.025 A 
ATOM     13  C   UNL     1       7.858  10.711 -15.519  1.00  0.00     0.016 A 
ATOM     14  C   UNL     1       8.061   9.725 -14.549  1.00  0.00     0.051 A 
ATOM     15  C   UNL     1       9.194   8.907 -14.598  1.00  0.00     0.157 A 
ATOM     16  C   UNL     1       9.924  10.063 -16.606  1.00  0.00     0.062 A 
ATOM     17  C   UNL     1      10.129   9.073 -15.634  1.00  0.00     0.158 A 
BRANCH  15  18
ATOM     18  O   UNL     1       9.371   7.933 -13.616  1.00  0.00    -0.504 OA
ATOM     19  H   UNL     1       8.994   6.998 -13.713  1.00  0.00     0.293 HD
ENDBRANCH  15  18
BRANCH  17  20
ATOM     20  O   UNL     1      11.258   8.256 -15.693  1.00  0.00    -0.504 OA
ATOM     21  H   UNL     1      11.722   7.929 -14.854  1.00  0.00     0.293 HD
ENDBRANCH  17  20
ENDBRANCH   1  12
BRANCH   2  22
ATOM     22  O   UNL     1       7.369  10.365 -19.017  1.00  0.00    -0.502 OA
ATOM     23  H   UNL     1       7.934   9.566 -19.274  1.00  0.00     0.293 HD
ENDBRANCH   2  22
BRANCH   6  24
ATOM     24  O   UNL     1       7.570  14.844 -21.650  1.00  0.00    -0.507 OA
ATOM     25  H   UNL     1       7.193  13.951 -21.943  1.00  0.00     0.293 HD
ENDBRANCH   6  24
BRANCH   8  26
ATOM     26  O   UNL     1       9.883  17.709 -18.532  1.00  0.00    -0.508 OA
ATOM     27  H   UNL     1       9.279  18.499 -18.334  1.00  0.00     0.293 HD
ENDBRANCH   8  26
TORSDOF 6
ENDMDL
MODEL 7
REMARK VINA RESULT:    -6.249      1.175      2.921
REMARK INTER + INTRA:          -7.850
REMARK INTER:                  -7.520
REMARK INTRA:                  -0.330
REMARK UNBOUND:                -0.322
REMARK SMILES O=c1c(O)c(-c2ccc(O)c(O)c2)oc2cc(O)cc(O)c12
REMARK SMILES IDX 5 1 3 2 2 3 1 4 22 5 20 6 19 7 17 8 16 9 15 10 14 11 6 12
REMARK SMILES IDX 7 13 8 14 9 15 13 16 11 17 10 18 12 20 4 22 21 24 18 26
REMARK H PARENT 10 19 12 21 4 23 21 25 18 27
REMARK Flexibility Score: inf
ROOT
ATOM      1  C   UNL     1       8.465  12.295 -15.306  1.00  0.00     0.180 A 
ATOM      2  C   UNL     1       7.472  12.634 -14.366  1.00  0.00     0.208 A 
ATOM      3  C   UNL     1       6.936  11.625 -13.551  1.00  0.00     0.238 A 
ATOM      4  O   UNL     1       6.053  11.919 -12.698  1.00  0.00    -0.285 OA
ATOM      5  C   UNL     1       7.384  10.297 -13.701  1.00  0.00     0.111 A 
ATOM      6  C   UNL     1       6.892   9.221 -12.922  1.00  0.00     0.134 A 
ATOM      7  C   UNL     1       7.383   7.924 -13.138  1.00  0.00     0.093 A 
ATOM      8  C   UNL     1       8.352   7.683 -14.115  1.00  0.00     0.123 A 
ATOM      9  C   UNL     1       8.842   8.742 -14.887  1.00  0.00     0.094 A 
ATOM     10  C   UNL     1       8.366  10.041 -14.685  1.00  0.00     0.146 A 
ATOM     11  O   UNL     1       8.852  11.028 -15.428  1.00  0.00    -0.452 OA
ENDROOT
BRANCH   1  12
ATOM     12  C   UNL     1       9.093  13.305 -16.187  1.00  0.00     0.025 A 
ATOM     13  C   UNL     1      10.190  14.071 -15.757  1.00  0.00     0.016 A 
ATOM     14  C   UNL     1      10.781  15.003 -16.616  1.00  0.00     0.051 A 
ATOM     15  C   UNL     1      10.295  15.174 -17.916  1.00  0.00     0.157 A 
ATOM     16  C   UNL     1       8.621  13.465 -17.500  1.00  0.00     0.062 A 
ATOM     17  C   UNL     1       9.212  14.399 -18.363  1.00  0.00     0.158 A 
BRANCH  15  18
ATOM     18  O   UNL     1      10.904  16.112 -18.749  1.00  0.00    -0.504 OA
ATOM     19  H   UNL     1      11.421  15.841 -19.577  1.00  0.00     0.293 HD
ENDBRANCH  15  18
BRANCH  17  20
ATOM     20  O   UNL     1       8.727  14.559 -19.661  1.00  0.00    -0.504 OA
ATOM     21  H   UNL     1       9.032  13.959 -20.419  1.00  0.00     0.293 HD
ENDBRANCH  17  20
ENDBRANCH   1  12
BRANCH   2  22
ATOM     22  O   UNL     1       7.009  13.949 -14.271  1.00  0.00    -0.502 OA
ATOM     23  H   UNL     1       7.532  14.736 -14.636  1.00  0.00     0.293 HD
ENDBRANCH   2  22
BRANCH   6  24
ATOM     24  O   UNL     1       5.924   9.430 -11.940  1.00  0.00    -0.507 OA
ATOM     25  H   UNL     1       6.107   9.240 -10.962  1.00  0.00     0.293 HD
ENDBRANCH   6  24
BRANCH   8  26
ATOM     26  O   UNL     1       8.822   6.385 -14.309  1.00  0.00    -0.508 OA
ATOM     27  H   UNL     1       8.980   5.758 -13.529  1.00  0.00     0.293 HD
ENDBRANCH   8  26
TORSDOF 6
ENDMDL
MODEL 8
REMARK VINA RESULT:    -6.178      2.523      7.403
REMARK INTER + INTRA:          -7.765
REMARK INTER:                  -7.442
REMARK INTRA:                  -0.324
REMARK UNBOUND:                -0.322
REMARK SMILES O=c1c(O)c(-c2ccc(O)c(O)c2)oc2cc(O)cc(O)c12
REMARK SMILES IDX 5 1 3 2 2 3 1 4 22 5 20 6 19 7 17 8 16 9 15 10 14 11 6 12
REMARK SMILES IDX 7 13 8 14 9 15 13 16 11 17 10 18 12 20 4 22 21 24 18 26
REMARK H PARENT 10 19 12 21 4 23 21 25 18 27
REMARK Flexibility Score: inf
ROOT
ATOM      1  C   UNL     1       8.804  12.959 -18.173  1.00  0.00     0.180 A 
ATOM      2  C   UNL     1       8.786  12.891 -19.580  1.00  0.00     0.208 A 
ATOM      3  C   UNL     1       8.576  14.069 -20.313  1.00  0.00     0.238 A 
ATOM      4  O   UNL     1       8.567  14.023 -21.574  1.00  0.00    -0.285 OA
ATOM      5  C   UNL     1       8.368  15.286 -19.632  1.00  0.00     0.111 A 
ATOM      6  C   UNL     1       8.146  16.517 -20.296  1.00  0.00     0.134 A 
ATOM      7  C   UNL     1       7.939  17.685 -19.547  1.00  0.00     0.093 A 
ATOM      8  C   UNL     1       7.950  17.646 -18.150  1.00  0.00     0.123 A 
ATOM      9  C   UNL     1       8.170  16.433 -17.489  1.00  0.00     0.094 A 
ATOM     10  C   UNL     1       8.379  15.260 -18.219  1.00  0.00     0.146 A 
ATOM     11  O   UNL     1       8.591  14.123 -17.565  1.00  0.00    -0.452 OA
ENDROOT
BRANCH   1  12
ATOM     12  C   UNL     1       9.040  11.764 -17.331  1.00  0.00     0.025 A 
ATOM     13  C   UNL     1      10.324  11.442 -16.860  1.00  0.00     0.016 A 
ATOM     14  C   UNL     1      10.518  10.322 -16.047  1.00  0.00     0.051 A 
ATOM     15  C   UNL     1       9.434   9.517 -15.681  1.00  0.00     0.157 A 
ATOM     16  C   UNL     1       7.951  10.966 -16.945  1.00  0.00     0.062 A 
ATOM     17  C   UNL     1       8.143   9.842 -16.129  1.00  0.00     0.158 A 
BRANCH  15  18
ATOM     18  O   UNL     1       9.659   8.405 -14.870  1.00  0.00    -0.504 OA
ATOM     19  H   UNL     1       9.893   8.495 -13.889  1.00  0.00     0.293 HD
ENDBRANCH  15  18
BRANCH  17  20
ATOM     20  O   UNL     1       7.057   9.048 -15.762  1.00  0.00    -0.504 OA
ATOM     21  H   UNL     1       7.170   8.069 -15.528  1.00  0.00     0.293 HD
ENDBRANCH  17  20
ENDBRANCH   1  12
BRANCH   2  22
ATOM     22  O   UNL     1       8.944  11.664 -20.230  1.00  0.00    -0.502 OA
ATOM     23  H   UNL     1       9.682  11.498 -20.902  1.00  0.00     0.293 HD
ENDBRANCH   2  22
BRANCH   6  24
ATOM     24  O   UNL     1       8.128  16.588 -21.690  1.00  0.00    -0.507 OA
ATOM     25  H   UNL     1       8.702  15.981 -22.262  1.00  0.00     0.293 HD
ENDBRANCH   6  24
BRANCH   8  26
ATOM     26  O   UNL     1       7.741  18.821 -17.430  1.00  0.00    -0.508 OA
ATOM     27  H   UNL     1       8.183  18.976 -16.531  1.00  0.00     0.293 HD
ENDBRANCH   8  26
TORSDOF 6
ENDMDL
MODEL 9
REMARK VINA RESULT:    -6.121      1.602      7.156
REMARK INTER + INTRA:          -7.696
REMARK INTER:                  -7.566
REMARK INTRA:                  -0.130
REMARK UNBOUND:                -0.322
REMARK SMILES O=c1c(O)c(-c2ccc(O)c(O)c2)oc2cc(O)cc(O)c12
REMARK SMILES IDX 5 1 3 2 2 3 1 4 22 5 20 6 19 7 17 8 16 9 15 10 14 11 6 12
REMARK SMILES IDX 7 13 8 14 9 15 13 16 11 17 10 18 12 20 4 22 21 24 18 26
REMARK H PARENT 10 19 12 21 4 23 21 25 18 27
REMARK Flexibility Score: inf
ROOT
ATOM      1  C   UNL     1       8.243  11.708 -15.053  1.00  0.00     0.180 A 
ATOM      2  C   UNL     1       8.757  12.905 -14.519  1.00  0.00     0.208 A 
ATOM      3  C   UNL     1       9.148  13.928 -15.397  1.00  0.00     0.238 A 
ATOM      4  O   UNL     1       9.601  15.009 -14.930  1.00  0.00    -0.285 OA
ATOM      5  C   UNL     1       9.039  13.730 -16.789  1.00  0.00     0.111 A 
ATOM      6  C   UNL     1       9.415  14.708 -17.741  1.00  0.00     0.134 A 
ATOM      7  C   UNL     1       9.283  14.433 -19.111  1.00  0.00     0.093 A 
ATOM      8  C   UNL     1       8.785  13.201 -19.545  1.00  0.00     0.123 A 
ATOM      9  C   UNL     1       8.412  12.232 -18.608  1.00  0.00     0.094 A 
ATOM     10  C   UNL     1       8.534  12.489 -17.240  1.00  0.00     0.146 A 
ATOM     11  O   UNL     1       8.167  11.553 -16.372  1.00  0.00    -0.452 OA
ENDROOT
BRANCH   1  12
ATOM     12  C   UNL     1       7.790  10.592 -14.192  1.00  0.00     0.025 A 
ATOM     13  C   UNL     1       6.771  10.768 -13.241  1.00  0.00     0.016 A 
ATOM     14  C   UNL     1       6.345   9.693 -12.455  1.00  0.00     0.051 A 
ATOM     15  C   UNL     1       6.918   8.428 -12.616  1.00  0.00     0.157 A 
ATOM     16  C   UNL     1       8.350   9.315 -14.365  1.00  0.00     0.062 A 
ATOM     17  C   UNL     1       7.923   8.236 -13.578  1.00  0.00     0.158 A 
BRANCH  15  18
ATOM     18  O   UNL     1       6.473   7.375 -11.816  1.00  0.00    -0.504 OA
ATOM     19  H   UNL     1       6.210   6.479 -12.206  1.00  0.00     0.293 HD
ENDBRANCH  15  18
BRANCH  17  20
ATOM     20  O   UNL     1       8.494   6.975 -13.749  1.00  0.00    -0.504 OA
ATOM     21  H   UNL     1       8.870   6.452 -12.967  1.00  0.00     0.293 HD
ENDBRANCH  17  20
ENDBRANCH   1  12
BRANCH   2  22
ATOM     22  O   UNL     1       8.902  13.057 -13.137  1.00  0.00    -0.502 OA
ATOM     23  H   UNL     1       9.467  12.429 -12.579  1.00  0.00     0.293 HD
ENDBRANCH   2  22
BRANCH   6  24
ATOM     24  O   UNL     1       9.916  15.946 -17.340  1.00  0.00    -0.507 OA
ATOM     25  H   UNL     1      10.720  16.024 -16.727  1.00  0.00     0.293 HD
ENDBRANCH   6  24
BRANCH   8  26
ATOM     26  O   UNL     1       8.666  12.952 -20.911  1.00  0.00    -0.508 OA
ATOM     27  H   UNL     1       8.879  13.666 -21.599  1.00  0.00     0.293 HD
ENDBRANCH   8  26
TORSDOF 6
ENDMDL
