MODEL 1
REMARK VINA RESULT:     9.882      0.000      0.000
REMARK INTER + INTRA:          17.621
REMARK INTER:                  17.970
REMARK INTRA:                  -0.350
REMARK UNBOUND:                -0.350
REMARK SMILES CCCCCCCCCCCCCCCC(=O)[O-]
REMARK SMILES IDX 9 1 10 2 11 3 12 4 13 5 14 6 15 7 16 8 17 9 18 10 8 11 7 12
REMARK SMILES IDX 6 13 5 14 4 15 3 16 2 17 1 18
REMARK H PARENT
REMARK Flexibility Score: inf
ROOT
ATOM      1  C   UNL     1       1.884  -8.519  10.898  1.00  0.00     0.000 C 
ENDROOT
BRANCH   1   2
ATOM      2  C   UNL     1       1.027  -7.890  12.006  1.00  0.00     0.000 C 
BRANCH   2   3
ATOM      3  C   UNL     1      -0.463  -7.789  11.629  1.00  0.00     0.000 C 
BRANCH   3   4
ATOM      4  C   UNL     1      -0.789  -8.144  10.167  1.00  0.00     0.000 C 
BRANCH   4   5
ATOM      5  C   UNL     1      -0.842  -6.945   9.202  1.00  0.00     0.000 C 
BRANCH   5   6
ATOM      6  C   UNL     1      -0.114  -5.689   9.730  1.00  0.00     0.006 C 
BRANCH   6   7
ATOM      7  C   UNL     1       1.316  -5.569   9.187  1.00  0.00     0.053 C 
BRANCH   7   8
ATOM      8  C   UNL     1       2.175  -4.806  10.145  1.00  0.00     0.041 C 
ATOM      9  O   UNL     1       2.534  -3.629   9.875  1.00  0.00    -0.550 OA
ATOM     10  O   UNL     1       2.622  -5.411  11.312  1.00  0.00    -0.550 OA
ENDBRANCH   7   8
ENDBRANCH   6   7
ENDBRANCH   5   6
ENDBRANCH   4   5
ENDBRANCH   3   4
ENDBRANCH   2   3
ENDBRANCH   1   2
BRANCH   1  11
ATOM     11  C   UNL     1       3.378  -8.266  11.150  1.00  0.00     0.000 C 
BRANCH  11  12
ATOM     12  C   UNL     1       3.726  -8.209  12.646  1.00  0.00    -0.000 C 
BRANCH  12  13
ATOM     13  C   UNL     1       5.224  -7.977  12.897  1.00  0.00    -0.000 C 
BRANCH  13  14
ATOM     14  C   UNL     1       5.747  -6.809  12.052  1.00  0.00    -0.000 C 
BRANCH  14  15
ATOM     15  C   UNL     1       7.256  -6.610  12.260  1.00  0.00    -0.000 C 
BRANCH  15  16
ATOM     16  C   UNL     1       7.685  -6.881  13.718  1.00  0.00    -0.000 C 
BRANCH  16  17
ATOM     17  C   UNL     1       8.123  -5.616  14.475  1.00  0.00    -0.003 C 
ATOM     18  C   UNL     1       7.002  -4.995  15.305  1.00  0.00     0.004 C 
ENDBRANCH  16  17
ENDBRANCH  15  16
ENDBRANCH  14  15
ENDBRANCH  13  14
ENDBRANCH  12  13
ENDBRANCH  11  12
ENDBRANCH   1  11
TORSDOF 14
ENDMDL
MODEL 2
REMARK VINA RESULT:    10.624      2.300      6.500
REMARK INTER + INTRA:          18.970
REMARK INTER:                  19.694
REMARK INTRA:                  -0.724
REMARK UNBOUND:                -0.350
REMARK SMILES CCCCCCCCCCCCCCCC(=O)[O-]
REMARK SMILES IDX 9 1 10 2 11 3 12 4 13 5 14 6 15 7 16 8 17 9 18 10 8 11 7 12
REMARK SMILES IDX 6 13 5 14 4 15 3 16 2 17 1 18
REMARK H PARENT
REMARK Flexibility Score: inf
ROOT
ATOM      1  C   UNL     1       2.376  -8.176  10.846  1.00  0.00     0.000 C 
ENDROOT
BRANCH   1   2
ATOM      2  C   UNL     1       3.817  -8.555  11.218  1.00  0.00     0.000 C 
BRANCH   2   3
ATOM      3  C   UNL     1       4.133  -8.323  12.708  1.00  0.00     0.000 C 
BRANCH   3   4
ATOM      4  C   UNL     1       4.923  -7.037  13.013  1.00  0.00     0.000 C 
BRANCH   4   5
ATOM      5  C   UNL     1       6.019  -6.687  11.990  1.00  0.00     0.000 C 
BRANCH   5   6
ATOM      6  C   UNL     1       7.447  -6.707  12.577  1.00  0.00     0.006 C 
BRANCH   6   7
ATOM      7  C   UNL     1       7.452  -6.822  14.107  1.00  0.00     0.053 C 
BRANCH   7   8
ATOM      8  C   UNL     1       7.879  -5.530  14.727  1.00  0.00     0.041 C 
ATOM      9  O   UNL     1       7.041  -4.809  15.330  1.00  0.00    -0.550 OA
ATOM     10  O   UNL     1       9.192  -5.097  14.596  1.00  0.00    -0.550 OA
ENDBRANCH   7   8
ENDBRANCH   6   7
ENDBRANCH   5   6
ENDBRANCH   4   5
ENDBRANCH   3   4
ENDBRANCH   2   3
ENDBRANCH   1   2
BRANCH   1  11
ATOM     11  C   UNL     1       1.547  -7.875  12.104  1.00  0.00     0.000 C 
BRANCH  11  12
ATOM     12  C   UNL     1       0.057  -7.658  11.795  1.00  0.00    -0.000 C 
BRANCH  12  13
ATOM     13  C   UNL     1      -0.368  -8.290  10.461  1.00  0.00    -0.000 C 
BRANCH  13  14
ATOM     14  C   UNL     1      -0.890  -7.223   9.491  1.00  0.00    -0.000 C 
BRANCH  14  15
ATOM     15  C   UNL     1      -0.257  -5.854   9.784  1.00  0.00    -0.000 C 
BRANCH  15  16
ATOM     16  C   UNL     1       1.125  -5.695   9.115  1.00  0.00    -0.000 C 
BRANCH  16  17
ATOM     17  C   UNL     1       2.204  -5.137  10.058  1.00  0.00    -0.003 C 
ATOM     18  C   UNL     1       2.369  -3.622   9.953  1.00  0.00     0.004 C 
ENDBRANCH  16  17
ENDBRANCH  15  16
ENDBRANCH  14  15
ENDBRANCH  13  14
ENDBRANCH  12  13
ENDBRANCH  11  12
ENDBRANCH   1  11
TORSDOF 14
ENDMDL
MODEL 3
REMARK VINA RESULT:    10.785      2.411      6.048
REMARK INTER + INTRA:          19.263
REMARK INTER:                  19.493
REMARK INTRA:                  -0.231
REMARK UNBOUND:                -0.350
REMARK SMILES CCCCCCCCCCCCCCCC(=O)[O-]
REMARK SMILES IDX 9 1 10 2 11 3 12 4 13 5 14 6 15 7 16 8 17 9 18 10 8 11 7 12
REMARK SMILES IDX 6 13 5 14 4 15 3 16 2 17 1 18
REMARK H PARENT
REMARK Flexibility Score: inf
ROOT
ATOM      1  C   UNL     1       2.763  -8.556  10.127  1.00  0.00     0.000 C 
ENDROOT
BRANCH   1   2
ATOM      2  C   UNL     1       4.025  -8.942  10.912  1.00  0.00     0.000 C 
BRANCH   2   3
ATOM      3  C   UNL     1       3.919  -8.618  12.415  1.00  0.00     0.000 C 
BRANCH   3   4
ATOM      4  C   UNL     1       5.028  -7.701  12.963  1.00  0.00     0.000 C 
BRANCH   4   5
ATOM      5  C   UNL     1       5.817  -6.923  11.893  1.00  0.00     0.000 C 
BRANCH   5   6
ATOM      6  C   UNL     1       7.188  -6.409  12.384  1.00  0.00     0.006 C 
BRANCH   6   7
ATOM      7  C   UNL     1       7.473  -6.794  13.842  1.00  0.00     0.053 C 
BRANCH   7   8
ATOM      8  C   UNL     1       7.933  -5.601  14.617  1.00  0.00     0.041 C 
ATOM      9  O   UNL     1       9.157  -5.305  14.657  1.00  0.00    -0.550 OA
ATOM     10  O   UNL     1       7.018  -4.843  15.336  1.00  0.00    -0.550 OA
ENDBRANCH   7   8
ENDBRANCH   6   7
ENDBRANCH   5   6
ENDBRANCH   4   5
ENDBRANCH   3   4
ENDBRANCH   2   3
ENDBRANCH   1   2
BRANCH   1  11
ATOM     11  C   UNL     1       1.544  -9.348  10.625  1.00  0.00     0.000 C 
BRANCH  11  12
ATOM     12  C   UNL     1       0.211  -8.669  10.273  1.00  0.00    -0.000 C 
BRANCH  12  13
ATOM     13  C   UNL     1      -0.039  -7.395  11.094  1.00  0.00    -0.000 C 
BRANCH  13  14
ATOM     14  C   UNL     1       0.896  -7.333  12.308  1.00  0.00    -0.000 C 
BRANCH  14  15
ATOM     15  C   UNL     1       1.603  -5.971  12.391  1.00  0.00    -0.000 C 
BRANCH  15  16
ATOM     16  C   UNL     1       2.611  -5.765  11.240  1.00  0.00    -0.000 C 
BRANCH  16  17
ATOM     17  C   UNL     1       2.040  -4.968  10.056  1.00  0.00    -0.003 C 
ATOM     18  C   UNL     1       2.654  -3.577   9.917  1.00  0.00     0.004 C 
ENDBRANCH  16  17
ENDBRANCH  15  16
ENDBRANCH  14  15
ENDBRANCH  13  14
ENDBRANCH  12  13
ENDBRANCH  11  12
ENDBRANCH   1  11
TORSDOF 14
ENDMDL
MODEL 4
REMARK VINA RESULT:    10.811      2.456      6.886
REMARK INTER + INTRA:          19.309
REMARK INTER:                  18.994
REMARK INTRA:                   0.315
REMARK UNBOUND:                -0.350
REMARK SMILES CCCCCCCCCCCCCCCC(=O)[O-]
REMARK SMILES IDX 9 1 10 2 11 3 12 4 13 5 14 6 15 7 16 8 17 9 18 10 8 11 7 12
REMARK SMILES IDX 6 13 5 14 4 15 3 16 2 17 1 18
REMARK H PARENT
REMARK Flexibility Score: inf
ROOT
ATOM      1  C   UNL     1       4.010  -8.580  10.710  1.00  0.00     0.000 C 
ENDROOT
BRANCH   1   2
ATOM      2  C   UNL     1       3.777  -9.134  12.123  1.00  0.00     0.000 C 
BRANCH   2   3
ATOM      3  C   UNL     1       4.812  -8.626  13.145  1.00  0.00     0.000 C 
BRANCH   3   4
ATOM      4  C   UNL     1       5.069  -7.108  13.110  1.00  0.00     0.000 C 
BRANCH   4   5
ATOM      5  C   UNL     1       6.116  -6.648  12.079  1.00  0.00     0.000 C 
BRANCH   5   6
ATOM      6  C   UNL     1       7.558  -6.611  12.630  1.00  0.00     0.006 C 
BRANCH   6   7
ATOM      7  C   UNL     1       7.605  -6.721  14.160  1.00  0.00     0.053 C 
BRANCH   7   8
ATOM      8  C   UNL     1       8.020  -5.417  14.764  1.00  0.00     0.041 C 
ATOM      9  O   UNL     1       9.236  -5.089  14.789  1.00  0.00    -0.550 OA
ATOM     10  O   UNL     1       7.071  -4.586  15.345  1.00  0.00    -0.550 OA
ENDBRANCH   7   8
ENDBRANCH   6   7
ENDBRANCH   5   6
ENDBRANCH   4   5
ENDBRANCH   3   4
ENDBRANCH   2   3
ENDBRANCH   1   2
BRANCH   1  11
ATOM     11  C   UNL     1       2.751  -7.872  10.186  1.00  0.00     0.000 C 
BRANCH  11  12
ATOM     12  C   UNL     1       2.384  -6.626  11.009  1.00  0.00    -0.000 C 
BRANCH  12  13
ATOM     13  C   UNL     1       1.651  -6.974  12.313  1.00  0.00    -0.000 C 
BRANCH  13  14
ATOM     14  C   UNL     1       0.133  -7.012  12.096  1.00  0.00    -0.000 C 
BRANCH  14  15
ATOM     15  C   UNL     1      -0.362  -8.455  11.919  1.00  0.00    -0.000 C 
BRANCH  15  16
ATOM     16  C   UNL     1      -0.198  -8.956  10.468  1.00  0.00    -0.000 C 
BRANCH  16  17
ATOM     17  C   UNL     1      -1.125  -8.250   9.465  1.00  0.00    -0.003 C 
ATOM     18  C   UNL     1      -0.887  -6.743   9.385  1.00  0.00     0.004 C 
ENDBRANCH  16  17
ENDBRANCH  15  16
ENDBRANCH  14  15
ENDBRANCH  13  14
ENDBRANCH  12  13
ENDBRANCH  11  12
ENDBRANCH   1  11
TORSDOF 14
ENDMDL
MODEL 5
REMARK VINA RESULT:    11.094      3.324      4.825
REMARK INTER + INTRA:          19.825
REMARK INTER:                  20.668
REMARK INTRA:                  -0.844
REMARK UNBOUND:                -0.350
REMARK SMILES CCCCCCCCCCCCCCCC(=O)[O-]
REMARK SMILES IDX 9 1 10 2 11 3 12 4 13 5 14 6 15 7 16 8 17 9 18 10 8 11 7 12
REMARK SMILES IDX 6 13 5 14 4 15 3 16 2 17 1 18
REMARK H PARENT
REMARK Flexibility Score: inf
ROOT
ATOM      1  C   UNL     1       1.047  -5.922  10.154  1.00  0.00     0.000 C 
ENDROOT
BRANCH   1   2
ATOM      2  C   UNL     1       2.270  -5.312  10.854  1.00  0.00     0.000 C 
BRANCH   2   3
ATOM      3  C   UNL     1       2.884  -4.135  10.072  1.00  0.00     0.000 C 
BRANCH   3   4
ATOM      4  C   UNL     1       1.893  -3.018   9.696  1.00  0.00     0.000 C 
BRANCH   4   5
ATOM      5  C   UNL     1       2.430  -1.585   9.869  1.00  0.00     0.000 C 
BRANCH   5   6
ATOM      6  C   UNL     1       1.335  -0.545  10.193  1.00  0.00     0.006 C 
BRANCH   6   7
ATOM      7  C   UNL     1       1.530   0.771   9.428  1.00  0.00     0.053 C 
BRANCH   7   8
ATOM      8  C   UNL     1       0.246   1.534   9.365  1.00  0.00     0.041 C 
ATOM      9  O   UNL     1      -0.774   1.109   9.971  1.00  0.00    -0.550 OA
ATOM     10  O   UNL     1       0.159   2.688   8.598  1.00  0.00    -0.550 OA
ENDBRANCH   7   8
ENDBRANCH   6   7
ENDBRANCH   5   6
ENDBRANCH   4   5
ENDBRANCH   3   4
ENDBRANCH   2   3
ENDBRANCH   1   2
BRANCH   1  11
ATOM     11  C   UNL     1       0.553  -7.169  10.903  1.00  0.00     0.000 C 
BRANCH  11  12
ATOM     12  C   UNL     1       1.696  -7.957  11.563  1.00  0.00    -0.000 C 
BRANCH  12  13
ATOM     13  C   UNL     1       2.568  -8.701  10.541  1.00  0.00    -0.000 C 
BRANCH  13  14
ATOM     14  C   UNL     1       4.056  -8.571  10.892  1.00  0.00    -0.000 C 
BRANCH  14  15
ATOM     15  C   UNL     1       4.244  -8.208  12.372  1.00  0.00    -0.000 C 
BRANCH  15  16
ATOM     16  C   UNL     1       4.868  -6.808  12.556  1.00  0.00    -0.000 C 
BRANCH  16  17
ATOM     17  C   UNL     1       6.314  -6.707  12.043  1.00  0.00    -0.003 C 
ATOM     18  C   UNL     1       7.356  -6.950  13.133  1.00  0.00     0.004 C 
ENDBRANCH  16  17
ENDBRANCH  15  16
ENDBRANCH  14  15
ENDBRANCH  13  14
ENDBRANCH  12  13
ENDBRANCH  11  12
ENDBRANCH   1  11
TORSDOF 14
ENDMDL
MODEL 6
REMARK VINA RESULT:    11.357      1.988      3.327
REMARK INTER + INTRA:          20.302
REMARK INTER:                  19.546
REMARK INTRA:                   0.756
REMARK UNBOUND:                -0.350
REMARK SMILES CCCCCCCCCCCCCCCC(=O)[O-]
REMARK SMILES IDX 9 1 10 2 11 3 12 4 13 5 14 6 15 7 16 8 17 9 18 10 8 11 7 12
REMARK SMILES IDX 6 13 5 14 4 15 3 16 2 17 1 18
REMARK H PARENT
REMARK Flexibility Score: inf
ROOT
ATOM      1  C   UNL     1       4.355  -8.982  12.494  1.00  0.00     0.000 C 
ENDROOT
BRANCH   1   2
ATOM      2  C   UNL     1       4.160  -9.052  10.973  1.00  0.00     0.000 C 
BRANCH   2   3
ATOM      3  C   UNL     1       2.858  -8.376  10.503  1.00  0.00     0.000 C 
BRANCH   3   4
ATOM      4  C   UNL     1       2.735  -6.883  10.859  1.00  0.00     0.000 C 
BRANCH   4   5
ATOM      5  C   UNL     1       1.319  -6.421  11.251  1.00  0.00     0.000 C 
BRANCH   5   6
ATOM      6  C   UNL     1       0.523  -7.472  12.055  1.00  0.00     0.006 C 
BRANCH   6   7
ATOM      7  C   UNL     1      -0.954  -7.530  11.645  1.00  0.00     0.053 C 
BRANCH   7   8
ATOM      8  C   UNL     1      -1.089  -8.042  10.247  1.00  0.00     0.041 C 
ATOM      9  O   UNL     1      -1.125  -9.281  10.026  1.00  0.00    -0.550 OA
ATOM     10  O   UNL     1      -1.125  -7.152   9.180  1.00  0.00    -0.550 OA
ENDBRANCH   7   8
ENDBRANCH   6   7
ENDBRANCH   5   6
ENDBRANCH   4   5
ENDBRANCH   3   4
ENDBRANCH   2   3
ENDBRANCH   1   2
BRANCH   1  11
ATOM     11  C   UNL     1       4.499  -7.525  12.961  1.00  0.00     0.000 C 
BRANCH  11  12
ATOM     12  C   UNL     1       5.186  -6.632  11.916  1.00  0.00    -0.000 C 
BRANCH  12  13
ATOM     13  C   UNL     1       6.719  -6.701  11.996  1.00  0.00    -0.000 C 
BRANCH  13  14
ATOM     14  C   UNL     1       7.176  -7.147  13.390  1.00  0.00    -0.000 C 
BRANCH  14  15
ATOM     15  C   UNL     1       8.539  -6.534  13.745  1.00  0.00    -0.000 C 
BRANCH  15  16
ATOM     16  C   UNL     1       8.477  -5.674  15.026  1.00  0.00    -0.000 C 
BRANCH  16  17
ATOM     17  C   UNL     1       7.380  -4.597  14.991  1.00  0.00    -0.003 C 
ATOM     18  C   UNL     1       6.519  -4.576  16.253  1.00  0.00     0.004 C 
ENDBRANCH  16  17
ENDBRANCH  15  16
ENDBRANCH  14  15
ENDBRANCH  13  14
ENDBRANCH  12  13
ENDBRANCH  11  12
ENDBRANCH   1  11
TORSDOF 14
ENDMDL
MODEL 7
REMARK VINA RESULT:    11.544      1.723      2.657
REMARK INTER + INTRA:          20.643
REMARK INTER:                  20.610
REMARK INTRA:                   0.033
REMARK UNBOUND:                -0.350
REMARK SMILES CCCCCCCCCCCCCCCC(=O)[O-]
REMARK SMILES IDX 9 1 10 2 11 3 12 4 13 5 14 6 15 7 16 8 17 9 18 10 8 11 7 12
REMARK SMILES IDX 6 13 5 14 4 15 3 16 2 17 1 18
REMARK H PARENT
REMARK Flexibility Score: inf
ROOT
ATOM      1  C   UNL     1       0.803  -8.304  12.233  1.00  0.00     0.000 C 
ENDROOT
BRANCH   1   2
ATOM      2  C   UNL     1      -0.612  -7.900  11.795  1.00  0.00     0.000 C 
BRANCH   2   3
ATOM      3  C   UNL     1      -0.982  -8.433  10.398  1.00  0.00     0.000 C 
BRANCH   3   4
ATOM      4  C   UNL     1      -1.034  -7.368   9.287  1.00  0.00     0.000 C 
BRANCH   4   5
ATOM      5  C   UNL     1      -0.440  -5.999   9.669  1.00  0.00     0.000 C 
BRANCH   5   6
ATOM      6  C   UNL     1       0.390  -5.346   8.543  1.00  0.00     0.006 C 
BRANCH   6   7
ATOM      7  C   UNL     1       1.900  -5.420   8.807  1.00  0.00     0.053 C 
BRANCH   7   8
ATOM      8  C   UNL     1       2.278  -4.511   9.933  1.00  0.00     0.041 C 
ATOM      9  O   UNL     1       2.364  -3.269   9.743  1.00  0.00    -0.550 OA
ATOM     10  O   UNL     1       2.585  -5.040  11.180  1.00  0.00    -0.550 OA
ENDBRANCH   7   8
ENDBRANCH   6   7
ENDBRANCH   5   6
ENDBRANCH   4   5
ENDBRANCH   3   4
ENDBRANCH   2   3
ENDBRANCH   1   2
BRANCH   1  11
ATOM     11  C   UNL     1       1.862  -7.440  11.529  1.00  0.00     0.000 C 
BRANCH  11  12
ATOM     12  C   UNL     1       2.716  -8.243  10.535  1.00  0.00    -0.000 C 
BRANCH  12  13
ATOM     13  C   UNL     1       4.149  -8.474  11.039  1.00  0.00    -0.000 C 
BRANCH  13  14
ATOM     14  C   UNL     1       4.601  -7.327  11.951  1.00  0.00    -0.000 C 
BRANCH  14  15
ATOM     15  C   UNL     1       5.123  -7.863  13.293  1.00  0.00    -0.000 C 
BRANCH  15  16
ATOM     16  C   UNL     1       4.654  -9.308  13.568  1.00  0.00    -0.000 C 
BRANCH  16  17
ATOM     17  C   UNL     1       3.327  -9.387  14.341  1.00  0.00    -0.003 C 
ATOM     18  C   UNL     1       3.452 -10.124  15.673  1.00  0.00     0.004 C 
ENDBRANCH  16  17
ENDBRANCH  15  16
ENDBRANCH  14  15
ENDBRANCH  13  14
ENDBRANCH  12  13
ENDBRANCH  11  12
ENDBRANCH   1  11
TORSDOF 14
ENDMDL
MODEL 8
REMARK VINA RESULT:    11.806      1.855      2.794
REMARK INTER + INTRA:          21.118
REMARK INTER:                  21.563
REMARK INTRA:                  -0.444
REMARK UNBOUND:                -0.350
REMARK SMILES CCCCCCCCCCCCCCCC(=O)[O-]
REMARK SMILES IDX 9 1 10 2 11 3 12 4 13 5 14 6 15 7 16 8 17 9 18 10 8 11 7 12
REMARK SMILES IDX 6 13 5 14 4 15 3 16 2 17 1 18
REMARK H PARENT
REMARK Flexibility Score: inf
ROOT
ATOM      1  C   UNL     1       2.889  -6.813  12.483  1.00  0.00     0.000 C 
ENDROOT
BRANCH   1   2
ATOM      2  C   UNL     1       2.084  -6.827  11.175  1.00  0.00     0.000 C 
BRANCH   2   3
ATOM      3  C   UNL     1       2.433  -5.650  10.243  1.00  0.00     0.000 C 
BRANCH   3   4
ATOM      4  C   UNL     1       1.225  -4.836   9.744  1.00  0.00     0.000 C 
BRANCH   4   5
ATOM      5  C   UNL     1       0.343  -5.551   8.703  1.00  0.00     0.000 C 
BRANCH   5   6
ATOM      6  C   UNL     1      -1.001  -6.058   9.269  1.00  0.00     0.006 C 
BRANCH   6   7
ATOM      7  C   UNL     1      -1.124  -7.587   9.209  1.00  0.00     0.053 C 
BRANCH   7   8
ATOM      8  C   UNL     1      -0.933  -8.181  10.568  1.00  0.00     0.041 C 
ATOM      9  O   UNL     1      -0.892  -7.437  11.584  1.00  0.00    -0.550 OA
ATOM     10  O   UNL     1      -0.750  -9.550  10.710  1.00  0.00    -0.550 OA
ENDBRANCH   7   8
ENDBRANCH   6   7
ENDBRANCH   5   6
ENDBRANCH   4   5
ENDBRANCH   3   4
ENDBRANCH   2   3
ENDBRANCH   1   2
BRANCH   1  11
ATOM     11  C   UNL     1       3.214  -8.244  12.941  1.00  0.00     0.000 C 
BRANCH  11  12
ATOM     12  C   UNL     1       4.691  -8.614  12.728  1.00  0.00    -0.000 C 
BRANCH  12  13
ATOM     13  C   UNL     1       5.358  -7.774  11.628  1.00  0.00    -0.000 C 
BRANCH  13  14
ATOM     14  C   UNL     1       6.119  -6.586  12.231  1.00  0.00    -0.000 C 
BRANCH  14  15
ATOM     15  C   UNL     1       7.543  -6.992  12.639  1.00  0.00    -0.000 C 
BRANCH  15  16
ATOM     16  C   UNL     1       7.810  -6.757  14.141  1.00  0.00    -0.000 C 
BRANCH  16  17
ATOM     17  C   UNL     1       8.211  -5.311  14.476  1.00  0.00    -0.003 C 
ATOM     18  C   UNL     1       7.181  -4.587  15.340  1.00  0.00     0.004 C 
ENDBRANCH  16  17
ENDBRANCH  15  16
ENDBRANCH  14  15
ENDBRANCH  13  14
ENDBRANCH  12  13
ENDBRANCH  11  12
ENDBRANCH   1  11
TORSDOF 14
ENDMDL
MODEL 9
REMARK VINA RESULT:    11.824      2.369      6.928
REMARK INTER + INTRA:          21.152
REMARK INTER:                  21.661
REMARK INTRA:                  -0.509
REMARK UNBOUND:                -0.350
REMARK SMILES CCCCCCCCCCCCCCCC(=O)[O-]
REMARK SMILES IDX 9 1 10 2 11 3 12 4 13 5 14 6 15 7 16 8 17 9 18 10 8 11 7 12
REMARK SMILES IDX 6 13 5 14 4 15 3 16 2 17 1 18
REMARK H PARENT
REMARK Flexibility Score: inf
ROOT
ATOM      1  C   UNL     1       2.319  -6.256  11.610  1.00  0.00     0.000 C 
ENDROOT
BRANCH   1   2
ATOM      2  C   UNL     1       2.611  -7.729  11.292  1.00  0.00     0.000 C 
BRANCH   2   3
ATOM      3  C   UNL     1       3.878  -8.254  11.994  1.00  0.00     0.000 C 
BRANCH   3   4
ATOM      4  C   UNL     1       4.852  -7.164  12.480  1.00  0.00     0.000 C 
BRANCH   4   5
ATOM      5  C   UNL     1       6.234  -7.175  11.801  1.00  0.00     0.000 C 
BRANCH   5   6
ATOM      6  C   UNL     1       7.279  -6.281  12.502  1.00  0.00     0.006 C 
BRANCH   6   7
ATOM      7  C   UNL     1       7.507  -6.682  13.966  1.00  0.00     0.053 C 
BRANCH   7   8
ATOM      8  C   UNL     1       7.797  -5.475  14.800  1.00  0.00     0.041 C 
ATOM      9  O   UNL     1       6.863  -4.877  15.396  1.00  0.00    -0.550 OA
ATOM     10  O   UNL     1       9.092  -4.979  14.878  1.00  0.00    -0.550 OA
ENDBRANCH   7   8
ENDBRANCH   6   7
ENDBRANCH   5   6
ENDBRANCH   4   5
ENDBRANCH   3   4
ENDBRANCH   2   3
ENDBRANCH   1   2
BRANCH   1  11
ATOM     11  C   UNL     1       2.812  -5.342  10.478  1.00  0.00     0.000 C 
BRANCH  11  12
ATOM     12  C   UNL     1       1.661  -4.647   9.732  1.00  0.00    -0.000 C 
BRANCH  12  13
ATOM     13  C   UNL     1       0.850  -5.617   8.861  1.00  0.00    -0.000 C 
BRANCH  13  14
ATOM     14  C   UNL     1      -0.555  -5.831   9.440  1.00  0.00    -0.000 C 
BRANCH  14  15
ATOM     15  C   UNL     1      -1.117  -7.201   9.031  1.00  0.00    -0.000 C 
BRANCH  15  16
ATOM     16  C   UNL     1      -1.034  -8.232  10.177  1.00  0.00    -0.000 C 
BRANCH  16  17
ATOM     17  C   UNL     1      -0.801  -7.598  11.559  1.00  0.00    -0.003 C 
ATOM     18  C   UNL     1      -0.048  -8.515  12.520  1.00  0.00     0.004 C 
ENDBRANCH  16  17
ENDBRANCH  15  16
ENDBRANCH  14  15
ENDBRANCH  13  14
ENDBRANCH  12  13
ENDBRANCH  11  12
ENDBRANCH   1  11
TORSDOF 14
ENDMDL
