MODEL 1
REMARK VINA RESULT:    -4.262      0.000      0.000
REMARK INTER + INTRA:         -14.578
REMARK INTER:                 -10.740
REMARK INTRA:                  -3.837
REMARK UNBOUND:                -3.837
REMARK SMILES CCCCCCCCCCCCCCCCCCCCCCCCCCCC(=O)[O-]
REMARK SMILES IDX 15 1 16 2 17 3 18 4 19 5 20 6 21 7 22 8 23 9 24 10 25 11
REMARK SMILES IDX 26 12 27 13 28 14 29 15 30 16 14 17 13 18 12 19 11 20 10 21
REMARK SMILES IDX 9 22 8 23 7 24 6 25 5 26 4 27 3 28 2 29 1 30
REMARK H PARENT
REMARK Flexibility Score: inf
ROOT
ATOM      1  C   UNL     1     -54.469  14.191 -31.588  1.00  0.00     0.000 C 
ENDROOT
BRANCH   1   2
ATOM      2  C   UNL     1     -52.964  14.521 -31.599  1.00  0.00     0.000 C 
BRANCH   2   3
ATOM      3  C   UNL     1     -52.055  13.422 -31.014  1.00  0.00     0.000 C 
BRANCH   3   4
ATOM      4  C   UNL     1     -51.334  13.801 -29.707  1.00  0.00     0.000 C 
BRANCH   4   5
ATOM      5  C   UNL     1     -52.259  14.102 -28.511  1.00  0.00     0.000 C 
BRANCH   5   6
ATOM      6  C   UNL     1     -53.401  13.090 -28.300  1.00  0.00     0.000 C 
BRANCH   6   7
ATOM      7  C   UNL     1     -54.752  13.761 -28.019  1.00  0.00     0.000 C 
BRANCH   7   8
ATOM      8  C   UNL     1     -54.782  15.187 -28.583  1.00  0.00     0.000 C 
BRANCH   8   9
ATOM      9  C   UNL     1     -55.814  16.051 -27.842  1.00  0.00     0.000 C 
BRANCH   9  10
ATOM     10  C   UNL     1     -55.160  17.165 -27.009  1.00  0.00     0.000 C 
BRANCH  10  11
ATOM     11  C   UNL     1     -55.851  18.527 -27.199  1.00  0.00     0.000 C 
BRANCH  11  12
ATOM     12  C   UNL     1     -55.522  19.184 -28.552  1.00  0.00     0.006 C 
BRANCH  12  13
ATOM     13  C   UNL     1     -54.029  19.138 -28.921  1.00  0.00     0.053 C 
BRANCH  13  14
ATOM     14  C   UNL     1     -53.804  19.053 -30.399  1.00  0.00     0.041 C 
ATOM     15  O   UNL     1     -53.169  18.082 -30.888  1.00  0.00    -0.550 OA
ATOM     16  O   UNL     1     -54.322  20.028 -31.242  1.00  0.00    -0.550 OA
ENDBRANCH  13  14
ENDBRANCH  12  13
ENDBRANCH  11  12
ENDBRANCH  10  11
ENDBRANCH   9  10
ENDBRANCH   8   9
ENDBRANCH   7   8
ENDBRANCH   6   7
ENDBRANCH   5   6
ENDBRANCH   4   5
ENDBRANCH   3   4
ENDBRANCH   2   3
ENDBRANCH   1   2
BRANCH   1  17
ATOM     17  C   UNL     1     -54.816  12.720 -31.895  1.00  0.00     0.000 C 
BRANCH  17  18
ATOM     18  C   UNL     1     -55.810  12.063 -30.916  1.00  0.00     0.000 C 
BRANCH  18  19
ATOM     19  C   UNL     1     -55.501  10.598 -30.559  1.00  0.00     0.000 C 
BRANCH  19  20
ATOM     20  C   UNL     1     -54.369  10.003 -31.408  1.00  0.00     0.000 C 
BRANCH  20  21
ATOM     21  C   UNL     1     -54.763   8.621 -31.947  1.00  0.00     0.000 C 
BRANCH  21  22
ATOM     22  C   UNL     1     -53.896   8.171 -33.133  1.00  0.00    -0.000 C 
BRANCH  22  23
ATOM     23  C   UNL     1     -52.524   8.877 -33.195  1.00  0.00    -0.000 C 
BRANCH  23  24
ATOM     24  C   UNL     1     -51.360   7.875 -33.291  1.00  0.00    -0.000 C 
BRANCH  24  25
ATOM     25  C   UNL     1     -49.979   8.550 -33.139  1.00  0.00    -0.000 C 
BRANCH  25  26
ATOM     26  C   UNL     1     -49.103   7.933 -32.031  1.00  0.00    -0.000 C 
BRANCH  26  27
ATOM     27  C   UNL     1     -49.524   8.285 -30.592  1.00  0.00    -0.000 C 
BRANCH  27  28
ATOM     28  C   UNL     1     -50.115   9.699 -30.408  1.00  0.00    -0.000 C 
BRANCH  28  29
ATOM     29  C   UNL     1     -51.298   9.786 -29.430  1.00  0.00    -0.003 C 
ATOM     30  C   UNL     1     -52.119   8.498 -29.371  1.00  0.00     0.004 C 
ENDBRANCH  28  29
ENDBRANCH  27  28
ENDBRANCH  26  27
ENDBRANCH  25  26
ENDBRANCH  24  25
ENDBRANCH  23  24
ENDBRANCH  22  23
ENDBRANCH  21  22
ENDBRANCH  20  21
ENDBRANCH  19  20
ENDBRANCH  18  19
ENDBRANCH  17  18
ENDBRANCH   1  17
TORSDOF 26
ENDMDL
MODEL 2
REMARK VINA RESULT:    -4.211      3.228      7.074
REMARK INTER + INTRA:         -14.448
REMARK INTER:                 -10.083
REMARK INTRA:                  -4.365
REMARK UNBOUND:                -3.837
REMARK SMILES CCCCCCCCCCCCCCCCCCCCCCCCCCCC(=O)[O-]
REMARK SMILES IDX 15 1 16 2 17 3 18 4 19 5 20 6 21 7 22 8 23 9 24 10 25 11
REMARK SMILES IDX 26 12 27 13 28 14 29 15 30 16 14 17 13 18 12 19 11 20 10 21
REMARK SMILES IDX 9 22 8 23 7 24 6 25 5 26 4 27 3 28 2 29 1 30
REMARK H PARENT
REMARK Flexibility Score: inf
ROOT
ATOM      1  C   UNL     1     -54.465  19.160 -30.197  1.00  0.00     0.000 C 
ENDROOT
BRANCH   1   2
ATOM      2  C   UNL     1     -54.137  17.952 -31.097  1.00  0.00     0.000 C 
BRANCH   2   3
ATOM      3  C   UNL     1     -52.685  17.447 -30.999  1.00  0.00     0.000 C 
BRANCH   3   4
ATOM      4  C   UNL     1     -52.450  16.030 -31.557  1.00  0.00     0.000 C 
BRANCH   4   5
ATOM      5  C   UNL     1     -53.717  15.162 -31.694  1.00  0.00     0.000 C 
BRANCH   5   6
ATOM      6  C   UNL     1     -53.458  13.673 -31.992  1.00  0.00     0.000 C 
BRANCH   6   7
ATOM      7  C   UNL     1     -54.721  12.809 -31.873  1.00  0.00     0.000 C 
BRANCH   7   8
ATOM      8  C   UNL     1     -54.376  11.404 -31.363  1.00  0.00     0.000 C 
BRANCH   8   9
ATOM      9  C   UNL     1     -55.495  10.852 -30.467  1.00  0.00     0.000 C 
BRANCH   9  10
ATOM     10  C   UNL     1     -55.269   9.382 -30.081  1.00  0.00     0.000 C 
BRANCH  10  11
ATOM     11  C   UNL     1     -53.776   9.023 -29.976  1.00  0.00     0.000 C 
BRANCH  11  12
ATOM     12  C   UNL     1     -53.294   8.114 -31.122  1.00  0.00     0.006 C 
BRANCH  12  13
ATOM     13  C   UNL     1     -54.351   7.875 -32.215  1.00  0.00     0.053 C 
BRANCH  13  14
ATOM     14  C   UNL     1     -53.791   8.013 -33.597  1.00  0.00     0.041 C 
ATOM     15  O   UNL     1     -54.556   8.239 -34.571  1.00  0.00    -0.550 OA
ATOM     16  O   UNL     1     -52.420   7.924 -33.808  1.00  0.00    -0.550 OA
ENDBRANCH  13  14
ENDBRANCH  12  13
ENDBRANCH  11  12
ENDBRANCH  10  11
ENDBRANCH   9  10
ENDBRANCH   8   9
ENDBRANCH   7   8
ENDBRANCH   6   7
ENDBRANCH   5   6
ENDBRANCH   4   5
ENDBRANCH   3   4
ENDBRANCH   2   3
ENDBRANCH   1   2
BRANCH   1  17
ATOM     17  C   UNL     1     -54.090  18.987 -28.712  1.00  0.00     0.000 C 
BRANCH  17  18
ATOM     18  C   UNL     1     -55.245  18.540 -27.793  1.00  0.00     0.000 C 
BRANCH  18  19
ATOM     19  C   UNL     1     -55.867  17.177 -28.144  1.00  0.00     0.000 C 
BRANCH  19  20
ATOM     20  C   UNL     1     -55.068  15.993 -27.580  1.00  0.00     0.000 C 
BRANCH  20  21
ATOM     21  C   UNL     1     -54.790  14.955 -28.676  1.00  0.00     0.000 C 
BRANCH  21  22
ATOM     22  C   UNL     1     -54.774  13.513 -28.144  1.00  0.00    -0.000 C 
BRANCH  22  23
ATOM     23  C   UNL     1     -53.359  12.898 -28.077  1.00  0.00    -0.000 C 
BRANCH  23  24
ATOM     24  C   UNL     1     -52.279  13.872 -28.583  1.00  0.00    -0.000 C 
BRANCH  24  25
ATOM     25  C   UNL     1     -51.207  13.175 -29.448  1.00  0.00    -0.000 C 
BRANCH  25  26
ATOM     26  C   UNL     1     -51.365  11.645 -29.525  1.00  0.00    -0.000 C 
BRANCH  26  27
ATOM     27  C   UNL     1     -50.782  10.989 -30.791  1.00  0.00    -0.000 C 
BRANCH  27  28
ATOM     28  C   UNL     1     -49.377  10.372 -30.623  1.00  0.00    -0.000 C 
BRANCH  28  29
ATOM     29  C   UNL     1     -49.216   9.445 -29.408  1.00  0.00    -0.003 C 
ATOM     30  C   UNL     1     -49.950   8.114 -29.572  1.00  0.00     0.004 C 
ENDBRANCH  28  29
ENDBRANCH  27  28
ENDBRANCH  26  27
ENDBRANCH  25  26
ENDBRANCH  24  25
ENDBRANCH  23  24
ENDBRANCH  22  23
ENDBRANCH  21  22
ENDBRANCH  20  21
ENDBRANCH  19  20
ENDBRANCH  18  19
ENDBRANCH  17  18
ENDBRANCH   1  17
TORSDOF 26
ENDMDL
MODEL 3
REMARK VINA RESULT:    -4.166      2.738      8.717
REMARK INTER + INTRA:         -14.337
REMARK INTER:                 -10.487
REMARK INTRA:                  -3.850
REMARK UNBOUND:                -3.837
REMARK SMILES CCCCCCCCCCCCCCCCCCCCCCCCCCCC(=O)[O-]
REMARK SMILES IDX 15 1 16 2 17 3 18 4 19 5 20 6 21 7 22 8 23 9 24 10 25 11
REMARK SMILES IDX 26 12 27 13 28 14 29 15 30 16 14 17 13 18 12 19 11 20 10 21
REMARK SMILES IDX 9 22 8 23 7 24 6 25 5 26 4 27 3 28 2 29 1 30
REMARK H PARENT
REMARK Flexibility Score: inf
ROOT
ATOM      1  C   UNL     1     -51.545  15.373 -30.404  1.00  0.00     0.000 C 
ENDROOT
BRANCH   1   2
ATOM      2  C   UNL     1     -52.201  14.910 -31.720  1.00  0.00     0.000 C 
BRANCH   2   3
ATOM      3  C   UNL     1     -53.548  14.181 -31.552  1.00  0.00     0.000 C 
BRANCH   3   4
ATOM      4  C   UNL     1     -53.858  13.129 -32.634  1.00  0.00     0.000 C 
BRANCH   4   5
ATOM      5  C   UNL     1     -53.447  11.685 -32.281  1.00  0.00     0.000 C 
BRANCH   5   6
ATOM      6  C   UNL     1     -54.554  10.833 -31.632  1.00  0.00     0.000 C 
BRANCH   6   7
ATOM      7  C   UNL     1     -54.281   9.326 -31.724  1.00  0.00     0.000 C 
BRANCH   7   8
ATOM      8  C   UNL     1     -53.347   9.010 -32.899  1.00  0.00     0.000 C 
BRANCH   8   9
ATOM      9  C   UNL     1     -52.375   7.875 -32.542  1.00  0.00     0.000 C 
BRANCH   9  10
ATOM     10  C   UNL     1     -50.997   8.051 -33.201  1.00  0.00     0.000 C 
BRANCH  10  11
ATOM     11  C   UNL     1     -50.475   9.495 -33.099  1.00  0.00     0.000 C 
BRANCH  11  12
ATOM     12  C   UNL     1     -49.365   9.661 -32.045  1.00  0.00     0.006 C 
BRANCH  12  13
ATOM     13  C   UNL     1     -49.845  10.291 -30.726  1.00  0.00     0.053 C 
BRANCH  13  14
ATOM     14  C   UNL     1     -48.751  10.402 -29.710  1.00  0.00     0.041 C 
ATOM     15  O   UNL     1     -48.344  11.535 -29.340  1.00  0.00    -0.550 OA
ATOM     16  O   UNL     1     -48.202   9.258 -29.145  1.00  0.00    -0.550 OA
ENDBRANCH  13  14
ENDBRANCH  12  13
ENDBRANCH  11  12
ENDBRANCH  10  11
ENDBRANCH   9  10
ENDBRANCH   8   9
ENDBRANCH   7   8
ENDBRANCH   6   7
ENDBRANCH   5   6
ENDBRANCH   4   5
ENDBRANCH   3   4
ENDBRANCH   2   3
ENDBRANCH   1   2
BRANCH   1  17
ATOM     17  C   UNL     1     -50.888  14.253 -29.574  1.00  0.00     0.000 C 
BRANCH  17  18
ATOM     18  C   UNL     1     -51.802  13.596 -28.520  1.00  0.00     0.000 C 
BRANCH  18  19
ATOM     19  C   UNL     1     -52.283  12.176 -28.869  1.00  0.00     0.000 C 
BRANCH  19  20
ATOM     20  C   UNL     1     -53.799  12.001 -28.699  1.00  0.00     0.000 C 
BRANCH  20  21
ATOM     21  C   UNL     1     -54.431  13.275 -28.123  1.00  0.00     0.000 C 
BRANCH  21  22
ATOM     22  C   UNL     1     -55.774  13.629 -28.784  1.00  0.00    -0.000 C 
BRANCH  22  23
ATOM     23  C   UNL     1     -55.988  15.147 -28.967  1.00  0.00    -0.000 C 
BRANCH  23  24
ATOM     24  C   UNL     1     -54.753  15.962 -28.543  1.00  0.00    -0.000 C 
BRANCH  24  25
ATOM     25  C   UNL     1     -55.032  16.879 -27.333  1.00  0.00    -0.000 C 
BRANCH  25  26
ATOM     26  C   UNL     1     -55.840  18.144 -27.681  1.00  0.00    -0.000 C 
BRANCH  26  27
ATOM     27  C   UNL     1     -54.997  19.373 -28.070  1.00  0.00    -0.000 C 
BRANCH  27  28
ATOM     28  C   UNL     1     -54.255  19.259 -29.418  1.00  0.00    -0.000 C 
BRANCH  28  29
ATOM     29  C   UNL     1     -55.161  19.246 -30.659  1.00  0.00    -0.003 C 
ATOM     30  C   UNL     1     -55.455  20.647 -31.197  1.00  0.00     0.004 C 
ENDBRANCH  28  29
ENDBRANCH  27  28
ENDBRANCH  26  27
ENDBRANCH  25  26
ENDBRANCH  24  25
ENDBRANCH  23  24
ENDBRANCH  22  23
ENDBRANCH  21  22
ENDBRANCH  20  21
ENDBRANCH  19  20
ENDBRANCH  18  19
ENDBRANCH  17  18
ENDBRANCH   1  17
TORSDOF 26
ENDMDL
MODEL 4
REMARK VINA RESULT:    -4.054      2.927      7.280
REMARK INTER + INTRA:         -14.054
REMARK INTER:                 -10.676
REMARK INTRA:                  -3.377
REMARK UNBOUND:                -3.837
REMARK SMILES CCCCCCCCCCCCCCCCCCCCCCCCCCCC(=O)[O-]
REMARK SMILES IDX 15 1 16 2 17 3 18 4 19 5 20 6 21 7 22 8 23 9 24 10 25 11
REMARK SMILES IDX 26 12 27 13 28 14 29 15 30 16 14 17 13 18 12 19 11 20 10 21
REMARK SMILES IDX 9 22 8 23 7 24 6 25 5 26 4 27 3 28 2 29 1 30
REMARK H PARENT
REMARK Flexibility Score: inf
ROOT
ATOM      1  C   UNL     1     -55.298  17.300 -28.661  1.00  0.00     0.000 C 
ENDROOT
BRANCH   1   2
ATOM      2  C   UNL     1     -55.532  16.539 -27.342  1.00  0.00     0.000 C 
BRANCH   2   3
ATOM      3  C   UNL     1     -56.027  15.089 -27.509  1.00  0.00     0.000 C 
BRANCH   3   4
ATOM      4  C   UNL     1     -55.688  14.438 -28.864  1.00  0.00     0.000 C 
BRANCH   4   5
ATOM      5  C   UNL     1     -54.799  13.181 -28.784  1.00  0.00     0.000 C 
BRANCH   5   6
ATOM      6  C   UNL     1     -53.444  13.386 -28.080  1.00  0.00     0.000 C 
BRANCH   6   7
ATOM      7  C   UNL     1     -52.414  12.306 -28.438  1.00  0.00     0.000 C 
BRANCH   7   8
ATOM      8  C   UNL     1     -50.985  12.822 -28.226  1.00  0.00     0.000 C 
BRANCH   8   9
ATOM      9  C   UNL     1     -49.986  12.058 -29.107  1.00  0.00     0.000 C 
BRANCH   9  10
ATOM     10  C   UNL     1     -50.045  10.538 -28.884  1.00  0.00     0.000 C 
BRANCH  10  11
ATOM     11  C   UNL     1     -48.775   9.820 -29.375  1.00  0.00     0.000 C 
BRANCH  11  12
ATOM     12  C   UNL     1     -49.023   8.347 -29.747  1.00  0.00     0.006 C 
BRANCH  12  13
ATOM     13  C   UNL     1     -50.101   8.149 -30.827  1.00  0.00     0.053 C 
BRANCH  13  14
ATOM     14  C   UNL     1     -49.670   8.656 -32.169  1.00  0.00     0.041 C 
ATOM     15  O   UNL     1     -49.622   7.875 -33.156  1.00  0.00    -0.550 OA
ATOM     16  O   UNL     1     -49.351   9.998 -32.340  1.00  0.00    -0.550 OA
ENDBRANCH  13  14
ENDBRANCH  12  13
ENDBRANCH  11  12
ENDBRANCH  10  11
ENDBRANCH   9  10
ENDBRANCH   8   9
ENDBRANCH   7   8
ENDBRANCH   6   7
ENDBRANCH   5   6
ENDBRANCH   4   5
ENDBRANCH   3   4
ENDBRANCH   2   3
ENDBRANCH   1   2
BRANCH   1  17
ATOM     17  C   UNL     1     -54.532  18.630 -28.518  1.00  0.00     0.000 C 
BRANCH  17  18
ATOM     18  C   UNL     1     -54.055  19.257 -29.844  1.00  0.00     0.000 C 
BRANCH  18  19
ATOM     19  C   UNL     1     -52.985  18.449 -30.600  1.00  0.00     0.000 C 
BRANCH  19  20
ATOM     20  C   UNL     1     -53.540  17.158 -31.219  1.00  0.00     0.000 C 
BRANCH  20  21
ATOM     21  C   UNL     1     -52.419  16.354 -31.893  1.00  0.00     0.000 C 
BRANCH  21  22
ATOM     22  C   UNL     1     -51.856  15.242 -30.993  1.00  0.00    -0.000 C 
BRANCH  22  23
ATOM     23  C   UNL     1     -52.138  13.820 -31.524  1.00  0.00    -0.000 C 
BRANCH  23  24
ATOM     24  C   UNL     1     -53.623  13.614 -31.871  1.00  0.00    -0.000 C 
BRANCH  24  25
ATOM     25  C   UNL     1     -53.947  12.156 -32.264  1.00  0.00    -0.000 C 
BRANCH  25  26
ATOM     26  C   UNL     1     -52.725  11.218 -32.241  1.00  0.00    -0.000 C 
BRANCH  26  27
ATOM     27  C   UNL     1     -53.020   9.750 -32.601  1.00  0.00    -0.000 C 
BRANCH  27  28
ATOM     28  C   UNL     1     -54.145   9.086 -31.779  1.00  0.00    -0.000 C 
BRANCH  28  29
ATOM     29  C   UNL     1     -53.934   9.105 -30.256  1.00  0.00    -0.003 C 
ATOM     30  C   UNL     1     -55.069   9.801 -29.505  1.00  0.00     0.004 C 
ENDBRANCH  28  29
ENDBRANCH  27  28
ENDBRANCH  26  27
ENDBRANCH  25  26
ENDBRANCH  24  25
ENDBRANCH  23  24
ENDBRANCH  22  23
ENDBRANCH  21  22
ENDBRANCH  20  21
ENDBRANCH  19  20
ENDBRANCH  18  19
ENDBRANCH  17  18
ENDBRANCH   1  17
TORSDOF 26
ENDMDL
MODEL 5
REMARK VINA RESULT:    -4.042      2.899      7.783
REMARK INTER + INTRA:         -14.024
REMARK INTER:                 -10.490
REMARK INTRA:                  -3.534
REMARK UNBOUND:                -3.837
REMARK SMILES CCCCCCCCCCCCCCCCCCCCCCCCCCCC(=O)[O-]
REMARK SMILES IDX 15 1 16 2 17 3 18 4 19 5 20 6 21 7 22 8 23 9 24 10 25 11
REMARK SMILES IDX 26 12 27 13 28 14 29 15 30 16 14 17 13 18 12 19 11 20 10 21
REMARK SMILES IDX 9 22 8 23 7 24 6 25 5 26 4 27 3 28 2 29 1 30
REMARK H PARENT
REMARK Flexibility Score: inf
ROOT
ATOM      1  C   UNL     1     -52.543   7.876 -31.711  1.00  0.00     0.000 C 
ENDROOT
BRANCH   1   2
ATOM      2  C   UNL     1     -52.490   8.839 -32.913  1.00  0.00     0.000 C 
BRANCH   2   3
ATOM      3  C   UNL     1     -53.317  10.129 -32.748  1.00  0.00     0.000 C 
BRANCH   3   4
ATOM      4  C   UNL     1     -52.502  11.435 -32.804  1.00  0.00     0.000 C 
BRANCH   4   5
ATOM      5  C   UNL     1     -52.507  12.266 -31.505  1.00  0.00     0.000 C 
BRANCH   5   6
ATOM      6  C   UNL     1     -53.200  13.637 -31.611  1.00  0.00     0.000 C 
BRANCH   6   7
ATOM      7  C   UNL     1     -52.319  14.793 -31.117  1.00  0.00     0.000 C 
BRANCH   7   8
ATOM      8  C   UNL     1     -51.219  14.280 -30.179  1.00  0.00     0.000 C 
BRANCH   8   9
ATOM      9  C   UNL     1     -51.808  13.817 -28.838  1.00  0.00     0.000 C 
BRANCH   9  10
ATOM     10  C   UNL     1     -51.023  12.648 -28.222  1.00  0.00     0.000 C 
BRANCH  10  11
ATOM     11  C   UNL     1     -49.889  12.153 -29.137  1.00  0.00     0.000 C 
BRANCH  11  12
ATOM     12  C   UNL     1     -49.679  10.629 -29.064  1.00  0.00     0.006 C 
BRANCH  12  13
ATOM     13  C   UNL     1     -48.529  10.115 -29.947  1.00  0.00     0.053 C 
BRANCH  13  14
ATOM     14  C   UNL     1     -49.018   9.367 -31.149  1.00  0.00     0.041 C 
ATOM     15  O   UNL     1     -49.124   8.112 -31.115  1.00  0.00    -0.550 OA
ATOM     16  O   UNL     1     -49.387  10.056 -32.298  1.00  0.00    -0.550 OA
ENDBRANCH  13  14
ENDBRANCH  12  13
ENDBRANCH  11  12
ENDBRANCH  10  11
ENDBRANCH   9  10
ENDBRANCH   8   9
ENDBRANCH   7   8
ENDBRANCH   6   7
ENDBRANCH   5   6
ENDBRANCH   4   5
ENDBRANCH   3   4
ENDBRANCH   2   3
ENDBRANCH   1   2
BRANCH   1  17
ATOM     17  C   UNL     1     -52.955   8.526 -30.374  1.00  0.00     0.000 C 
BRANCH  17  18
ATOM     18  C   UNL     1     -54.339   8.103 -29.840  1.00  0.00     0.000 C 
BRANCH  18  19
ATOM     19  C   UNL     1     -55.534   8.838 -30.474  1.00  0.00     0.000 C 
BRANCH  19  20
ATOM     20  C   UNL     1     -56.110   9.935 -29.567  1.00  0.00     0.000 C 
BRANCH  20  21
ATOM     21  C   UNL     1     -55.658  11.323 -30.040  1.00  0.00     0.000 C 
BRANCH  21  22
ATOM     22  C   UNL     1     -55.129  12.202 -28.895  1.00  0.00    -0.000 C 
BRANCH  22  23
ATOM     23  C   UNL     1     -55.957  13.487 -28.673  1.00  0.00    -0.000 C 
BRANCH  23  24
ATOM     24  C   UNL     1     -55.065  14.731 -28.515  1.00  0.00    -0.000 C 
BRANCH  24  25
ATOM     25  C   UNL     1     -55.853  15.971 -28.040  1.00  0.00    -0.000 C 
BRANCH  25  26
ATOM     26  C   UNL     1     -54.974  17.055 -27.386  1.00  0.00    -0.000 C 
BRANCH  26  27
ATOM     27  C   UNL     1     -55.355  18.506 -27.737  1.00  0.00    -0.000 C 
BRANCH  27  28
ATOM     28  C   UNL     1     -54.390  19.221 -28.706  1.00  0.00    -0.000 C 
BRANCH  28  29
ATOM     29  C   UNL     1     -53.950  18.386 -29.920  1.00  0.00    -0.003 C 
ATOM     30  C   UNL     1     -55.121  17.963 -30.807  1.00  0.00     0.004 C 
ENDBRANCH  28  29
ENDBRANCH  27  28
ENDBRANCH  26  27
ENDBRANCH  25  26
ENDBRANCH  24  25
ENDBRANCH  23  24
ENDBRANCH  22  23
ENDBRANCH  21  22
ENDBRANCH  20  21
ENDBRANCH  19  20
ENDBRANCH  18  19
ENDBRANCH  17  18
ENDBRANCH   1  17
TORSDOF 26
ENDMDL
MODEL 6
REMARK VINA RESULT:    -4.042      2.974      6.582
REMARK INTER + INTRA:         -14.023
REMARK INTER:                 -10.115
REMARK INTRA:                  -3.908
REMARK UNBOUND:                -3.837
REMARK SMILES CCCCCCCCCCCCCCCCCCCCCCCCCCCC(=O)[O-]
REMARK SMILES IDX 15 1 16 2 17 3 18 4 19 5 20 6 21 7 22 8 23 9 24 10 25 11
REMARK SMILES IDX 26 12 27 13 28 14 29 15 30 16 14 17 13 18 12 19 11 20 10 21
REMARK SMILES IDX 9 22 8 23 7 24 6 25 5 26 4 27 3 28 2 29 1 30
REMARK H PARENT
REMARK Flexibility Score: inf
ROOT
ATOM      1  C   UNL     1     -55.507  17.992 -29.518  1.00  0.00     0.000 C 
ENDROOT
BRANCH   1   2
ATOM      2  C   UNL     1     -54.156  18.601 -29.941  1.00  0.00     0.000 C 
BRANCH   2   3
ATOM      3  C   UNL     1     -53.517  17.957 -31.187  1.00  0.00     0.000 C 
BRANCH   3   4
ATOM      4  C   UNL     1     -52.231  17.150 -30.915  1.00  0.00     0.000 C 
BRANCH   4   5
ATOM      5  C   UNL     1     -52.006  15.943 -31.847  1.00  0.00     0.000 C 
BRANCH   5   6
ATOM      6  C   UNL     1     -52.009  14.571 -31.147  1.00  0.00     0.000 C 
BRANCH   6   7
ATOM      7  C   UNL     1     -52.283  14.668 -29.640  1.00  0.00     0.000 C 
BRANCH   7   8
ATOM      8  C   UNL     1     -51.348  13.741 -28.853  1.00  0.00     0.000 C 
BRANCH   8   9
ATOM      9  C   UNL     1     -51.329  12.330 -29.462  1.00  0.00     0.000 C 
BRANCH   9  10
ATOM     10  C   UNL     1     -50.081  11.530 -29.057  1.00  0.00     0.000 C 
BRANCH  10  11
ATOM     11  C   UNL     1     -50.353  10.018 -28.970  1.00  0.00     0.000 C 
BRANCH  11  12
ATOM     12  C   UNL     1     -49.381   9.182 -29.823  1.00  0.00     0.006 C 
BRANCH  12  13
ATOM     13  C   UNL     1     -48.924   9.882 -31.115  1.00  0.00     0.053 C 
BRANCH  13  14
ATOM     14  C   UNL     1     -49.347   9.147 -32.348  1.00  0.00     0.041 C 
ATOM     15  O   UNL     1     -49.371   7.887 -32.358  1.00  0.00    -0.550 OA
ATOM     16  O   UNL     1     -49.748   9.849 -33.478  1.00  0.00    -0.550 OA
ENDBRANCH  13  14
ENDBRANCH  12  13
ENDBRANCH  11  12
ENDBRANCH  10  11
ENDBRANCH   9  10
ENDBRANCH   8   9
ENDBRANCH   7   8
ENDBRANCH   6   7
ENDBRANCH   5   6
ENDBRANCH   4   5
ENDBRANCH   3   4
ENDBRANCH   2   3
ENDBRANCH   1   2
BRANCH   1  17
ATOM     17  C   UNL     1     -55.473  17.175 -28.211  1.00  0.00     0.000 C 
BRANCH  17  18
ATOM     18  C   UNL     1     -55.166  15.673 -28.386  1.00  0.00     0.000 C 
BRANCH  18  19
ATOM     19  C   UNL     1     -56.114  14.921 -29.337  1.00  0.00     0.000 C 
BRANCH  19  20
ATOM     20  C   UNL     1     -55.506  14.688 -30.727  1.00  0.00     0.000 C 
BRANCH  20  21
ATOM     21  C   UNL     1     -56.001  13.362 -31.321  1.00  0.00     0.000 C 
BRANCH  21  22
ATOM     22  C   UNL     1     -55.151  12.157 -30.887  1.00  0.00    -0.000 C 
BRANCH  22  23
ATOM     23  C   UNL     1     -55.846  11.259 -29.840  1.00  0.00    -0.000 C 
BRANCH  23  24
ATOM     24  C   UNL     1     -54.872  10.253 -29.201  1.00  0.00    -0.000 C 
BRANCH  24  25
ATOM     25  C   UNL     1     -54.750   8.945 -30.011  1.00  0.00    -0.000 C 
BRANCH  25  26
ATOM     26  C   UNL     1     -53.338   8.329 -29.993  1.00  0.00    -0.000 C 
BRANCH  26  27
ATOM     27  C   UNL     1     -52.683   8.153 -31.376  1.00  0.00    -0.000 C 
BRANCH  27  28
ATOM     28  C   UNL     1     -53.160   9.144 -32.458  1.00  0.00    -0.000 C 
BRANCH  28  29
ATOM     29  C   UNL     1     -53.947   8.511 -33.617  1.00  0.00    -0.003 C 
ATOM     30  C   UNL     1     -55.460   8.563 -33.408  1.00  0.00     0.004 C 
ENDBRANCH  28  29
ENDBRANCH  27  28
ENDBRANCH  26  27
ENDBRANCH  25  26
ENDBRANCH  24  25
ENDBRANCH  23  24
ENDBRANCH  22  23
ENDBRANCH  21  22
ENDBRANCH  20  21
ENDBRANCH  19  20
ENDBRANCH  18  19
ENDBRANCH  17  18
ENDBRANCH   1  17
TORSDOF 26
ENDMDL
MODEL 7
REMARK VINA RESULT:    -4.041      3.029      8.518
REMARK INTER + INTRA:         -14.019
REMARK INTER:                 -10.761
REMARK INTRA:                  -3.258
REMARK UNBOUND:                -3.837
REMARK SMILES CCCCCCCCCCCCCCCCCCCCCCCCCCCC(=O)[O-]
REMARK SMILES IDX 15 1 16 2 17 3 18 4 19 5 20 6 21 7 22 8 23 9 24 10 25 11
REMARK SMILES IDX 26 12 27 13 28 14 29 15 30 16 14 17 13 18 12 19 11 20 10 21
REMARK SMILES IDX 9 22 8 23 7 24 6 25 5 26 4 27 3 28 2 29 1 30
REMARK H PARENT
REMARK Flexibility Score: inf
ROOT
ATOM      1  C   UNL     1     -51.764  15.409 -30.883  1.00  0.00     0.000 C 
ENDROOT
BRANCH   1   2
ATOM      2  C   UNL     1     -51.566  14.504 -29.651  1.00  0.00     0.000 C 
BRANCH   2   3
ATOM      3  C   UNL     1     -50.262  13.684 -29.652  1.00  0.00     0.000 C 
BRANCH   3   4
ATOM      4  C   UNL     1     -50.192  12.572 -28.587  1.00  0.00     0.000 C 
BRANCH   4   5
ATOM      5  C   UNL     1     -51.330  11.534 -28.647  1.00  0.00     0.000 C 
BRANCH   5   6
ATOM      6  C   UNL     1     -50.989  10.239 -29.408  1.00  0.00     0.000 C 
BRANCH   6   7
ATOM      7  C   UNL     1     -49.488   9.918 -29.403  1.00  0.00     0.000 C 
BRANCH   7   8
ATOM      8  C   UNL     1     -48.868  10.188 -30.780  1.00  0.00     0.000 C 
BRANCH   8   9
ATOM      9  C   UNL     1     -49.942  10.193 -31.878  1.00  0.00     0.000 C 
BRANCH   9  10
ATOM     10  C   UNL     1     -49.622   9.213 -33.019  1.00  0.00     0.000 C 
BRANCH  10  11
ATOM     11  C   UNL     1     -50.393   7.887 -32.890  1.00  0.00     0.000 C 
BRANCH  11  12
ATOM     12  C   UNL     1     -51.782   7.932 -33.555  1.00  0.00     0.006 C 
BRANCH  12  13
ATOM     13  C   UNL     1     -52.781   8.864 -32.847  1.00  0.00     0.053 C 
BRANCH  13  14
ATOM     14  C   UNL     1     -54.202   8.572 -33.220  1.00  0.00     0.041 C 
ATOM     15  O   UNL     1     -54.505   8.326 -34.417  1.00  0.00    -0.550 OA
ATOM     16  O   UNL     1     -55.188   8.540 -32.242  1.00  0.00    -0.550 OA
ENDBRANCH  13  14
ENDBRANCH  12  13
ENDBRANCH  11  12
ENDBRANCH  10  11
ENDBRANCH   9  10
ENDBRANCH   8   9
ENDBRANCH   7   8
ENDBRANCH   6   7
ENDBRANCH   5   6
ENDBRANCH   4   5
ENDBRANCH   3   4
ENDBRANCH   2   3
ENDBRANCH   1   2
BRANCH   1  17
ATOM     17  C   UNL     1     -52.888  14.969 -31.841  1.00  0.00     0.000 C 
BRANCH  17  18
ATOM     18  C   UNL     1     -53.407  13.532 -31.625  1.00  0.00     0.000 C 
BRANCH  18  19
ATOM     19  C   UNL     1     -54.937  13.400 -31.522  1.00  0.00     0.000 C 
BRANCH  19  20
ATOM     20  C   UNL     1     -55.384  12.020 -31.019  1.00  0.00     0.000 C 
BRANCH  20  21
ATOM     21  C   UNL     1     -55.637  12.049 -29.506  1.00  0.00     0.000 C 
BRANCH  21  22
ATOM     22  C   UNL     1     -54.418  12.537 -28.705  1.00  0.00    -0.000 C 
BRANCH  22  23
ATOM     23  C   UNL     1     -54.730  13.732 -27.778  1.00  0.00    -0.000 C 
BRANCH  23  24
ATOM     24  C   UNL     1     -56.022  14.461 -28.187  1.00  0.00    -0.000 C 
BRANCH  24  25
ATOM     25  C   UNL     1     -55.870  15.997 -28.171  1.00  0.00    -0.000 C 
BRANCH  25  26
ATOM     26  C   UNL     1     -55.041  16.554 -29.345  1.00  0.00    -0.000 C 
BRANCH  26  27
ATOM     27  C   UNL     1     -54.557  18.006 -29.174  1.00  0.00    -0.000 C 
BRANCH  27  28
ATOM     28  C   UNL     1     -55.674  19.071 -29.149  1.00  0.00    -0.000 C 
BRANCH  28  29
ATOM     29  C   UNL     1     -55.561  20.157 -30.231  1.00  0.00    -0.003 C 
ATOM     30  C   UNL     1     -54.210  20.147 -30.946  1.00  0.00     0.004 C 
ENDBRANCH  28  29
ENDBRANCH  27  28
ENDBRANCH  26  27
ENDBRANCH  25  26
ENDBRANCH  24  25
ENDBRANCH  23  24
ENDBRANCH  22  23
ENDBRANCH  21  22
ENDBRANCH  20  21
ENDBRANCH  19  20
ENDBRANCH  18  19
ENDBRANCH  17  18
ENDBRANCH   1  17
TORSDOF 26
ENDMDL
MODEL 8
REMARK VINA RESULT:    -3.992      2.824      9.078
REMARK INTER + INTRA:         -13.896
REMARK INTER:                 -10.402
REMARK INTRA:                  -3.495
REMARK UNBOUND:                -3.837
REMARK SMILES CCCCCCCCCCCCCCCCCCCCCCCCCCCC(=O)[O-]
REMARK SMILES IDX 15 1 16 2 17 3 18 4 19 5 20 6 21 7 22 8 23 9 24 10 25 11
REMARK SMILES IDX 26 12 27 13 28 14 29 15 30 16 14 17 13 18 12 19 11 20 10 21
REMARK SMILES IDX 9 22 8 23 7 24 6 25 5 26 4 27 3 28 2 29 1 30
REMARK H PARENT
REMARK Flexibility Score: inf
ROOT
ATOM      1  C   UNL     1     -52.698  12.961 -28.924  1.00  0.00     0.000 C 
ENDROOT
BRANCH   1   2
ATOM      2  C   UNL     1     -53.643  11.751 -29.059  1.00  0.00     0.000 C 
BRANCH   2   3
ATOM      3  C   UNL     1     -54.787  11.932 -30.076  1.00  0.00     0.000 C 
BRANCH   3   4
ATOM      4  C   UNL     1     -55.267  10.633 -30.753  1.00  0.00     0.000 C 
BRANCH   4   5
ATOM      5  C   UNL     1     -54.720   9.331 -30.135  1.00  0.00     0.000 C 
BRANCH   5   6
ATOM      6  C   UNL     1     -55.008   8.054 -30.946  1.00  0.00     0.000 C 
BRANCH   6   7
ATOM      7  C   UNL     1     -55.208   8.327 -32.443  1.00  0.00     0.000 C 
BRANCH   7   8
ATOM      8  C   UNL     1     -53.982   7.881 -33.248  1.00  0.00     0.000 C 
BRANCH   8   9
ATOM      9  C   UNL     1     -52.997   9.044 -33.444  1.00  0.00     0.000 C 
BRANCH   9  10
ATOM     10  C   UNL     1     -51.803   8.974 -32.480  1.00  0.00     0.000 C 
BRANCH  10  11
ATOM     11  C   UNL     1     -50.816  10.139 -32.677  1.00  0.00     0.000 C 
BRANCH  11  12
ATOM     12  C   UNL     1     -49.394   9.812 -32.185  1.00  0.00     0.006 C 
BRANCH  12  13
ATOM     13  C   UNL     1     -49.332   8.639 -31.191  1.00  0.00     0.053 C 
BRANCH  13  14
ATOM     14  C   UNL     1     -49.303   9.095 -29.765  1.00  0.00     0.041 C 
ATOM     15  O   UNL     1     -48.435   8.642 -28.973  1.00  0.00    -0.550 OA
ATOM     16  O   UNL     1     -50.214  10.043 -29.316  1.00  0.00    -0.550 OA
ENDBRANCH  13  14
ENDBRANCH  12  13
ENDBRANCH  11  12
ENDBRANCH  10  11
ENDBRANCH   9  10
ENDBRANCH   8   9
ENDBRANCH   7   8
ENDBRANCH   6   7
ENDBRANCH   5   6
ENDBRANCH   4   5
ENDBRANCH   3   4
ENDBRANCH   2   3
ENDBRANCH   1   2
BRANCH   1  17
ATOM     17  C   UNL     1     -51.888  13.300 -30.191  1.00  0.00     0.000 C 
BRANCH  17  18
ATOM     18  C   UNL     1     -51.570  14.797 -30.384  1.00  0.00     0.000 C 
BRANCH  18  19
ATOM     19  C   UNL     1     -52.474  15.531 -31.391  1.00  0.00     0.000 C 
BRANCH  19  20
ATOM     20  C   UNL     1     -53.951  15.128 -31.271  1.00  0.00     0.000 C 
BRANCH  20  21
ATOM     21  C   UNL     1     -54.850  16.371 -31.230  1.00  0.00     0.000 C 
BRANCH  21  22
ATOM     22  C   UNL     1     -55.940  16.285 -30.149  1.00  0.00    -0.000 C 
BRANCH  22  23
ATOM     23  C   UNL     1     -55.630  15.254 -29.043  1.00  0.00    -0.000 C 
BRANCH  23  24
ATOM     24  C   UNL     1     -55.247  15.927 -27.713  1.00  0.00    -0.000 C 
BRANCH  24  25
ATOM     25  C   UNL     1     -56.122  17.159 -27.396  1.00  0.00    -0.000 C 
BRANCH  25  26
ATOM     26  C   UNL     1     -55.322  18.464 -27.221  1.00  0.00    -0.000 C 
BRANCH  26  27
ATOM     27  C   UNL     1     -55.218  19.342 -28.483  1.00  0.00    -0.000 C 
BRANCH  27  28
ATOM     28  C   UNL     1     -53.863  19.275 -29.219  1.00  0.00    -0.000 C 
BRANCH  28  29
ATOM     29  C   UNL     1     -53.916  19.640 -30.711  1.00  0.00    -0.003 C 
ATOM     30  C   UNL     1     -55.062  20.591 -31.052  1.00  0.00     0.004 C 
ENDBRANCH  28  29
ENDBRANCH  27  28
ENDBRANCH  26  27
ENDBRANCH  25  26
ENDBRANCH  24  25
ENDBRANCH  23  24
ENDBRANCH  22  23
ENDBRANCH  21  22
ENDBRANCH  20  21
ENDBRANCH  19  20
ENDBRANCH  18  19
ENDBRANCH  17  18
ENDBRANCH   1  17
TORSDOF 26
ENDMDL
MODEL 9
REMARK VINA RESULT:    -3.835      3.197      8.674
REMARK INTER + INTRA:         -13.501
REMARK INTER:                  -9.961
REMARK INTRA:                  -3.540
REMARK UNBOUND:                -3.837
REMARK SMILES CCCCCCCCCCCCCCCCCCCCCCCCCCCC(=O)[O-]
REMARK SMILES IDX 15 1 16 2 17 3 18 4 19 5 20 6 21 7 22 8 23 9 24 10 25 11
REMARK SMILES IDX 26 12 27 13 28 14 29 15 30 16 14 17 13 18 12 19 11 20 10 21
REMARK SMILES IDX 9 22 8 23 7 24 6 25 5 26 4 27 3 28 2 29 1 30
REMARK H PARENT
REMARK Flexibility Score: inf
ROOT
ATOM      1  C   UNL     1     -53.780  13.059 -29.028  1.00  0.00     0.000 C 
ENDROOT
BRANCH   1   2
ATOM      2  C   UNL     1     -54.873  13.564 -29.989  1.00  0.00     0.000 C 
BRANCH   2   3
ATOM      3  C   UNL     1     -56.125  12.669 -30.075  1.00  0.00     0.000 C 
BRANCH   3   4
ATOM      4  C   UNL     1     -55.993  11.454 -31.013  1.00  0.00     0.000 C 
BRANCH   4   5
ATOM      5  C   UNL     1     -55.967  10.082 -30.309  1.00  0.00     0.000 C 
BRANCH   5   6
ATOM      6  C   UNL     1     -55.525   8.903 -31.196  1.00  0.00     0.000 C 
BRANCH   6   7
ATOM      7  C   UNL     1     -54.603   7.917 -30.465  1.00  0.00     0.000 C 
BRANCH   7   8
ATOM      8  C   UNL     1     -53.171   8.002 -31.008  1.00  0.00     0.000 C 
BRANCH   8   9
ATOM      9  C   UNL     1     -53.119   8.833 -32.300  1.00  0.00     0.000 C 
BRANCH   9  10
ATOM     10  C   UNL     1     -52.144  10.017 -32.200  1.00  0.00     0.000 C 
BRANCH  10  11
ATOM     11  C   UNL     1     -50.879   9.813 -33.052  1.00  0.00     0.000 C 
BRANCH  11  12
ATOM     12  C   UNL     1     -49.780   9.022 -32.317  1.00  0.00     0.006 C 
BRANCH  12  13
ATOM     13  C   UNL     1     -49.005   9.850 -31.278  1.00  0.00     0.053 C 
BRANCH  13  14
ATOM     14  C   UNL     1     -49.048   9.242 -29.910  1.00  0.00     0.041 C 
ATOM     15  O   UNL     1     -48.209   9.588 -29.036  1.00  0.00    -0.550 OA
ATOM     16  O   UNL     1     -50.034   8.318 -29.586  1.00  0.00    -0.550 OA
ENDBRANCH  13  14
ENDBRANCH  12  13
ENDBRANCH  11  12
ENDBRANCH  10  11
ENDBRANCH   9  10
ENDBRANCH   8   9
ENDBRANCH   7   8
ENDBRANCH   6   7
ENDBRANCH   5   6
ENDBRANCH   4   5
ENDBRANCH   3   4
ENDBRANCH   2   3
ENDBRANCH   1   2
BRANCH   1  17
ATOM     17  C   UNL     1     -52.801  12.034 -29.635  1.00  0.00     0.000 C 
BRANCH  17  18
ATOM     18  C   UNL     1     -51.431  11.942 -28.933  1.00  0.00     0.000 C 
BRANCH  18  19
ATOM     19  C   UNL     1     -50.815  13.293 -28.526  1.00  0.00     0.000 C 
BRANCH  19  20
ATOM     20  C   UNL     1     -50.316  14.107 -29.728  1.00  0.00     0.000 C 
BRANCH  20  21
ATOM     21  C   UNL     1     -51.255  15.288 -30.010  1.00  0.00     0.000 C 
BRANCH  21  22
ATOM     22  C   UNL     1     -51.785  15.300 -31.454  1.00  0.00    -0.000 C 
BRANCH  22  23
ATOM     23  C   UNL     1     -52.686  16.514 -31.768  1.00  0.00    -0.000 C 
BRANCH  23  24
ATOM     24  C   UNL     1     -53.642  16.842 -30.608  1.00  0.00    -0.000 C 
BRANCH  24  25
ATOM     25  C   UNL     1     -55.005  17.381 -31.093  1.00  0.00    -0.000 C 
BRANCH  25  26
ATOM     26  C   UNL     1     -55.375  18.758 -30.508  1.00  0.00    -0.000 C 
BRANCH  26  27
ATOM     27  C   UNL     1     -54.603  19.158 -29.237  1.00  0.00    -0.000 C 
BRANCH  27  28
ATOM     28  C   UNL     1     -55.449  19.214 -27.946  1.00  0.00    -0.000 C 
BRANCH  28  29
ATOM     29  C   UNL     1     -55.285  18.006 -27.010  1.00  0.00    -0.003 C 
ATOM     30  C   UNL     1     -55.833  16.710 -27.607  1.00  0.00     0.004 C 
ENDBRANCH  28  29
ENDBRANCH  27  28
ENDBRANCH  26  27
ENDBRANCH  25  26
ENDBRANCH  24  25
ENDBRANCH  23  24
ENDBRANCH  22  23
ENDBRANCH  21  22
ENDBRANCH  20  21
ENDBRANCH  19  20
ENDBRANCH  18  19
ENDBRANCH  17  18
ENDBRANCH   1  17
TORSDOF 26
ENDMDL
