MODEL 1
REMARK VINA RESULT:    -6.176      0.000      0.000
REMARK INTER + INTRA:          -7.576
REMARK INTER:                  -7.259
REMARK INTRA:                  -0.318
REMARK UNBOUND:                -0.318
REMARK SMILES O=c1cc(-c2ccc(O)c(O)c2)oc2cc(O)cc(O)c12
REMARK SMILES IDX 4 1 3 2 2 3 1 4 21 5 19 6 18 7 16 8 15 9 14 10 13 11 5 12
REMARK SMILES IDX 6 13 7 14 8 15 12 16 10 17 9 18 11 20 20 22 17 24
REMARK H PARENT 9 19 11 21 20 23 17 25
REMARK Flexibility Score: inf
ROOT
ATOM      1  C   UNL     1      40.692  -0.960 -14.322  1.00  0.00     0.138 A 
ATOM      2  C   UNL     1      41.902  -1.328 -13.716  1.00  0.00     0.100 A 
ATOM      3  C   UNL     1      42.947  -1.817 -14.502  1.00  0.00     0.197 A 
ATOM      4  O   UNL     1      44.037  -2.086 -13.935  1.00  0.00    -0.289 OA
ATOM      5  C   UNL     1      42.766  -1.974 -15.896  1.00  0.00     0.107 A 
ATOM      6  C   UNL     1      43.748  -2.496 -16.792  1.00  0.00     0.134 A 
ATOM      7  C   UNL     1      43.488  -2.511 -18.168  1.00  0.00     0.093 A 
ATOM      8  C   UNL     1      42.264  -2.080 -18.676  1.00  0.00     0.123 A 
ATOM      9  C   UNL     1      41.277  -1.615 -17.805  1.00  0.00     0.094 A 
ATOM     10  C   UNL     1      41.518  -1.553 -16.431  1.00  0.00     0.146 A 
ATOM     11  O   UNL     1      40.559  -1.087 -15.638  1.00  0.00    -0.456 OA
ENDROOT
BRANCH   1  12
ATOM     12  C   UNL     1      39.547  -0.436 -13.535  1.00  0.00     0.021 A 
ATOM     13  C   UNL     1      39.671  -0.119 -12.169  1.00  0.00     0.016 A 
ATOM     14  C   UNL     1      38.577   0.382 -11.457  1.00  0.00     0.051 A 
ATOM     15  C   UNL     1      37.348   0.582 -12.096  1.00  0.00     0.157 A 
ATOM     16  C   UNL     1      38.312  -0.220 -14.172  1.00  0.00     0.062 A 
ATOM     17  C   UNL     1      37.217   0.282 -13.461  1.00  0.00     0.158 A 
BRANCH  15  18
ATOM     18  O   UNL     1      36.259   1.081 -11.381  1.00  0.00    -0.504 OA
ATOM     19  H   UNL     1      35.450   1.470 -11.850  1.00  0.00     0.293 HD
ENDBRANCH  15  18
BRANCH  17  20
ATOM     20  O   UNL     1      36.007   0.474 -14.128  1.00  0.00    -0.504 OA
ATOM     21  H   UNL     1      35.248  -0.195 -14.071  1.00  0.00     0.293 HD
ENDBRANCH  17  20
ENDBRANCH   1  12
BRANCH   6  22
ATOM     22  O   UNL     1      44.974  -3.029 -16.385  1.00  0.00    -0.507 OA
ATOM     23  H   UNL     1      45.175  -3.387 -15.464  1.00  0.00     0.293 HD
ENDBRANCH   6  22
BRANCH   8  24
ATOM     24  O   UNL     1      42.035  -2.125 -20.049  1.00  0.00    -0.508 OA
ATOM     25  H   UNL     1      42.515  -1.500 -20.687  1.00  0.00     0.293 HD
ENDBRANCH   8  24
TORSDOF 5
ENDMDL
MODEL 2
REMARK VINA RESULT:    -5.960      1.474      3.087
REMARK INTER + INTRA:          -7.322
REMARK INTER:                  -7.008
REMARK INTRA:                  -0.314
REMARK UNBOUND:                -0.318
REMARK SMILES O=c1cc(-c2ccc(O)c(O)c2)oc2cc(O)cc(O)c12
REMARK SMILES IDX 4 1 3 2 2 3 1 4 21 5 19 6 18 7 16 8 15 9 14 10 13 11 5 12
REMARK SMILES IDX 6 13 7 14 8 15 12 16 10 17 9 18 11 20 20 22 17 24
REMARK H PARENT 9 19 11 21 20 23 17 25
REMARK Flexibility Score: inf
ROOT
ATOM      1  C   UNL     1      40.271  -1.093 -14.704  1.00  0.00     0.138 A 
ATOM      2  C   UNL     1      39.825  -1.253 -16.023  1.00  0.00     0.100 A 
ATOM      3  C   UNL     1      40.743  -1.559 -17.030  1.00  0.00     0.197 A 
ATOM      4  O   UNL     1      40.302  -1.750 -18.193  1.00  0.00    -0.289 OA
ATOM      5  C   UNL     1      42.118  -1.667 -16.719  1.00  0.00     0.107 A 
ATOM      6  C   UNL     1      43.149  -1.940 -17.669  1.00  0.00     0.134 A 
ATOM      7  C   UNL     1      44.465  -2.123 -17.226  1.00  0.00     0.093 A 
ATOM      8  C   UNL     1      44.799  -1.986 -15.879  1.00  0.00     0.123 A 
ATOM      9  C   UNL     1      43.808  -1.669 -14.948  1.00  0.00     0.094 A 
ATOM     10  C   UNL     1      42.480  -1.516 -15.353  1.00  0.00     0.146 A 
ATOM     11  O   UNL     1      41.565  -1.233 -14.433  1.00  0.00    -0.456 OA
ENDROOT
BRANCH   1  12
ATOM     12  C   UNL     1      39.340  -0.766 -13.594  1.00  0.00     0.021 A 
ATOM     13  C   UNL     1      38.040  -0.284 -13.837  1.00  0.00     0.016 A 
ATOM     14  C   UNL     1      37.182   0.006 -12.772  1.00  0.00     0.051 A 
ATOM     15  C   UNL     1      37.604  -0.186 -11.451  1.00  0.00     0.157 A 
ATOM     16  C   UNL     1      39.751  -0.969 -12.265  1.00  0.00     0.062 A 
ATOM     17  C   UNL     1      38.894  -0.679 -11.198  1.00  0.00     0.158 A 
BRANCH  15  18
ATOM     18  O   UNL     1      36.746   0.105 -10.391  1.00  0.00    -0.504 OA
ATOM     19  H   UNL     1      36.411   1.047 -10.222  1.00  0.00     0.293 HD
ENDBRANCH  15  18
BRANCH  17  20
ATOM     20  O   UNL     1      39.343  -0.886  -9.893  1.00  0.00    -0.504 OA
ATOM     21  H   UNL     1      40.212  -0.493  -9.554  1.00  0.00     0.293 HD
ENDBRANCH  17  20
ENDBRANCH   1  12
BRANCH   6  22
ATOM     22  O   UNL     1      42.942  -2.019 -19.049  1.00  0.00    -0.507 OA
ATOM     23  H   UNL     1      43.425  -2.645 -19.674  1.00  0.00     0.293 HD
ENDBRANCH   6  22
BRANCH   8  24
ATOM     24  O   UNL     1      46.121  -2.159 -15.478  1.00  0.00    -0.508 OA
ATOM     25  H   UNL     1      46.847  -2.413 -16.139  1.00  0.00     0.293 HD
ENDBRANCH   8  24
TORSDOF 5
ENDMDL
MODEL 3
REMARK VINA RESULT:    -5.857      2.008      6.735
REMARK INTER + INTRA:          -7.201
REMARK INTER:                  -6.929
REMARK INTRA:                  -0.273
REMARK UNBOUND:                -0.318
REMARK SMILES O=c1cc(-c2ccc(O)c(O)c2)oc2cc(O)cc(O)c12
REMARK SMILES IDX 4 1 3 2 2 3 1 4 21 5 19 6 18 7 16 8 15 9 14 10 13 11 5 12
REMARK SMILES IDX 6 13 7 14 8 15 12 16 10 17 9 18 11 20 20 22 17 24
REMARK H PARENT 9 19 11 21 20 23 17 25
REMARK Flexibility Score: inf
ROOT
ATOM      1  C   UNL     1      42.882  -1.581 -15.150  1.00  0.00     0.138 A 
ATOM      2  C   UNL     1      44.036  -1.088 -14.525  1.00  0.00     0.100 A 
ATOM      3  C   UNL     1      43.924  -0.393 -13.320  1.00  0.00     0.197 A 
ATOM      4  O   UNL     1      44.983  -0.011 -12.757  1.00  0.00    -0.289 OA
ATOM      5  C   UNL     1      42.648  -0.159 -12.758  1.00  0.00     0.107 A 
ATOM      6  C   UNL     1      42.409   0.568 -11.551  1.00  0.00     0.134 A 
ATOM      7  C   UNL     1      41.107   0.649 -11.041  1.00  0.00     0.093 A 
ATOM      8  C   UNL     1      40.030   0.083 -11.719  1.00  0.00     0.123 A 
ATOM      9  C   UNL     1      40.243  -0.586 -12.926  1.00  0.00     0.094 A 
ATOM     10  C   UNL     1      41.534  -0.715 -13.443  1.00  0.00     0.146 A 
ATOM     11  O   UNL     1      41.697  -1.376 -14.584  1.00  0.00    -0.456 OA
ENDROOT
BRANCH   1  12
ATOM     12  C   UNL     1      42.941  -2.325 -16.434  1.00  0.00     0.021 A 
ATOM     13  C   UNL     1      43.546  -3.593 -16.528  1.00  0.00     0.016 A 
ATOM     14  C   UNL     1      43.578  -4.274 -17.748  1.00  0.00     0.051 A 
ATOM     15  C   UNL     1      43.001  -3.706 -18.890  1.00  0.00     0.157 A 
ATOM     16  C   UNL     1      42.352  -1.768 -17.583  1.00  0.00     0.062 A 
ATOM     17  C   UNL     1      42.383  -2.448 -18.805  1.00  0.00     0.158 A 
BRANCH  15  18
ATOM     18  O   UNL     1      43.036  -4.388 -20.106  1.00  0.00    -0.504 OA
ATOM     19  H   UNL     1      42.254  -4.951 -20.421  1.00  0.00     0.293 HD
ENDBRANCH  15  18
BRANCH  17  20
ATOM     20  O   UNL     1      41.795  -1.858 -19.924  1.00  0.00    -0.504 OA
ATOM     21  H   UNL     1      40.807  -1.950 -20.125  1.00  0.00     0.293 HD
ENDBRANCH  17  20
ENDBRANCH   1  12
BRANCH   6  22
ATOM     22  O   UNL     1      43.402   1.242 -10.833  1.00  0.00    -0.507 OA
ATOM     23  H   UNL     1      43.353   1.473  -9.854  1.00  0.00     0.293 HD
ENDBRANCH   6  22
BRANCH   8  24
ATOM     24  O   UNL     1      38.746   0.198 -11.189  1.00  0.00    -0.508 OA
ATOM     25  H   UNL     1      38.516   0.915 -10.510  1.00  0.00     0.293 HD
ENDBRANCH   8  24
TORSDOF 5
ENDMDL
MODEL 4
REMARK VINA RESULT:    -5.837      2.139      7.065
REMARK INTER + INTRA:          -7.178
REMARK INTER:                  -6.913
REMARK INTRA:                  -0.265
REMARK UNBOUND:                -0.318
REMARK SMILES O=c1cc(-c2ccc(O)c(O)c2)oc2cc(O)cc(O)c12
REMARK SMILES IDX 4 1 3 2 2 3 1 4 21 5 19 6 18 7 16 8 15 9 14 10 13 11 5 12
REMARK SMILES IDX 6 13 7 14 8 15 12 16 10 17 9 18 11 20 20 22 17 24
REMARK H PARENT 9 19 11 21 20 23 17 25
REMARK Flexibility Score: inf
ROOT
ATOM      1  C   UNL     1      40.586  -0.938 -13.987  1.00  0.00     0.138 A 
ATOM      2  C   UNL     1      41.214   0.103 -13.288  1.00  0.00     0.100 A 
ATOM      3  C   UNL     1      40.773   0.439 -12.007  1.00  0.00     0.197 A 
ATOM      4  O   UNL     1      41.393   1.341 -11.386  1.00  0.00    -0.289 OA
ATOM      5  C   UNL     1      39.674  -0.247 -11.438  1.00  0.00     0.107 A 
ATOM      6  C   UNL     1      39.115   0.033 -10.154  1.00  0.00     0.134 A 
ATOM      7  C   UNL     1      38.089  -0.781  -9.656  1.00  0.00     0.093 A 
ATOM      8  C   UNL     1      37.563  -1.824 -10.416  1.00  0.00     0.123 A 
ATOM      9  C   UNL     1      38.067  -2.075 -11.693  1.00  0.00     0.094 A 
ATOM     10  C   UNL     1      39.114  -1.305 -12.204  1.00  0.00     0.146 A 
ATOM     11  O   UNL     1      39.577  -1.588 -13.417  1.00  0.00    -0.456 OA
ENDROOT
BRANCH   1  12
ATOM     12  C   UNL     1      41.012  -1.336 -15.352  1.00  0.00     0.021 A 
ATOM     13  C   UNL     1      40.134  -1.268 -16.451  1.00  0.00     0.016 A 
ATOM     14  C   UNL     1      40.567  -1.640 -17.727  1.00  0.00     0.051 A 
ATOM     15  C   UNL     1      41.881  -2.078 -17.929  1.00  0.00     0.157 A 
ATOM     16  C   UNL     1      42.334  -1.763 -15.567  1.00  0.00     0.062 A 
ATOM     17  C   UNL     1      42.769  -2.136 -16.843  1.00  0.00     0.158 A 
BRANCH  15  18
ATOM     18  O   UNL     1      42.308  -2.449 -19.204  1.00  0.00    -0.504 OA
ATOM     19  H   UNL     1      42.678  -3.373 -19.392  1.00  0.00     0.293 HD
ENDBRANCH  15  18
BRANCH  17  20
ATOM     20  O   UNL     1      44.086  -2.563 -17.013  1.00  0.00    -0.504 OA
ATOM     21  H   UNL     1      44.719  -2.112 -17.662  1.00  0.00     0.293 HD
ENDBRANCH  17  20
ENDBRANCH   1  12
BRANCH   6  22
ATOM     22  O   UNL     1      39.511   1.101  -9.343  1.00  0.00    -0.507 OA
ATOM     23  H   UNL     1      39.338   2.074  -9.541  1.00  0.00     0.293 HD
ENDBRANCH   6  22
BRANCH   8  24
ATOM     24  O   UNL     1      36.531  -2.602  -9.894  1.00  0.00    -0.508 OA
ATOM     25  H   UNL     1      35.684  -2.182  -9.528  1.00  0.00     0.293 HD
ENDBRANCH   8  24
TORSDOF 5
ENDMDL
MODEL 5
REMARK VINA RESULT:    -5.811      2.147      2.763
REMARK INTER + INTRA:          -7.148
REMARK INTER:                  -6.830
REMARK INTRA:                  -0.318
REMARK UNBOUND:                -0.318
REMARK SMILES O=c1cc(-c2ccc(O)c(O)c2)oc2cc(O)cc(O)c12
REMARK SMILES IDX 4 1 3 2 2 3 1 4 21 5 19 6 18 7 16 8 15 9 14 10 13 11 5 12
REMARK SMILES IDX 6 13 7 14 8 15 12 16 10 17 9 18 11 20 20 22 17 24
REMARK H PARENT 9 19 11 21 20 23 17 25
REMARK Flexibility Score: inf
ROOT
ATOM      1  C   UNL     1      41.031  -0.216 -16.278  1.00  0.00     0.138 A 
ATOM      2  C   UNL     1      41.801   0.887 -16.674  1.00  0.00     0.100 A 
ATOM      3  C   UNL     1      42.730   0.745 -17.706  1.00  0.00     0.197 A 
ATOM      4  O   UNL     1      43.365   1.766 -18.074  1.00  0.00    -0.289 OA
ATOM      5  C   UNL     1      42.913  -0.516 -18.319  1.00  0.00     0.107 A 
ATOM      6  C   UNL     1      43.855  -0.789 -19.358  1.00  0.00     0.134 A 
ATOM      7  C   UNL     1      43.876  -2.055 -19.956  1.00  0.00     0.093 A 
ATOM      8  C   UNL     1      43.034  -3.075 -19.516  1.00  0.00     0.123 A 
ATOM      9  C   UNL     1      42.144  -2.835 -18.468  1.00  0.00     0.094 A 
ATOM     10  C   UNL     1      42.073  -1.573 -17.875  1.00  0.00     0.146 A 
ATOM     11  O   UNL     1      41.200  -1.382 -16.892  1.00  0.00    -0.456 OA
ENDROOT
BRANCH   1  12
ATOM     12  C   UNL     1      40.030  -0.123 -15.184  1.00  0.00     0.021 A 
ATOM     13  C   UNL     1      39.843   1.065 -14.451  1.00  0.00     0.016 A 
ATOM     14  C   UNL     1      38.887   1.125 -13.434  1.00  0.00     0.051 A 
ATOM     15  C   UNL     1      38.098   0.007 -13.136  1.00  0.00     0.157 A 
ATOM     16  C   UNL     1      39.224  -1.236 -14.888  1.00  0.00     0.062 A 
ATOM     17  C   UNL     1      38.266  -1.178 -13.870  1.00  0.00     0.158 A 
BRANCH  15  18
ATOM     18  O   UNL     1      37.145   0.072 -12.120  1.00  0.00    -0.504 OA
ATOM     19  H   UNL     1      36.909  -0.740 -11.561  1.00  0.00     0.293 HD
ENDBRANCH  15  18
BRANCH  17  20
ATOM     20  O   UNL     1      37.493  -2.307 -13.602  1.00  0.00    -0.504 OA
ATOM     21  H   UNL     1      37.908  -3.201 -13.371  1.00  0.00     0.293 HD
ENDBRANCH  17  20
ENDBRANCH   1  12
BRANCH   6  22
ATOM     22  O   UNL     1      44.799   0.133 -19.820  1.00  0.00    -0.507 OA
ATOM     23  H   UNL     1      44.583   1.017 -20.253  1.00  0.00     0.293 HD
ENDBRANCH   6  22
BRANCH   8  24
ATOM     24  O   UNL     1      43.094  -4.327 -20.125  1.00  0.00    -0.508 OA
ATOM     25  H   UNL     1      42.333  -4.992 -20.045  1.00  0.00     0.293 HD
ENDBRANCH   8  24
TORSDOF 5
ENDMDL
MODEL 6
REMARK VINA RESULT:    -5.776      2.687      3.234
REMARK INTER + INTRA:          -7.106
REMARK INTER:                  -6.794
REMARK INTRA:                  -0.312
REMARK UNBOUND:                -0.318
REMARK SMILES O=c1cc(-c2ccc(O)c(O)c2)oc2cc(O)cc(O)c12
REMARK SMILES IDX 4 1 3 2 2 3 1 4 21 5 19 6 18 7 16 8 15 9 14 10 13 11 5 12
REMARK SMILES IDX 6 13 7 14 8 15 12 16 10 17 9 18 11 20 20 22 17 24
REMARK H PARENT 9 19 11 21 20 23 17 25
REMARK Flexibility Score: inf
ROOT
ATOM      1  C   UNL     1      39.531  -0.549 -13.208  1.00  0.00     0.138 A 
ATOM      2  C   UNL     1      40.311   0.610 -13.095  1.00  0.00     0.100 A 
ATOM      3  C   UNL     1      41.058   1.050 -14.189  1.00  0.00     0.197 A 
ATOM      4  O   UNL     1      41.703   2.123 -14.072  1.00  0.00    -0.289 OA
ATOM      5  C   UNL     1      41.051   0.303 -15.391  1.00  0.00     0.107 A 
ATOM      6  C   UNL     1      41.800   0.635 -16.561  1.00  0.00     0.134 A 
ATOM      7  C   UNL     1      41.635  -0.126 -17.724  1.00  0.00     0.093 A 
ATOM      8  C   UNL     1      40.797  -1.240 -17.746  1.00  0.00     0.123 A 
ATOM      9  C   UNL     1      40.098  -1.604 -16.593  1.00  0.00     0.094 A 
ATOM     10  C   UNL     1      40.213  -0.844 -15.427  1.00  0.00     0.146 A 
ATOM     11  O   UNL     1      39.517  -1.214 -14.358  1.00  0.00    -0.456 OA
ENDROOT
BRANCH   1  12
ATOM     12  C   UNL     1      38.720  -1.063 -12.075  1.00  0.00     0.021 A 
ATOM     13  C   UNL     1      38.323  -0.231 -11.011  1.00  0.00     0.016 A 
ATOM     14  C   UNL     1      37.551  -0.742  -9.964  1.00  0.00     0.051 A 
ATOM     15  C   UNL     1      37.157  -2.085  -9.964  1.00  0.00     0.157 A 
ATOM     16  C   UNL     1      38.308  -2.408 -12.074  1.00  0.00     0.062 A 
ATOM     17  C   UNL     1      37.536  -2.920 -11.027  1.00  0.00     0.158 A 
BRANCH  15  18
ATOM     18  O   UNL     1      36.387  -2.590  -8.916  1.00  0.00    -0.504 OA
ATOM     19  H   UNL     1      36.522  -3.531  -8.563  1.00  0.00     0.293 HD
ENDBRANCH  15  18
BRANCH  17  20
ATOM     20  O   UNL     1      37.155  -4.262 -11.059  1.00  0.00    -0.504 OA
ATOM     21  H   UNL     1      36.809  -4.704 -11.903  1.00  0.00     0.293 HD
ENDBRANCH  17  20
ENDBRANCH   1  12
BRANCH   6  22
ATOM     22  O   UNL     1      42.728   1.679 -16.626  1.00  0.00    -0.507 OA
ATOM     23  H   UNL     1      43.545   1.766 -16.043  1.00  0.00     0.293 HD
ENDBRANCH   6  22
BRANCH   8  24
ATOM     24  O   UNL     1      40.671  -1.983 -18.918  1.00  0.00    -0.508 OA
ATOM     25  H   UNL     1      40.373  -2.952 -18.901  1.00  0.00     0.293 HD
ENDBRANCH   8  24
TORSDOF 5
ENDMDL
MODEL 7
REMARK VINA RESULT:    -5.679     11.303     13.705
REMARK INTER + INTRA:          -6.993
REMARK INTER:                  -6.725
REMARK INTRA:                  -0.267
REMARK UNBOUND:                -0.318
REMARK SMILES O=c1cc(-c2ccc(O)c(O)c2)oc2cc(O)cc(O)c12
REMARK SMILES IDX 4 1 3 2 2 3 1 4 21 5 19 6 18 7 16 8 15 9 14 10 13 11 5 12
REMARK SMILES IDX 6 13 7 14 8 15 12 16 10 17 9 18 11 20 20 22 17 24
REMARK H PARENT 9 19 11 21 20 23 17 25
REMARK Flexibility Score: inf
ROOT
ATOM      1  C   UNL     1      32.219  -5.718  -7.941  1.00  0.00     0.138 A 
ATOM      2  C   UNL     1      33.561  -6.089  -7.774  1.00  0.00     0.100 A 
ATOM      3  C   UNL     1      34.013  -6.501  -6.519  1.00  0.00     0.197 A 
ATOM      4  O   UNL     1      35.208  -6.880  -6.416  1.00  0.00    -0.289 OA
ATOM      5  C   UNL     1      33.125  -6.505  -5.418  1.00  0.00     0.107 A 
ATOM      6  C   UNL     1      33.482  -6.872  -4.085  1.00  0.00     0.134 A 
ATOM      7  C   UNL     1      32.490  -6.932  -3.097  1.00  0.00     0.093 A 
ATOM      8  C   UNL     1      31.170  -6.584  -3.377  1.00  0.00     0.123 A 
ATOM      9  C   UNL     1      30.819  -6.175  -4.665  1.00  0.00     0.094 A 
ATOM     10  C   UNL     1      31.777  -6.139  -5.681  1.00  0.00     0.146 A 
ATOM     11  O   UNL     1      31.398  -5.762  -6.897  1.00  0.00    -0.456 OA
ENDROOT
BRANCH   1  12
ATOM     12  C   UNL     1      31.685  -5.270  -9.252  1.00  0.00     0.021 A 
ATOM     13  C   UNL     1      31.376  -6.185 -10.277  1.00  0.00     0.016 A 
ATOM     14  C   UNL     1      30.865  -5.734 -11.497  1.00  0.00     0.051 A 
ATOM     15  C   UNL     1      30.648  -4.368 -11.713  1.00  0.00     0.157 A 
ATOM     16  C   UNL     1      31.451  -3.902  -9.471  1.00  0.00     0.062 A 
ATOM     17  C   UNL     1      30.940  -3.448 -10.692  1.00  0.00     0.158 A 
BRANCH  15  18
ATOM     18  O   UNL     1      30.139  -3.922 -12.932  1.00  0.00    -0.504 OA
ATOM     19  H   UNL     1      30.025  -2.935 -13.131  1.00  0.00     0.293 HD
ENDBRANCH  15  18
BRANCH  17  20
ATOM     20  O   UNL     1      30.730  -2.081 -10.874  1.00  0.00    -0.504 OA
ATOM     21  H   UNL     1      30.860  -1.412 -10.124  1.00  0.00     0.293 HD
ENDBRANCH  17  20
ENDBRANCH   1  12
BRANCH   6  22
ATOM     22  O   UNL     1      34.786  -7.161  -3.675  1.00  0.00    -0.507 OA
ATOM     23  H   UNL     1      35.448  -7.717  -4.194  1.00  0.00     0.293 HD
ENDBRANCH   6  22
BRANCH   8  24
ATOM     24  O   UNL     1      30.215  -6.641  -2.365  1.00  0.00    -0.508 OA
ATOM     25  H   UNL     1      29.686  -5.821  -2.089  1.00  0.00     0.293 HD
ENDBRANCH   8  24
TORSDOF 5
ENDMDL
MODEL 8
REMARK VINA RESULT:    -5.664      2.317      7.171
REMARK INTER + INTRA:          -6.975
REMARK INTER:                  -6.706
REMARK INTRA:                  -0.269
REMARK UNBOUND:                -0.318
REMARK SMILES O=c1cc(-c2ccc(O)c(O)c2)oc2cc(O)cc(O)c12
REMARK SMILES IDX 4 1 3 2 2 3 1 4 21 5 19 6 18 7 16 8 15 9 14 10 13 11 5 12
REMARK SMILES IDX 6 13 7 14 8 15 12 16 10 17 9 18 11 20 20 22 17 24
REMARK H PARENT 9 19 11 21 20 23 17 25
REMARK Flexibility Score: inf
ROOT
ATOM      1  C   UNL     1      40.276  -0.788 -13.191  1.00  0.00     0.138 A 
ATOM      2  C   UNL     1      40.455   0.424 -12.509  1.00  0.00     0.100 A 
ATOM      3  C   UNL     1      39.735   0.671 -11.339  1.00  0.00     0.197 A 
ATOM      4  O   UNL     1      39.959   1.744 -10.722  1.00  0.00    -0.289 OA
ATOM      5  C   UNL     1      38.803  -0.285 -10.871  1.00  0.00     0.107 A 
ATOM      6  C   UNL     1      37.987  -0.126  -9.710  1.00  0.00     0.134 A 
ATOM      7  C   UNL     1      37.173  -1.186  -9.289  1.00  0.00     0.093 A 
ATOM      8  C   UNL     1      37.099  -2.372 -10.017  1.00  0.00     0.123 A 
ATOM      9  C   UNL     1      37.854  -2.520 -11.181  1.00  0.00     0.094 A 
ATOM     10  C   UNL     1      38.703  -1.496 -11.608  1.00  0.00     0.146 A 
ATOM     11  O   UNL     1      39.419  -1.683 -12.712  1.00  0.00    -0.456 OA
ENDROOT
BRANCH   1  12
ATOM     12  C   UNL     1      41.014  -1.103 -14.440  1.00  0.00     0.021 A 
ATOM     13  C   UNL     1      42.330  -1.604 -14.417  1.00  0.00     0.016 A 
ATOM     14  C   UNL     1      42.995  -1.900 -15.610  1.00  0.00     0.051 A 
ATOM     15  C   UNL     1      42.358  -1.711 -16.842  1.00  0.00     0.157 A 
ATOM     16  C   UNL     1      40.377  -0.929 -15.681  1.00  0.00     0.062 A 
ATOM     17  C   UNL     1      41.042  -1.225 -16.876  1.00  0.00     0.158 A 
BRANCH  15  18
ATOM     18  O   UNL     1      43.027  -2.007 -18.030  1.00  0.00    -0.504 OA
ATOM     19  H   UNL     1      43.990  -2.322 -18.033  1.00  0.00     0.293 HD
ENDBRANCH  15  18
BRANCH  17  20
ATOM     20  O   UNL     1      40.378  -1.030 -18.088  1.00  0.00    -0.504 OA
ATOM     21  H   UNL     1      40.743  -1.382 -18.965  1.00  0.00     0.293 HD
ENDBRANCH  17  20
ENDBRANCH   1  12
BRANCH   6  22
ATOM     22  O   UNL     1      37.921   1.047  -8.953  1.00  0.00    -0.507 OA
ATOM     23  H   UNL     1      37.907   1.088  -7.946  1.00  0.00     0.293 HD
ENDBRANCH   6  22
BRANCH   8  24
ATOM     24  O   UNL     1      36.266  -3.398  -9.576  1.00  0.00    -0.508 OA
ATOM     25  H   UNL     1      36.096  -4.222 -10.142  1.00  0.00     0.293 HD
ENDBRANCH   8  24
TORSDOF 5
ENDMDL
MODEL 9
REMARK VINA RESULT:    -5.650     15.771     16.929
REMARK INTER + INTRA:          -6.958
REMARK INTER:                  -6.674
REMARK INTRA:                  -0.285
REMARK UNBOUND:                -0.318
REMARK SMILES O=c1cc(-c2ccc(O)c(O)c2)oc2cc(O)cc(O)c12
REMARK SMILES IDX 4 1 3 2 2 3 1 4 21 5 19 6 18 7 16 8 15 9 14 10 13 11 5 12
REMARK SMILES IDX 6 13 7 14 8 15 12 16 10 17 9 18 11 20 20 22 17 24
REMARK H PARENT 9 19 11 21 20 23 17 25
REMARK Flexibility Score: inf
ROOT
ATOM      1  C   UNL     1      30.267 -12.120  -9.100  1.00  0.00     0.138 A 
ATOM      2  C   UNL     1      30.567 -12.107 -10.469  1.00  0.00     0.100 A 
ATOM      3  C   UNL     1      31.104 -13.247 -11.069  1.00  0.00     0.197 A 
ATOM      4  O   UNL     1      31.310 -13.221 -12.310  1.00  0.00    -0.289 OA
ATOM      5  C   UNL     1      31.376 -14.393 -10.285  1.00  0.00     0.107 A 
ATOM      6  C   UNL     1      31.955 -15.601 -10.781  1.00  0.00     0.134 A 
ATOM      7  C   UNL     1      32.085 -16.704  -9.928  1.00  0.00     0.093 A 
ATOM      8  C   UNL     1      31.714 -16.627  -8.587  1.00  0.00     0.123 A 
ATOM      9  C   UNL     1      31.194 -15.436  -8.078  1.00  0.00     0.094 A 
ATOM     10  C   UNL     1      31.018 -14.329  -8.912  1.00  0.00     0.146 A 
ATOM     11  O   UNL     1      30.502 -13.220  -8.393  1.00  0.00    -0.456 OA
ENDROOT
BRANCH   1  12
ATOM     12  C   UNL     1      29.697 -10.935  -8.409  1.00  0.00     0.021 A 
ATOM     13  C   UNL     1      29.991 -10.650  -7.062  1.00  0.00     0.016 A 
ATOM     14  C   UNL     1      29.448  -9.522  -6.442  1.00  0.00     0.051 A 
ATOM     15  C   UNL     1      28.610  -8.656  -7.156  1.00  0.00     0.157 A 
ATOM     16  C   UNL     1      28.866 -10.053  -9.123  1.00  0.00     0.062 A 
ATOM     17  C   UNL     1      28.321  -8.923  -8.503  1.00  0.00     0.158 A 
BRANCH  15  18
ATOM     18  O   UNL     1      28.069  -7.532  -6.533  1.00  0.00    -0.504 OA
ATOM     19  H   UNL     1      27.961  -6.653  -7.025  1.00  0.00     0.293 HD
ENDBRANCH  15  18
BRANCH  17  20
ATOM     20  O   UNL     1      27.493  -8.078  -9.243  1.00  0.00    -0.504 OA
ATOM     21  H   UNL     1      26.583  -8.372  -9.576  1.00  0.00     0.293 HD
ENDBRANCH  17  20
ENDBRANCH   1  12
BRANCH   6  22
ATOM     22  O   UNL     1      32.435 -15.762 -12.084  1.00  0.00    -0.507 OA
ATOM     23  H   UNL     1      33.398 -15.928 -12.331  1.00  0.00     0.293 HD
ENDBRANCH   6  22
BRANCH   8  24
ATOM     24  O   UNL     1      31.873 -17.741  -7.765  1.00  0.00    -0.508 OA
ATOM     25  H   UNL     1      31.916 -17.652  -6.756  1.00  0.00     0.293 HD
ENDBRANCH   8  24
TORSDOF 5
ENDMDL
