MODEL 1
REMARK VINA RESULT:    -6.676      0.000      0.000
REMARK INTER + INTRA:         -21.586
REMARK INTER:                 -17.603
REMARK INTRA:                  -3.983
REMARK UNBOUND:                -3.983
REMARK SMILES CCCCCCCCCCCCCCCCCCCCCCCCCCCCCC(=O)[O-]
REMARK SMILES IDX 16 1 17 2 18 3 19 4 20 5 21 6 22 7 23 8 24 9 25 10 26 11
REMARK SMILES IDX 27 12 28 13 29 14 30 15 31 16 32 17 15 18 14 19 13 20 12 21
REMARK SMILES IDX 11 22 10 23 9 24 8 25 7 26 6 27 5 28 4 29 3 30 2 31 1 32
REMARK H PARENT
REMARK Flexibility Score: inf
ROOT
ATOM      1  C   UNL     1      93.451  -1.587   6.414  1.00  0.00     0.000 C 
ENDROOT
BRANCH   1   2
ATOM      2  C   UNL     1      92.767  -0.386   5.743  1.00  0.00     0.000 C 
BRANCH   2   3
ATOM      3  C   UNL     1      91.243  -0.449   5.935  1.00  0.00     0.000 C 
BRANCH   3   4
ATOM      4  C   UNL     1      90.467  -0.008   4.676  1.00  0.00     0.000 C 
BRANCH   4   5
ATOM      5  C   UNL     1      91.013  -0.605   3.364  1.00  0.00     0.000 C 
BRANCH   5   6
ATOM      6  C   UNL     1      90.141  -1.707   2.736  1.00  0.00     0.000 C 
BRANCH   6   7
ATOM      7  C   UNL     1      88.847  -1.204   2.063  1.00  0.00     0.000 C 
BRANCH   7   8
ATOM      8  C   UNL     1      87.919  -2.342   1.583  1.00  0.00     0.000 C 
BRANCH   8   9
ATOM      9  C   UNL     1      86.552  -2.317   2.291  1.00  0.00     0.000 C 
BRANCH   9  10
ATOM     10  C   UNL     1      86.577  -3.027   3.654  1.00  0.00     0.000 C 
BRANCH  10  11
ATOM     11  C   UNL     1      86.486  -2.038   4.831  1.00  0.00     0.000 C 
BRANCH  11  12
ATOM     12  C   UNL     1      87.757  -2.049   5.709  1.00  0.00     0.000 C 
BRANCH  12  13
ATOM     13  C   UNL     1      88.276  -3.464   6.024  1.00  0.00     0.006 C 
BRANCH  13  14
ATOM     14  C   UNL     1      89.783  -3.645   5.784  1.00  0.00     0.053 C 
BRANCH  14  15
ATOM     15  C   UNL     1      90.218  -5.064   5.996  1.00  0.00     0.041 C 
ATOM     16  O   UNL     1      90.744  -5.714   5.051  1.00  0.00    -0.550 OA
ATOM     17  O   UNL     1      90.022  -5.679   7.226  1.00  0.00    -0.550 OA
ENDBRANCH  14  15
ENDBRANCH  13  14
ENDBRANCH  12  13
ENDBRANCH  11  12
ENDBRANCH  10  11
ENDBRANCH   9  10
ENDBRANCH   8   9
ENDBRANCH   7   8
ENDBRANCH   6   7
ENDBRANCH   5   6
ENDBRANCH   4   5
ENDBRANCH   3   4
ENDBRANCH   2   3
ENDBRANCH   1   2
BRANCH   1  18
ATOM     18  C   UNL     1      92.561  -2.253   7.475  1.00  0.00     0.000 C 
BRANCH  18  19
ATOM     19  C   UNL     1      93.125  -3.604   7.948  1.00  0.00     0.000 C 
BRANCH  19  20
ATOM     20  C   UNL     1      93.376  -3.646   9.466  1.00  0.00     0.000 C 
BRANCH  20  21
ATOM     21  C   UNL     1      94.143  -4.902   9.930  1.00  0.00     0.000 C 
BRANCH  21  22
ATOM     22  C   UNL     1      95.289  -4.558  10.901  1.00  0.00     0.000 C 
BRANCH  22  23
ATOM     23  C   UNL     1      95.692  -3.076  10.836  1.00  0.00     0.000 C 
BRANCH  23  24
ATOM     24  C   UNL     1      97.004  -2.855  10.062  1.00  0.00    -0.000 C 
BRANCH  24  25
ATOM     25  C   UNL     1      97.104  -3.754   8.813  1.00  0.00    -0.000 C 
BRANCH  25  26
ATOM     26  C   UNL     1      96.755  -3.036   7.490  1.00  0.00    -0.000 C 
BRANCH  26  27
ATOM     27  C   UNL     1      97.974  -2.478   6.730  1.00  0.00    -0.000 C 
BRANCH  27  28
ATOM     28  C   UNL     1      99.311  -3.149   7.112  1.00  0.00    -0.000 C 
BRANCH  28  29
ATOM     29  C   UNL     1      99.811  -4.143   6.045  1.00  0.00    -0.000 C 
BRANCH  29  30
ATOM     30  C   UNL     1      99.384  -5.600   6.334  1.00  0.00    -0.000 C 
BRANCH  30  31
ATOM     31  C   UNL     1      98.473  -6.197   5.247  1.00  0.00    -0.003 C 
ATOM     32  C   UNL     1      97.146  -6.717   5.799  1.00  0.00     0.004 C 
ENDBRANCH  30  31
ENDBRANCH  29  30
ENDBRANCH  28  29
ENDBRANCH  27  28
ENDBRANCH  26  27
ENDBRANCH  25  26
ENDBRANCH  24  25
ENDBRANCH  23  24
ENDBRANCH  22  23
ENDBRANCH  21  22
ENDBRANCH  20  21
ENDBRANCH  19  20
ENDBRANCH  18  19
ENDBRANCH   1  18
TORSDOF 28
ENDMDL
MODEL 2
REMARK VINA RESULT:    -6.592      4.700      8.743
REMARK INTER + INTRA:         -21.365
REMARK INTER:                 -17.727
REMARK INTRA:                  -3.638
REMARK UNBOUND:                -3.983
REMARK SMILES CCCCCCCCCCCCCCCCCCCCCCCCCCCCCC(=O)[O-]
REMARK SMILES IDX 16 1 17 2 18 3 19 4 20 5 21 6 22 7 23 8 24 9 25 10 26 11
REMARK SMILES IDX 27 12 28 13 29 14 30 15 31 16 32 17 15 18 14 19 13 20 12 21
REMARK SMILES IDX 11 22 10 23 9 24 8 25 7 26 6 27 5 28 4 29 3 30 2 31 1 32
REMARK H PARENT
REMARK Flexibility Score: inf
ROOT
ATOM      1  C   UNL     1      87.381  -1.859   1.635  1.00  0.00     0.000 C 
ENDROOT
BRANCH   1   2
ATOM      2  C   UNL     1      86.471  -2.635   2.600  1.00  0.00     0.000 C 
BRANCH   2   3
ATOM      3  C   UNL     1      85.007  -2.578   2.134  1.00  0.00     0.000 C 
BRANCH   3   4
ATOM      4  C   UNL     1      84.028  -2.277   3.288  1.00  0.00     0.000 C 
BRANCH   4   5
ATOM      5  C   UNL     1      83.122  -3.465   3.667  1.00  0.00     0.000 C 
BRANCH   5   6
ATOM      6  C   UNL     1      82.305  -4.058   2.505  1.00  0.00     0.000 C 
BRANCH   6   7
ATOM      7  C   UNL     1      81.216  -3.124   1.937  1.00  0.00     0.000 C 
BRANCH   7   8
ATOM      8  C   UNL     1      81.011  -3.271   0.414  1.00  0.00     0.000 C 
BRANCH   8   9
ATOM      9  C   UNL     1      81.958  -2.363  -0.392  1.00  0.00     0.000 C 
BRANCH   9  10
ATOM     10  C   UNL     1      82.158  -0.985   0.261  1.00  0.00     0.000 C 
BRANCH  10  11
ATOM     11  C   UNL     1      82.548   0.097  -0.762  1.00  0.00     0.000 C 
BRANCH  11  12
ATOM     12  C   UNL     1      82.557   1.514  -0.146  1.00  0.00     0.000 C 
BRANCH  12  13
ATOM     13  C   UNL     1      81.187   2.215  -0.193  1.00  0.00     0.006 C 
BRANCH  13  14
ATOM     14  C   UNL     1      80.562   2.463   1.188  1.00  0.00     0.053 C 
BRANCH  14  15
ATOM     15  C   UNL     1      81.602   2.577   2.263  1.00  0.00     0.041 C 
ATOM     16  O   UNL     1      82.183   3.678   2.468  1.00  0.00    -0.550 OA
ATOM     17  O   UNL     1      81.950   1.465   3.020  1.00  0.00    -0.550 OA
ENDBRANCH  14  15
ENDBRANCH  13  14
ENDBRANCH  12  13
ENDBRANCH  11  12
ENDBRANCH  10  11
ENDBRANCH   9  10
ENDBRANCH   8   9
ENDBRANCH   7   8
ENDBRANCH   6   7
ENDBRANCH   5   6
ENDBRANCH   4   5
ENDBRANCH   3   4
ENDBRANCH   2   3
ENDBRANCH   1   2
BRANCH   1  18
ATOM     18  C   UNL     1      88.642  -2.650   1.254  1.00  0.00     0.000 C 
BRANCH  18  19
ATOM     19  C   UNL     1      89.796  -2.426   2.247  1.00  0.00     0.000 C 
BRANCH  19  20
ATOM     20  C   UNL     1      89.899  -0.965   2.720  1.00  0.00     0.000 C 
BRANCH  20  21
ATOM     21  C   UNL     1      91.000  -0.734   3.777  1.00  0.00     0.000 C 
BRANCH  21  22
ATOM     22  C   UNL     1      90.470   0.011   5.016  1.00  0.00     0.000 C 
BRANCH  22  23
ATOM     23  C   UNL     1      91.507   0.087   6.148  1.00  0.00     0.000 C 
BRANCH  23  24
ATOM     24  C   UNL     1      92.843  -0.578   5.769  1.00  0.00    -0.000 C 
BRANCH  24  25
ATOM     25  C   UNL     1      93.192  -1.758   6.697  1.00  0.00    -0.000 C 
BRANCH  25  26
ATOM     26  C   UNL     1      91.964  -2.546   7.205  1.00  0.00    -0.000 C 
BRANCH  26  27
ATOM     27  C   UNL     1      91.347  -3.500   6.163  1.00  0.00    -0.000 C 
BRANCH  27  28
ATOM     28  C   UNL     1      90.477  -4.618   6.776  1.00  0.00    -0.000 C 
BRANCH  28  29
ATOM     29  C   UNL     1      88.978  -4.457   6.456  1.00  0.00    -0.000 C 
BRANCH  29  30
ATOM     30  C   UNL     1      88.686  -3.251   5.534  1.00  0.00    -0.000 C 
BRANCH  30  31
ATOM     31  C   UNL     1      87.649  -2.275   6.115  1.00  0.00    -0.003 C 
ATOM     32  C   UNL     1      86.328  -2.952   6.478  1.00  0.00     0.004 C 
ENDBRANCH  30  31
ENDBRANCH  29  30
ENDBRANCH  28  29
ENDBRANCH  27  28
ENDBRANCH  26  27
ENDBRANCH  25  26
ENDBRANCH  24  25
ENDBRANCH  23  24
ENDBRANCH  22  23
ENDBRANCH  21  22
ENDBRANCH  20  21
ENDBRANCH  19  20
ENDBRANCH  18  19
ENDBRANCH   1  18
TORSDOF 28
ENDMDL
MODEL 3
REMARK VINA RESULT:    -6.526      2.740      4.930
REMARK INTER + INTRA:         -21.191
REMARK INTER:                 -16.841
REMARK INTRA:                  -4.350
REMARK UNBOUND:                -3.983
REMARK SMILES CCCCCCCCCCCCCCCCCCCCCCCCCCCCCC(=O)[O-]
REMARK SMILES IDX 16 1 17 2 18 3 19 4 20 5 21 6 22 7 23 8 24 9 25 10 26 11
REMARK SMILES IDX 27 12 28 13 29 14 30 15 31 16 32 17 15 18 14 19 13 20 12 21
REMARK SMILES IDX 11 22 10 23 9 24 8 25 7 26 6 27 5 28 4 29 3 30 2 31 1 32
REMARK H PARENT
REMARK Flexibility Score: inf
ROOT
ATOM      1  C   UNL     1      87.929  -3.515   5.909  1.00  0.00     0.000 C 
ENDROOT
BRANCH   1   2
ATOM      2  C   UNL     1      87.132  -2.254   6.275  1.00  0.00     0.000 C 
BRANCH   2   3
ATOM      3  C   UNL     1      87.958  -0.987   5.999  1.00  0.00     0.000 C 
BRANCH   3   4
ATOM      4  C   UNL     1      89.478  -1.247   6.044  1.00  0.00     0.000 C 
BRANCH   4   5
ATOM      5  C   UNL     1      90.309  -0.248   5.215  1.00  0.00     0.000 C 
BRANCH   5   6
ATOM      6  C   UNL     1      91.159  -0.878   4.096  1.00  0.00     0.000 C 
BRANCH   6   7
ATOM      7  C   UNL     1      90.399  -1.147   2.780  1.00  0.00     0.000 C 
BRANCH   7   8
ATOM      8  C   UNL     1      89.813  -2.573   2.687  1.00  0.00     0.000 C 
BRANCH   8   9
ATOM      9  C   UNL     1      88.718  -2.685   1.611  1.00  0.00     0.000 C 
BRANCH   9  10
ATOM     10  C   UNL     1      87.736  -1.502   1.638  1.00  0.00     0.000 C 
BRANCH  10  11
ATOM     11  C   UNL     1      86.267  -1.961   1.668  1.00  0.00     0.000 C 
BRANCH  11  12
ATOM     12  C   UNL     1      85.938  -2.802   2.921  1.00  0.00     0.000 C 
BRANCH  12  13
ATOM     13  C   UNL     1      84.465  -2.704   3.360  1.00  0.00     0.006 C 
BRANCH  13  14
ATOM     14  C   UNL     1      83.533  -2.108   2.295  1.00  0.00     0.053 C 
BRANCH  14  15
ATOM     15  C   UNL     1      82.681  -3.156   1.644  1.00  0.00     0.041 C 
ATOM     16  O   UNL     1      82.239  -4.124   2.320  1.00  0.00    -0.550 OA
ATOM     17  O   UNL     1      82.396  -3.080   0.286  1.00  0.00    -0.550 OA
ENDBRANCH  14  15
ENDBRANCH  13  14
ENDBRANCH  12  13
ENDBRANCH  11  12
ENDBRANCH  10  11
ENDBRANCH   9  10
ENDBRANCH   8   9
ENDBRANCH   7   8
ENDBRANCH   6   7
ENDBRANCH   5   6
ENDBRANCH   4   5
ENDBRANCH   3   4
ENDBRANCH   2   3
ENDBRANCH   1   2
BRANCH   1  18
ATOM     18  C   UNL     1      88.033  -4.504   7.080  1.00  0.00     0.000 C 
BRANCH  18  19
ATOM     19  C   UNL     1      89.366  -5.274   7.080  1.00  0.00     0.000 C 
BRANCH  19  20
ATOM     20  C   UNL     1      90.161  -5.088   5.776  1.00  0.00     0.000 C 
BRANCH  20  21
ATOM     21  C   UNL     1      91.453  -4.264   5.952  1.00  0.00     0.000 C 
BRANCH  21  22
ATOM     22  C   UNL     1      91.931  -4.238   7.417  1.00  0.00     0.000 C 
BRANCH  22  23
ATOM     23  C   UNL     1      92.951  -3.120   7.685  1.00  0.00     0.000 C 
BRANCH  23  24
ATOM     24  C   UNL     1      93.656  -3.279   9.044  1.00  0.00    -0.000 C 
BRANCH  24  25
ATOM     25  C   UNL     1      93.532  -4.711   9.603  1.00  0.00    -0.000 C 
BRANCH  25  26
ATOM     26  C   UNL     1      94.752  -5.173  10.431  1.00  0.00    -0.000 C 
BRANCH  26  27
ATOM     27  C   UNL     1      95.433  -4.050  11.238  1.00  0.00    -0.000 C 
BRANCH  27  28
ATOM     28  C   UNL     1      96.920  -3.836  10.881  1.00  0.00    -0.000 C 
BRANCH  28  29
ATOM     29  C   UNL     1      97.176  -2.506  10.145  1.00  0.00    -0.000 C 
BRANCH  29  30
ATOM     30  C   UNL     1      97.338  -2.686   8.618  1.00  0.00    -0.000 C 
BRANCH  30  31
ATOM     31  C   UNL     1      97.667  -4.131   8.205  1.00  0.00    -0.003 C 
ATOM     32  C   UNL     1      96.697  -4.691   7.165  1.00  0.00     0.004 C 
ENDBRANCH  30  31
ENDBRANCH  29  30
ENDBRANCH  28  29
ENDBRANCH  27  28
ENDBRANCH  26  27
ENDBRANCH  25  26
ENDBRANCH  24  25
ENDBRANCH  23  24
ENDBRANCH  22  23
ENDBRANCH  21  22
ENDBRANCH  20  21
ENDBRANCH  19  20
ENDBRANCH  18  19
ENDBRANCH   1  18
TORSDOF 28
ENDMDL
MODEL 4
REMARK VINA RESULT:    -6.459      3.088     11.262
REMARK INTER + INTRA:         -21.014
REMARK INTER:                 -18.896
REMARK INTRA:                  -2.118
REMARK UNBOUND:                -3.983
REMARK SMILES CCCCCCCCCCCCCCCCCCCCCCCCCCCCCC(=O)[O-]
REMARK SMILES IDX 16 1 17 2 18 3 19 4 20 5 21 6 22 7 23 8 24 9 25 10 26 11
REMARK SMILES IDX 27 12 28 13 29 14 30 15 31 16 32 17 15 18 14 19 13 20 12 21
REMARK SMILES IDX 11 22 10 23 9 24 8 25 7 26 6 27 5 28 4 29 3 30 2 31 1 32
REMARK H PARENT
REMARK Flexibility Score: inf
ROOT
ATOM      1  C   UNL     1      93.201  -4.065   9.017  1.00  0.00     0.000 C 
ENDROOT
BRANCH   1   2
ATOM      2  C   UNL     1      94.042  -3.757  10.266  1.00  0.00     0.000 C 
BRANCH   2   3
ATOM      3  C   UNL     1      95.100  -4.848  10.494  1.00  0.00     0.000 C 
BRANCH   3   4
ATOM      4  C   UNL     1      96.515  -4.268  10.700  1.00  0.00     0.000 C 
BRANCH   4   5
ATOM      5  C   UNL     1      96.732  -2.894  10.036  1.00  0.00     0.000 C 
BRANCH   5   6
ATOM      6  C   UNL     1      97.537  -2.924   8.724  1.00  0.00     0.000 C 
BRANCH   6   7
ATOM      7  C   UNL     1      96.729  -3.343   7.478  1.00  0.00     0.000 C 
BRANCH   7   8
ATOM      8  C   UNL     1      96.907  -4.829   7.099  1.00  0.00     0.000 C 
BRANCH   8   9
ATOM      9  C   UNL     1      98.267  -5.102   6.432  1.00  0.00     0.000 C 
BRANCH   9  10
ATOM     10  C   UNL     1      98.266  -6.387   5.586  1.00  0.00     0.000 C 
BRANCH  10  11
ATOM     11  C   UNL     1      99.383  -7.362   6.002  1.00  0.00     0.000 C 
BRANCH  11  12
ATOM     12  C   UNL     1      98.851  -8.789   6.264  1.00  0.00     0.000 C 
BRANCH  12  13
ATOM     13  C   UNL     1      97.372  -8.975   5.881  1.00  0.00     0.006 C 
BRANCH  13  14
ATOM     14  C   UNL     1      97.145  -9.936   4.705  1.00  0.00     0.053 C 
BRANCH  14  15
ATOM     15  C   UNL     1      97.154  -9.222   3.386  1.00  0.00     0.041 C 
ATOM     16  O   UNL     1      96.491  -8.160   3.236  1.00  0.00    -0.550 OA
ATOM     17  O   UNL     1      97.872  -9.741   2.316  1.00  0.00    -0.550 OA
ENDBRANCH  14  15
ENDBRANCH  13  14
ENDBRANCH  12  13
ENDBRANCH  11  12
ENDBRANCH  10  11
ENDBRANCH   9  10
ENDBRANCH   8   9
ENDBRANCH   7   8
ENDBRANCH   6   7
ENDBRANCH   5   6
ENDBRANCH   4   5
ENDBRANCH   3   4
ENDBRANCH   2   3
ENDBRANCH   1   2
BRANCH   1  18
ATOM     18  C   UNL     1      93.408  -3.031   7.900  1.00  0.00     0.000 C 
BRANCH  18  19
ATOM     19  C   UNL     1      92.116  -2.753   7.112  1.00  0.00     0.000 C 
BRANCH  19  20
ATOM     20  C   UNL     1      91.414  -4.041   6.648  1.00  0.00     0.000 C 
BRANCH  20  21
ATOM     21  C   UNL     1      89.992  -3.805   6.097  1.00  0.00     0.000 C 
BRANCH  21  22
ATOM     22  C   UNL     1      90.007  -3.330   4.632  1.00  0.00     0.000 C 
BRANCH  22  23
ATOM     23  C   UNL     1      88.596  -3.059   4.085  1.00  0.00     0.000 C 
BRANCH  23  24
ATOM     24  C   UNL     1      88.619  -2.304   2.744  1.00  0.00    -0.000 C 
BRANCH  24  25
ATOM     25  C   UNL     1      87.281  -2.420   1.985  1.00  0.00    -0.000 C 
BRANCH  25  26
ATOM     26  C   UNL     1      86.069  -2.740   2.889  1.00  0.00    -0.000 C 
BRANCH  26  27
ATOM     27  C   UNL     1      84.708  -2.332   2.291  1.00  0.00    -0.000 C 
BRANCH  27  28
ATOM     28  C   UNL     1      83.503  -3.061   2.924  1.00  0.00    -0.000 C 
BRANCH  28  29
ATOM     29  C   UNL     1      82.153  -2.403   2.580  1.00  0.00    -0.000 C 
BRANCH  29  30
ATOM     30  C   UNL     1      81.138  -3.396   1.968  1.00  0.00    -0.000 C 
BRANCH  30  31
ATOM     31  C   UNL     1      81.588  -3.973   0.614  1.00  0.00    -0.003 C 
ATOM     32  C   UNL     1      81.528  -2.951  -0.521  1.00  0.00     0.004 C 
ENDBRANCH  30  31
ENDBRANCH  29  30
ENDBRANCH  28  29
ENDBRANCH  27  28
ENDBRANCH  26  27
ENDBRANCH  25  26
ENDBRANCH  24  25
ENDBRANCH  23  24
ENDBRANCH  22  23
ENDBRANCH  21  22
ENDBRANCH  20  21
ENDBRANCH  19  20
ENDBRANCH  18  19
ENDBRANCH   1  18
TORSDOF 28
ENDMDL
MODEL 5
REMARK VINA RESULT:    -6.437      3.475     12.167
REMARK INTER + INTRA:         -20.955
REMARK INTER:                 -18.273
REMARK INTRA:                  -2.683
REMARK UNBOUND:                -3.983
REMARK SMILES CCCCCCCCCCCCCCCCCCCCCCCCCCCCCC(=O)[O-]
REMARK SMILES IDX 16 1 17 2 18 3 19 4 20 5 21 6 22 7 23 8 24 9 25 10 26 11
REMARK SMILES IDX 27 12 28 13 29 14 30 15 31 16 32 17 15 18 14 19 13 20 12 21
REMARK SMILES IDX 11 22 10 23 9 24 8 25 7 26 6 27 5 28 4 29 3 30 2 31 1 32
REMARK H PARENT
REMARK Flexibility Score: inf
ROOT
ATOM      1  C   UNL     1      90.918  -3.259   5.763  1.00  0.00     0.000 C 
ENDROOT
BRANCH   1   2
ATOM      2  C   UNL     1      91.394  -2.265   6.833  1.00  0.00     0.000 C 
BRANCH   2   3
ATOM      3  C   UNL     1      92.860  -1.869   6.597  1.00  0.00     0.000 C 
BRANCH   3   4
ATOM      4  C   UNL     1      93.790  -2.324   7.741  1.00  0.00     0.000 C 
BRANCH   4   5
ATOM      5  C   UNL     1      93.797  -3.848   7.974  1.00  0.00     0.000 C 
BRANCH   5   6
ATOM      6  C   UNL     1      93.366  -4.293   9.384  1.00  0.00     0.000 C 
BRANCH   6   7
ATOM      7  C   UNL     1      94.219  -3.716  10.533  1.00  0.00     0.000 C 
BRANCH   7   8
ATOM      8  C   UNL     1      95.611  -4.374  10.657  1.00  0.00     0.000 C 
BRANCH   8   9
ATOM      9  C   UNL     1      96.727  -3.338  10.889  1.00  0.00     0.000 C 
BRANCH   9  10
ATOM     10  C   UNL     1      97.267  -2.744   9.577  1.00  0.00     0.000 C 
BRANCH  10  11
ATOM     11  C   UNL     1      97.196  -3.744   8.409  1.00  0.00     0.000 C 
BRANCH  11  12
ATOM     12  C   UNL     1      97.736  -3.148   7.090  1.00  0.00     0.000 C 
BRANCH  12  13
ATOM     13  C   UNL     1      99.214  -3.486   6.820  1.00  0.00     0.006 C 
BRANCH  13  14
ATOM     14  C   UNL     1      99.448  -4.284   5.529  1.00  0.00     0.053 C 
BRANCH  14  15
ATOM     15  C   UNL     1      99.102  -5.733   5.693  1.00  0.00     0.041 C 
ATOM     16  O   UNL     1      99.552  -6.385   6.675  1.00  0.00    -0.550 OA
ATOM     17  O   UNL     1      98.306  -6.373   4.751  1.00  0.00    -0.550 OA
ENDBRANCH  14  15
ENDBRANCH  13  14
ENDBRANCH  12  13
ENDBRANCH  11  12
ENDBRANCH  10  11
ENDBRANCH   9  10
ENDBRANCH   8   9
ENDBRANCH   7   8
ENDBRANCH   6   7
ENDBRANCH   5   6
ENDBRANCH   4   5
ENDBRANCH   3   4
ENDBRANCH   2   3
ENDBRANCH   1   2
BRANCH   1  18
ATOM     18  C   UNL     1      89.395  -3.461   5.784  1.00  0.00     0.000 C 
BRANCH  18  19
ATOM     19  C   UNL     1      88.642  -2.310   5.095  1.00  0.00     0.000 C 
BRANCH  19  20
ATOM     20  C   UNL     1      88.192  -2.664   3.666  1.00  0.00     0.000 C 
BRANCH  20  21
ATOM     21  C   UNL     1      86.660  -2.654   3.480  1.00  0.00     0.000 C 
BRANCH  21  22
ATOM     22  C   UNL     1      86.251  -2.283   2.042  1.00  0.00     0.000 C 
BRANCH  22  23
ATOM     23  C   UNL     1      84.728  -2.165   1.874  1.00  0.00     0.000 C 
BRANCH  23  24
ATOM     24  C   UNL     1      83.954  -2.835   3.023  1.00  0.00    -0.000 C 
BRANCH  24  25
ATOM     25  C   UNL     1      82.987  -3.925   2.520  1.00  0.00    -0.000 C 
BRANCH  25  26
ATOM     26  C   UNL     1      81.494  -3.603   2.758  1.00  0.00    -0.000 C 
BRANCH  26  27
ATOM     27  C   UNL     1      80.735  -3.146   1.497  1.00  0.00    -0.000 C 
BRANCH  27  28
ATOM     28  C   UNL     1      81.617  -3.057   0.233  1.00  0.00    -0.000 C 
BRANCH  28  29
ATOM     29  C   UNL     1      81.746  -1.621  -0.310  1.00  0.00    -0.000 C 
BRANCH  29  30
ATOM     30  C   UNL     1      81.639  -0.547   0.798  1.00  0.00    -0.000 C 
BRANCH  30  31
ATOM     31  C   UNL     1      82.672   0.584   0.653  1.00  0.00    -0.003 C 
ATOM     32  C   UNL     1      83.257   0.684  -0.755  1.00  0.00     0.004 C 
ENDBRANCH  30  31
ENDBRANCH  29  30
ENDBRANCH  28  29
ENDBRANCH  27  28
ENDBRANCH  26  27
ENDBRANCH  25  26
ENDBRANCH  24  25
ENDBRANCH  23  24
ENDBRANCH  22  23
ENDBRANCH  21  22
ENDBRANCH  20  21
ENDBRANCH  19  20
ENDBRANCH  18  19
ENDBRANCH   1  18
TORSDOF 28
ENDMDL
MODEL 6
REMARK VINA RESULT:    -6.432      3.003     11.754
REMARK INTER + INTRA:         -20.942
REMARK INTER:                 -18.617
REMARK INTRA:                  -2.326
REMARK UNBOUND:                -3.983
REMARK SMILES CCCCCCCCCCCCCCCCCCCCCCCCCCCCCC(=O)[O-]
REMARK SMILES IDX 16 1 17 2 18 3 19 4 20 5 21 6 22 7 23 8 24 9 25 10 26 11
REMARK SMILES IDX 27 12 28 13 29 14 30 15 31 16 32 17 15 18 14 19 13 20 12 21
REMARK SMILES IDX 11 22 10 23 9 24 8 25 7 26 6 27 5 28 4 29 3 30 2 31 1 32
REMARK H PARENT
REMARK Flexibility Score: inf
ROOT
ATOM      1  C   UNL     1      92.492  -1.851   6.792  1.00  0.00     0.000 C 
ENDROOT
BRANCH   1   2
ATOM      2  C   UNL     1      92.321  -3.290   7.305  1.00  0.00     0.000 C 
BRANCH   2   3
ATOM      3  C   UNL     1      93.601  -3.776   8.002  1.00  0.00     0.000 C 
BRANCH   3   4
ATOM      4  C   UNL     1      93.347  -4.246   9.449  1.00  0.00     0.000 C 
BRANCH   4   5
ATOM      5  C   UNL     1      94.417  -3.780  10.456  1.00  0.00     0.000 C 
BRANCH   5   6
ATOM      6  C   UNL     1      95.613  -4.735  10.625  1.00  0.00     0.000 C 
BRANCH   6   7
ATOM      7  C   UNL     1      96.996  -4.053  10.583  1.00  0.00     0.000 C 
BRANCH   7   8
ATOM      8  C   UNL     1      97.091  -2.915   9.543  1.00  0.00     0.000 C 
BRANCH   8   9
ATOM      9  C   UNL     1      97.231  -3.449   8.105  1.00  0.00     0.000 C 
BRANCH   9  10
ATOM     10  C   UNL     1      98.389  -2.790   7.338  1.00  0.00     0.000 C 
BRANCH  10  11
ATOM     11  C   UNL     1      99.018  -3.738   6.300  1.00  0.00     0.000 C 
BRANCH  11  12
ATOM     12  C   UNL     1      99.761  -4.922   6.959  1.00  0.00     0.000 C 
BRANCH  12  13
ATOM     13  C   UNL     1      99.363  -6.295   6.386  1.00  0.00     0.006 C 
BRANCH  13  14
ATOM     14  C   UNL     1      98.007  -6.303   5.666  1.00  0.00     0.053 C 
BRANCH  14  15
ATOM     15  C   UNL     1      97.638  -7.672   5.178  1.00  0.00     0.041 C 
ATOM     16  O   UNL     1      97.156  -7.825   4.023  1.00  0.00    -0.550 OA
ATOM     17  O   UNL     1      97.802  -8.776   6.006  1.00  0.00    -0.550 OA
ENDBRANCH  14  15
ENDBRANCH  13  14
ENDBRANCH  12  13
ENDBRANCH  11  12
ENDBRANCH  10  11
ENDBRANCH   9  10
ENDBRANCH   8   9
ENDBRANCH   7   8
ENDBRANCH   6   7
ENDBRANCH   5   6
ENDBRANCH   4   5
ENDBRANCH   3   4
ENDBRANCH   2   3
ENDBRANCH   1   2
BRANCH   1  18
ATOM     18  C   UNL     1      91.393  -1.448   5.797  1.00  0.00     0.000 C 
BRANCH  18  19
ATOM     19  C   UNL     1      90.054  -2.148   6.087  1.00  0.00     0.000 C 
BRANCH  19  20
ATOM     20  C   UNL     1      88.878  -1.531   5.311  1.00  0.00     0.000 C 
BRANCH  20  21
ATOM     21  C   UNL     1      87.507  -1.759   5.981  1.00  0.00     0.000 C 
BRANCH  21  22
ATOM     22  C   UNL     1      86.531  -2.520   5.064  1.00  0.00     0.000 C 
BRANCH  22  23
ATOM     23  C   UNL     1      87.028  -2.601   3.611  1.00  0.00     0.000 C 
BRANCH  23  24
ATOM     24  C   UNL     1      85.878  -2.525   2.590  1.00  0.00    -0.000 C 
BRANCH  24  25
ATOM     25  C   UNL     1      84.497  -2.432   3.270  1.00  0.00    -0.000 C 
BRANCH  25  26
ATOM     26  C   UNL     1      83.579  -3.645   3.003  1.00  0.00    -0.000 C 
BRANCH  26  27
ATOM     27  C   UNL     1      82.161  -3.273   2.525  1.00  0.00    -0.000 C 
BRANCH  27  28
ATOM     28  C   UNL     1      81.926  -3.513   1.018  1.00  0.00    -0.000 C 
BRANCH  28  29
ATOM     29  C   UNL     1      81.704  -2.208   0.229  1.00  0.00    -0.000 C 
BRANCH  29  30
ATOM     30  C   UNL     1      81.809  -0.945   1.114  1.00  0.00    -0.000 C 
BRANCH  30  31
ATOM     31  C   UNL     1      82.979  -0.023   0.728  1.00  0.00    -0.003 C 
ATOM     32  C   UNL     1      82.902   0.467  -0.718  1.00  0.00     0.004 C 
ENDBRANCH  30  31
ENDBRANCH  29  30
ENDBRANCH  28  29
ENDBRANCH  27  28
ENDBRANCH  26  27
ENDBRANCH  25  26
ENDBRANCH  24  25
ENDBRANCH  23  24
ENDBRANCH  22  23
ENDBRANCH  21  22
ENDBRANCH  20  21
ENDBRANCH  19  20
ENDBRANCH  18  19
ENDBRANCH   1  18
TORSDOF 28
ENDMDL
MODEL 7
REMARK VINA RESULT:    -6.429      1.966      9.761
REMARK INTER + INTRA:         -20.936
REMARK INTER:                 -17.383
REMARK INTRA:                  -3.552
REMARK UNBOUND:                -3.983
REMARK SMILES CCCCCCCCCCCCCCCCCCCCCCCCCCCCCC(=O)[O-]
REMARK SMILES IDX 16 1 17 2 18 3 19 4 20 5 21 6 22 7 23 8 24 9 25 10 26 11
REMARK SMILES IDX 27 12 28 13 29 14 30 15 31 16 32 17 15 18 14 19 13 20 12 21
REMARK SMILES IDX 11 22 10 23 9 24 8 25 7 26 6 27 5 28 4 29 3 30 2 31 1 32
REMARK H PARENT
REMARK Flexibility Score: inf
ROOT
ATOM      1  C   UNL     1      93.635  -1.620   6.730  1.00  0.00     0.000 C 
ENDROOT
BRANCH   1   2
ATOM      2  C   UNL     1      92.605  -2.452   7.510  1.00  0.00     0.000 C 
BRANCH   2   3
ATOM      3  C   UNL     1      93.240  -3.746   8.044  1.00  0.00     0.000 C 
BRANCH   3   4
ATOM      4  C   UNL     1      93.401  -3.739   9.578  1.00  0.00     0.000 C 
BRANCH   4   5
ATOM      5  C   UNL     1      94.289  -4.878  10.119  1.00  0.00     0.000 C 
BRANCH   5   6
ATOM      6  C   UNL     1      95.700  -4.450  10.562  1.00  0.00     0.000 C 
BRANCH   6   7
ATOM      7  C   UNL     1      96.019  -2.955  10.349  1.00  0.00     0.000 C 
BRANCH   7   8
ATOM      8  C   UNL     1      97.157  -2.707   9.334  1.00  0.00     0.000 C 
BRANCH   8   9
ATOM      9  C   UNL     1      96.852  -3.319   7.955  1.00  0.00     0.000 C 
BRANCH   9  10
ATOM     10  C   UNL     1      97.856  -2.881   6.876  1.00  0.00     0.000 C 
BRANCH  10  11
ATOM     11  C   UNL     1      99.206  -3.610   7.001  1.00  0.00     0.000 C 
BRANCH  11  12
ATOM     12  C   UNL     1      99.741  -4.098   5.636  1.00  0.00     0.000 C 
BRANCH  12  13
ATOM     13  C   UNL     1      98.954  -5.287   5.055  1.00  0.00     0.006 C 
BRANCH  13  14
ATOM     14  C   UNL     1      98.956  -6.535   5.949  1.00  0.00     0.053 C 
BRANCH  14  15
ATOM     15  C   UNL     1      97.921  -7.533   5.522  1.00  0.00     0.041 C 
ATOM     16  O   UNL     1      96.712  -7.190   5.421  1.00  0.00    -0.550 OA
ATOM     17  O   UNL     1      98.286  -8.848   5.260  1.00  0.00    -0.550 OA
ENDBRANCH  14  15
ENDBRANCH  13  14
ENDBRANCH  12  13
ENDBRANCH  11  12
ENDBRANCH  10  11
ENDBRANCH   9  10
ENDBRANCH   8   9
ENDBRANCH   7   8
ENDBRANCH   6   7
ENDBRANCH   5   6
ENDBRANCH   4   5
ENDBRANCH   3   4
ENDBRANCH   2   3
ENDBRANCH   1   2
BRANCH   1  18
ATOM     18  C   UNL     1      92.987  -0.760   5.635  1.00  0.00     0.000 C 
BRANCH  18  19
ATOM     19  C   UNL     1      91.699  -0.071   6.117  1.00  0.00     0.000 C 
BRANCH  19  20
ATOM     20  C   UNL     1      90.472  -0.435   5.261  1.00  0.00     0.000 C 
BRANCH  20  21
ATOM     21  C   UNL     1      90.703  -1.647   4.335  1.00  0.00     0.000 C 
BRANCH  21  22
ATOM     22  C   UNL     1      90.089  -1.438   2.938  1.00  0.00     0.000 C 
BRANCH  22  23
ATOM     23  C   UNL     1      89.655  -2.758   2.281  1.00  0.00     0.000 C 
BRANCH  23  24
ATOM     24  C   UNL     1      88.493  -2.568   1.289  1.00  0.00    -0.000 C 
BRANCH  24  25
ATOM     25  C   UNL     1      87.266  -1.906   1.946  1.00  0.00    -0.000 C 
BRANCH  25  26
ATOM     26  C   UNL     1      86.403  -2.873   2.788  1.00  0.00    -0.000 C 
BRANCH  26  27
ATOM     27  C   UNL     1      85.869  -2.267   4.101  1.00  0.00    -0.000 C 
BRANCH  27  28
ATOM     28  C   UNL     1      86.958  -2.026   5.168  1.00  0.00    -0.000 C 
BRANCH  28  29
ATOM     29  C   UNL     1      86.606  -2.640   6.537  1.00  0.00    -0.000 C 
BRANCH  29  30
ATOM     30  C   UNL     1      87.437  -3.903   6.861  1.00  0.00    -0.000 C 
BRANCH  30  31
ATOM     31  C   UNL     1      88.734  -4.008   6.040  1.00  0.00    -0.003 C 
ATOM     32  C   UNL     1      89.830  -4.800   6.753  1.00  0.00     0.004 C 
ENDBRANCH  30  31
ENDBRANCH  29  30
ENDBRANCH  28  29
ENDBRANCH  27  28
ENDBRANCH  26  27
ENDBRANCH  25  26
ENDBRANCH  24  25
ENDBRANCH  23  24
ENDBRANCH  22  23
ENDBRANCH  21  22
ENDBRANCH  20  21
ENDBRANCH  19  20
ENDBRANCH  18  19
ENDBRANCH   1  18
TORSDOF 28
ENDMDL
MODEL 8
REMARK VINA RESULT:    -6.420      3.763      5.754
REMARK INTER + INTRA:         -20.912
REMARK INTER:                 -17.671
REMARK INTRA:                  -3.240
REMARK UNBOUND:                -3.983
REMARK SMILES CCCCCCCCCCCCCCCCCCCCCCCCCCCCCC(=O)[O-]
REMARK SMILES IDX 16 1 17 2 18 3 19 4 20 5 21 6 22 7 23 8 24 9 25 10 26 11
REMARK SMILES IDX 27 12 28 13 29 14 30 15 31 16 32 17 15 18 14 19 13 20 12 21
REMARK SMILES IDX 11 22 10 23 9 24 8 25 7 26 6 27 5 28 4 29 3 30 2 31 1 32
REMARK H PARENT
REMARK Flexibility Score: inf
ROOT
ATOM      1  C   UNL     1      89.599  -1.529   3.743  1.00  0.00     0.000 C 
ENDROOT
BRANCH   1   2
ATOM      2  C   UNL     1      89.738  -3.060   3.755  1.00  0.00     0.000 C 
BRANCH   2   3
ATOM      3  C   UNL     1      89.463  -3.621   5.159  1.00  0.00     0.000 C 
BRANCH   3   4
ATOM      4  C   UNL     1      88.549  -2.703   5.998  1.00  0.00     0.000 C 
BRANCH   4   5
ATOM      5  C   UNL     1      87.118  -3.244   6.182  1.00  0.00     0.000 C 
BRANCH   5   6
ATOM      6  C   UNL     1      86.023  -2.457   5.438  1.00  0.00     0.000 C 
BRANCH   6   7
ATOM      7  C   UNL     1      86.001  -2.667   3.910  1.00  0.00     0.000 C 
BRANCH   7   8
ATOM      8  C   UNL     1      84.639  -2.334   3.262  1.00  0.00     0.000 C 
BRANCH   8   9
ATOM      9  C   UNL     1      83.823  -3.599   2.939  1.00  0.00     0.000 C 
BRANCH   9  10
ATOM     10  C   UNL     1      82.338  -3.459   3.317  1.00  0.00     0.000 C 
BRANCH  10  11
ATOM     11  C   UNL     1      81.403  -3.727   2.123  1.00  0.00     0.000 C 
BRANCH  11  12
ATOM     12  C   UNL     1      81.032  -2.434   1.363  1.00  0.00     0.000 C 
BRANCH  12  13
ATOM     13  C   UNL     1      81.954  -2.137   0.167  1.00  0.00     0.006 C 
BRANCH  13  14
ATOM     14  C   UNL     1      82.833  -0.890   0.348  1.00  0.00     0.053 C 
BRANCH  14  15
ATOM     15  C   UNL     1      82.154   0.160   1.175  1.00  0.00     0.041 C 
ATOM     16  O   UNL     1      82.428   0.278   2.400  1.00  0.00    -0.550 OA
ATOM     17  O   UNL     1      81.200   0.992   0.601  1.00  0.00    -0.550 OA
ENDBRANCH  14  15
ENDBRANCH  13  14
ENDBRANCH  12  13
ENDBRANCH  11  12
ENDBRANCH  10  11
ENDBRANCH   9  10
ENDBRANCH   8   9
ENDBRANCH   7   8
ENDBRANCH   6   7
ENDBRANCH   5   6
ENDBRANCH   4   5
ENDBRANCH   3   4
ENDBRANCH   2   3
ENDBRANCH   1   2
BRANCH   1  18
ATOM     18  C   UNL     1      90.958  -0.816   3.813  1.00  0.00     0.000 C 
BRANCH  18  19
ATOM     19  C   UNL     1      91.315  -0.376   5.244  1.00  0.00     0.000 C 
BRANCH  19  20
ATOM     20  C   UNL     1      92.496  -1.168   5.833  1.00  0.00     0.000 C 
BRANCH  20  21
ATOM     21  C   UNL     1      92.151  -1.906   7.144  1.00  0.00     0.000 C 
BRANCH  21  22
ATOM     22  C   UNL     1      93.358  -2.674   7.714  1.00  0.00     0.000 C 
BRANCH  22  23
ATOM     23  C   UNL     1      93.053  -4.162   7.952  1.00  0.00     0.000 C 
BRANCH  23  24
ATOM     24  C   UNL     1      93.277  -4.582   9.416  1.00  0.00    -0.000 C 
BRANCH  24  25
ATOM     25  C   UNL     1      94.137  -3.564  10.192  1.00  0.00    -0.000 C 
BRANCH  25  26
ATOM     26  C   UNL     1      95.245  -4.204  11.057  1.00  0.00    -0.000 C 
BRANCH  26  27
ATOM     27  C   UNL     1      96.678  -3.817  10.640  1.00  0.00    -0.000 C 
BRANCH  27  28
ATOM     28  C   UNL     1      96.742  -2.664   9.616  1.00  0.00    -0.000 C 
BRANCH  28  29
ATOM     29  C   UNL     1      97.344  -3.094   8.263  1.00  0.00    -0.000 C 
BRANCH  29  30
ATOM     30  C   UNL     1      96.794  -4.450   7.765  1.00  0.00    -0.000 C 
BRANCH  30  31
ATOM     31  C   UNL     1      97.527  -4.988   6.524  1.00  0.00    -0.003 C 
ATOM     32  C   UNL     1      98.929  -4.403   6.357  1.00  0.00     0.004 C 
ENDBRANCH  30  31
ENDBRANCH  29  30
ENDBRANCH  28  29
ENDBRANCH  27  28
ENDBRANCH  26  27
ENDBRANCH  25  26
ENDBRANCH  24  25
ENDBRANCH  23  24
ENDBRANCH  22  23
ENDBRANCH  21  22
ENDBRANCH  20  21
ENDBRANCH  19  20
ENDBRANCH  18  19
ENDBRANCH   1  18
TORSDOF 28
ENDMDL
MODEL 9
REMARK VINA RESULT:    -6.411      4.975      8.400
REMARK INTER + INTRA:         -20.888
REMARK INTER:                 -18.248
REMARK INTRA:                  -2.640
REMARK UNBOUND:                -3.983
REMARK SMILES CCCCCCCCCCCCCCCCCCCCCCCCCCCCCC(=O)[O-]
REMARK SMILES IDX 16 1 17 2 18 3 19 4 20 5 21 6 22 7 23 8 24 9 25 10 26 11
REMARK SMILES IDX 27 12 28 13 29 14 30 15 31 16 32 17 15 18 14 19 13 20 12 21
REMARK SMILES IDX 11 22 10 23 9 24 8 25 7 26 6 27 5 28 4 29 3 30 2 31 1 32
REMARK H PARENT
REMARK Flexibility Score: inf
ROOT
ATOM      1  C   UNL     1      86.033  -2.665   3.178  1.00  0.00     0.000 C 
ENDROOT
BRANCH   1   2
ATOM      2  C   UNL     1      84.523  -2.404   3.286  1.00  0.00     0.000 C 
BRANCH   2   3
ATOM      3  C   UNL     1      83.721  -3.601   2.751  1.00  0.00     0.000 C 
BRANCH   3   4
ATOM      4  C   UNL     1      82.311  -3.696   3.370  1.00  0.00     0.000 C 
BRANCH   4   5
ATOM      5  C   UNL     1      81.170  -3.400   2.377  1.00  0.00     0.000 C 
BRANCH   5   6
ATOM      6  C   UNL     1      81.501  -3.686   0.900  1.00  0.00     0.000 C 
BRANCH   6   7
ATOM      7  C   UNL     1      81.721  -2.429   0.032  1.00  0.00     0.000 C 
BRANCH   7   8
ATOM      8  C   UNL     1      81.774  -1.119   0.847  1.00  0.00     0.000 C 
BRANCH   8   9
ATOM      9  C   UNL     1      82.899  -0.181   0.370  1.00  0.00     0.000 C 
BRANCH   9  10
ATOM     10  C   UNL     1      82.408   0.867  -0.643  1.00  0.00     0.000 C 
BRANCH  10  11
ATOM     11  C   UNL     1      82.111   2.226   0.018  1.00  0.00     0.000 C 
BRANCH  11  12
ATOM     12  C   UNL     1      80.690   2.288   0.622  1.00  0.00     0.000 C 
BRANCH  12  13
ATOM     13  C   UNL     1      80.652   2.864   2.050  1.00  0.00     0.006 C 
BRANCH  13  14
ATOM     14  C   UNL     1      81.753   2.321   2.973  1.00  0.00     0.053 C 
BRANCH  14  15
ATOM     15  C   UNL     1      81.754   3.004   4.308  1.00  0.00     0.041 C 
ATOM     16  O   UNL     1      82.581   3.927   4.547  1.00  0.00    -0.550 OA
ATOM     17  O   UNL     1      80.863   2.607   5.297  1.00  0.00    -0.550 OA
ENDBRANCH  14  15
ENDBRANCH  13  14
ENDBRANCH  12  13
ENDBRANCH  11  12
ENDBRANCH  10  11
ENDBRANCH   9  10
ENDBRANCH   8   9
ENDBRANCH   7   8
ENDBRANCH   6   7
ENDBRANCH   5   6
ENDBRANCH   4   5
ENDBRANCH   3   4
ENDBRANCH   2   3
ENDBRANCH   1   2
BRANCH   1  18
ATOM     18  C   UNL     1      86.621  -2.164   1.850  1.00  0.00     0.000 C 
BRANCH  18  19
ATOM     19  C   UNL     1      88.109  -2.527   1.694  1.00  0.00     0.000 C 
BRANCH  19  20
ATOM     20  C   UNL     1      89.047  -1.460   2.284  1.00  0.00     0.000 C 
BRANCH  20  21
ATOM     21  C   UNL     1      90.069  -2.026   3.293  1.00  0.00     0.000 C 
BRANCH  21  22
ATOM     22  C   UNL     1      89.611  -3.369   3.893  1.00  0.00     0.000 C 
BRANCH  22  23
ATOM     23  C   UNL     1      89.084  -3.224   5.330  1.00  0.00     0.000 C 
BRANCH  23  24
ATOM     24  C   UNL     1      89.753  -4.208   6.306  1.00  0.00    -0.000 C 
BRANCH  24  25
ATOM     25  C   UNL     1      91.282  -4.021   6.368  1.00  0.00    -0.000 C 
BRANCH  25  26
ATOM     26  C   UNL     1      91.727  -2.621   6.845  1.00  0.00    -0.000 C 
BRANCH  26  27
ATOM     27  C   UNL     1      92.995  -2.623   7.723  1.00  0.00    -0.000 C 
BRANCH  27  28
ATOM     28  C   UNL     1      93.242  -3.955   8.463  1.00  0.00    -0.000 C 
BRANCH  28  29
ATOM     29  C   UNL     1      94.739  -4.272   8.648  1.00  0.00    -0.000 C 
BRANCH  29  30
ATOM     30  C   UNL     1      95.637  -3.018   8.539  1.00  0.00    -0.000 C 
BRANCH  30  31
ATOM     31  C   UNL     1      96.148  -2.513   9.899  1.00  0.00    -0.003 C 
ATOM     32  C   UNL     1      96.734  -3.625  10.768  1.00  0.00     0.004 C 
ENDBRANCH  30  31
ENDBRANCH  29  30
ENDBRANCH  28  29
ENDBRANCH  27  28
ENDBRANCH  26  27
ENDBRANCH  25  26
ENDBRANCH  24  25
ENDBRANCH  23  24
ENDBRANCH  22  23
ENDBRANCH  21  22
ENDBRANCH  20  21
ENDBRANCH  19  20
ENDBRANCH  18  19
ENDBRANCH   1  18
TORSDOF 28
ENDMDL
