MODEL 1
REMARK VINA RESULT:    -2.677      0.000      0.000
REMARK INTER + INTRA:          -5.002
REMARK INTER:                  -4.243
REMARK INTRA:                  -0.760
REMARK UNBOUND:                -0.760
REMARK SMILES CCCCCCCCCCCC(=O)[O-]
REMARK SMILES IDX 7 1 8 2 9 3 10 4 11 5 12 6 13 7 14 8 6 9 5 10 4 11 3 12 2 13
REMARK SMILES IDX 1 14
REMARK H PARENT
REMARK Flexibility Score: inf
ROOT
ATOM      1  C   UNL     1      -3.272  -8.965   2.847  1.00  0.00     0.000 C 
ENDROOT
BRANCH   1   2
ATOM      2  C   UNL     1      -3.908  -7.939   3.798  1.00  0.00     0.000 C 
BRANCH   2   3
ATOM      3  C   UNL     1      -5.437  -7.940   3.662  1.00  0.00     0.000 C 
BRANCH   3   4
ATOM      4  C   UNL     1      -5.952  -9.085   2.775  1.00  0.00     0.006 C 
BRANCH   4   5
ATOM      5  C   UNL     1      -6.821  -8.586   1.612  1.00  0.00     0.053 C 
BRANCH   5   6
ATOM      6  C   UNL     1      -6.342  -9.166   0.319  1.00  0.00     0.041 C 
ATOM      7  O   UNL     1      -6.747  -8.694  -0.776  1.00  0.00    -0.550 OA
ATOM      8  O   UNL     1      -5.486 -10.260   0.321  1.00  0.00    -0.550 OA
ENDBRANCH   5   6
ENDBRANCH   4   5
ENDBRANCH   3   4
ENDBRANCH   2   3
ENDBRANCH   1   2
BRANCH   1   9
ATOM      9  C   UNL     1      -2.042  -9.658   3.455  1.00  0.00     0.000 C 
BRANCH   9  10
ATOM     10  C   UNL     1      -0.749  -8.847   3.260  1.00  0.00    -0.000 C 
BRANCH  10  11
ATOM     11  C   UNL     1       0.104  -8.778   4.537  1.00  0.00    -0.000 C 
BRANCH  11  12
ATOM     12  C   UNL     1       0.446  -7.337   4.946  1.00  0.00    -0.000 C 
BRANCH  12  13
ATOM     13  C   UNL     1      -0.817  -6.469   4.995  1.00  0.00    -0.003 C 
ATOM     14  C   UNL     1      -0.474  -4.988   4.855  1.00  0.00     0.004 C 
ENDBRANCH  12  13
ENDBRANCH  11  12
ENDBRANCH  10  11
ENDBRANCH   9  10
ENDBRANCH   1   9
TORSDOF 10
ENDMDL
MODEL 2
REMARK VINA RESULT:    -2.658      2.458      2.923
REMARK INTER + INTRA:          -4.971
REMARK INTER:                  -4.299
REMARK INTRA:                  -0.672
REMARK UNBOUND:                -0.760
REMARK SMILES CCCCCCCCCCCC(=O)[O-]
REMARK SMILES IDX 7 1 8 2 9 3 10 4 11 5 12 6 13 7 14 8 6 9 5 10 4 11 3 12 2 13
REMARK SMILES IDX 1 14
REMARK H PARENT
REMARK Flexibility Score: inf
ROOT
ATOM      1  C   UNL     1      -2.843 -10.092   3.254  1.00  0.00     0.000 C 
ENDROOT
BRANCH   1   2
ATOM      2  C   UNL     1      -3.421  -8.805   2.646  1.00  0.00     0.000 C 
BRANCH   2   3
ATOM      3  C   UNL     1      -4.806  -9.063   2.035  1.00  0.00     0.000 C 
BRANCH   3   4
ATOM      4  C   UNL     1      -5.873  -8.083   2.550  1.00  0.00     0.006 C 
BRANCH   4   5
ATOM      5  C   UNL     1      -5.480  -7.426   3.880  1.00  0.00     0.053 C 
BRANCH   5   6
ATOM      6  C   UNL     1      -5.737  -5.954   3.830  1.00  0.00     0.041 C 
ATOM      7  O   UNL     1      -4.824  -5.163   3.475  1.00  0.00    -0.550 OA
ATOM      8  O   UNL     1      -6.970  -5.448   4.222  1.00  0.00    -0.550 OA
ENDBRANCH   5   6
ENDBRANCH   4   5
ENDBRANCH   3   4
ENDBRANCH   2   3
ENDBRANCH   1   2
BRANCH   1   9
ATOM      9  C   UNL     1      -1.341  -9.979   3.567  1.00  0.00     0.000 C 
BRANCH   9  10
ATOM     10  C   UNL     1      -1.069  -9.310   4.926  1.00  0.00    -0.000 C 
BRANCH  10  11
ATOM     11  C   UNL     1       0.398  -8.881   5.090  1.00  0.00    -0.000 C 
BRANCH  11  12
ATOM     12  C   UNL     1       0.597  -7.368   4.918  1.00  0.00    -0.000 C 
BRANCH  12  13
ATOM     13  C   UNL     1      -0.735  -6.622   5.063  1.00  0.00    -0.003 C 
ATOM     14  C   UNL     1      -0.559  -5.126   4.817  1.00  0.00     0.004 C 
ENDBRANCH  12  13
ENDBRANCH  11  12
ENDBRANCH  10  11
ENDBRANCH   9  10
ENDBRANCH   1   9
TORSDOF 10
ENDMDL
MODEL 3
REMARK VINA RESULT:    -2.573      3.403      6.523
REMARK INTER + INTRA:          -4.837
REMARK INTER:                  -4.115
REMARK INTRA:                  -0.722
REMARK UNBOUND:                -0.760
REMARK SMILES CCCCCCCCCCCC(=O)[O-]
REMARK SMILES IDX 7 1 8 2 9 3 10 4 11 5 12 6 13 7 14 8 6 9 5 10 4 11 3 12 2 13
REMARK SMILES IDX 1 14
REMARK H PARENT
REMARK Flexibility Score: inf
ROOT
ATOM      1  C   UNL     1      -2.046 -10.673   2.888  1.00  0.00     0.000 C 
ENDROOT
BRANCH   1   2
ATOM      2  C   UNL     1      -0.659 -10.056   3.130  1.00  0.00     0.000 C 
BRANCH   2   3
ATOM      3  C   UNL     1      -0.316 -10.051   4.627  1.00  0.00     0.000 C 
BRANCH   3   4
ATOM      4  C   UNL     1       0.293  -8.718   5.090  1.00  0.00     0.006 C 
BRANCH   4   5
ATOM      5  C   UNL     1      -0.735  -7.578   5.125  1.00  0.00     0.053 C 
BRANCH   5   6
ATOM      6  C   UNL     1      -0.137  -6.321   4.578  1.00  0.00     0.041 C 
ATOM      7  O   UNL     1      -0.561  -5.199   4.960  1.00  0.00    -0.550 OA
ATOM      8  O   UNL     1       0.857  -6.386   3.610  1.00  0.00    -0.550 OA
ENDBRANCH   5   6
ENDBRANCH   4   5
ENDBRANCH   3   4
ENDBRANCH   2   3
ENDBRANCH   1   2
BRANCH   1   9
ATOM      9  C   UNL     1      -3.183  -9.841   3.504  1.00  0.00     0.000 C 
BRANCH   9  10
ATOM     10  C   UNL     1      -3.646  -8.699   2.582  1.00  0.00    -0.000 C 
BRANCH  10  11
ATOM     11  C   UNL     1      -5.148  -8.400   2.722  1.00  0.00    -0.000 C 
BRANCH  11  12
ATOM     12  C   UNL     1      -6.003  -9.161   1.697  1.00  0.00    -0.000 C 
BRANCH  12  13
ATOM     13  C   UNL     1      -5.627  -8.761   0.265  1.00  0.00    -0.003 C 
ATOM     14  C   UNL     1      -6.696  -9.202  -0.730  1.00  0.00     0.004 C 
ENDBRANCH  12  13
ENDBRANCH  11  12
ENDBRANCH  10  11
ENDBRANCH   9  10
ENDBRANCH   1   9
TORSDOF 10
ENDMDL
MODEL 4
REMARK VINA RESULT:    -2.442      1.216      1.868
REMARK INTER + INTRA:          -4.629
REMARK INTER:                  -3.554
REMARK INTRA:                  -1.075
REMARK UNBOUND:                -0.760
REMARK SMILES CCCCCCCCCCCC(=O)[O-]
REMARK SMILES IDX 7 1 8 2 9 3 10 4 11 5 12 6 13 7 14 8 6 9 5 10 4 11 3 12 2 13
REMARK SMILES IDX 1 14
REMARK H PARENT
REMARK Flexibility Score: inf
ROOT
ATOM      1  C   UNL     1      -3.674  -7.679   3.935  1.00  0.00     0.000 C 
ENDROOT
BRANCH   1   2
ATOM      2  C   UNL     1      -5.109  -7.145   3.810  1.00  0.00     0.000 C 
BRANCH   2   3
ATOM      3  C   UNL     1      -5.889  -7.920   2.737  1.00  0.00     0.000 C 
BRANCH   3   4
ATOM      4  C   UNL     1      -4.995  -8.391   1.578  1.00  0.00     0.006 C 
BRANCH   4   5
ATOM      5  C   UNL     1      -5.326  -9.817   1.119  1.00  0.00     0.053 C 
BRANCH   5   6
ATOM      6  C   UNL     1      -5.968  -9.793  -0.232  1.00  0.00     0.041 C 
ATOM      7  O   UNL     1      -6.509  -8.740  -0.658  1.00  0.00    -0.550 OA
ATOM      8  O   UNL     1      -6.012 -10.949  -1.002  1.00  0.00    -0.550 OA
ENDBRANCH   5   6
ENDBRANCH   4   5
ENDBRANCH   3   4
ENDBRANCH   2   3
ENDBRANCH   1   2
BRANCH   1   9
ATOM      9  C   UNL     1      -3.575  -8.912   4.849  1.00  0.00     0.000 C 
BRANCH   9  10
ATOM     10  C   UNL     1      -2.709 -10.030   4.242  1.00  0.00    -0.000 C 
BRANCH  10  11
ATOM     11  C   UNL     1      -1.490  -9.485   3.481  1.00  0.00    -0.000 C 
BRANCH  11  12
ATOM     12  C   UNL     1      -0.169  -9.722   4.228  1.00  0.00    -0.000 C 
BRANCH  12  13
ATOM     13  C   UNL     1       0.177  -8.524   5.121  1.00  0.00    -0.003 C 
ATOM     14  C   UNL     1       0.051  -7.210   4.354  1.00  0.00     0.004 C 
ENDBRANCH  12  13
ENDBRANCH  11  12
ENDBRANCH  10  11
ENDBRANCH   9  10
ENDBRANCH   1   9
TORSDOF 10
ENDMDL
MODEL 5
REMARK VINA RESULT:    -2.299      1.338      1.846
REMARK INTER + INTRA:          -4.403
REMARK INTER:                  -3.520
REMARK INTRA:                  -0.884
REMARK UNBOUND:                -0.760
REMARK SMILES CCCCCCCCCCCC(=O)[O-]
REMARK SMILES IDX 7 1 8 2 9 3 10 4 11 5 12 6 13 7 14 8 6 9 5 10 4 11 3 12 2 13
REMARK SMILES IDX 1 14
REMARK H PARENT
REMARK Flexibility Score: inf
ROOT
ATOM      1  C   UNL     1      -1.893 -10.701   3.197  1.00  0.00     0.000 C 
ENDROOT
BRANCH   1   2
ATOM      2  C   UNL     1      -3.377 -10.748   2.801  1.00  0.00     0.000 C 
BRANCH   2   3
ATOM      3  C   UNL     1      -4.231  -9.925   3.777  1.00  0.00     0.000 C 
BRANCH   3   4
ATOM      4  C   UNL     1      -5.055  -8.836   3.071  1.00  0.00     0.006 C 
BRANCH   4   5
ATOM      5  C   UNL     1      -4.872  -8.851   1.547  1.00  0.00     0.053 C 
BRANCH   5   6
ATOM      6  C   UNL     1      -6.157  -9.210   0.872  1.00  0.00     0.041 C 
ATOM      7  O   UNL     1      -6.598  -8.502  -0.070  1.00  0.00    -0.550 OA
ATOM      8  O   UNL     1      -6.895 -10.301   1.315  1.00  0.00    -0.550 OA
ENDBRANCH   5   6
ENDBRANCH   4   5
ENDBRANCH   3   4
ENDBRANCH   2   3
ENDBRANCH   1   2
BRANCH   1   9
ATOM      9  C   UNL     1      -1.306  -9.281   3.134  1.00  0.00     0.000 C 
BRANCH   9  10
ATOM     10  C   UNL     1      -0.861  -8.763   4.513  1.00  0.00    -0.000 C 
BRANCH  10  11
ATOM     11  C   UNL     1      -1.568  -7.456   4.908  1.00  0.00    -0.000 C 
BRANCH  11  12
ATOM     12  C   UNL     1      -0.667  -6.222   4.748  1.00  0.00    -0.000 C 
BRANCH  12  13
ATOM     13  C   UNL     1       0.739  -6.628   4.289  1.00  0.00    -0.003 C 
ATOM     14  C   UNL     1       1.124  -5.914   2.997  1.00  0.00     0.004 C 
ENDBRANCH  12  13
ENDBRANCH  11  12
ENDBRANCH  10  11
ENDBRANCH   9  10
ENDBRANCH   1   9
TORSDOF 10
ENDMDL
MODEL 6
REMARK VINA RESULT:    -2.290      3.314      6.097
REMARK INTER + INTRA:          -4.388
REMARK INTER:                  -3.210
REMARK INTRA:                  -1.178
REMARK UNBOUND:                -0.760
REMARK SMILES CCCCCCCCCCCC(=O)[O-]
REMARK SMILES IDX 7 1 8 2 9 3 10 4 11 5 12 6 13 7 14 8 6 9 5 10 4 11 3 12 2 13
REMARK SMILES IDX 1 14
REMARK H PARENT
REMARK Flexibility Score: inf
ROOT
ATOM      1  C   UNL     1      -4.541  -7.422   3.176  1.00  0.00     0.000 C 
ENDROOT
BRANCH   1   2
ATOM      2  C   UNL     1      -3.421  -8.090   3.989  1.00  0.00     0.000 C 
BRANCH   2   3
ATOM      3  C   UNL     1      -3.826  -9.509   4.414  1.00  0.00     0.000 C 
BRANCH   3   4
ATOM      4  C   UNL     1      -2.672 -10.517   4.287  1.00  0.00     0.006 C 
BRANCH   4   5
ATOM      5  C   UNL     1      -2.042 -10.521   2.888  1.00  0.00     0.053 C 
BRANCH   5   6
ATOM      6  C   UNL     1      -0.562 -10.325   2.982  1.00  0.00     0.041 C 
ATOM      7  O   UNL     1      -0.064  -9.730   3.973  1.00  0.00    -0.550 OA
ATOM      8  O   UNL     1       0.264 -10.758   1.953  1.00  0.00    -0.550 OA
ENDBRANCH   5   6
ENDBRANCH   4   5
ENDBRANCH   3   4
ENDBRANCH   2   3
ENDBRANCH   1   2
BRANCH   1   9
ATOM      9  C   UNL     1      -5.905  -7.479   3.884  1.00  0.00     0.000 C 
BRANCH   9  10
ATOM     10  C   UNL     1      -7.066  -7.742   2.909  1.00  0.00    -0.000 C 
BRANCH  10  11
ATOM     11  C   UNL     1      -6.912  -9.071   2.152  1.00  0.00    -0.000 C 
BRANCH  11  12
ATOM     12  C   UNL     1      -6.707  -8.874   0.642  1.00  0.00    -0.000 C 
BRANCH  12  13
ATOM     13  C   UNL     1      -5.826  -9.986   0.060  1.00  0.00    -0.003 C 
ATOM     14  C   UNL     1      -5.254 -10.871   1.164  1.00  0.00     0.004 C 
ENDBRANCH  12  13
ENDBRANCH  11  12
ENDBRANCH  10  11
ENDBRANCH   9  10
ENDBRANCH   1   9
TORSDOF 10
ENDMDL
MODEL 7
REMARK VINA RESULT:    -2.209      2.734      3.612
REMARK INTER + INTRA:          -4.260
REMARK INTER:                  -3.406
REMARK INTRA:                  -0.854
REMARK UNBOUND:                -0.760
REMARK SMILES CCCCCCCCCCCC(=O)[O-]
REMARK SMILES IDX 7 1 8 2 9 3 10 4 11 5 12 6 13 7 14 8 6 9 5 10 4 11 3 12 2 13
REMARK SMILES IDX 1 14
REMARK H PARENT
REMARK Flexibility Score: inf
ROOT
ATOM      1  C   UNL     1      -4.579  -8.569   1.927  1.00  0.00     0.000 C 
ENDROOT
BRANCH   1   2
ATOM      2  C   UNL     1      -5.971  -9.067   2.345  1.00  0.00     0.000 C 
BRANCH   2   3
ATOM      3  C   UNL     1      -6.867  -7.895   2.772  1.00  0.00     0.000 C 
BRANCH   3   4
ATOM      4  C   UNL     1      -6.441  -7.282   4.116  1.00  0.00     0.006 C 
BRANCH   4   5
ATOM      5  C   UNL     1      -6.547  -5.751   4.127  1.00  0.00     0.053 C 
BRANCH   5   6
ATOM      6  C   UNL     1      -5.268  -5.137   3.652  1.00  0.00     0.041 C 
ATOM      7  O   UNL     1      -4.194  -5.791   3.704  1.00  0.00    -0.550 OA
ATOM      8  O   UNL     1      -5.253  -3.824   3.197  1.00  0.00    -0.550 OA
ENDBRANCH   5   6
ENDBRANCH   4   5
ENDBRANCH   3   4
ENDBRANCH   2   3
ENDBRANCH   1   2
BRANCH   1   9
ATOM      9  C   UNL     1      -3.440  -9.369   2.581  1.00  0.00     0.000 C 
BRANCH   9  10
ATOM     10  C   UNL     1      -3.740  -9.734   4.046  1.00  0.00    -0.000 C 
BRANCH  10  11
ATOM     11  C   UNL     1      -2.608  -9.323   5.001  1.00  0.00    -0.000 C 
BRANCH  11  12
ATOM     12  C   UNL     1      -1.838  -8.087   4.512  1.00  0.00    -0.000 C 
BRANCH  12  13
ATOM     13  C   UNL     1      -0.332  -8.367   4.456  1.00  0.00    -0.003 C 
ATOM     14  C   UNL     1       0.471  -7.069   4.464  1.00  0.00     0.004 C 
ENDBRANCH  12  13
ENDBRANCH  11  12
ENDBRANCH  10  11
ENDBRANCH   9  10
ENDBRANCH   1   9
TORSDOF 10
ENDMDL
MODEL 8
REMARK VINA RESULT:    -2.206      3.033      5.572
REMARK INTER + INTRA:          -4.255
REMARK INTER:                  -3.496
REMARK INTRA:                  -0.759
REMARK UNBOUND:                -0.760
REMARK SMILES CCCCCCCCCCCC(=O)[O-]
REMARK SMILES IDX 7 1 8 2 9 3 10 4 11 5 12 6 13 7 14 8 6 9 5 10 4 11 3 12 2 13
REMARK SMILES IDX 1 14
REMARK H PARENT
REMARK Flexibility Score: inf
ROOT
ATOM      1  C   UNL     1      -6.416  -9.036   1.485  1.00  0.00     0.000 C 
ENDROOT
BRANCH   1   2
ATOM      2  C   UNL     1      -4.901  -8.860   1.294  1.00  0.00     0.000 C 
BRANCH   2   3
ATOM      3  C   UNL     1      -4.126  -9.479   2.466  1.00  0.00     0.000 C 
BRANCH   3   4
ATOM      4  C   UNL     1      -3.196  -8.470   3.160  1.00  0.00     0.006 C 
BRANCH   4   5
ATOM      5  C   UNL     1      -2.270  -9.132   4.191  1.00  0.00     0.053 C 
BRANCH   5   6
ATOM      6  C   UNL     1      -0.842  -9.005   3.765  1.00  0.00     0.041 C 
ATOM      7  O   UNL     1      -0.385  -9.739   2.851  1.00  0.00    -0.550 OA
ATOM      8  O   UNL     1      -0.001  -8.108   4.412  1.00  0.00    -0.550 OA
ENDBRANCH   5   6
ENDBRANCH   4   5
ENDBRANCH   3   4
ENDBRANCH   2   3
ENDBRANCH   1   2
BRANCH   1   9
ATOM      9  C   UNL     1      -6.767  -9.822   2.760  1.00  0.00     0.000 C 
BRANCH   9  10
ATOM     10  C   UNL     1      -7.125  -8.903   3.941  1.00  0.00    -0.000 C 
BRANCH  10  11
ATOM     11  C   UNL     1      -7.065  -7.412   3.568  1.00  0.00    -0.000 C 
BRANCH  11  12
ATOM     12  C   UNL     1      -6.370  -6.560   4.642  1.00  0.00    -0.000 C 
BRANCH  12  13
ATOM     13  C   UNL     1      -6.511  -5.065   4.328  1.00  0.00    -0.003 C 
ATOM     14  C   UNL     1      -5.292  -4.544   3.573  1.00  0.00     0.004 C 
ENDBRANCH  12  13
ENDBRANCH  11  12
ENDBRANCH  10  11
ENDBRANCH   9  10
ENDBRANCH   1   9
TORSDOF 10
ENDMDL
