MODEL 1
REMARK VINA RESULT:    52.070      0.000      0.000
REMARK INTER + INTRA:          57.005
REMARK INTER:                  56.636
REMARK INTRA:                   0.369
REMARK UNBOUND:                 0.369
REMARK SMILES C[C@@H]1[C@H](C)CC[C@@]2(C(=O)[O-])CC[C@]3(C)C(=CC[C@@H]4[C@@]5(C)CC[C@H](O)C(C)(C)[C@@H]5CC[C@@]43C)[C@@H]12
REMARK SMILES IDX 7 1 6 2 11 3 33 4 5 5 12 6 15 7 2 8 3 9 13 10 16 11 1 12
REMARK SMILES IDX 4 13 14 14 31 15 17 16 18 17 30 18 32 19 19 20 29 21 28 22
REMARK SMILES IDX 21 23 20 24 25 25 22 26 23 27 26 28 27 29 8 30 9 31 10 32
REMARK SMILES IDX 24 33
REMARK H PARENT 24 34
REMARK Flexibility Score: inf
ROOT
ATOM      1  C   UNL     1      -5.718  67.707  -6.230  1.00  0.00     0.017 C 
ATOM      2  C   UNL     1      -6.783  68.316  -7.189  1.00  0.00     0.014 C 
ATOM      3  C   UNL     1      -6.221  66.321  -5.689  1.00  0.00     0.014 C 
ATOM      4  C   UNL     1      -4.324  67.592  -6.946  1.00  0.00     0.030 C 
ATOM      5  C   UNL     1      -6.841  67.636  -8.561  1.00  0.00     0.004 C 
ATOM      6  C   UNL     1      -5.164  65.202  -5.591  1.00  0.00     0.013 C 
ATOM      7  C   UNL     1      -3.318  66.815  -6.075  1.00  0.00    -0.063 C 
ATOM      8  C   UNL     1      -4.392  67.007  -8.400  1.00  0.00    -0.003 C 
ATOM      9  C   UNL     1      -5.485  67.684  -9.273  1.00  0.00    -0.011 C 
ATOM     10  C   UNL     1      -3.733  65.667  -5.156  1.00  0.00    -0.006 C 
ATOM     11  C   UNL     1      -2.039  67.206  -6.087  1.00  0.00    -0.027 C 
ATOM     12  C   UNL     1      -3.029  67.060  -9.121  1.00  0.00     0.008 C 
ATOM     13  C   UNL     1      -5.136  69.119  -9.725  1.00  0.00     0.008 C 
ATOM     14  C   UNL     1      -3.791  66.250  -3.702  1.00  0.00     0.017 C 
ATOM     15  C   UNL     1      -2.661  64.460  -5.221  1.00  0.00    -0.020 C 
ATOM     16  C   UNL     1      -0.903  66.318  -5.694  1.00  0.00     0.032 C 
ATOM     17  C   UNL     1      -1.197  65.006  -4.881  1.00  0.00     0.006 C 
ATOM     18  C   UNL     1      -2.615  63.812  -6.656  1.00  0.00     0.008 C 
ATOM     19  C   UNL     1      -3.114  63.357  -4.183  1.00  0.00     0.012 C 
ATOM     20  C   UNL     1       0.018  63.923  -5.009  1.00  0.00    -0.025 C 
ATOM     21  C   UNL     1      -1.288  63.098  -7.045  1.00  0.00     0.005 C 
ATOM     22  C   UNL     1      -0.472  62.665  -5.806  1.00  0.00     0.003 C 
ATOM     23  C   UNL     1       0.472  63.418  -3.603  1.00  0.00     0.010 C 
ATOM     24  C   UNL     1       1.291  64.574  -5.660  1.00  0.00     0.012 C 
ATOM     25  C   UNL     1       0.552  61.473  -5.970  1.00  0.00    -0.006 C 
ATOM     26  C   UNL     1       1.503  62.265  -3.655  1.00  0.00     0.033 C 
ATOM     27  C   UNL     1       1.065  61.075  -4.539  1.00  0.00     0.120 C 
ATOM     28  C   UNL     1       1.726  61.777  -6.942  1.00  0.00     0.014 C 
ATOM     29  C   UNL     1      -0.191  60.228  -6.539  1.00  0.00     0.014 C 
ENDROOT
BRANCH   1  30
ATOM     30  C   UNL     1      -5.619  68.688  -5.060  1.00  0.00     0.048 C 
ATOM     31  O   UNL     1      -4.491  69.122  -4.694  1.00  0.00    -0.550 OA
ATOM     32  O   UNL     1      -6.748  69.114  -4.369  1.00  0.00    -0.550 OA
ENDBRANCH   1  30
BRANCH  27  33
ATOM     33  O   UNL     1       2.122  60.152  -4.643  1.00  0.00    -0.393 OA
ATOM     34  H   UNL     1       1.715  59.256  -4.763  1.00  0.00     0.210 HD
ENDBRANCH  27  33
TORSDOF 2
ENDMDL
