MODEL 1
REMARK VINA RESULT:     0.271      0.000      0.000
REMARK INTER + INTRA:          -0.510
REMARK INTER:                   0.683
REMARK INTRA:                  -1.193
REMARK UNBOUND:                -1.193
REMARK SMILES CCCCCCCCCCCCCCCCCCCCCCCCCCCC(=O)[O-]
REMARK SMILES IDX 15 1 16 2 17 3 18 4 19 5 20 6 21 7 22 8 23 9 24 10 25 11
REMARK SMILES IDX 26 12 27 13 28 14 29 15 30 16 14 17 13 18 12 19 11 20 10 21
REMARK SMILES IDX 9 22 8 23 7 24 6 25 5 26 4 27 3 28 2 29 1 30
REMARK H PARENT
REMARK Flexibility Score: inf
ROOT
ATOM      1  C   UNL     1      45.512  22.392  16.316  1.00  0.00     0.000 C 
ENDROOT
BRANCH   1   2
ATOM      2  C   UNL     1      46.077  21.001  16.682  1.00  0.00     0.000 C 
BRANCH   2   3
ATOM      3  C   UNL     1      47.617  20.953  16.640  1.00  0.00     0.000 C 
BRANCH   3   4
ATOM      4  C   UNL     1      48.218  21.974  15.663  1.00  0.00     0.000 C 
BRANCH   4   5
ATOM      5  C   UNL     1      49.637  21.601  15.202  1.00  0.00     0.000 C 
BRANCH   5   6
ATOM      6  C   UNL     1      50.658  21.881  16.314  1.00  0.00     0.000 C 
BRANCH   6   7
ATOM      7  C   UNL     1      51.931  21.029  16.187  1.00  0.00     0.000 C 
BRANCH   7   8
ATOM      8  C   UNL     1      52.950  21.321  17.303  1.00  0.00     0.000 C 
BRANCH   8   9
ATOM      9  C   UNL     1      53.047  22.819  17.640  1.00  0.00     0.000 C 
BRANCH   9  10
ATOM     10  C   UNL     1      52.803  23.113  19.131  1.00  0.00     0.000 C 
BRANCH  10  11
ATOM     11  C   UNL     1      51.577  22.351  19.684  1.00  0.00     0.000 C 
BRANCH  11  12
ATOM     12  C   UNL     1      51.935  20.996  20.321  1.00  0.00     0.006 C 
BRANCH  12  13
ATOM     13  C   UNL     1      52.744  21.115  21.622  1.00  0.00     0.053 C 
BRANCH  13  14
ATOM     14  C   UNL     1      51.917  21.671  22.741  1.00  0.00     0.041 C 
ATOM     15  O   UNL     1      50.662  21.577  22.712  1.00  0.00    -0.550 OA
ATOM     16  O   UNL     1      52.535  22.294  23.818  1.00  0.00    -0.550 OA
ENDBRANCH  13  14
ENDBRANCH  12  13
ENDBRANCH  11  12
ENDBRANCH  10  11
ENDBRANCH   9  10
ENDBRANCH   8   9
ENDBRANCH   7   8
ENDBRANCH   6   7
ENDBRANCH   5   6
ENDBRANCH   4   5
ENDBRANCH   3   4
ENDBRANCH   2   3
ENDBRANCH   1   2
BRANCH   1  17
ATOM     17  C   UNL     1      44.039  22.603  16.718  1.00  0.00     0.000 C 
BRANCH  17  18
ATOM     18  C   UNL     1      43.118  23.125  15.603  1.00  0.00     0.000 C 
BRANCH  18  19
ATOM     19  C   UNL     1      41.612  23.119  15.933  1.00  0.00     0.000 C 
BRANCH  19  20
ATOM     20  C   UNL     1      40.693  22.987  14.699  1.00  0.00     0.000 C 
BRANCH  20  21
ATOM     21  C   UNL     1      39.414  22.180  14.993  1.00  0.00     0.000 C 
BRANCH  21  22
ATOM     22  C   UNL     1      38.132  23.002  14.793  1.00  0.00    -0.000 C 
BRANCH  22  23
ATOM     23  C   UNL     1      37.153  22.348  13.807  1.00  0.00    -0.000 C 
BRANCH  23  24
ATOM     24  C   UNL     1      35.870  21.906  14.525  1.00  0.00    -0.000 C 
BRANCH  24  25
ATOM     25  C   UNL     1      34.784  21.405  13.557  1.00  0.00    -0.000 C 
BRANCH  25  26
ATOM     26  C   UNL     1      34.014  22.511  12.806  1.00  0.00    -0.000 C 
BRANCH  26  27
ATOM     27  C   UNL     1      33.890  22.308  11.285  1.00  0.00    -0.000 C 
BRANCH  27  28
ATOM     28  C   UNL     1      34.928  21.318  10.728  1.00  0.00    -0.000 C 
BRANCH  28  29
ATOM     29  C   UNL     1      36.049  22.019   9.943  1.00  0.00    -0.003 C 
ATOM     30  C   UNL     1      36.919  21.043   9.152  1.00  0.00     0.004 C 
ENDBRANCH  28  29
ENDBRANCH  27  28
ENDBRANCH  26  27
ENDBRANCH  25  26
ENDBRANCH  24  25
ENDBRANCH  23  24
ENDBRANCH  22  23
ENDBRANCH  21  22
ENDBRANCH  20  21
ENDBRANCH  19  20
ENDBRANCH  18  19
ENDBRANCH  17  18
ENDBRANCH   1  17
TORSDOF 26
ENDMDL
MODEL 2
REMARK VINA RESULT:     0.497      2.634      4.474
REMARK INTER + INTRA:           0.060
REMARK INTER:                   1.147
REMARK INTRA:                  -1.087
REMARK UNBOUND:                -1.193
REMARK SMILES CCCCCCCCCCCCCCCCCCCCCCCCCCCC(=O)[O-]
REMARK SMILES IDX 15 1 16 2 17 3 18 4 19 5 20 6 21 7 22 8 23 9 24 10 25 11
REMARK SMILES IDX 26 12 27 13 28 14 29 15 30 16 14 17 13 18 12 19 11 20 10 21
REMARK SMILES IDX 9 22 8 23 7 24 6 25 5 26 4 27 3 28 2 29 1 30
REMARK H PARENT
REMARK Flexibility Score: inf
ROOT
ATOM      1  C   UNL     1      47.873  21.438  17.283  1.00  0.00     0.000 C 
ENDROOT
BRANCH   1   2
ATOM      2  C   UNL     1      48.202  22.859  17.791  1.00  0.00     0.000 C 
BRANCH   2   3
ATOM      3  C   UNL     1      48.806  22.861  19.209  1.00  0.00     0.000 C 
BRANCH   3   4
ATOM      4  C   UNL     1      47.738  22.925  20.311  1.00  0.00     0.000 C 
BRANCH   4   5
ATOM      5  C   UNL     1      48.222  22.345  21.649  1.00  0.00     0.000 C 
BRANCH   5   6
ATOM      6  C   UNL     1      49.756  22.298  21.697  1.00  0.00     0.000 C 
BRANCH   6   7
ATOM      7  C   UNL     1      50.347  21.164  20.843  1.00  0.00     0.000 C 
BRANCH   7   8
ATOM      8  C   UNL     1      51.834  20.912  21.149  1.00  0.00     0.000 C 
BRANCH   8   9
ATOM      9  C   UNL     1      52.665  22.207  21.169  1.00  0.00     0.000 C 
BRANCH   9  10
ATOM     10  C   UNL     1      52.472  23.060  19.903  1.00  0.00     0.000 C 
BRANCH  10  11
ATOM     11  C   UNL     1      53.056  22.378  18.645  1.00  0.00     0.000 C 
BRANCH  11  12
ATOM     12  C   UNL     1      52.066  22.313  17.467  1.00  0.00     0.006 C 
BRANCH  12  13
ATOM     13  C   UNL     1      52.671  21.742  16.176  1.00  0.00     0.053 C 
BRANCH  13  14
ATOM     14  C   UNL     1      51.611  21.261  15.232  1.00  0.00     0.041 C 
ATOM     15  O   UNL     1      51.899  20.451  14.311  1.00  0.00    -0.550 OA
ATOM     16  O   UNL     1      50.303  21.708  15.370  1.00  0.00    -0.550 OA
ENDBRANCH  13  14
ENDBRANCH  12  13
ENDBRANCH  11  12
ENDBRANCH  10  11
ENDBRANCH   9  10
ENDBRANCH   8   9
ENDBRANCH   7   8
ENDBRANCH   6   7
ENDBRANCH   5   6
ENDBRANCH   4   5
ENDBRANCH   3   4
ENDBRANCH   2   3
ENDBRANCH   1   2
BRANCH   1  17
ATOM     17  C   UNL     1      46.591  21.348  16.433  1.00  0.00     0.000 C 
BRANCH  17  18
ATOM     18  C   UNL     1      45.340  21.990  17.055  1.00  0.00     0.000 C 
BRANCH  18  19
ATOM     19  C   UNL     1      44.620  23.027  16.170  1.00  0.00     0.000 C 
BRANCH  19  20
ATOM     20  C   UNL     1      43.099  23.123  16.414  1.00  0.00     0.000 C 
BRANCH  20  21
ATOM     21  C   UNL     1      42.275  22.890  15.134  1.00  0.00     0.000 C 
BRANCH  21  22
ATOM     22  C   UNL     1      40.797  22.581  15.424  1.00  0.00    -0.000 C 
BRANCH  22  23
ATOM     23  C   UNL     1      39.878  22.901  14.236  1.00  0.00    -0.000 C 
BRANCH  23  24
ATOM     24  C   UNL     1      38.431  23.107  14.708  1.00  0.00    -0.000 C 
BRANCH  24  25
ATOM     25  C   UNL     1      37.575  21.833  14.589  1.00  0.00    -0.000 C 
BRANCH  25  26
ATOM     26  C   UNL     1      36.592  21.595  15.754  1.00  0.00    -0.000 C 
BRANCH  26  27
ATOM     27  C   UNL     1      35.159  21.215  15.336  1.00  0.00    -0.000 C 
BRANCH  27  28
ATOM     28  C   UNL     1      35.045  19.758  14.855  1.00  0.00    -0.000 C 
BRANCH  28  29
ATOM     29  C   UNL     1      34.138  19.613  13.623  1.00  0.00    -0.003 C 
ATOM     30  C   UNL     1      34.448  20.639  12.534  1.00  0.00     0.004 C 
ENDBRANCH  28  29
ENDBRANCH  27  28
ENDBRANCH  26  27
ENDBRANCH  25  26
ENDBRANCH  24  25
ENDBRANCH  23  24
ENDBRANCH  22  23
ENDBRANCH  21  22
ENDBRANCH  20  21
ENDBRANCH  19  20
ENDBRANCH  18  19
ENDBRANCH  17  18
ENDBRANCH   1  17
TORSDOF 26
ENDMDL
MODEL 3
REMARK VINA RESULT:     0.892      2.792      4.393
REMARK INTER + INTRA:           1.053
REMARK INTER:                   2.404
REMARK INTRA:                  -1.351
REMARK UNBOUND:                -1.193
REMARK SMILES CCCCCCCCCCCCCCCCCCCCCCCCCCCC(=O)[O-]
REMARK SMILES IDX 15 1 16 2 17 3 18 4 19 5 20 6 21 7 22 8 23 9 24 10 25 11
REMARK SMILES IDX 26 12 27 13 28 14 29 15 30 16 14 17 13 18 12 19 11 20 10 21
REMARK SMILES IDX 9 22 8 23 7 24 6 25 5 26 4 27 3 28 2 29 1 30
REMARK H PARENT
REMARK Flexibility Score: inf
ROOT
ATOM      1  C   UNL     1      44.211  22.247  16.018  1.00  0.00     0.000 C 
ENDROOT
BRANCH   1   2
ATOM      2  C   UNL     1      45.324  23.106  16.657  1.00  0.00     0.000 C 
BRANCH   2   3
ATOM      3  C   UNL     1      46.541  22.271  17.102  1.00  0.00     0.000 C 
BRANCH   3   4
ATOM      4  C   UNL     1      47.648  23.125  17.738  1.00  0.00     0.000 C 
BRANCH   4   5
ATOM      5  C   UNL     1      47.896  22.783  19.216  1.00  0.00     0.000 C 
BRANCH   5   6
ATOM      6  C   UNL     1      49.382  22.952  19.568  1.00  0.00     0.000 C 
BRANCH   6   7
ATOM      7  C   UNL     1      49.903  21.850  20.506  1.00  0.00     0.000 C 
BRANCH   7   8
ATOM      8  C   UNL     1      51.430  21.909  20.690  1.00  0.00     0.000 C 
BRANCH   8   9
ATOM      9  C   UNL     1      52.067  23.119  19.986  1.00  0.00     0.000 C 
BRANCH   9  10
ATOM     10  C   UNL     1      52.989  22.716  18.821  1.00  0.00     0.000 C 
BRANCH  10  11
ATOM     11  C   UNL     1      52.351  23.007  17.444  1.00  0.00     0.000 C 
BRANCH  11  12
ATOM     12  C   UNL     1      53.038  22.266  16.282  1.00  0.00     0.006 C 
BRANCH  12  13
ATOM     13  C   UNL     1      52.420  20.895  15.966  1.00  0.00     0.053 C 
BRANCH  13  14
ATOM     14  C   UNL     1      51.404  20.985  14.868  1.00  0.00     0.041 C 
ATOM     15  O   UNL     1      50.359  21.671  15.022  1.00  0.00    -0.550 OA
ATOM     16  O   UNL     1      51.612  20.309  13.672  1.00  0.00    -0.550 OA
ENDBRANCH  13  14
ENDBRANCH  12  13
ENDBRANCH  11  12
ENDBRANCH  10  11
ENDBRANCH   9  10
ENDBRANCH   8   9
ENDBRANCH   7   8
ENDBRANCH   6   7
ENDBRANCH   5   6
ENDBRANCH   4   5
ENDBRANCH   3   4
ENDBRANCH   2   3
ENDBRANCH   1   2
BRANCH   1  17
ATOM     17  C   UNL     1      42.974  23.047  15.562  1.00  0.00     0.000 C 
BRANCH  17  18
ATOM     18  C   UNL     1      41.616  22.387  15.854  1.00  0.00     0.000 C 
BRANCH  18  19
ATOM     19  C   UNL     1      40.388  23.124  15.283  1.00  0.00     0.000 C 
BRANCH  19  20
ATOM     20  C   UNL     1      39.483  22.250  14.390  1.00  0.00     0.000 C 
BRANCH  20  21
ATOM     21  C   UNL     1      38.022  22.739  14.363  1.00  0.00     0.000 C 
BRANCH  21  22
ATOM     22  C   UNL     1      37.157  21.975  13.348  1.00  0.00    -0.000 C 
BRANCH  22  23
ATOM     23  C   UNL     1      35.686  22.418  13.368  1.00  0.00    -0.000 C 
BRANCH  23  24
ATOM     24  C   UNL     1      35.045  22.238  11.985  1.00  0.00    -0.000 C 
BRANCH  24  25
ATOM     25  C   UNL     1      33.830  21.293  12.006  1.00  0.00    -0.000 C 
BRANCH  25  26
ATOM     26  C   UNL     1      33.476  20.714  13.392  1.00  0.00    -0.000 C 
BRANCH  26  27
ATOM     27  C   UNL     1      33.173  19.204  13.414  1.00  0.00    -0.000 C 
BRANCH  27  28
ATOM     28  C   UNL     1      33.361  18.579  14.808  1.00  0.00    -0.000 C 
BRANCH  28  29
ATOM     29  C   UNL     1      33.992  19.557  15.812  1.00  0.00    -0.003 C 
ATOM     30  C   UNL     1      33.151  19.734  17.076  1.00  0.00     0.004 C 
ENDBRANCH  28  29
ENDBRANCH  27  28
ENDBRANCH  26  27
ENDBRANCH  25  26
ENDBRANCH  24  25
ENDBRANCH  23  24
ENDBRANCH  22  23
ENDBRANCH  21  22
ENDBRANCH  20  21
ENDBRANCH  19  20
ENDBRANCH  18  19
ENDBRANCH  17  18
ENDBRANCH   1  17
TORSDOF 26
ENDMDL
MODEL 4
REMARK VINA RESULT:     1.422      2.653      4.057
REMARK INTER + INTRA:           2.390
REMARK INTER:                   3.854
REMARK INTRA:                  -1.464
REMARK UNBOUND:                -1.193
REMARK SMILES CCCCCCCCCCCCCCCCCCCCCCCCCCCC(=O)[O-]
REMARK SMILES IDX 15 1 16 2 17 3 18 4 19 5 20 6 21 7 22 8 23 9 24 10 25 11
REMARK SMILES IDX 26 12 27 13 28 14 29 15 30 16 14 17 13 18 12 19 11 20 10 21
REMARK SMILES IDX 9 22 8 23 7 24 6 25 5 26 4 27 3 28 2 29 1 30
REMARK H PARENT
REMARK Flexibility Score: inf
ROOT
ATOM      1  C   UNL     1      45.493  22.231  16.166  1.00  0.00     0.000 C 
ENDROOT
BRANCH   1   2
ATOM      2  C   UNL     1      46.505  22.953  17.083  1.00  0.00     0.000 C 
BRANCH   2   3
ATOM      3  C   UNL     1      47.570  22.001  17.662  1.00  0.00     0.000 C 
BRANCH   3   4
ATOM      4  C   UNL     1      48.637  22.733  18.490  1.00  0.00     0.000 C 
BRANCH   4   5
ATOM      5  C   UNL     1      48.474  22.519  20.003  1.00  0.00     0.000 C 
BRANCH   5   6
ATOM      6  C   UNL     1      49.807  22.749  20.729  1.00  0.00     0.000 C 
BRANCH   6   7
ATOM      7  C   UNL     1      50.407  21.456  21.304  1.00  0.00     0.000 C 
BRANCH   7   8
ATOM      8  C   UNL     1      51.744  21.081  20.639  1.00  0.00     0.000 C 
BRANCH   8   9
ATOM      9  C   UNL     1      52.373  22.255  19.868  1.00  0.00     0.000 C 
BRANCH   9  10
ATOM     10  C   UNL     1      53.085  21.810  18.578  1.00  0.00     0.000 C 
BRANCH  10  11
ATOM     11  C   UNL     1      52.716  22.700  17.371  1.00  0.00     0.000 C 
BRANCH  11  12
ATOM     12  C   UNL     1      53.123  22.093  16.015  1.00  0.00     0.006 C 
BRANCH  12  13
ATOM     13  C   UNL     1      52.372  20.801  15.661  1.00  0.00     0.053 C 
BRANCH  13  14
ATOM     14  C   UNL     1      51.190  21.070  14.779  1.00  0.00     0.041 C 
ATOM     15  O   UNL     1      51.181  20.665  13.587  1.00  0.00    -0.550 OA
ATOM     16  O   UNL     1      50.098  21.770  15.275  1.00  0.00    -0.550 OA
ENDBRANCH  13  14
ENDBRANCH  12  13
ENDBRANCH  11  12
ENDBRANCH  10  11
ENDBRANCH   9  10
ENDBRANCH   8   9
ENDBRANCH   7   8
ENDBRANCH   6   7
ENDBRANCH   5   6
ENDBRANCH   4   5
ENDBRANCH   3   4
ENDBRANCH   2   3
ENDBRANCH   1   2
BRANCH   1  17
ATOM     17  C   UNL     1      44.201  23.027  15.897  1.00  0.00     0.000 C 
BRANCH  17  18
ATOM     18  C   UNL     1      43.076  22.245  15.200  1.00  0.00     0.000 C 
BRANCH  18  19
ATOM     19  C   UNL     1      41.663  22.462  15.779  1.00  0.00     0.000 C 
BRANCH  19  20
ATOM     20  C   UNL     1      40.672  23.125  14.799  1.00  0.00     0.000 C 
BRANCH  20  21
ATOM     21  C   UNL     1      39.201  22.882  15.187  1.00  0.00     0.000 C 
BRANCH  21  22
ATOM     22  C   UNL     1      38.238  23.041  13.999  1.00  0.00    -0.000 C 
BRANCH  22  23
ATOM     23  C   UNL     1      36.796  22.638  14.344  1.00  0.00    -0.000 C 
BRANCH  23  24
ATOM     24  C   UNL     1      36.753  21.219  14.929  1.00  0.00    -0.000 C 
BRANCH  24  25
ATOM     25  C   UNL     1      35.809  21.099  16.138  1.00  0.00    -0.000 C 
BRANCH  25  26
ATOM     26  C   UNL     1      34.479  20.367  15.860  1.00  0.00    -0.000 C 
BRANCH  26  27
ATOM     27  C   UNL     1      33.860  20.635  14.476  1.00  0.00    -0.000 C 
BRANCH  27  28
ATOM     28  C   UNL     1      33.952  19.421  13.536  1.00  0.00    -0.000 C 
BRANCH  28  29
ATOM     29  C   UNL     1      32.956  19.503  12.367  1.00  0.00    -0.003 C 
ATOM     30  C   UNL     1      33.391  20.489  11.285  1.00  0.00     0.004 C 
ENDBRANCH  28  29
ENDBRANCH  27  28
ENDBRANCH  26  27
ENDBRANCH  25  26
ENDBRANCH  24  25
ENDBRANCH  23  24
ENDBRANCH  22  23
ENDBRANCH  21  22
ENDBRANCH  20  21
ENDBRANCH  19  20
ENDBRANCH  18  19
ENDBRANCH  17  18
ENDBRANCH   1  17
TORSDOF 26
ENDMDL
MODEL 5
REMARK VINA RESULT:     1.437      1.665      3.291
REMARK INTER + INTRA:           2.429
REMARK INTER:                   3.713
REMARK INTRA:                  -1.283
REMARK UNBOUND:                -1.193
REMARK SMILES CCCCCCCCCCCCCCCCCCCCCCCCCCCC(=O)[O-]
REMARK SMILES IDX 15 1 16 2 17 3 18 4 19 5 20 6 21 7 22 8 23 9 24 10 25 11
REMARK SMILES IDX 26 12 27 13 28 14 29 15 30 16 14 17 13 18 12 19 11 20 10 21
REMARK SMILES IDX 9 22 8 23 7 24 6 25 5 26 4 27 3 28 2 29 1 30
REMARK H PARENT
REMARK Flexibility Score: inf
ROOT
ATOM      1  C   UNL     1      43.201  22.263  15.857  1.00  0.00     0.000 C 
ENDROOT
BRANCH   1   2
ATOM      2  C   UNL     1      44.166  23.063  16.759  1.00  0.00     0.000 C 
BRANCH   2   3
ATOM      3  C   UNL     1      45.365  22.224  17.243  1.00  0.00     0.000 C 
BRANCH   3   4
ATOM      4  C   UNL     1      46.698  22.982  17.151  1.00  0.00     0.000 C 
BRANCH   4   5
ATOM      5  C   UNL     1      47.452  22.713  15.839  1.00  0.00     0.000 C 
BRANCH   5   6
ATOM      6  C   UNL     1      48.378  21.497  15.986  1.00  0.00     0.000 C 
BRANCH   6   7
ATOM      7  C   UNL     1      49.531  21.495  14.968  1.00  0.00     0.000 C 
BRANCH   7   8
ATOM      8  C   UNL     1      50.697  20.590  15.402  1.00  0.00     0.000 C 
BRANCH   8   9
ATOM      9  C   UNL     1      51.789  21.355  16.171  1.00  0.00     0.000 C 
BRANCH   9  10
ATOM     10  C   UNL     1      51.288  22.690  16.749  1.00  0.00     0.000 C 
BRANCH  10  11
ATOM     11  C   UNL     1      51.874  22.976  18.150  1.00  0.00     0.000 C 
BRANCH  11  12
ATOM     12  C   UNL     1      51.256  22.108  19.262  1.00  0.00     0.006 C 
BRANCH  12  13
ATOM     13  C   UNL     1      52.269  21.629  20.313  1.00  0.00     0.053 C 
BRANCH  13  14
ATOM     14  C   UNL     1      51.599  21.261  21.602  1.00  0.00     0.041 C 
ATOM     15  O   UNL     1      52.057  21.677  22.699  1.00  0.00    -0.550 OA
ATOM     16  O   UNL     1      50.466  20.458  21.591  1.00  0.00    -0.550 OA
ENDBRANCH  13  14
ENDBRANCH  12  13
ENDBRANCH  11  12
ENDBRANCH  10  11
ENDBRANCH   9  10
ENDBRANCH   8   9
ENDBRANCH   7   8
ENDBRANCH   6   7
ENDBRANCH   5   6
ENDBRANCH   4   5
ENDBRANCH   3   4
ENDBRANCH   2   3
ENDBRANCH   1   2
BRANCH   1  17
ATOM     17  C   UNL     1      41.710  22.576  16.088  1.00  0.00     0.000 C 
BRANCH  17  18
ATOM     18  C   UNL     1      40.950  23.116  14.865  1.00  0.00     0.000 C 
BRANCH  18  19
ATOM     19  C   UNL     1      39.414  23.125  14.992  1.00  0.00     0.000 C 
BRANCH  19  20
ATOM     20  C   UNL     1      38.677  22.440  13.822  1.00  0.00     0.000 C 
BRANCH  20  21
ATOM     21  C   UNL     1      37.224  22.066  14.171  1.00  0.00     0.000 C 
BRANCH  21  22
ATOM     22  C   UNL     1      36.242  22.354  13.024  1.00  0.00    -0.000 C 
BRANCH  22  23
ATOM     23  C   UNL     1      34.864  22.814  13.522  1.00  0.00    -0.000 C 
BRANCH  23  24
ATOM     24  C   UNL     1      33.769  21.834  13.076  1.00  0.00    -0.000 C 
BRANCH  24  25
ATOM     25  C   UNL     1      34.333  20.494  12.574  1.00  0.00    -0.000 C 
BRANCH  25  26
ATOM     26  C   UNL     1      33.286  19.380  12.365  1.00  0.00    -0.000 C 
BRANCH  26  27
ATOM     27  C   UNL     1      32.888  18.607  13.636  1.00  0.00    -0.000 C 
BRANCH  27  28
ATOM     28  C   UNL     1      33.817  18.897  14.827  1.00  0.00    -0.000 C 
BRANCH  28  29
ATOM     29  C   UNL     1      33.045  19.113  16.138  1.00  0.00    -0.003 C 
ATOM     30  C   UNL     1      33.652  20.211  17.011  1.00  0.00     0.004 C 
ENDBRANCH  28  29
ENDBRANCH  27  28
ENDBRANCH  26  27
ENDBRANCH  25  26
ENDBRANCH  24  25
ENDBRANCH  23  24
ENDBRANCH  22  23
ENDBRANCH  21  22
ENDBRANCH  20  21
ENDBRANCH  19  20
ENDBRANCH  18  19
ENDBRANCH  17  18
ENDBRANCH   1  17
TORSDOF 26
ENDMDL
MODEL 6
REMARK VINA RESULT:     1.549      1.578      2.270
REMARK INTER + INTRA:           2.711
REMARK INTER:                   2.295
REMARK INTRA:                   0.416
REMARK UNBOUND:                -1.193
REMARK SMILES CCCCCCCCCCCCCCCCCCCCCCCCCCCC(=O)[O-]
REMARK SMILES IDX 15 1 16 2 17 3 18 4 19 5 20 6 21 7 22 8 23 9 24 10 25 11
REMARK SMILES IDX 26 12 27 13 28 14 29 15 30 16 14 17 13 18 12 19 11 20 10 21
REMARK SMILES IDX 9 22 8 23 7 24 6 25 5 26 4 27 3 28 2 29 1 30
REMARK H PARENT
REMARK Flexibility Score: inf
ROOT
ATOM      1  C   UNL     1      45.043  21.900  15.704  1.00  0.00     0.000 C 
ENDROOT
BRANCH   1   2
ATOM      2  C   UNL     1      45.641  20.486  15.527  1.00  0.00     0.000 C 
BRANCH   2   3
ATOM      3  C   UNL     1      47.173  20.462  15.688  1.00  0.00     0.000 C 
BRANCH   3   4
ATOM      4  C   UNL     1      47.751  21.824  16.100  1.00  0.00     0.000 C 
BRANCH   4   5
ATOM      5  C   UNL     1      49.091  22.139  15.416  1.00  0.00     0.000 C 
BRANCH   5   6
ATOM      6  C   UNL     1      49.746  20.854  14.889  1.00  0.00     0.000 C 
BRANCH   6   7
ATOM      7  C   UNL     1      51.262  20.997  14.681  1.00  0.00     0.000 C 
BRANCH   7   8
ATOM      8  C   UNL     1      51.963  21.644  15.889  1.00  0.00     0.000 C 
BRANCH   8   9
ATOM      9  C   UNL     1      50.973  22.283  16.878  1.00  0.00     0.000 C 
BRANCH   9  10
ATOM     10  C   UNL     1      51.661  22.840  18.137  1.00  0.00     0.000 C 
BRANCH  10  11
ATOM     11  C   UNL     1      52.343  21.730  18.968  1.00  0.00     0.000 C 
BRANCH  11  12
ATOM     12  C   UNL     1      52.689  22.165  20.404  1.00  0.00     0.006 C 
BRANCH  12  13
ATOM     13  C   UNL     1      52.313  21.131  21.476  1.00  0.00     0.053 C 
BRANCH  13  14
ATOM     14  C   UNL     1      51.310  21.677  22.446  1.00  0.00     0.041 C 
ATOM     15  O   UNL     1      51.545  22.744  23.073  1.00  0.00    -0.550 OA
ATOM     16  O   UNL     1      50.111  21.007  22.657  1.00  0.00    -0.550 OA
ENDBRANCH  13  14
ENDBRANCH  12  13
ENDBRANCH  11  12
ENDBRANCH  10  11
ENDBRANCH   9  10
ENDBRANCH   8   9
ENDBRANCH   7   8
ENDBRANCH   6   7
ENDBRANCH   5   6
ENDBRANCH   4   5
ENDBRANCH   3   4
ENDBRANCH   2   3
ENDBRANCH   1   2
BRANCH   1  17
ATOM     17  C   UNL     1      43.589  21.914  16.216  1.00  0.00     0.000 C 
BRANCH  17  18
ATOM     18  C   UNL     1      42.747  23.124  15.779  1.00  0.00     0.000 C 
BRANCH  18  19
ATOM     19  C   UNL     1      41.232  23.003  16.039  1.00  0.00     0.000 C 
BRANCH  19  20
ATOM     20  C   UNL     1      40.404  22.620  14.794  1.00  0.00     0.000 C 
BRANCH  20  21
ATOM     21  C   UNL     1      39.139  21.814  15.146  1.00  0.00     0.000 C 
BRANCH  21  22
ATOM     22  C   UNL     1      37.925  22.206  14.288  1.00  0.00    -0.000 C 
BRANCH  22  23
ATOM     23  C   UNL     1      36.769  21.201  14.398  1.00  0.00    -0.000 C 
BRANCH  23  24
ATOM     24  C   UNL     1      35.610  21.791  15.215  1.00  0.00    -0.000 C 
BRANCH  24  25
ATOM     25  C   UNL     1      35.105  20.839  16.313  1.00  0.00    -0.000 C 
BRANCH  25  26
ATOM     26  C   UNL     1      33.866  20.001  15.934  1.00  0.00    -0.000 C 
BRANCH  26  27
ATOM     27  C   UNL     1      34.107  18.919  14.865  1.00  0.00    -0.000 C 
BRANCH  27  28
ATOM     28  C   UNL     1      32.877  18.676  13.974  1.00  0.00    -0.000 C 
BRANCH  28  29
ATOM     29  C   UNL     1      32.941  19.461  12.654  1.00  0.00    -0.003 C 
ATOM     30  C   UNL     1      34.309  20.097  12.407  1.00  0.00     0.004 C 
ENDBRANCH  28  29
ENDBRANCH  27  28
ENDBRANCH  26  27
ENDBRANCH  25  26
ENDBRANCH  24  25
ENDBRANCH  23  24
ENDBRANCH  22  23
ENDBRANCH  21  22
ENDBRANCH  20  21
ENDBRANCH  19  20
ENDBRANCH  18  19
ENDBRANCH  17  18
ENDBRANCH   1  17
TORSDOF 26
ENDMDL
MODEL 7
REMARK VINA RESULT:     1.760      2.666      4.196
REMARK INTER + INTRA:           3.242
REMARK INTER:                   4.055
REMARK INTRA:                  -0.813
REMARK UNBOUND:                -1.193
REMARK SMILES CCCCCCCCCCCCCCCCCCCCCCCCCCCC(=O)[O-]
REMARK SMILES IDX 15 1 16 2 17 3 18 4 19 5 20 6 21 7 22 8 23 9 24 10 25 11
REMARK SMILES IDX 26 12 27 13 28 14 29 15 30 16 14 17 13 18 12 19 11 20 10 21
REMARK SMILES IDX 9 22 8 23 7 24 6 25 5 26 4 27 3 28 2 29 1 30
REMARK H PARENT
REMARK Flexibility Score: inf
ROOT
ATOM      1  C   UNL     1      42.137  22.427  15.032  1.00  0.00     0.000 C 
ENDROOT
BRANCH   1   2
ATOM      2  C   UNL     1      42.571  23.124  16.340  1.00  0.00     0.000 C 
BRANCH   2   3
ATOM      3  C   UNL     1      44.080  22.985  16.619  1.00  0.00     0.000 C 
BRANCH   3   4
ATOM      4  C   UNL     1      44.680  21.703  16.022  1.00  0.00     0.000 C 
BRANCH   4   5
ATOM      5  C   UNL     1      46.164  21.514  16.373  1.00  0.00     0.000 C 
BRANCH   5   6
ATOM      6  C   UNL     1      46.980  22.748  15.958  1.00  0.00     0.000 C 
BRANCH   6   7
ATOM      7  C   UNL     1      48.071  23.114  16.978  1.00  0.00     0.000 C 
BRANCH   7   8
ATOM      8  C   UNL     1      47.625  22.871  18.430  1.00  0.00     0.000 C 
BRANCH   8   9
ATOM      9  C   UNL     1      48.654  22.064  19.241  1.00  0.00     0.000 C 
BRANCH   9  10
ATOM     10  C   UNL     1      49.700  22.956  19.933  1.00  0.00     0.000 C 
BRANCH  10  11
ATOM     11  C   UNL     1      51.033  23.006  19.153  1.00  0.00     0.000 C 
BRANCH  11  12
ATOM     12  C   UNL     1      50.951  22.360  17.757  1.00  0.00     0.006 C 
BRANCH  12  13
ATOM     13  C   UNL     1      52.313  22.194  17.067  1.00  0.00     0.053 C 
BRANCH  13  14
ATOM     14  C   UNL     1      52.180  21.531  15.729  1.00  0.00     0.041 C 
ATOM     15  O   UNL     1      53.124  20.840  15.265  1.00  0.00    -0.550 OA
ATOM     16  O   UNL     1      51.010  21.677  14.995  1.00  0.00    -0.550 OA
ENDBRANCH  13  14
ENDBRANCH  12  13
ENDBRANCH  11  12
ENDBRANCH  10  11
ENDBRANCH   9  10
ENDBRANCH   8   9
ENDBRANCH   7   8
ENDBRANCH   6   7
ENDBRANCH   5   6
ENDBRANCH   4   5
ENDBRANCH   3   4
ENDBRANCH   2   3
ENDBRANCH   1   2
BRANCH   1  17
ATOM     17  C   UNL     1      40.656  22.001  15.001  1.00  0.00     0.000 C 
BRANCH  17  18
ATOM     18  C   UNL     1      39.714  22.940  14.230  1.00  0.00     0.000 C 
BRANCH  18  19
ATOM     19  C   UNL     1      38.257  22.974  14.734  1.00  0.00     0.000 C 
BRANCH  19  20
ATOM     20  C   UNL     1      37.355  21.871  14.141  1.00  0.00     0.000 C 
BRANCH  20  21
ATOM     21  C   UNL     1      36.168  21.517  15.057  1.00  0.00     0.000 C 
BRANCH  21  22
ATOM     22  C   UNL     1      35.996  20.001  15.248  1.00  0.00    -0.000 C 
BRANCH  22  23
ATOM     23  C   UNL     1      34.608  19.624  15.788  1.00  0.00    -0.000 C 
BRANCH  23  24
ATOM     24  C   UNL     1      33.605  20.763  15.554  1.00  0.00    -0.000 C 
BRANCH  24  25
ATOM     25  C   UNL     1      33.008  20.752  14.136  1.00  0.00    -0.000 C 
BRANCH  25  26
ATOM     26  C   UNL     1      33.726  19.829  13.130  1.00  0.00    -0.000 C 
BRANCH  26  27
ATOM     27  C   UNL     1      33.067  19.733  11.741  1.00  0.00    -0.000 C 
BRANCH  27  28
ATOM     28  C   UNL     1      33.286  20.994  10.888  1.00  0.00    -0.000 C 
BRANCH  28  29
ATOM     29  C   UNL     1      34.773  21.363  10.752  1.00  0.00    -0.003 C 
ATOM     30  C   UNL     1      35.139  21.843   9.349  1.00  0.00     0.004 C 
ENDBRANCH  28  29
ENDBRANCH  27  28
ENDBRANCH  26  27
ENDBRANCH  25  26
ENDBRANCH  24  25
ENDBRANCH  23  24
ENDBRANCH  22  23
ENDBRANCH  21  22
ENDBRANCH  20  21
ENDBRANCH  19  20
ENDBRANCH  18  19
ENDBRANCH  17  18
ENDBRANCH   1  17
TORSDOF 26
ENDMDL
