MODEL 1
REMARK VINA RESULT:    -4.848      0.000      0.000
REMARK INTER + INTRA:          -5.531
REMARK INTER:                  -5.981
REMARK INTRA:                   0.450
REMARK UNBOUND:                 0.450
REMARK SMILES Oc1cc(O)c2cc(O)c(-c3cc(O)c(O)c(O)c3)[o+]c2c1
REMARK SMILES IDX 10 1 20 2 21 3 22 4 2 5 3 6 4 7 6 8 7 9 8 10 11 11 12 12
REMARK SMILES IDX 13 13 19 14 15 15 17 16 14 17 16 19 18 21 9 23 1 25 5 27
REMARK H PARENT 14 18 16 20 18 22 9 24 1 26 5 28
REMARK Flexibility Score: inf
ROOT
ATOM      1  C   UNL     1      23.029  21.686 -10.965  1.00  0.00     0.402 A 
ATOM      2  O   UNL     1      24.293  21.276 -11.028  1.00  0.00    -0.202 OA
ATOM      3  C   UNL     1      25.332  22.104 -10.995  1.00  0.00     0.368 A 
ATOM      4  C   UNL     1      26.624  21.577 -11.071  1.00  0.00     0.162 A 
ATOM      5  C   UNL     1      27.733  22.423 -11.041  1.00  0.00     0.128 A 
ATOM      6  C   UNL     1      27.551  23.807 -10.936  1.00  0.00     0.093 A 
ATOM      7  C   UNL     1      26.267  24.359 -10.859  1.00  0.00     0.136 A 
ATOM      8  C   UNL     1      25.136  23.503 -10.886  1.00  0.00     0.125 A 
ATOM      9  C   UNL     1      23.814  23.965 -10.801  1.00  0.00     0.078 A 
ATOM     10  C   UNL     1      22.750  23.058 -10.830  1.00  0.00     0.223 A 
ENDROOT
BRANCH   1  11
ATOM     11  C   UNL     1      21.958  20.665 -11.022  1.00  0.00     0.091 A 
ATOM     12  C   UNL     1      20.618  21.072 -11.047  1.00  0.00     0.068 A 
ATOM     13  C   UNL     1      19.579  20.134 -11.080  1.00  0.00     0.162 A 
ATOM     14  C   UNL     1      22.254  19.293 -10.993  1.00  0.00     0.068 A 
ATOM     15  C   UNL     1      19.884  18.752 -11.075  1.00  0.00     0.200 A 
ATOM     16  C   UNL     1      21.230  18.343 -11.025  1.00  0.00     0.162 A 
BRANCH  13  17
ATOM     17  O   UNL     1      18.269  20.618 -11.116  1.00  0.00    -0.504 OA
ATOM     18  H   UNL     1      17.763  20.825 -11.964  1.00  0.00     0.293 HD
ENDBRANCH  13  17
BRANCH  15  19
ATOM     19  O   UNL     1      18.892  17.769 -11.113  1.00  0.00    -0.502 OA
ATOM     20  H   UNL     1      18.832  16.997 -10.464  1.00  0.00     0.293 HD
ENDBRANCH  15  19
BRANCH  16  21
ATOM     21  O   UNL     1      21.571  16.991 -11.001  1.00  0.00    -0.504 OA
ATOM     22  H   UNL     1      20.986  16.293 -10.557  1.00  0.00     0.293 HD
ENDBRANCH  16  21
ENDBRANCH   1  11
BRANCH  10  23
ATOM     23  O   UNL     1      21.438  23.514 -10.695  1.00  0.00    -0.500 OA
ATOM     24  H   UNL     1      20.672  23.089 -11.206  1.00  0.00     0.294 HD
ENDBRANCH  10  23
BRANCH   5  25
ATOM     25  O   UNL     1      29.014  21.879 -11.118  1.00  0.00    -0.507 OA
ATOM     26  H   UNL     1      29.468  21.716 -12.008  1.00  0.00     0.293 HD
ENDBRANCH   5  25
BRANCH   7  27
ATOM     27  O   UNL     1      26.170  25.751 -10.759  1.00  0.00    -0.507 OA
ATOM     28  H   UNL     1      25.498  26.235 -10.181  1.00  0.00     0.293 HD
ENDBRANCH   7  27
TORSDOF 7
ENDMDL
MODEL 2
REMARK VINA RESULT:    -4.672      0.175      1.813
REMARK INTER + INTRA:          -5.314
REMARK INTER:                  -5.698
REMARK INTRA:                   0.384
REMARK UNBOUND:                 0.450
REMARK SMILES Oc1cc(O)c2cc(O)c(-c3cc(O)c(O)c(O)c3)[o+]c2c1
REMARK SMILES IDX 10 1 20 2 21 3 22 4 2 5 3 6 4 7 6 8 7 9 8 10 11 11 12 12
REMARK SMILES IDX 13 13 19 14 15 15 17 16 14 17 16 19 18 21 9 23 1 25 5 27
REMARK H PARENT 14 18 16 20 18 22 9 24 1 26 5 28
REMARK Flexibility Score: inf
ROOT
ATOM      1  C   UNL     1      23.091  21.817 -11.017  1.00  0.00     0.402 A 
ATOM      2  O   UNL     1      24.352  21.396 -11.043  1.00  0.00    -0.202 OA
ATOM      3  C   UNL     1      25.396  22.218 -11.046  1.00  0.00     0.368 A 
ATOM      4  C   UNL     1      26.686  21.679 -11.078  1.00  0.00     0.162 A 
ATOM      5  C   UNL     1      27.800  22.518 -11.084  1.00  0.00     0.128 A 
ATOM      6  C   UNL     1      27.627  23.907 -11.059  1.00  0.00     0.093 A 
ATOM      7  C   UNL     1      26.346  24.471 -11.028  1.00  0.00     0.136 A 
ATOM      8  C   UNL     1      25.210  23.622 -11.018  1.00  0.00     0.125 A 
ATOM      9  C   UNL     1      23.890  24.097 -10.973  1.00  0.00     0.078 A 
ATOM     10  C   UNL     1      22.820  23.197 -10.962  1.00  0.00     0.223 A 
ENDROOT
BRANCH   1  11
ATOM     11  C   UNL     1      22.012  20.802 -11.027  1.00  0.00     0.091 A 
ATOM     12  C   UNL     1      22.346  19.442 -11.057  1.00  0.00     0.068 A 
ATOM     13  C   UNL     1      21.354  18.455 -11.087  1.00  0.00     0.162 A 
ATOM     14  C   UNL     1      20.660  21.174 -11.064  1.00  0.00     0.068 A 
ATOM     15  C   UNL     1      19.990  18.836 -11.101  1.00  0.00     0.200 A 
ATOM     16  C   UNL     1      19.655  20.203 -11.095  1.00  0.00     0.162 A 
BRANCH  13  17
ATOM     17  O   UNL     1      21.765  17.121 -11.105  1.00  0.00    -0.504 OA
ATOM     18  H   UNL     1      22.601  16.791 -11.566  1.00  0.00     0.293 HD
ENDBRANCH  13  17
BRANCH  15  19
ATOM     19  O   UNL     1      18.954  17.898 -11.125  1.00  0.00    -0.502 OA
ATOM     20  H   UNL     1      18.203  17.899 -11.800  1.00  0.00     0.293 HD
ENDBRANCH  15  19
BRANCH  16  21
ATOM     21  O   UNL     1      18.324  20.617 -11.125  1.00  0.00    -0.504 OA
ATOM     22  H   UNL     1      17.931  21.121 -11.911  1.00  0.00     0.293 HD
ENDBRANCH  16  21
ENDBRANCH   1  11
BRANCH  10  23
ATOM     23  O   UNL     1      21.509  23.668 -10.868  1.00  0.00    -0.500 OA
ATOM     24  H   UNL     1      20.713  23.050 -10.971  1.00  0.00     0.294 HD
ENDBRANCH  10  23
BRANCH   5  25
ATOM     25  O   UNL     1      29.077  21.962 -11.116  1.00  0.00    -0.507 OA
ATOM     26  H   UNL     1      29.362  21.329 -11.854  1.00  0.00     0.293 HD
ENDBRANCH   5  25
BRANCH   7  27
ATOM     27  O   UNL     1      26.258  25.866 -11.008  1.00  0.00    -0.507 OA
ATOM     28  H   UNL     1      25.526  26.398 -11.457  1.00  0.00     0.293 HD
ENDBRANCH   7  27
TORSDOF 7
ENDMDL
MODEL 3
REMARK VINA RESULT:    -4.650      1.588      2.967
REMARK INTER + INTRA:          -5.288
REMARK INTER:                  -5.663
REMARK INTRA:                   0.375
REMARK UNBOUND:                 0.450
REMARK SMILES Oc1cc(O)c2cc(O)c(-c3cc(O)c(O)c(O)c3)[o+]c2c1
REMARK SMILES IDX 10 1 20 2 21 3 22 4 2 5 3 6 4 7 6 8 7 9 8 10 11 11 12 12
REMARK SMILES IDX 13 13 19 14 15 15 17 16 14 17 16 19 18 21 9 23 1 25 5 27
REMARK H PARENT 14 18 16 20 18 22 9 24 1 26 5 28
REMARK Flexibility Score: inf
ROOT
ATOM      1  C   UNL     1      23.931  22.469 -11.042  1.00  0.00     0.402 A 
ATOM      2  O   UNL     1      23.771  23.789 -11.056  1.00  0.00    -0.202 OA
ATOM      3  C   UNL     1      24.784  24.648 -11.074  1.00  0.00     0.368 A 
ATOM      4  C   UNL     1      24.514  26.019 -11.085  1.00  0.00     0.162 A 
ATOM      5  C   UNL     1      25.559  26.944 -11.101  1.00  0.00     0.128 A 
ATOM      6  C   UNL     1      26.885  26.496 -11.106  1.00  0.00     0.093 A 
ATOM      7  C   UNL     1      27.182  25.128 -11.095  1.00  0.00     0.136 A 
ATOM      8  C   UNL     1      26.123  24.184 -11.081  1.00  0.00     0.125 A 
ATOM      9  C   UNL     1      26.325  22.795 -11.083  1.00  0.00     0.078 A 
ATOM     10  C   UNL     1      25.229  21.927 -11.073  1.00  0.00     0.223 A 
ENDROOT
BRANCH   1  11
ATOM     11  C   UNL     1      22.721  21.616 -11.012  1.00  0.00     0.091 A 
ATOM     12  C   UNL     1      21.455  22.212 -11.083  1.00  0.00     0.068 A 
ATOM     13  C   UNL     1      20.289  21.438 -11.037  1.00  0.00     0.162 A 
ATOM     14  C   UNL     1      22.812  20.224 -10.857  1.00  0.00     0.068 A 
ATOM     15  C   UNL     1      20.388  20.033 -10.905  1.00  0.00     0.200 A 
ATOM     16  C   UNL     1      21.659  19.436 -10.809  1.00  0.00     0.162 A 
BRANCH  13  17
ATOM     17  O   UNL     1      19.065  22.105 -11.125  1.00  0.00    -0.504 OA
ATOM     18  H   UNL     1      18.380  21.941 -11.848  1.00  0.00     0.293 HD
ENDBRANCH  13  17
BRANCH  15  19
ATOM     19  O   UNL     1      19.261  19.207 -10.860  1.00  0.00    -0.502 OA
ATOM     20  H   UNL     1      19.262  18.232 -11.123  1.00  0.00     0.293 HD
ENDBRANCH  15  19
BRANCH  16  21
ATOM     21  O   UNL     1      21.797  18.056 -10.661  1.00  0.00    -0.504 OA
ATOM     22  H   UNL     1      22.699  17.595 -10.692  1.00  0.00     0.293 HD
ENDBRANCH  16  21
ENDBRANCH   1  11
BRANCH  10  23
ATOM     23  O   UNL     1      25.430  20.546 -11.125  1.00  0.00    -0.500 OA
ATOM     24  H   UNL     1      26.359  20.145 -11.174  1.00  0.00     0.294 HD
ENDBRANCH  10  23
BRANCH   5  25
ATOM     25  O   UNL     1      25.269  28.306 -11.112  1.00  0.00    -0.507 OA
ATOM     26  H   UNL     1      25.164  28.833 -10.253  1.00  0.00     0.293 HD
ENDBRANCH   5  25
BRANCH   7  27
ATOM     27  O   UNL     1      28.532  24.762 -11.096  1.00  0.00    -0.507 OA
ATOM     28  H   UNL     1      29.201  25.047 -10.395  1.00  0.00     0.293 HD
ENDBRANCH   7  27
TORSDOF 7
ENDMDL
MODEL 4
REMARK VINA RESULT:    -4.189      1.153      7.096
REMARK INTER + INTRA:          -4.719
REMARK INTER:                  -5.103
REMARK INTRA:                   0.384
REMARK UNBOUND:                 0.450
REMARK SMILES Oc1cc(O)c2cc(O)c(-c3cc(O)c(O)c(O)c3)[o+]c2c1
REMARK SMILES IDX 10 1 20 2 21 3 22 4 2 5 3 6 4 7 6 8 7 9 8 10 11 11 12 12
REMARK SMILES IDX 13 13 19 14 15 15 17 16 14 17 16 19 18 21 9 23 1 25 5 27
REMARK H PARENT 14 18 16 20 18 22 9 24 1 26 5 28
REMARK Flexibility Score: inf
ROOT
ATOM      1  C   UNL     1      22.676  22.724 -11.022  1.00  0.00     0.402 A 
ATOM      2  O   UNL     1      22.842  21.404 -11.033  1.00  0.00    -0.202 OA
ATOM      3  C   UNL     1      21.832  20.542 -11.059  1.00  0.00     0.368 A 
ATOM      4  C   UNL     1      22.106  19.172 -11.064  1.00  0.00     0.162 A 
ATOM      5  C   UNL     1      21.065  18.243 -11.089  1.00  0.00     0.128 A 
ATOM      6  C   UNL     1      19.737  18.686 -11.107  1.00  0.00     0.093 A 
ATOM      7  C   UNL     1      19.435  20.053 -11.102  1.00  0.00     0.136 A 
ATOM      8  C   UNL     1      20.491  21.001 -11.080  1.00  0.00     0.125 A 
ATOM      9  C   UNL     1      20.284  22.389 -11.087  1.00  0.00     0.078 A 
ATOM     10  C   UNL     1      21.377  23.262 -11.068  1.00  0.00     0.223 A 
ENDROOT
BRANCH   1  11
ATOM     11  C   UNL     1      23.883  23.581 -10.983  1.00  0.00     0.091 A 
ATOM     12  C   UNL     1      25.141  22.993 -10.791  1.00  0.00     0.068 A 
ATOM     13  C   UNL     1      26.301  23.775 -10.729  1.00  0.00     0.162 A 
ATOM     14  C   UNL     1      23.790  24.978 -11.075  1.00  0.00     0.068 A 
ATOM     15  C   UNL     1      26.203  25.182 -10.846  1.00  0.00     0.200 A 
ATOM     16  C   UNL     1      24.937  25.774 -11.014  1.00  0.00     0.162 A 
BRANCH  13  17
ATOM     17  O   UNL     1      27.518  23.115 -10.548  1.00  0.00    -0.504 OA
ATOM     18  H   UNL     1      27.935  22.930  -9.647  1.00  0.00     0.293 HD
ENDBRANCH  13  17
BRANCH  15  19
ATOM     19  O   UNL     1      27.325  26.014 -10.798  1.00  0.00    -0.502 OA
ATOM     20  H   UNL     1      27.523  26.656 -10.043  1.00  0.00     0.293 HD
ENDBRANCH  15  19
BRANCH  16  21
ATOM     21  O   UNL     1      24.798  27.158 -11.117  1.00  0.00    -0.504 OA
ATOM     22  H   UNL     1      24.288  27.596 -11.875  1.00  0.00     0.293 HD
ENDBRANCH  16  21
ENDBRANCH   1  11
BRANCH  10  23
ATOM     23  O   UNL     1      21.172  24.641 -11.125  1.00  0.00    -0.500 OA
ATOM     24  H   UNL     1      20.261  25.036 -11.326  1.00  0.00     0.294 HD
ENDBRANCH  10  23
BRANCH   5  25
ATOM     25  O   UNL     1      21.359  16.882 -11.094  1.00  0.00    -0.507 OA
ATOM     26  H   UNL     1      21.140  16.295 -11.890  1.00  0.00     0.293 HD
ENDBRANCH   5  25
BRANCH   7  27
ATOM     27  O   UNL     1      18.085  20.414 -11.118  1.00  0.00    -0.507 OA
ATOM     28  H   UNL     1      17.318  19.757 -11.097  1.00  0.00     0.293 HD
ENDBRANCH   7  27
TORSDOF 7
ENDMDL
MODEL 5
REMARK VINA RESULT:    -3.309      1.400      7.038
REMARK INTER + INTRA:          -3.633
REMARK INTER:                  -4.093
REMARK INTRA:                   0.460
REMARK UNBOUND:                 0.450
REMARK SMILES Oc1cc(O)c2cc(O)c(-c3cc(O)c(O)c(O)c3)[o+]c2c1
REMARK SMILES IDX 10 1 20 2 21 3 22 4 2 5 3 6 4 7 6 8 7 9 8 10 11 11 12 12
REMARK SMILES IDX 13 13 19 14 15 15 17 16 14 17 16 19 18 21 9 23 1 25 5 27
REMARK H PARENT 14 18 16 20 18 22 9 24 1 26 5 28
REMARK Flexibility Score: inf
ROOT
ATOM      1  C   UNL     1      24.174  23.291 -10.998  1.00  0.00     0.402 A 
ATOM      2  O   UNL     1      24.204  21.961 -11.006  1.00  0.00    -0.202 OA
ATOM      3  C   UNL     1      23.112  21.206 -11.038  1.00  0.00     0.368 A 
ATOM      4  C   UNL     1      23.246  19.814 -11.040  1.00  0.00     0.162 A 
ATOM      5  C   UNL     1      22.116  18.997 -11.071  1.00  0.00     0.128 A 
ATOM      6  C   UNL     1      20.840  19.573 -11.100  1.00  0.00     0.093 A 
ATOM      7  C   UNL     1      20.679  20.963 -11.098  1.00  0.00     0.136 A 
ATOM      8  C   UNL     1      21.825  21.799 -11.069  1.00  0.00     0.125 A 
ATOM      9  C   UNL     1      21.761  23.201 -11.080  1.00  0.00     0.078 A 
ATOM     10  C   UNL     1      22.936  23.958 -11.054  1.00  0.00     0.223 A 
ENDROOT
BRANCH   1  11
ATOM     11  C   UNL     1      25.461  24.021 -10.951  1.00  0.00     0.091 A 
ATOM     12  C   UNL     1      25.466  25.418 -11.050  1.00  0.00     0.068 A 
ATOM     13  C   UNL     1      26.666  26.139 -11.029  1.00  0.00     0.162 A 
ATOM     14  C   UNL     1      26.685  23.338 -10.866  1.00  0.00     0.068 A 
ATOM     15  C   UNL     1      27.896  25.447 -10.919  1.00  0.00     0.200 A 
ATOM     16  C   UNL     1      27.892  24.042 -10.845  1.00  0.00     0.162 A 
BRANCH  13  17
ATOM     17  O   UNL     1      26.588  27.531 -11.120  1.00  0.00    -0.504 OA
ATOM     18  H   UNL     1      25.725  28.054 -11.087  1.00  0.00     0.293 HD
ENDBRANCH  13  17
BRANCH  15  19
ATOM     19  O   UNL     1      29.125  26.111 -10.887  1.00  0.00    -0.502 OA
ATOM     20  H   UNL     1      30.021  25.652 -10.971  1.00  0.00     0.293 HD
ENDBRANCH  15  19
BRANCH  16  21
ATOM     21  O   UNL     1      29.084  23.323 -10.753  1.00  0.00    -0.504 OA
ATOM     22  H   UNL     1      29.106  22.338 -10.517  1.00  0.00     0.293 HD
ENDBRANCH  16  21
ENDBRANCH   1  11
BRANCH  10  23
ATOM     23  O   UNL     1      22.873  25.351 -11.114  1.00  0.00    -0.500 OA
ATOM     24  H   UNL     1      23.711  25.922 -11.109  1.00  0.00     0.294 HD
ENDBRANCH  10  23
BRANCH   5  25
ATOM     25  O   UNL     1      22.270  17.612 -11.072  1.00  0.00    -0.507 OA
ATOM     26  H   UNL     1      22.967  17.156 -10.496  1.00  0.00     0.293 HD
ENDBRANCH   5  25
BRANCH   7  27
ATOM     27  O   UNL     1      19.372  21.460 -11.125  1.00  0.00    -0.507 OA
ATOM     28  H   UNL     1      18.546  20.887 -11.230  1.00  0.00     0.293 HD
ENDBRANCH   7  27
TORSDOF 7
ENDMDL
MODEL 6
REMARK VINA RESULT:    -2.653     13.086     15.309
REMARK INTER + INTRA:          -2.823
REMARK INTER:                  -3.216
REMARK INTRA:                   0.393
REMARK UNBOUND:                 0.450
REMARK SMILES Oc1cc(O)c2cc(O)c(-c3cc(O)c(O)c(O)c3)[o+]c2c1
REMARK SMILES IDX 10 1 20 2 21 3 22 4 2 5 3 6 4 7 6 8 7 9 8 10 11 11 12 12
REMARK SMILES IDX 13 13 19 14 15 15 17 16 14 17 16 19 18 21 9 23 1 25 5 27
REMARK H PARENT 14 18 16 20 18 22 9 24 1 26 5 28
REMARK Flexibility Score: inf
ROOT
ATOM      1  C   UNL     1      29.100  26.876   1.270  1.00  0.00     0.402 A 
ATOM      2  O   UNL     1      29.123  28.206   1.269  1.00  0.00    -0.202 OA
ATOM      3  C   UNL     1      29.097  28.936   2.378  1.00  0.00     0.368 A 
ATOM      4  C   UNL     1      29.122  30.330   2.276  1.00  0.00     0.162 A 
ATOM      5  C   UNL     1      29.092  31.122   3.424  1.00  0.00     0.128 A 
ATOM      6  C   UNL     1      29.036  30.519   4.686  1.00  0.00     0.093 A 
ATOM      7  C   UNL     1      29.010  29.126   4.815  1.00  0.00     0.136 A 
ATOM      8  C   UNL     1      29.042  28.316   3.651  1.00  0.00     0.125 A 
ATOM      9  C   UNL     1      29.033  26.912   3.685  1.00  0.00     0.078 A 
ATOM     10  C   UNL     1      29.072  26.181   2.493  1.00  0.00     0.223 A 
ENDROOT
BRANCH   1  11
ATOM     11  C   UNL     1      29.123  26.174  -0.035  1.00  0.00     0.091 A 
ATOM     12  C   UNL     1      29.098  26.921  -1.220  1.00  0.00     0.068 A 
ATOM     13  C   UNL     1      29.099  26.291  -2.470  1.00  0.00     0.162 A 
ATOM     14  C   UNL     1      29.113  24.773  -0.110  1.00  0.00     0.068 A 
ATOM     15  C   UNL     1      29.113  24.877  -2.540  1.00  0.00     0.200 A 
ATOM     16  C   UNL     1      29.114  24.127  -1.350  1.00  0.00     0.162 A 
BRANCH  13  17
ATOM     17  O   UNL     1      29.084  27.103  -3.606  1.00  0.00    -0.504 OA
ATOM     18  H   UNL     1      28.372  27.791  -3.802  1.00  0.00     0.293 HD
ENDBRANCH  13  17
BRANCH  15  19
ATOM     19  O   UNL     1      29.121  24.191  -3.758  1.00  0.00    -0.502 OA
ATOM     20  H   UNL     1      28.369  23.599  -4.081  1.00  0.00     0.293 HD
ENDBRANCH  15  19
BRANCH  16  21
ATOM     21  O   UNL     1      29.111  22.732  -1.377  1.00  0.00    -0.504 OA
ATOM     22  H   UNL     1      28.837  22.175  -0.577  1.00  0.00     0.293 HD
ENDBRANCH  16  21
ENDBRANCH   1  11
BRANCH  10  23
ATOM     23  O   UNL     1      29.113  24.787   2.528  1.00  0.00    -0.500 OA
ATOM     24  H   UNL     1      29.852  24.288   3.009  1.00  0.00     0.294 HD
ENDBRANCH  10  23
BRANCH   5  25
ATOM     25  O   UNL     1      29.118  32.510   3.301  1.00  0.00    -0.507 OA
ATOM     26  H   UNL     1      29.777  33.076   3.823  1.00  0.00     0.293 HD
ENDBRANCH   5  25
BRANCH   7  27
ATOM     27  O   UNL     1      28.950  28.601   6.110  1.00  0.00    -0.507 OA
ATOM     28  H   UNL     1      29.652  28.754   6.820  1.00  0.00     0.293 HD
ENDBRANCH   7  27
TORSDOF 7
ENDMDL
MODEL 7
REMARK VINA RESULT:    -2.156      1.641      2.216
REMARK INTER + INTRA:          -2.210
REMARK INTER:                  -2.669
REMARK INTRA:                   0.460
REMARK UNBOUND:                 0.450
REMARK SMILES Oc1cc(O)c2cc(O)c(-c3cc(O)c(O)c(O)c3)[o+]c2c1
REMARK SMILES IDX 10 1 20 2 21 3 22 4 2 5 3 6 4 7 6 8 7 9 8 10 11 11 12 12
REMARK SMILES IDX 13 13 19 14 15 15 17 16 14 17 16 19 18 21 9 23 1 25 5 27
REMARK H PARENT 14 18 16 20 18 22 9 24 1 26 5 28
REMARK Flexibility Score: inf
ROOT
ATOM      1  C   UNL     1      20.836  21.816 -11.062  1.00  0.00     0.402 A 
ATOM      2  O   UNL     1      22.137  21.537 -11.085  1.00  0.00    -0.202 OA
ATOM      3  C   UNL     1      23.083  22.469 -11.073  1.00  0.00     0.368 A 
ATOM      4  C   UNL     1      24.425  22.078 -11.104  1.00  0.00     0.162 A 
ATOM      5  C   UNL     1      25.440  23.035 -11.095  1.00  0.00     0.128 A 
ATOM      6  C   UNL     1      25.113  24.396 -11.056  1.00  0.00     0.093 A 
ATOM      7  C   UNL     1      23.778  24.814 -11.026  1.00  0.00     0.136 A 
ATOM      8  C   UNL     1      22.742  23.844 -11.032  1.00  0.00     0.125 A 
ATOM      9  C   UNL     1      21.378  24.169 -10.990  1.00  0.00     0.078 A 
ATOM     10  C   UNL     1      20.414  23.156 -10.994  1.00  0.00     0.223 A 
ENDROOT
BRANCH   1  11
ATOM     11  C   UNL     1      19.878  20.687 -11.089  1.00  0.00     0.091 A 
ATOM     12  C   UNL     1      18.502  20.951 -11.070  1.00  0.00     0.068 A 
ATOM     13  C   UNL     1      17.567  19.908 -11.074  1.00  0.00     0.162 A 
ATOM     14  C   UNL     1      20.318  19.355 -11.075  1.00  0.00     0.068 A 
ATOM     15  C   UNL     1      18.017  18.566 -11.085  1.00  0.00     0.200 A 
ATOM     16  C   UNL     1      19.399  18.302 -11.079  1.00  0.00     0.162 A 
BRANCH  13  17
ATOM     17  O   UNL     1      16.214  20.251 -11.066  1.00  0.00    -0.504 OA
ATOM     18  H   UNL     1      15.467  19.610 -10.839  1.00  0.00     0.293 HD
ENDBRANCH  13  17
BRANCH  15  19
ATOM     19  O   UNL     1      17.133  17.483 -11.096  1.00  0.00    -0.502 OA
ATOM     20  H   UNL     1      17.175  16.710 -10.447  1.00  0.00     0.293 HD
ENDBRANCH  15  19
BRANCH  16  21
ATOM     21  O   UNL     1      19.882  16.993 -11.072  1.00  0.00    -0.504 OA
ATOM     22  H   UNL     1      19.655  16.328 -11.802  1.00  0.00     0.293 HD
ENDBRANCH  16  21
ENDBRANCH   1  11
BRANCH  10  23
ATOM     23  O   UNL     1      19.059  23.478 -10.902  1.00  0.00    -0.500 OA
ATOM     24  H   UNL     1      18.355  22.771 -10.727  1.00  0.00     0.294 HD
ENDBRANCH  10  23
BRANCH   5  25
ATOM     25  O   UNL     1      26.771  22.625 -11.125  1.00  0.00    -0.507 OA
ATOM     26  H   UNL     1      27.080  21.794 -10.635  1.00  0.00     0.293 HD
ENDBRANCH   5  25
BRANCH   7  27
ATOM     27  O   UNL     1      23.535  26.191 -10.992  1.00  0.00    -0.507 OA
ATOM     28  H   UNL     1      22.617  26.609 -11.033  1.00  0.00     0.293 HD
ENDBRANCH   7  27
TORSDOF 7
ENDMDL
