MODEL 1
REMARK VINA RESULT:    -5.062      0.000      0.000
REMARK INTER + INTRA:          -6.239
REMARK INTER:                  -5.949
REMARK INTRA:                  -0.290
REMARK UNBOUND:                -0.290
REMARK SMILES O=c1c(O)c(-c2ccc(O)cc2)oc2cc(O)cc(O)c12
REMARK SMILES IDX 5 1 3 2 2 3 1 4 21 5 19 6 18 7 16 8 15 9 14 10 13 11 6 12
REMARK SMILES IDX 7 13 8 14 9 15 12 16 11 17 10 18 4 20 20 22 17 24
REMARK H PARENT 10 19 4 21 20 23 17 25
REMARK Flexibility Score: inf
ROOT
ATOM      1  C   UNL     1      -8.474  -2.471 -16.394  1.00  0.00     0.180 A 
ATOM      2  C   UNL     1      -8.924  -1.244 -16.918  1.00  0.00     0.208 A 
ATOM      3  C   UNL     1      -8.676  -0.066 -16.197  1.00  0.00     0.238 A 
ATOM      4  O   UNL     1      -9.084   1.038 -16.651  1.00  0.00    -0.285 OA
ATOM      5  C   UNL     1      -7.967  -0.131 -14.979  1.00  0.00     0.111 A 
ATOM      6  C   UNL     1      -7.673   1.010 -14.193  1.00  0.00     0.134 A 
ATOM      7  C   UNL     1      -6.954   0.864 -12.997  1.00  0.00     0.093 A 
ATOM      8  C   UNL     1      -6.525  -0.396 -12.574  1.00  0.00     0.123 A 
ATOM      9  C   UNL     1      -6.814  -1.527 -13.344  1.00  0.00     0.094 A 
ATOM     10  C   UNL     1      -7.531  -1.401 -14.539  1.00  0.00     0.146 A 
ATOM     11  O   UNL     1      -7.796  -2.492 -15.250  1.00  0.00    -0.452 OA
ENDROOT
BRANCH   1  12
ATOM     12  C   UNL     1      -8.714  -3.758 -17.086  1.00  0.00     0.021 A 
ATOM     13  C   UNL     1      -9.931  -4.451 -16.946  1.00  0.00     0.016 A 
ATOM     14  C   UNL     1     -10.125  -5.676 -17.590  1.00  0.00     0.047 A 
ATOM     15  C   UNL     1      -9.104  -6.232 -18.368  1.00  0.00     0.115 A 
ATOM     16  C   UNL     1      -7.686  -4.333 -17.853  1.00  0.00     0.016 A 
ATOM     17  C   UNL     1      -7.883  -5.558 -18.496  1.00  0.00     0.047 A 
BRANCH  15  18
ATOM     18  O   UNL     1      -9.313  -7.452 -19.005  1.00  0.00    -0.508 OA
ATOM     19  H   UNL     1      -8.653  -7.814 -19.685  1.00  0.00     0.293 HD
ENDBRANCH  15  18
ENDBRANCH   1  12
BRANCH   2  20
ATOM     20  O   UNL     1      -9.581  -1.201 -18.151  1.00  0.00    -0.502 OA
ATOM     21  H   UNL     1     -10.387  -0.611 -18.316  1.00  0.00     0.293 HD
ENDBRANCH   2  20
BRANCH   6  22
ATOM     22  O   UNL     1      -8.085   2.282 -14.591  1.00  0.00    -0.507 OA
ATOM     23  H   UNL     1      -7.475   3.088 -14.517  1.00  0.00     0.293 HD
ENDBRANCH   6  22
BRANCH   8  24
ATOM     24  O   UNL     1      -5.813  -0.514 -11.382  1.00  0.00    -0.508 OA
ATOM     25  H   UNL     1      -6.266  -0.410 -10.482  1.00  0.00     0.293 HD
ENDBRANCH   8  24
TORSDOF 5
ENDMDL
MODEL 2
REMARK VINA RESULT:    -4.827      1.168      3.104
REMARK INTER + INTRA:          -5.963
REMARK INTER:                  -5.667
REMARK INTRA:                  -0.296
REMARK UNBOUND:                -0.290
REMARK SMILES O=c1c(O)c(-c2ccc(O)cc2)oc2cc(O)cc(O)c12
REMARK SMILES IDX 5 1 3 2 2 3 1 4 21 5 19 6 18 7 16 8 15 9 14 10 13 11 6 12
REMARK SMILES IDX 7 13 8 14 9 15 12 16 11 17 10 18 4 20 20 22 17 24
REMARK H PARENT 10 19 4 21 20 23 17 25
REMARK Flexibility Score: inf
ROOT
ATOM      1  C   UNL     1      -8.101  -3.130 -15.679  1.00  0.00     0.180 A 
ATOM      2  C   UNL     1      -7.655  -3.359 -14.363  1.00  0.00     0.208 A 
ATOM      3  C   UNL     1      -7.335  -2.258 -13.553  1.00  0.00     0.238 A 
ATOM      4  O   UNL     1      -6.924  -2.451 -12.376  1.00  0.00    -0.285 OA
ATOM      5  C   UNL     1      -7.486  -0.951 -14.063  1.00  0.00     0.111 A 
ATOM      6  C   UNL     1      -7.189   0.211 -13.311  1.00  0.00     0.134 A 
ATOM      7  C   UNL     1      -7.374   1.478 -13.886  1.00  0.00     0.093 A 
ATOM      8  C   UNL     1      -7.848   1.603 -15.193  1.00  0.00     0.123 A 
ATOM      9  C   UNL     1      -8.142   0.458 -15.942  1.00  0.00     0.094 A 
ATOM     10  C   UNL     1      -7.963  -0.812 -15.386  1.00  0.00     0.146 A 
ATOM     11  O   UNL     1      -8.244  -1.883 -16.120  1.00  0.00    -0.452 OA
ENDROOT
BRANCH   1  12
ATOM     12  C   UNL     1      -8.439  -4.239 -16.600  1.00  0.00     0.021 A 
ATOM     13  C   UNL     1      -7.451  -4.877 -17.373  1.00  0.00     0.016 A 
ATOM     14  C   UNL     1      -7.799  -5.906 -18.253  1.00  0.00     0.047 A 
ATOM     15  C   UNL     1      -9.134  -6.300 -18.385  1.00  0.00     0.115 A 
ATOM     16  C   UNL     1      -9.780  -4.626 -16.752  1.00  0.00     0.016 A 
ATOM     17  C   UNL     1     -10.125  -5.655 -17.633  1.00  0.00     0.047 A 
BRANCH  15  18
ATOM     18  O   UNL     1      -9.464  -7.327 -19.265  1.00  0.00    -0.508 OA
ATOM     19  H   UNL     1     -10.408  -7.439 -19.617  1.00  0.00     0.293 HD
ENDBRANCH  15  18
ENDBRANCH   1  12
BRANCH   2  20
ATOM     20  O   UNL     1      -7.562  -4.662 -13.866  1.00  0.00    -0.502 OA
ATOM     21  H   UNL     1      -6.732  -5.230 -13.986  1.00  0.00     0.293 HD
ENDBRANCH   2  20
BRANCH   6  22
ATOM     22  O   UNL     1      -6.716   0.119 -12.001  1.00  0.00    -0.507 OA
ATOM     23  H   UNL     1      -5.928  -0.471 -11.759  1.00  0.00     0.293 HD
ENDBRANCH   6  22
BRANCH   8  24
ATOM     24  O   UNL     1      -8.023   2.872 -15.741  1.00  0.00    -0.508 OA
ATOM     25  H   UNL     1      -8.518   3.009 -16.614  1.00  0.00     0.293 HD
ENDBRANCH   8  24
TORSDOF 5
ENDMDL
MODEL 3
REMARK VINA RESULT:    -4.789     10.616     13.045
REMARK INTER + INTRA:          -5.918
REMARK INTER:                  -5.628
REMARK INTRA:                  -0.290
REMARK UNBOUND:                -0.290
REMARK SMILES O=c1c(O)c(-c2ccc(O)cc2)oc2cc(O)cc(O)c12
REMARK SMILES IDX 5 1 3 2 2 3 1 4 21 5 19 6 18 7 16 8 15 9 14 10 13 11 6 12
REMARK SMILES IDX 7 13 8 14 9 15 12 16 11 17 10 18 4 20 20 22 17 24
REMARK H PARENT 10 19 4 21 20 23 17 25
REMARK Flexibility Score: inf
ROOT
ATOM      1  C   UNL     1      -0.946   0.743  -7.201  1.00  0.00     0.180 A 
ATOM      2  C   UNL     1      -2.344   0.719  -7.366  1.00  0.00     0.208 A 
ATOM      3  C   UNL     1      -3.031  -0.487  -7.159  1.00  0.00     0.238 A 
ATOM      4  O   UNL     1      -4.282  -0.524  -7.315  1.00  0.00    -0.285 OA
ATOM      5  C   UNL     1      -2.315  -1.640  -6.772  1.00  0.00     0.111 A 
ATOM      6  C   UNL     1      -2.933  -2.892  -6.540  1.00  0.00     0.134 A 
ATOM      7  C   UNL     1      -2.152  -3.991  -6.148  1.00  0.00     0.093 A 
ATOM      8  C   UNL     1      -0.772  -3.860  -5.984  1.00  0.00     0.123 A 
ATOM      9  C   UNL     1      -0.156  -2.626  -6.213  1.00  0.00     0.094 A 
ATOM     10  C   UNL     1      -0.917  -1.520  -6.605  1.00  0.00     0.146 A 
ATOM     11  O   UNL     1      -0.306  -0.360  -6.821  1.00  0.00    -0.452 OA
ENDROOT
BRANCH   1  12
ATOM     12  C   UNL     1      -0.148   1.971  -7.420  1.00  0.00     0.021 A 
ATOM     13  C   UNL     1       0.101   2.880  -6.374  1.00  0.00     0.016 A 
ATOM     14  C   UNL     1       0.836   4.045  -6.611  1.00  0.00     0.047 A 
ATOM     15  C   UNL     1       1.318   4.325  -7.893  1.00  0.00     0.115 A 
ATOM     16  C   UNL     1       0.322   2.270  -8.710  1.00  0.00     0.016 A 
ATOM     17  C   UNL     1       1.057   3.435  -8.943  1.00  0.00     0.047 A 
BRANCH  15  18
ATOM     18  O   UNL     1       2.050   5.489  -8.114  1.00  0.00    -0.508 OA
ATOM     19  H   UNL     1       2.671   5.866  -7.406  1.00  0.00     0.293 HD
ENDBRANCH  15  18
ENDBRANCH   1  12
BRANCH   2  20
ATOM     20  O   UNL     1      -3.035   1.886  -7.702  1.00  0.00    -0.502 OA
ATOM     21  H   UNL     1      -3.274   2.591  -7.016  1.00  0.00     0.293 HD
ENDBRANCH   2  20
BRANCH   6  22
ATOM     22  O   UNL     1      -4.310  -3.054  -6.693  1.00  0.00    -0.507 OA
ATOM     23  H   UNL     1      -4.833  -3.725  -6.142  1.00  0.00     0.293 HD
ENDBRANCH   6  22
BRANCH   8  24
ATOM     24  O   UNL     1      -0.019  -4.966  -5.594  1.00  0.00    -0.508 OA
ATOM     25  H   UNL     1       0.136  -5.184  -4.617  1.00  0.00     0.293 HD
ENDBRANCH   8  24
TORSDOF 5
ENDMDL
MODEL 4
REMARK VINA RESULT:    -4.767     15.795     18.020
REMARK INTER + INTRA:          -5.892
REMARK INTER:                  -5.619
REMARK INTRA:                  -0.273
REMARK UNBOUND:                -0.290
REMARK SMILES O=c1c(O)c(-c2ccc(O)cc2)oc2cc(O)cc(O)c12
REMARK SMILES IDX 5 1 3 2 2 3 1 4 21 5 19 6 18 7 16 8 15 9 14 10 13 11 6 12
REMARK SMILES IDX 7 13 8 14 9 15 12 16 11 17 10 18 4 20 20 22 17 24
REMARK H PARENT 10 19 4 21 20 23 17 25
REMARK Flexibility Score: inf
ROOT
ATOM      1  C   UNL     1       8.640   2.333 -16.675  1.00  0.00     0.180 A 
ATOM      2  C   UNL     1       9.088   1.097 -17.181  1.00  0.00     0.208 A 
ATOM      3  C   UNL     1       8.841  -0.069 -16.441  1.00  0.00     0.238 A 
ATOM      4  O   UNL     1       9.247  -1.180 -16.879  1.00  0.00    -0.285 OA
ATOM      5  C   UNL     1       8.135   0.015 -15.222  1.00  0.00     0.111 A 
ATOM      6  C   UNL     1       7.842  -1.113 -14.419  1.00  0.00     0.134 A 
ATOM      7  C   UNL     1       7.126  -0.948 -13.223  1.00  0.00     0.093 A 
ATOM      8  C   UNL     1       6.700   0.318 -12.818  1.00  0.00     0.123 A 
ATOM      9  C   UNL     1       6.987   1.437 -13.607  1.00  0.00     0.094 A 
ATOM     10  C   UNL     1       7.701   1.292 -14.801  1.00  0.00     0.146 A 
ATOM     11  O   UNL     1       7.965   2.372 -15.530  1.00  0.00    -0.452 OA
ENDROOT
BRANCH   1  12
ATOM     12  C   UNL     1       8.879   3.609 -17.387  1.00  0.00     0.021 A 
ATOM     13  C   UNL     1       9.933   4.467 -17.021  1.00  0.00     0.016 A 
ATOM     14  C   UNL     1      10.123   5.678 -17.693  1.00  0.00     0.047 A 
ATOM     15  C   UNL     1       9.259   6.054 -18.726  1.00  0.00     0.115 A 
ATOM     16  C   UNL     1       8.003   4.003 -18.412  1.00  0.00     0.016 A 
ATOM     17  C   UNL     1       8.196   5.214 -19.083  1.00  0.00     0.047 A 
BRANCH  15  18
ATOM     18  O   UNL     1       9.463   7.262 -19.387  1.00  0.00    -0.508 OA
ATOM     19  H   UNL     1      10.390   7.567 -19.660  1.00  0.00     0.293 HD
ENDBRANCH  15  18
ENDBRANCH   1  12
BRANCH   2  20
ATOM     20  O   UNL     1       9.742   1.035 -18.415  1.00  0.00    -0.502 OA
ATOM     21  H   UNL     1      10.747   0.945 -18.492  1.00  0.00     0.293 HD
ENDBRANCH   2  20
BRANCH   6  22
ATOM     22  O   UNL     1       8.252  -2.392 -14.798  1.00  0.00    -0.507 OA
ATOM     23  H   UNL     1       8.492  -2.613 -15.757  1.00  0.00     0.293 HD
ENDBRANCH   6  22
BRANCH   8  24
ATOM     24  O   UNL     1       5.991   0.455 -11.626  1.00  0.00    -0.508 OA
ATOM     25  H   UNL     1       5.115  -0.031 -11.472  1.00  0.00     0.293 HD
ENDBRANCH   8  24
TORSDOF 5
ENDMDL
MODEL 5
REMARK VINA RESULT:    -4.733     10.908     13.411
REMARK INTER + INTRA:          -5.853
REMARK INTER:                  -5.576
REMARK INTRA:                  -0.277
REMARK UNBOUND:                -0.290
REMARK SMILES O=c1c(O)c(-c2ccc(O)cc2)oc2cc(O)cc(O)c12
REMARK SMILES IDX 5 1 3 2 2 3 1 4 21 5 19 6 18 7 16 8 15 9 14 10 13 11 6 12
REMARK SMILES IDX 7 13 8 14 9 15 12 16 11 17 10 18 4 20 20 22 17 24
REMARK H PARENT 10 19 4 21 20 23 17 25
REMARK Flexibility Score: inf
ROOT
ATOM      1  C   UNL     1       1.113  -0.744  -7.190  1.00  0.00     0.180 A 
ATOM      2  C   UNL     1       2.496  -0.714  -7.454  1.00  0.00     0.208 A 
ATOM      3  C   UNL     1       3.201   0.480  -7.242  1.00  0.00     0.238 A 
ATOM      4  O   UNL     1       4.439   0.523  -7.485  1.00  0.00    -0.285 OA
ATOM      5  C   UNL     1       2.520   1.614  -6.751  1.00  0.00     0.111 A 
ATOM      6  C   UNL     1       3.158   2.854  -6.507  1.00  0.00     0.134 A 
ATOM      7  C   UNL     1       2.413   3.934  -6.010  1.00  0.00     0.093 A 
ATOM      8  C   UNL     1       1.047   3.797  -5.753  1.00  0.00     0.123 A 
ATOM      9  C   UNL     1       0.411   2.575  -5.994  1.00  0.00     0.094 A 
ATOM     10  C   UNL     1       1.137   1.488  -6.491  1.00  0.00     0.146 A 
ATOM     11  O   UNL     1       0.507   0.340  -6.715  1.00  0.00    -0.452 OA
ENDROOT
BRANCH   1  12
ATOM     12  C   UNL     1       0.297  -1.961  -7.407  1.00  0.00     0.021 A 
ATOM     13  C   UNL     1       0.028  -2.860  -6.359  1.00  0.00     0.016 A 
ATOM     14  C   UNL     1      -0.725  -4.014  -6.594  1.00  0.00     0.047 A 
ATOM     15  C   UNL     1      -1.206  -4.293  -7.878  1.00  0.00     0.115 A 
ATOM     16  C   UNL     1      -0.172  -2.257  -8.698  1.00  0.00     0.016 A 
ATOM     17  C   UNL     1      -0.925  -3.411  -8.930  1.00  0.00     0.047 A 
BRANCH  15  18
ATOM     18  O   UNL     1      -1.956  -5.445  -8.096  1.00  0.00    -0.508 OA
ATOM     19  H   UNL     1      -2.834  -5.604  -7.615  1.00  0.00     0.293 HD
ENDBRANCH  15  18
ENDBRANCH   1  12
BRANCH   2  20
ATOM     20  O   UNL     1       3.157  -1.865  -7.892  1.00  0.00    -0.502 OA
ATOM     21  H   UNL     1       3.713  -1.883  -8.738  1.00  0.00     0.293 HD
ENDBRANCH   2  20
BRANCH   6  22
ATOM     22  O   UNL     1       4.522   3.022  -6.751  1.00  0.00    -0.507 OA
ATOM     23  H   UNL     1       4.890   3.098  -7.692  1.00  0.00     0.293 HD
ENDBRANCH   6  22
BRANCH   8  24
ATOM     24  O   UNL     1       0.329   4.885  -5.260  1.00  0.00    -0.508 OA
ATOM     25  H   UNL     1       0.601   5.355  -4.405  1.00  0.00     0.293 HD
ENDBRANCH   8  24
TORSDOF 5
ENDMDL
MODEL 6
REMARK VINA RESULT:    -4.717     10.657     12.961
REMARK INTER + INTRA:          -5.834
REMARK INTER:                  -5.548
REMARK INTRA:                  -0.286
REMARK UNBOUND:                -0.290
REMARK SMILES O=c1c(O)c(-c2ccc(O)cc2)oc2cc(O)cc(O)c12
REMARK SMILES IDX 5 1 3 2 2 3 1 4 21 5 19 6 18 7 16 8 15 9 14 10 13 11 6 12
REMARK SMILES IDX 7 13 8 14 9 15 12 16 11 17 10 18 4 20 20 22 17 24
REMARK H PARENT 10 19 4 21 20 23 17 25
REMARK Flexibility Score: inf
ROOT
ATOM      1  C   UNL     1      -1.407  -0.787  -6.414  1.00  0.00     0.180 A 
ATOM      2  C   UNL     1      -0.821  -1.756  -7.251  1.00  0.00     0.208 A 
ATOM      3  C   UNL     1       0.562  -1.703  -7.486  1.00  0.00     0.238 A 
ATOM      4  O   UNL     1       1.096  -2.559  -8.244  1.00  0.00    -0.285 OA
ATOM      5  C   UNL     1       1.336  -0.699  -6.867  1.00  0.00     0.111 A 
ATOM      6  C   UNL     1       2.735  -0.579  -7.049  1.00  0.00     0.134 A 
ATOM      7  C   UNL     1       3.437   0.442  -6.390  1.00  0.00     0.093 A 
ATOM      8  C   UNL     1       2.769   1.341  -5.555  1.00  0.00     0.123 A 
ATOM      9  C   UNL     1       1.387   1.227  -5.373  1.00  0.00     0.094 A 
ATOM     10  C   UNL     1       0.670   0.217  -6.022  1.00  0.00     0.146 A 
ATOM     11  O   UNL     1      -0.643   0.135  -5.835  1.00  0.00    -0.452 OA
ENDROOT
BRANCH   1  12
ATOM     12  C   UNL     1      -2.860  -0.766  -6.132  1.00  0.00     0.021 A 
ATOM     13  C   UNL     1      -3.421  -1.548  -5.105  1.00  0.00     0.016 A 
ATOM     14  C   UNL     1      -4.799  -1.529  -4.875  1.00  0.00     0.047 A 
ATOM     15  C   UNL     1      -5.636  -0.743  -5.673  1.00  0.00     0.115 A 
ATOM     16  C   UNL     1      -3.710   0.006  -6.943  1.00  0.00     0.016 A 
ATOM     17  C   UNL     1      -5.088   0.023  -6.710  1.00  0.00     0.047 A 
BRANCH  15  18
ATOM     18  O   UNL     1      -7.007  -0.733  -5.430  1.00  0.00    -0.508 OA
ATOM     19  H   UNL     1      -7.406  -0.195  -4.669  1.00  0.00     0.293 HD
ENDBRANCH  15  18
ENDBRANCH   1  12
BRANCH   2  20
ATOM     20  O   UNL     1      -1.602  -2.769  -7.813  1.00  0.00    -0.502 OA
ATOM     21  H   UNL     1      -2.155  -3.403  -7.250  1.00  0.00     0.293 HD
ENDBRANCH   2  20
BRANCH   6  22
ATOM     22  O   UNL     1       3.431  -1.462  -7.875  1.00  0.00    -0.507 OA
ATOM     23  H   UNL     1       3.254  -2.460  -7.859  1.00  0.00     0.293 HD
ENDBRANCH   6  22
BRANCH   8  24
ATOM     24  O   UNL     1       3.489   2.345  -4.912  1.00  0.00    -0.508 OA
ATOM     25  H   UNL     1       4.498   2.401  -4.980  1.00  0.00     0.293 HD
ENDBRANCH   8  24
TORSDOF 5
ENDMDL
MODEL 7
REMARK VINA RESULT:    -4.656     10.627     14.478
REMARK INTER + INTRA:          -5.762
REMARK INTER:                  -5.821
REMARK INTRA:                   0.059
REMARK UNBOUND:                -0.290
REMARK SMILES O=c1c(O)c(-c2ccc(O)cc2)oc2cc(O)cc(O)c12
REMARK SMILES IDX 5 1 3 2 2 3 1 4 21 5 19 6 18 7 16 8 15 9 14 10 13 11 6 12
REMARK SMILES IDX 7 13 8 14 9 15 12 16 11 17 10 18 4 20 20 22 17 24
REMARK H PARENT 10 19 4 21 20 23 17 25
REMARK Flexibility Score: inf
ROOT
ATOM      1  C   UNL     1       0.521   1.931  -6.303  1.00  0.00     0.180 A 
ATOM      2  C   UNL     1       0.690   3.320  -6.464  1.00  0.00     0.208 A 
ATOM      3  C   UNL     1       1.959   3.879  -6.246  1.00  0.00     0.238 A 
ATOM      4  O   UNL     1       2.121   5.123  -6.376  1.00  0.00    -0.285 OA
ATOM      5  C   UNL     1       3.039   3.041  -5.893  1.00  0.00     0.111 A 
ATOM      6  C   UNL     1       4.349   3.524  -5.660  1.00  0.00     0.134 A 
ATOM      7  C   UNL     1       5.371   2.625  -5.321  1.00  0.00     0.093 A 
ATOM      8  C   UNL     1       5.110   1.257  -5.213  1.00  0.00     0.123 A 
ATOM      9  C   UNL     1       3.817   0.775  -5.440  1.00  0.00     0.094 A 
ATOM     10  C   UNL     1       2.785   1.655  -5.777  1.00  0.00     0.146 A 
ATOM     11  O   UNL     1       1.565   1.171  -5.984  1.00  0.00    -0.452 OA
ENDROOT
BRANCH   1  12
ATOM     12  C   UNL     1      -0.790   1.271  -6.496  1.00  0.00     0.021 A 
ATOM     13  C   UNL     1      -1.301   0.365  -5.548  1.00  0.00     0.016 A 
ATOM     14  C   UNL     1      -2.530  -0.265  -5.765  1.00  0.00     0.047 A 
ATOM     15  C   UNL     1      -3.257  -0.011  -6.933  1.00  0.00     0.115 A 
ATOM     16  C   UNL     1      -1.515   1.505  -7.676  1.00  0.00     0.016 A 
ATOM     17  C   UNL     1      -2.744   0.875  -7.890  1.00  0.00     0.047 A 
BRANCH  15  18
ATOM     18  O   UNL     1      -4.480  -0.644  -7.133  1.00  0.00    -0.508 OA
ATOM     19  H   UNL     1      -4.902  -1.221  -6.414  1.00  0.00     0.293 HD
ENDBRANCH  15  18
ENDBRANCH   1  12
BRANCH   2  20
ATOM     20  O   UNL     1      -0.383   4.121  -6.862  1.00  0.00    -0.502 OA
ATOM     21  H   UNL     1      -1.047   4.506  -6.202  1.00  0.00     0.293 HD
ENDBRANCH   2  20
BRANCH   6  22
ATOM     22  O   UNL     1       4.643   4.884  -5.763  1.00  0.00    -0.507 OA
ATOM     23  H   UNL     1       5.166   5.259  -6.545  1.00  0.00     0.293 HD
ENDBRANCH   6  22
BRANCH   8  24
ATOM     24  O   UNL     1       6.143   0.386  -4.875  1.00  0.00    -0.508 OA
ATOM     25  H   UNL     1       6.517  -0.277  -5.544  1.00  0.00     0.293 HD
ENDBRANCH   8  24
TORSDOF 5
ENDMDL
MODEL 8
REMARK VINA RESULT:    -4.616     10.746     13.617
REMARK INTER + INTRA:          -5.716
REMARK INTER:                  -5.485
REMARK INTRA:                  -0.231
REMARK UNBOUND:                -0.290
REMARK SMILES O=c1c(O)c(-c2ccc(O)cc2)oc2cc(O)cc(O)c12
REMARK SMILES IDX 5 1 3 2 2 3 1 4 21 5 19 6 18 7 16 8 15 9 14 10 13 11 6 12
REMARK SMILES IDX 7 13 8 14 9 15 12 16 11 17 10 18 4 20 20 22 17 24
REMARK H PARENT 10 19 4 21 20 23 17 25
REMARK Flexibility Score: inf
ROOT
ATOM      1  C   UNL     1      -0.621  -0.387  -6.481  1.00  0.00     0.180 A 
ATOM      2  C   UNL     1       0.317  -1.396  -6.773  1.00  0.00     0.208 A 
ATOM      3  C   UNL     1      -0.131  -2.719  -6.915  1.00  0.00     0.238 A 
ATOM      4  O   UNL     1       0.702  -3.633  -7.166  1.00  0.00    -0.285 OA
ATOM      5  C   UNL     1      -1.506  -3.007  -6.783  1.00  0.00     0.111 A 
ATOM      6  C   UNL     1      -2.038  -4.312  -6.914  1.00  0.00     0.134 A 
ATOM      7  C   UNL     1      -3.420  -4.517  -6.777  1.00  0.00     0.093 A 
ATOM      8  C   UNL     1      -4.275  -3.445  -6.514  1.00  0.00     0.123 A 
ATOM      9  C   UNL     1      -3.755  -2.154  -6.381  1.00  0.00     0.094 A 
ATOM     10  C   UNL     1      -2.380  -1.930  -6.513  1.00  0.00     0.146 A 
ATOM     11  O   UNL     1      -1.911  -0.695  -6.378  1.00  0.00    -0.452 OA
ENDROOT
BRANCH   1  12
ATOM     12  C   UNL     1      -0.224   1.027  -6.298  1.00  0.00     0.021 A 
ATOM     13  C   UNL     1       0.460   1.454  -5.145  1.00  0.00     0.016 A 
ATOM     14  C   UNL     1       0.802   2.800  -4.984  1.00  0.00     0.047 A 
ATOM     15  C   UNL     1       0.455   3.737  -5.962  1.00  0.00     0.115 A 
ATOM     16  C   UNL     1      -0.588   1.978  -7.267  1.00  0.00     0.016 A 
ATOM     17  C   UNL     1      -0.244   3.322  -7.104  1.00  0.00     0.047 A 
BRANCH  15  18
ATOM     18  O   UNL     1       0.805   5.074  -5.789  1.00  0.00    -0.508 OA
ATOM     19  H   UNL     1       1.724   5.418  -6.043  1.00  0.00     0.293 HD
ENDBRANCH  15  18
ENDBRANCH   1  12
BRANCH   2  20
ATOM     20  O   UNL     1       1.666  -1.077  -6.949  1.00  0.00    -0.502 OA
ATOM     21  H   UNL     1       1.966  -0.235  -7.424  1.00  0.00     0.293 HD
ENDBRANCH   2  20
BRANCH   6  22
ATOM     22  O   UNL     1      -1.210  -5.404  -7.180  1.00  0.00    -0.507 OA
ATOM     23  H   UNL     1      -0.776  -5.536  -8.086  1.00  0.00     0.293 HD
ENDBRANCH   6  22
BRANCH   8  24
ATOM     24  O   UNL     1      -5.643  -3.675  -6.383  1.00  0.00    -0.508 OA
ATOM     25  H   UNL     1      -6.326  -3.078  -6.833  1.00  0.00     0.293 HD
ENDBRANCH   8  24
TORSDOF 5
ENDMDL
MODEL 9
REMARK VINA RESULT:    -4.606     10.461     13.869
REMARK INTER + INTRA:          -5.703
REMARK INTER:                  -5.433
REMARK INTRA:                  -0.270
REMARK UNBOUND:                -0.290
REMARK SMILES O=c1c(O)c(-c2ccc(O)cc2)oc2cc(O)cc(O)c12
REMARK SMILES IDX 5 1 3 2 2 3 1 4 21 5 19 6 18 7 16 8 15 9 14 10 13 11 6 12
REMARK SMILES IDX 7 13 8 14 9 15 12 16 11 17 10 18 4 20 20 22 17 24
REMARK H PARENT 10 19 4 21 20 23 17 25
REMARK Flexibility Score: inf
ROOT
ATOM      1  C   UNL     1      -0.175   1.176  -6.448  1.00  0.00     0.180 A 
ATOM      2  C   UNL     1       0.938   0.378  -6.777  1.00  0.00     0.208 A 
ATOM      3  C   UNL     1       2.217   0.955  -6.751  1.00  0.00     0.238 A 
ATOM      4  O   UNL     1       3.221   0.254  -7.054  1.00  0.00    -0.285 OA
ATOM      5  C   UNL     1       2.365   2.308  -6.377  1.00  0.00     0.111 A 
ATOM      6  C   UNL     1       3.618   2.962  -6.321  1.00  0.00     0.134 A 
ATOM      7  C   UNL     1       3.683   4.309  -5.930  1.00  0.00     0.093 A 
ATOM      8  C   UNL     1       2.522   5.009  -5.595  1.00  0.00     0.123 A 
ATOM      9  C   UNL     1       1.281   4.368  -5.649  1.00  0.00     0.094 A 
ATOM     10  C   UNL     1       1.196   3.027  -6.038  1.00  0.00     0.146 A 
ATOM     11  O   UNL     1       0.004   2.443  -6.086  1.00  0.00    -0.452 OA
ENDROOT
BRANCH   1  12
ATOM     12  C   UNL     1      -1.558   0.645  -6.471  1.00  0.00     0.021 A 
ATOM     13  C   UNL     1      -2.416   0.883  -7.561  1.00  0.00     0.016 A 
ATOM     14  C   UNL     1      -3.725   0.393  -7.549  1.00  0.00     0.047 A 
ATOM     15  C   UNL     1      -4.198  -0.327  -6.447  1.00  0.00     0.115 A 
ATOM     16  C   UNL     1      -2.046  -0.060  -5.359  1.00  0.00     0.016 A 
ATOM     17  C   UNL     1      -3.355  -0.550  -5.350  1.00  0.00     0.047 A 
BRANCH  15  18
ATOM     18  O   UNL     1      -5.504  -0.810  -6.451  1.00  0.00    -0.508 OA
ATOM     19  H   UNL     1      -5.783  -1.574  -7.056  1.00  0.00     0.293 HD
ENDBRANCH  15  18
ENDBRANCH   1  12
BRANCH   2  20
ATOM     20  O   UNL     1       0.770  -0.971  -7.096  1.00  0.00    -0.502 OA
ATOM     21  H   UNL     1       0.380  -1.276  -7.980  1.00  0.00     0.293 HD
ENDBRANCH   2  20
BRANCH   6  22
ATOM     22  O   UNL     1       4.796   2.289  -6.647  1.00  0.00    -0.507 OA
ATOM     23  H   UNL     1       4.787   1.347  -7.020  1.00  0.00     0.293 HD
ENDBRANCH   6  22
BRANCH   8  24
ATOM     24  O   UNL     1       2.614   6.345  -5.210  1.00  0.00    -0.508 OA
ATOM     25  H   UNL     1       1.895   6.785  -4.648  1.00  0.00     0.293 HD
ENDBRANCH   8  24
TORSDOF 5
ENDMDL
