MODEL 1
REMARK VINA RESULT:    -5.074      0.000      0.000
REMARK INTER + INTRA:          -8.555
REMARK INTER:                  -8.041
REMARK INTRA:                  -0.514
REMARK UNBOUND:                -0.514
REMARK SMILES CCCCCCCCCCCC(=O)[O-]
REMARK SMILES IDX 7 1 8 2 9 3 10 4 11 5 12 6 13 7 14 8 6 9 5 10 4 11 3 12 2 13
REMARK SMILES IDX 1 14
REMARK H PARENT
REMARK Flexibility Score: inf
ROOT
ATOM      1  C   UNL     1      16.175 -18.221  31.111  1.00  0.00     0.000 C 
ENDROOT
BRANCH   1   2
ATOM      2  C   UNL     1      15.513 -17.623  29.859  1.00  0.00     0.000 C 
BRANCH   2   3
ATOM      3  C   UNL     1      16.311 -17.910  28.575  1.00  0.00     0.000 C 
BRANCH   3   4
ATOM      4  C   UNL     1      15.551 -17.523  27.294  1.00  0.00     0.006 C 
BRANCH   4   5
ATOM      5  C   UNL     1      14.447 -16.473  27.516  1.00  0.00     0.053 C 
BRANCH   5   6
ATOM      6  C   UNL     1      13.337 -16.580  26.516  1.00  0.00     0.041 C 
ATOM      7  O   UNL     1      12.582 -15.596  26.296  1.00  0.00    -0.550 OA
ATOM      8  O   UNL     1      13.155 -17.758  25.803  1.00  0.00    -0.550 OA
ENDBRANCH   5   6
ENDBRANCH   4   5
ENDBRANCH   3   4
ENDBRANCH   2   3
ENDBRANCH   1   2
BRANCH   1   9
ATOM      9  C   UNL     1      15.154 -18.553  32.214  1.00  0.00     0.000 C 
BRANCH   9  10
ATOM     10  C   UNL     1      13.775 -17.927  31.951  1.00  0.00    -0.000 C 
BRANCH  10  11
ATOM     11  C   UNL     1      12.665 -18.563  32.803  1.00  0.00    -0.000 C 
BRANCH  11  12
ATOM     12  C   UNL     1      13.214 -19.731  33.636  1.00  0.00    -0.000 C 
BRANCH  12  13
ATOM     13  C   UNL     1      12.121 -20.732  34.040  1.00  0.00    -0.003 C 
ATOM     14  C   UNL     1      12.590 -21.719  35.109  1.00  0.00     0.004 C 
ENDBRANCH  12  13
ENDBRANCH  11  12
ENDBRANCH  10  11
ENDBRANCH   9  10
ENDBRANCH   1   9
TORSDOF 10
ENDMDL
MODEL 2
REMARK VINA RESULT:    -4.772      1.292      2.093
REMARK INTER + INTRA:          -8.076
REMARK INTER:                  -7.277
REMARK INTRA:                  -0.799
REMARK UNBOUND:                -0.514
REMARK SMILES CCCCCCCCCCCC(=O)[O-]
REMARK SMILES IDX 7 1 8 2 9 3 10 4 11 5 12 6 13 7 14 8 6 9 5 10 4 11 3 12 2 13
REMARK SMILES IDX 1 14
REMARK H PARENT
REMARK Flexibility Score: inf
ROOT
ATOM      1  C   UNL     1      16.532 -17.983  31.033  1.00  0.00     0.000 C 
ENDROOT
BRANCH   1   2
ATOM      2  C   UNL     1      15.596 -17.873  29.818  1.00  0.00     0.000 C 
BRANCH   2   3
ATOM      3  C   UNL     1      16.354 -17.943  28.481  1.00  0.00     0.000 C 
BRANCH   3   4
ATOM      4  C   UNL     1      15.453 -17.674  27.263  1.00  0.00     0.006 C 
BRANCH   4   5
ATOM      5  C   UNL     1      14.451 -16.524  27.469  1.00  0.00     0.053 C 
BRANCH   5   6
ATOM      6  C   UNL     1      13.309 -16.571  26.501  1.00  0.00     0.041 C 
ATOM      7  O   UNL     1      12.602 -15.548  26.302  1.00  0.00    -0.550 OA
ATOM      8  O   UNL     1      13.044 -17.737  25.794  1.00  0.00    -0.550 OA
ENDBRANCH   5   6
ENDBRANCH   4   5
ENDBRANCH   3   4
ENDBRANCH   2   3
ENDBRANCH   1   2
BRANCH   1   9
ATOM      9  C   UNL     1      16.028 -18.999  32.073  1.00  0.00     0.000 C 
BRANCH   9  10
ATOM     10  C   UNL     1      16.117 -18.465  33.512  1.00  0.00    -0.000 C 
BRANCH  10  11
ATOM     11  C   UNL     1      14.883 -18.825  34.354  1.00  0.00    -0.000 C 
BRANCH  11  12
ATOM     12  C   UNL     1      13.620 -18.877  33.481  1.00  0.00    -0.000 C 
BRANCH  12  13
ATOM     13  C   UNL     1      12.898 -17.523  33.407  1.00  0.00    -0.003 C 
ATOM     14  C   UNL     1      12.787 -16.989  31.978  1.00  0.00     0.004 C 
ENDBRANCH  12  13
ENDBRANCH  11  12
ENDBRANCH  10  11
ENDBRANCH   9  10
ENDBRANCH   1   9
TORSDOF 10
ENDMDL
MODEL 3
REMARK VINA RESULT:    -4.741     13.818     15.792
REMARK INTER + INTRA:          -8.027
REMARK INTER:                  -7.041
REMARK INTRA:                  -0.986
REMARK UNBOUND:                -0.514
REMARK SMILES CCCCCCCCCCCC(=O)[O-]
REMARK SMILES IDX 7 1 8 2 9 3 10 4 11 5 12 6 13 7 14 8 6 9 5 10 4 11 3 12 2 13
REMARK SMILES IDX 1 14
REMARK H PARENT
REMARK Flexibility Score: inf
ROOT
ATOM      1  C   UNL     1      26.465 -15.970  24.643  1.00  0.00     0.000 C 
ENDROOT
BRANCH   1   2
ATOM      2  C   UNL     1      26.622 -15.430  23.212  1.00  0.00     0.000 C 
BRANCH   2   3
ATOM      3  C   UNL     1      27.573 -16.287  22.359  1.00  0.00     0.000 C 
BRANCH   3   4
ATOM      4  C   UNL     1      27.611 -17.762  22.797  1.00  0.00     0.006 C 
BRANCH   4   5
ATOM      5  C   UNL     1      27.774 -18.755  21.632  1.00  0.00     0.053 C 
BRANCH   5   6
ATOM      6  C   UNL     1      29.068 -19.508  21.690  1.00  0.00     0.041 C 
ATOM      7  O   UNL     1      30.165 -18.893  21.641  1.00  0.00    -0.550 OA
ATOM      8  O   UNL     1      29.062 -20.891  21.831  1.00  0.00    -0.550 OA
ENDBRANCH   5   6
ENDBRANCH   4   5
ENDBRANCH   3   4
ENDBRANCH   2   3
ENDBRANCH   1   2
BRANCH   1   9
ATOM      9  C   UNL     1      25.239 -15.382  25.363  1.00  0.00     0.000 C 
BRANCH   9  10
ATOM     10  C   UNL     1      25.001 -13.904  25.013  1.00  0.00    -0.000 C 
BRANCH  10  11
ATOM     11  C   UNL     1      25.300 -12.962  26.190  1.00  0.00    -0.000 C 
BRANCH  11  12
ATOM     12  C   UNL     1      26.793 -12.607  26.242  1.00  0.00    -0.000 C 
BRANCH  12  13
ATOM     13  C   UNL     1      27.342 -12.163  24.877  1.00  0.00    -0.003 C 
ATOM     14  C   UNL     1      28.743 -12.708  24.598  1.00  0.00     0.004 C 
ENDBRANCH  12  13
ENDBRANCH  11  12
ENDBRANCH  10  11
ENDBRANCH   9  10
ENDBRANCH   1   9
TORSDOF 10
ENDMDL
MODEL 4
REMARK VINA RESULT:    -4.695     11.347     12.404
REMARK INTER + INTRA:          -7.953
REMARK INTER:                  -7.294
REMARK INTRA:                  -0.659
REMARK UNBOUND:                -0.514
REMARK SMILES CCCCCCCCCCCC(=O)[O-]
REMARK SMILES IDX 7 1 8 2 9 3 10 4 11 5 12 6 13 7 14 8 6 9 5 10 4 11 3 12 2 13
REMARK SMILES IDX 1 14
REMARK H PARENT
REMARK Flexibility Score: inf
ROOT
ATOM      1  C   UNL     1      22.579 -10.790  28.249  1.00  0.00     0.000 C 
ENDROOT
BRANCH   1   2
ATOM      2  C   UNL     1      24.049 -11.235  28.314  1.00  0.00     0.000 C 
BRANCH   2   3
ATOM      3  C   UNL     1      24.568 -11.758  26.963  1.00  0.00     0.000 C 
BRANCH   3   4
ATOM      4  C   UNL     1      24.642 -13.294  26.900  1.00  0.00     0.006 C 
BRANCH   4   5
ATOM      5  C   UNL     1      25.003 -13.845  25.509  1.00  0.00     0.053 C 
BRANCH   5   6
ATOM      6  C   UNL     1      25.054 -15.342  25.475  1.00  0.00     0.041 C 
ATOM      7  O   UNL     1      24.057 -16.020  25.839  1.00  0.00    -0.550 OA
ATOM      8  O   UNL     1      26.192 -15.989  25.010  1.00  0.00    -0.550 OA
ENDBRANCH   5   6
ENDBRANCH   4   5
ENDBRANCH   3   4
ENDBRANCH   2   3
ENDBRANCH   1   2
BRANCH   1   9
ATOM      9  C   UNL     1      22.344  -9.684  27.206  1.00  0.00     0.000 C 
BRANCH   9  10
ATOM     10  C   UNL     1      20.852  -9.396  26.975  1.00  0.00    -0.000 C 
BRANCH  10  11
ATOM     11  C   UNL     1      20.357  -8.173  27.762  1.00  0.00    -0.000 C 
BRANCH  11  12
ATOM     12  C   UNL     1      19.129  -8.529  28.612  1.00  0.00    -0.000 C 
BRANCH  12  13
ATOM     13  C   UNL     1      19.505  -9.007  30.023  1.00  0.00    -0.003 C 
ATOM     14  C   UNL     1      20.759  -8.321  30.565  1.00  0.00     0.004 C 
ENDBRANCH  12  13
ENDBRANCH  11  12
ENDBRANCH  10  11
ENDBRANCH   9  10
ENDBRANCH   1   9
TORSDOF 10
ENDMDL
MODEL 5
REMARK VINA RESULT:    -4.667     13.819     15.726
REMARK INTER + INTRA:          -7.909
REMARK INTER:                  -7.191
REMARK INTRA:                  -0.718
REMARK UNBOUND:                -0.514
REMARK SMILES CCCCCCCCCCCC(=O)[O-]
REMARK SMILES IDX 7 1 8 2 9 3 10 4 11 5 12 6 13 7 14 8 6 9 5 10 4 11 3 12 2 13
REMARK SMILES IDX 1 14
REMARK H PARENT
REMARK Flexibility Score: inf
ROOT
ATOM      1  C   UNL     1      26.958 -15.223  23.385  1.00  0.00     0.000 C 
ENDROOT
BRANCH   1   2
ATOM      2  C   UNL     1      26.382 -15.980  24.593  1.00  0.00     0.000 C 
BRANCH   2   3
ATOM      3  C   UNL     1      25.749 -15.039  25.632  1.00  0.00     0.000 C 
BRANCH   3   4
ATOM      4  C   UNL     1      25.165 -13.758  25.009  1.00  0.00     0.006 C 
BRANCH   4   5
ATOM      5  C   UNL     1      25.509 -12.474  25.784  1.00  0.00     0.053 C 
BRANCH   5   6
ATOM      6  C   UNL     1      26.974 -12.160  25.761  1.00  0.00     0.041 C 
ATOM      7  O   UNL     1      27.615 -12.040  26.838  1.00  0.00    -0.550 OA
ATOM      8  O   UNL     1      27.639 -12.030  24.548  1.00  0.00    -0.550 OA
ENDBRANCH   5   6
ENDBRANCH   4   5
ENDBRANCH   3   4
ENDBRANCH   2   3
ENDBRANCH   1   2
BRANCH   1   9
ATOM      9  C   UNL     1      27.592 -16.166  22.348  1.00  0.00     0.000 C 
BRANCH   9  10
ATOM     10  C   UNL     1      27.375 -17.650  22.687  1.00  0.00    -0.000 C 
BRANCH  10  11
ATOM     11  C   UNL     1      27.988 -18.592  21.639  1.00  0.00    -0.000 C 
BRANCH  11  12
ATOM     12  C   UNL     1      29.135 -19.414  22.246  1.00  0.00    -0.000 C 
BRANCH  12  13
ATOM     13  C   UNL     1      29.132 -19.387  23.782  1.00  0.00    -0.003 C 
ATOM     14  C   UNL     1      29.811 -20.611  24.397  1.00  0.00     0.004 C 
ENDBRANCH  12  13
ENDBRANCH  11  12
ENDBRANCH  10  11
ENDBRANCH   9  10
ENDBRANCH   1   9
TORSDOF 10
ENDMDL
MODEL 6
REMARK VINA RESULT:    -4.643     10.784     12.430
REMARK INTER + INTRA:          -7.872
REMARK INTER:                  -7.222
REMARK INTRA:                  -0.649
REMARK UNBOUND:                -0.514
REMARK SMILES CCCCCCCCCCCC(=O)[O-]
REMARK SMILES IDX 7 1 8 2 9 3 10 4 11 5 12 6 13 7 14 8 6 9 5 10 4 11 3 12 2 13
REMARK SMILES IDX 1 14
REMARK H PARENT
REMARK Flexibility Score: inf
ROOT
ATOM      1  C   UNL     1      22.608 -10.726  28.432  1.00  0.00     0.000 C 
ENDROOT
BRANCH   1   2
ATOM      2  C   UNL     1      22.412  -9.769  27.246  1.00  0.00     0.000 C 
BRANCH   2   3
ATOM      3  C   UNL     1      20.934  -9.406  27.018  1.00  0.00     0.000 C 
BRANCH   3   4
ATOM      4  C   UNL     1      20.459  -8.234  27.895  1.00  0.00     0.006 C 
BRANCH   4   5
ATOM      5  C   UNL     1      19.182  -8.535  28.700  1.00  0.00     0.053 C 
BRANCH   5   6
ATOM      6  C   UNL     1      19.444  -9.385  29.905  1.00  0.00     0.041 C 
ATOM      7  O   UNL     1      19.287 -10.633  29.849  1.00  0.00    -0.550 OA
ATOM      8  O   UNL     1      19.893  -8.802  31.084  1.00  0.00    -0.550 OA
ENDBRANCH   5   6
ENDBRANCH   4   5
ENDBRANCH   3   4
ENDBRANCH   2   3
ENDBRANCH   1   2
BRANCH   1   9
ATOM      9  C   UNL     1      23.308 -12.034  28.024  1.00  0.00     0.000 C 
BRANCH   9  10
ATOM     10  C   UNL     1      24.756 -11.809  27.558  1.00  0.00    -0.000 C 
BRANCH  10  11
ATOM     11  C   UNL     1      25.055 -12.482  26.209  1.00  0.00    -0.000 C 
BRANCH  11  12
ATOM     12  C   UNL     1      25.814 -13.801  26.410  1.00  0.00    -0.000 C 
BRANCH  12  13
ATOM     13  C   UNL     1      25.247 -14.945  25.556  1.00  0.00    -0.003 C 
ATOM     14  C   UNL     1      23.826 -15.339  25.961  1.00  0.00     0.004 C 
ENDBRANCH  12  13
ENDBRANCH  11  12
ENDBRANCH  10  11
ENDBRANCH   9  10
ENDBRANCH   1   9
TORSDOF 10
ENDMDL
MODEL 7
REMARK VINA RESULT:    -4.594      3.685      6.901
REMARK INTER + INTRA:          -7.793
REMARK INTER:                  -7.189
REMARK INTRA:                  -0.604
REMARK UNBOUND:                -0.514
REMARK SMILES CCCCCCCCCCCC(=O)[O-]
REMARK SMILES IDX 7 1 8 2 9 3 10 4 11 5 12 6 13 7 14 8 6 9 5 10 4 11 3 12 2 13
REMARK SMILES IDX 1 14
REMARK H PARENT
REMARK Flexibility Score: inf
ROOT
ATOM      1  C   UNL     1      16.314 -18.191  30.997  1.00  0.00     0.000 C 
ENDROOT
BRANCH   1   2
ATOM      2  C   UNL     1      15.338 -18.532  32.135  1.00  0.00     0.000 C 
BRANCH   2   3
ATOM      3  C   UNL     1      13.918 -18.001  31.873  1.00  0.00     0.000 C 
BRANCH   3   4
ATOM      4  C   UNL     1      13.018 -18.048  33.121  1.00  0.00     0.006 C 
BRANCH   4   5
ATOM      5  C   UNL     1      12.230 -19.361  33.274  1.00  0.00     0.053 C 
BRANCH   5   6
ATOM      6  C   UNL     1      12.837 -20.286  34.284  1.00  0.00     0.041 C 
ATOM      7  O   UNL     1      13.819 -19.913  34.979  1.00  0.00    -0.550 OA
ATOM      8  O   UNL     1      12.297 -21.551  34.482  1.00  0.00    -0.550 OA
ENDBRANCH   5   6
ENDBRANCH   4   5
ENDBRANCH   3   4
ENDBRANCH   2   3
ENDBRANCH   1   2
BRANCH   1   9
ATOM      9  C   UNL     1      15.603 -17.586  29.774  1.00  0.00     0.000 C 
BRANCH   9  10
ATOM     10  C   UNL     1      16.317 -17.917  28.453  1.00  0.00    -0.000 C 
BRANCH  10  11
ATOM     11  C   UNL     1      15.601 -17.323  27.229  1.00  0.00    -0.000 C 
BRANCH  11  12
ATOM     12  C   UNL     1      14.421 -16.440  27.660  1.00  0.00    -0.000 C 
BRANCH  12  13
ATOM     13  C   UNL     1      13.392 -16.241  26.536  1.00  0.00    -0.003 C 
ATOM     14  C   UNL     1      13.018 -17.548  25.837  1.00  0.00     0.004 C 
ENDBRANCH  12  13
ENDBRANCH  11  12
ENDBRANCH  10  11
ENDBRANCH   9  10
ENDBRANCH   1   9
TORSDOF 10
ENDMDL
MODEL 8
REMARK VINA RESULT:    -4.589     13.663     15.805
REMARK INTER + INTRA:          -7.786
REMARK INTER:                  -6.853
REMARK INTRA:                  -0.933
REMARK UNBOUND:                -0.514
REMARK SMILES CCCCCCCCCCCC(=O)[O-]
REMARK SMILES IDX 7 1 8 2 9 3 10 4 11 5 12 6 13 7 14 8 6 9 5 10 4 11 3 12 2 13
REMARK SMILES IDX 1 14
REMARK H PARENT
REMARK Flexibility Score: inf
ROOT
ATOM      1  C   UNL     1      25.267 -15.384  25.357  1.00  0.00     0.000 C 
ENDROOT
BRANCH   1   2
ATOM      2  C   UNL     1      26.498 -15.955  24.635  1.00  0.00     0.000 C 
BRANCH   2   3
ATOM      3  C   UNL     1      26.506 -15.626  23.132  1.00  0.00     0.000 C 
BRANCH   3   4
ATOM      4  C   UNL     1      27.641 -16.330  22.367  1.00  0.00     0.006 C 
BRANCH   4   5
ATOM      5  C   UNL     1      27.504 -17.863  22.319  1.00  0.00     0.053 C 
BRANCH   5   6
ATOM      6  C   UNL     1      28.748 -18.568  22.764  1.00  0.00     0.041 C 
ATOM      7  O   UNL     1      28.765 -19.204  23.851  1.00  0.00    -0.550 OA
ATOM      8  O   UNL     1      29.883 -18.551  21.962  1.00  0.00    -0.550 OA
ENDBRANCH   5   6
ENDBRANCH   4   5
ENDBRANCH   3   4
ENDBRANCH   2   3
ENDBRANCH   1   2
BRANCH   1   9
ATOM      9  C   UNL     1      25.005 -13.911  24.997  1.00  0.00     0.000 C 
BRANCH   9  10
ATOM     10  C   UNL     1      25.321 -12.954  26.158  1.00  0.00    -0.000 C 
BRANCH  10  11
ATOM     11  C   UNL     1      26.725 -12.339  26.054  1.00  0.00    -0.000 C 
BRANCH  11  12
ATOM     12  C   UNL     1      27.211 -12.328  24.597  1.00  0.00    -0.000 C 
BRANCH  12  13
ATOM     13  C   UNL     1      28.743 -12.331  24.486  1.00  0.00    -0.003 C 
ATOM     14  C   UNL     1      29.432 -11.931  25.791  1.00  0.00     0.004 C 
ENDBRANCH  12  13
ENDBRANCH  11  12
ENDBRANCH  10  11
ENDBRANCH   9  10
ENDBRANCH   1   9
TORSDOF 10
ENDMDL
MODEL 9
REMARK VINA RESULT:    -4.560     11.108     13.013
REMARK INTER + INTRA:          -7.739
REMARK INTER:                  -6.929
REMARK INTRA:                  -0.810
REMARK UNBOUND:                -0.514
REMARK SMILES CCCCCCCCCCCC(=O)[O-]
REMARK SMILES IDX 7 1 8 2 9 3 10 4 11 5 12 6 13 7 14 8 6 9 5 10 4 11 3 12 2 13
REMARK SMILES IDX 1 14
REMARK H PARENT
REMARK Flexibility Score: inf
ROOT
ATOM      1  C   UNL     1      25.674 -11.887  27.945  1.00  0.00     0.000 C 
ENDROOT
BRANCH   1   2
ATOM      2  C   UNL     1      24.256 -11.908  27.352  1.00  0.00     0.000 C 
BRANCH   2   3
ATOM      3  C   UNL     1      23.229 -11.198  28.251  1.00  0.00     0.000 C 
BRANCH   3   4
ATOM      4  C   UNL     1      22.395 -10.146  27.499  1.00  0.00     0.006 C 
BRANCH   4   5
ATOM      5  C   UNL     1      21.890  -8.996  28.389  1.00  0.00     0.053 C 
BRANCH   5   6
ATOM      6  C   UNL     1      20.551  -9.281  28.997  1.00  0.00     0.041 C 
ATOM      7  O   UNL     1      19.813 -10.182  28.518  1.00  0.00    -0.550 OA
ATOM      8  O   UNL     1      20.130  -8.571  30.115  1.00  0.00    -0.550 OA
ENDBRANCH   5   6
ENDBRANCH   4   5
ENDBRANCH   3   4
ENDBRANCH   2   3
ENDBRANCH   1   2
BRANCH   1   9
ATOM      9  C   UNL     1      26.755 -12.202  26.896  1.00  0.00     0.000 C 
BRANCH   9  10
ATOM     10  C   UNL     1      26.162 -12.543  25.520  1.00  0.00    -0.000 C 
BRANCH  10  11
ATOM     11  C   UNL     1      26.722 -13.852  24.942  1.00  0.00    -0.000 C 
BRANCH  11  12
ATOM     12  C   UNL     1      25.904 -15.058  25.424  1.00  0.00    -0.000 C 
BRANCH  12  13
ATOM     13  C   UNL     1      24.398 -14.888  25.175  1.00  0.00    -0.003 C 
ATOM     14  C   UNL     1      23.544 -15.767  26.090  1.00  0.00     0.004 C 
ENDBRANCH  12  13
ENDBRANCH  11  12
ENDBRANCH  10  11
ENDBRANCH   9  10
ENDBRANCH   1   9
TORSDOF 10
ENDMDL
