MODEL 1
REMARK VINA RESULT:    -5.533      0.000      0.000
REMARK INTER + INTRA:          -5.694
REMARK INTER:                  -5.694
REMARK INTRA:                   0.000
REMARK UNBOUND:                 0.000
REMARK SMILES O=c1ccc2ccc(O)cc2o1
REMARK SMILES IDX 6 1 7 2 8 3 10 4 11 5 5 6 4 7 3 8 2 9 1 10 12 11 9 12
REMARK H PARENT 9 13
REMARK Flexibility Score: inf
ROOT
ATOM      1  C   UNL     1      31.466  31.271  15.748  1.00  0.00     0.016 A 
ATOM      2  C   UNL     1      30.270  31.911  15.404  1.00  0.00     0.047 A 
ATOM      3  C   UNL     1      29.336  31.271  14.581  1.00  0.00     0.119 A 
ATOM      4  C   UNL     1      29.598  29.981  14.098  1.00  0.00     0.094 A 
ATOM      5  C   UNL     1      30.789  29.332  14.437  1.00  0.00     0.142 A 
ATOM      6  C   UNL     1      31.731  29.981  15.268  1.00  0.00     0.018 A 
ATOM      7  C   UNL     1      32.913  29.307  15.589  1.00  0.00     0.019 A 
ATOM      8  C   UNL     1      33.128  28.025  15.085  1.00  0.00     0.094 A 
ATOM      9  C   UNL     1      32.152  27.444  14.268  1.00  0.00     0.336 A 
ATOM     10  O   UNL     1      32.329  26.288  13.803  1.00  0.00    -0.246 OA
ATOM     11  O   UNL     1      31.035  28.107  13.978  1.00  0.00    -0.423 OA
ENDROOT
BRANCH   3  12
ATOM     12  O   UNL     1      28.152  31.926  14.250  1.00  0.00    -0.508 OA
ATOM     13  H   UNL     1      27.819  32.721  14.783  1.00  0.00     0.293 HD
ENDBRANCH   3  12
TORSDOF 1
ENDMDL
MODEL 2
REMARK VINA RESULT:    -5.360      1.899      3.894
REMARK INTER + INTRA:          -5.516
REMARK INTER:                  -5.516
REMARK INTRA:                   0.000
REMARK UNBOUND:                 0.000
REMARK SMILES O=c1ccc2ccc(O)cc2o1
REMARK SMILES IDX 6 1 7 2 8 3 10 4 11 5 5 6 4 7 3 8 2 9 1 10 12 11 9 12
REMARK H PARENT 9 13
REMARK Flexibility Score: inf
ROOT
ATOM      1  C   UNL     1      30.092  31.374  15.825  1.00  0.00     0.016 A 
ATOM      2  C   UNL     1      31.330  30.931  16.302  1.00  0.00     0.047 A 
ATOM      3  C   UNL     1      31.966  29.835  15.707  1.00  0.00     0.119 A 
ATOM      4  C   UNL     1      31.361  29.177  14.627  1.00  0.00     0.094 A 
ATOM      5  C   UNL     1      30.124  29.613  14.142  1.00  0.00     0.142 A 
ATOM      6  C   UNL     1      29.484  30.719  14.744  1.00  0.00     0.018 A 
ATOM      7  C   UNL     1      28.248  31.132  14.238  1.00  0.00     0.019 A 
ATOM      8  C   UNL     1      27.686  30.447  13.162  1.00  0.00     0.094 A 
ATOM      9  C   UNL     1      28.376  29.359  12.615  1.00  0.00     0.336 A 
ATOM     10  O   UNL     1      27.884  28.727  11.644  1.00  0.00    -0.246 OA
ATOM     11  O   UNL     1      29.552  28.987  13.116  1.00  0.00    -0.423 OA
ENDROOT
BRANCH   3  12
ATOM     12  O   UNL     1      33.198  29.409  16.197  1.00  0.00    -0.508 OA
ATOM     13  H   UNL     1      33.424  28.424  16.279  1.00  0.00     0.293 HD
ENDBRANCH   3  12
TORSDOF 1
ENDMDL
MODEL 3
REMARK VINA RESULT:    -5.291      1.146      1.490
REMARK INTER + INTRA:          -5.446
REMARK INTER:                  -5.446
REMARK INTRA:                   0.000
REMARK UNBOUND:                 0.000
REMARK SMILES O=c1ccc2ccc(O)cc2o1
REMARK SMILES IDX 6 1 7 2 8 3 10 4 11 5 5 6 4 7 3 8 2 9 1 10 12 11 9 12
REMARK H PARENT 9 13
REMARK Flexibility Score: inf
ROOT
ATOM      1  C   UNL     1      29.715  31.436  15.222  1.00  0.00     0.016 A 
ATOM      2  C   UNL     1      28.464  31.376  14.599  1.00  0.00     0.047 A 
ATOM      3  C   UNL     1      28.142  30.302  13.760  1.00  0.00     0.119 A 
ATOM      4  C   UNL     1      29.077  29.279  13.544  1.00  0.00     0.094 A 
ATOM      5  C   UNL     1      30.330  29.330  14.164  1.00  0.00     0.142 A 
ATOM      6  C   UNL     1      30.652  30.415  15.009  1.00  0.00     0.018 A 
ATOM      7  C   UNL     1      31.912  30.438  15.615  1.00  0.00     0.019 A 
ATOM      8  C   UNL     1      32.808  29.398  15.369  1.00  0.00     0.094 A 
ATOM      9  C   UNL     1      32.421  28.355  14.520  1.00  0.00     0.336 A 
ATOM     10  O   UNL     1      33.217  27.408  14.286  1.00  0.00    -0.246 OA
ATOM     11  O   UNL     1      31.215  28.358  13.957  1.00  0.00    -0.423 OA
ENDROOT
BRANCH   3  12
ATOM     12  O   UNL     1      26.891  30.260  13.149  1.00  0.00    -0.508 OA
ATOM     13  H   UNL     1      26.531  29.407  12.736  1.00  0.00     0.293 HD
ENDBRANCH   3  12
TORSDOF 1
ENDMDL
MODEL 4
REMARK VINA RESULT:    -5.267      1.670      4.744
REMARK INTER + INTRA:          -5.421
REMARK INTER:                  -5.421
REMARK INTRA:                   0.000
REMARK UNBOUND:                 0.000
REMARK SMILES O=c1ccc2ccc(O)cc2o1
REMARK SMILES IDX 6 1 7 2 8 3 10 4 11 5 5 6 4 7 3 8 2 9 1 10 12 11 9 12
REMARK H PARENT 9 13
REMARK Flexibility Score: inf
ROOT
ATOM      1  C   UNL     1      30.735  27.897  14.535  1.00  0.00     0.016 A 
ATOM      2  C   UNL     1      31.920  27.156  14.597  1.00  0.00     0.047 A 
ATOM      3  C   UNL     1      33.140  27.791  14.856  1.00  0.00     0.119 A 
ATOM      4  C   UNL     1      33.176  29.179  15.058  1.00  0.00     0.094 A 
ATOM      5  C   UNL     1      31.997  29.929  14.999  1.00  0.00     0.142 A 
ATOM      6  C   UNL     1      30.768  29.284  14.736  1.00  0.00     0.018 A 
ATOM      7  C   UNL     1      29.606  30.060  14.683  1.00  0.00     0.019 A 
ATOM      8  C   UNL     1      29.692  31.436  14.890  1.00  0.00     0.094 A 
ATOM      9  C   UNL     1      30.945  32.007  15.145  1.00  0.00     0.336 A 
ATOM     10  O   UNL     1      31.042  33.248  15.333  1.00  0.00    -0.246 OA
ATOM     11  O   UNL     1      32.035  31.245  15.190  1.00  0.00    -0.423 OA
ENDROOT
BRANCH   3  12
ATOM     12  O   UNL     1      34.308  27.035  14.914  1.00  0.00    -0.508 OA
ATOM     13  H   UNL     1      35.053  27.259  15.564  1.00  0.00     0.293 HD
ENDBRANCH   3  12
TORSDOF 1
ENDMDL
MODEL 5
REMARK VINA RESULT:    -5.195      1.449      4.072
REMARK INTER + INTRA:          -5.347
REMARK INTER:                  -5.347
REMARK INTRA:                   0.000
REMARK UNBOUND:                 0.000
REMARK SMILES O=c1ccc2ccc(O)cc2o1
REMARK SMILES IDX 6 1 7 2 8 3 10 4 11 5 5 6 4 7 3 8 2 9 1 10 12 11 9 12
REMARK H PARENT 9 13
REMARK Flexibility Score: inf
ROOT
ATOM      1  C   UNL     1      31.777  30.765  15.642  1.00  0.00     0.016 A 
ATOM      2  C   UNL     1      32.814  29.827  15.621  1.00  0.00     0.047 A 
ATOM      3  C   UNL     1      32.643  28.597  14.974  1.00  0.00     0.119 A 
ATOM      4  C   UNL     1      31.426  28.303  14.343  1.00  0.00     0.094 A 
ATOM      5  C   UNL     1      30.383  29.235  14.358  1.00  0.00     0.142 A 
ATOM      6  C   UNL     1      30.559  30.475  15.012  1.00  0.00     0.018 A 
ATOM      7  C   UNL     1      29.499  31.387  15.010  1.00  0.00     0.019 A 
ATOM      8  C   UNL     1      28.307  31.049  14.369  1.00  0.00     0.094 A 
ATOM      9  C   UNL     1      28.204  29.802  13.741  1.00  0.00     0.336 A 
ATOM     10  O   UNL     1      27.136  29.480  13.158  1.00  0.00    -0.246 OA
ATOM     11  O   UNL     1      29.229  28.954  13.757  1.00  0.00    -0.423 OA
ENDROOT
BRANCH   3  12
ATOM     12  O   UNL     1      33.688  27.676  14.964  1.00  0.00    -0.508 OA
ATOM     13  H   UNL     1      34.046  27.291  14.098  1.00  0.00     0.293 HD
ENDBRANCH   3  12
TORSDOF 1
ENDMDL
MODEL 6
REMARK VINA RESULT:    -5.129      2.498      3.862
REMARK INTER + INTRA:          -5.279
REMARK INTER:                  -5.279
REMARK INTRA:                   0.000
REMARK UNBOUND:                 0.000
REMARK SMILES O=c1ccc2ccc(O)cc2o1
REMARK SMILES IDX 6 1 7 2 8 3 10 4 11 5 5 6 4 7 3 8 2 9 1 10 12 11 9 12
REMARK H PARENT 9 13
REMARK Flexibility Score: inf
ROOT
ATOM      1  C   UNL     1      29.574  28.153  14.256  1.00  0.00     0.016 A 
ATOM      2  C   UNL     1      28.298  27.965  13.715  1.00  0.00     0.047 A 
ATOM      3  C   UNL     1      27.459  29.062  13.482  1.00  0.00     0.119 A 
ATOM      4  C   UNL     1      27.900  30.357  13.790  1.00  0.00     0.094 A 
ATOM      5  C   UNL     1      29.175  30.555  14.330  1.00  0.00     0.142 A 
ATOM      6  C   UNL     1      30.019  29.446  14.565  1.00  0.00     0.018 A 
ATOM      7  C   UNL     1      31.288  29.675  15.105  1.00  0.00     0.019 A 
ATOM      8  C   UNL     1      31.682  30.981  15.395  1.00  0.00     0.094 A 
ATOM      9  C   UNL     1      30.793  32.031  15.137  1.00  0.00     0.336 A 
ATOM     10  O   UNL     1      31.132  33.216  15.393  1.00  0.00    -0.246 OA
ATOM     11  O   UNL     1      29.592  31.785  14.621  1.00  0.00    -0.423 OA
ENDROOT
BRANCH   3  12
ATOM     12  O   UNL     1      26.192  28.854  12.944  1.00  0.00    -0.508 OA
ATOM     13  H   UNL     1      26.033  28.173  12.209  1.00  0.00     0.293 HD
ENDBRANCH   3  12
TORSDOF 1
ENDMDL
MODEL 7
REMARK VINA RESULT:    -5.010      1.472      2.279
REMARK INTER + INTRA:          -5.156
REMARK INTER:                  -5.156
REMARK INTRA:                   0.000
REMARK UNBOUND:                 0.000
REMARK SMILES O=c1ccc2ccc(O)cc2o1
REMARK SMILES IDX 6 1 7 2 8 3 10 4 11 5 5 6 4 7 3 8 2 9 1 10 12 11 9 12
REMARK H PARENT 9 13
REMARK Flexibility Score: inf
ROOT
ATOM      1  C   UNL     1      28.952  30.437  14.749  1.00  0.00     0.016 A 
ATOM      2  C   UNL     1      29.441  31.734  14.935  1.00  0.00     0.047 A 
ATOM      3  C   UNL     1      30.818  31.962  15.045  1.00  0.00     0.119 A 
ATOM      4  C   UNL     1      31.713  30.885  14.966  1.00  0.00     0.094 A 
ATOM      5  C   UNL     1      31.234  29.585  14.779  1.00  0.00     0.142 A 
ATOM      6  C   UNL     1      29.843  29.358  14.669  1.00  0.00     0.018 A 
ATOM      7  C   UNL     1      29.394  28.048  14.482  1.00  0.00     0.019 A 
ATOM      8  C   UNL     1      30.322  27.010  14.410  1.00  0.00     0.094 A 
ATOM      9  C   UNL     1      31.684  27.309  14.528  1.00  0.00     0.336 A 
ATOM     10  O   UNL     1      32.537  26.385  14.466  1.00  0.00    -0.246 OA
ATOM     11  O   UNL     1      32.085  28.565  14.704  1.00  0.00    -0.423 OA
ENDROOT
BRANCH   3  12
ATOM     12  O   UNL     1      31.286  33.261  15.230  1.00  0.00    -0.508 OA
ATOM     13  H   UNL     1      32.163  33.446  15.704  1.00  0.00     0.293 HD
ENDBRANCH   3  12
TORSDOF 1
ENDMDL
MODEL 8
REMARK VINA RESULT:    -4.971      2.175      3.218
REMARK INTER + INTRA:          -5.117
REMARK INTER:                  -5.117
REMARK INTRA:                   0.000
REMARK UNBOUND:                 0.000
REMARK SMILES O=c1ccc2ccc(O)cc2o1
REMARK SMILES IDX 6 1 7 2 8 3 10 4 11 5 5 6 4 7 3 8 2 9 1 10 12 11 9 12
REMARK H PARENT 9 13
REMARK Flexibility Score: inf
ROOT
ATOM      1  C   UNL     1      31.697  29.554  15.010  1.00  0.00     0.016 A 
ATOM      2  C   UNL     1      31.910  30.919  15.233  1.00  0.00     0.047 A 
ATOM      3  C   UNL     1      30.856  31.830  15.099  1.00  0.00     0.119 A 
ATOM      4  C   UNL     1      29.578  31.375  14.742  1.00  0.00     0.094 A 
ATOM      5  C   UNL     1      29.355  30.013  14.518  1.00  0.00     0.142 A 
ATOM      6  C   UNL     1      30.421  29.095  14.653  1.00  0.00     0.018 A 
ATOM      7  C   UNL     1      30.168  27.739  14.423  1.00  0.00     0.019 A 
ATOM      8  C   UNL     1      28.882  27.334  14.069  1.00  0.00     0.094 A 
ATOM      9  C   UNL     1      27.874  28.299  13.953  1.00  0.00     0.336 A 
ATOM     10  O   UNL     1      26.707  27.952  13.634  1.00  0.00    -0.246 OA
ATOM     11  O   UNL     1      28.143  29.583  14.179  1.00  0.00    -0.423 OA
ENDROOT
BRANCH   3  12
ATOM     12  O   UNL     1      31.088  33.185  15.325  1.00  0.00    -0.508 OA
ATOM     13  H   UNL     1      32.000  33.527  15.605  1.00  0.00     0.293 HD
ENDBRANCH   3  12
TORSDOF 1
ENDMDL
MODEL 9
REMARK VINA RESULT:    -4.969      1.876      4.627
REMARK INTER + INTRA:          -5.114
REMARK INTER:                  -5.114
REMARK INTRA:                   0.000
REMARK UNBOUND:                 0.000
REMARK SMILES O=c1ccc2ccc(O)cc2o1
REMARK SMILES IDX 6 1 7 2 8 3 10 4 11 5 5 6 4 7 3 8 2 9 1 10 12 11 9 12
REMARK H PARENT 9 13
REMARK Flexibility Score: inf
ROOT
ATOM      1  C   UNL     1      31.177  28.720  12.836  1.00  0.00     0.016 A 
ATOM      2  C   UNL     1      32.355  27.982  12.680  1.00  0.00     0.047 A 
ATOM      3  C   UNL     1      33.339  28.002  13.675  1.00  0.00     0.119 A 
ATOM      4  C   UNL     1      33.145  28.765  14.835  1.00  0.00     0.094 A 
ATOM      5  C   UNL     1      31.970  29.505  15.001  1.00  0.00     0.142 A 
ATOM      6  C   UNL     1      30.978  29.483  13.995  1.00  0.00     0.018 A 
ATOM      7  C   UNL     1      29.814  30.233  14.188  1.00  0.00     0.019 A 
ATOM      8  C   UNL     1      29.666  30.976  15.359  1.00  0.00     0.094 A 
ATOM      9  C   UNL     1      30.691  30.951  16.313  1.00  0.00     0.336 A 
ATOM     10  O   UNL     1      30.575  31.616  17.375  1.00  0.00    -0.246 OA
ATOM     11  O   UNL     1      31.788  30.228  16.103  1.00  0.00    -0.423 OA
ENDROOT
BRANCH   3  12
ATOM     12  O   UNL     1      34.506  27.261  13.501  1.00  0.00    -0.508 OA
ATOM     13  H   UNL     1      35.315  27.649  13.030  1.00  0.00     0.293 HD
ENDBRANCH   3  12
TORSDOF 1
ENDMDL
