MODEL 1
REMARK VINA RESULT:    -3.627      0.000      0.000
REMARK INTER + INTRA:          -3.733
REMARK INTER:                  -3.733
REMARK INTRA:                   0.000
REMARK UNBOUND:                 0.000
REMARK SMILES CC1(C)[C@H]2CC[C@](C)(C2)[C@@H]1O
REMARK SMILES IDX 1 1 2 2 4 3 5 4 6 5 7 6 9 7 10 8 8 9 3 10 11 11
REMARK H PARENT 11 12
REMARK Flexibility Score: inf
ROOT
ATOM      1  C   UNL     1     133.097 135.253 143.596  1.00  0.00     0.014 C 
ATOM      2  C   UNL     1     132.628 136.402 144.523  1.00  0.00    -0.006 C 
ATOM      3  C   UNL     1     133.407 136.469 145.881  1.00  0.00    -0.002 C 
ATOM      4  C   UNL     1     134.933 136.394 145.658  1.00  0.00     0.005 C 
ATOM      5  C   UNL     1     135.241 137.728 144.963  1.00  0.00     0.010 C 
ATOM      6  C   UNL     1     133.871 138.444 144.974  1.00  0.00    -0.006 C 
ATOM      7  C   UNL     1     133.269 137.933 146.264  1.00  0.00     0.013 C 
ATOM      8  C   UNL     1     132.957 137.802 143.897  1.00  0.00     0.126 C 
ATOM      9  C   UNL     1     133.987 139.973 144.896  1.00  0.00     0.014 C 
ATOM     10  C   UNL     1     131.116 136.184 144.799  1.00  0.00     0.014 C 
ENDROOT
BRANCH   8  11
ATOM     11  O   UNL     1     131.801 138.581 143.702  1.00  0.00    -0.392 OA
ATOM     12  H   UNL     1     131.773 139.237 144.446  1.00  0.00     0.211 HD
ENDBRANCH   8  11
TORSDOF 1
ENDMDL
MODEL 2
REMARK VINA RESULT:    -3.607     10.373     11.903
REMARK INTER + INTRA:          -3.713
REMARK INTER:                  -3.713
REMARK INTRA:                   0.000
REMARK UNBOUND:                 0.000
REMARK SMILES CC1(C)[C@H]2CC[C@](C)(C2)[C@@H]1O
REMARK SMILES IDX 1 1 2 2 4 3 5 4 6 5 7 6 9 7 10 8 8 9 3 10 11 11
REMARK H PARENT 11 12
REMARK Flexibility Score: inf
ROOT
ATOM      1  C   UNL     1     135.385 148.367 143.598  1.00  0.00     0.014 C 
ATOM      2  C   UNL     1     136.515 148.886 144.523  1.00  0.00    -0.006 C 
ATOM      3  C   UNL     1     136.590 148.138 145.898  1.00  0.00    -0.002 C 
ATOM      4  C   UNL     1     136.554 146.607 145.710  1.00  0.00     0.005 C 
ATOM      5  C   UNL     1     137.901 146.317 145.031  1.00  0.00     0.010 C 
ATOM      6  C   UNL     1     138.583 147.704 145.018  1.00  0.00    -0.006 C 
ATOM      7  C   UNL     1     138.046 148.322 146.290  1.00  0.00     0.013 C 
ATOM      8  C   UNL     1     137.927 148.578 143.916  1.00  0.00     0.126 C 
ATOM      9  C   UNL     1     140.114 147.625 144.954  1.00  0.00     0.014 C 
ATOM     10  C   UNL     1     136.257 150.397 144.764  1.00  0.00     0.014 C 
ENDROOT
BRANCH   8  11
ATOM     11  O   UNL     1     138.679 149.748 143.701  1.00  0.00    -0.392 OA
ATOM     12  H   UNL     1     138.072 150.398 143.261  1.00  0.00     0.211 HD
ENDBRANCH   8  11
TORSDOF 1
ENDMDL
MODEL 3
REMARK VINA RESULT:    -3.603     10.207     11.759
REMARK INTER + INTRA:          -3.709
REMARK INTER:                  -3.709
REMARK INTRA:                   0.000
REMARK UNBOUND:                 0.000
REMARK SMILES CC1(C)[C@H]2CC[C@](C)(C2)[C@@H]1O
REMARK SMILES IDX 1 1 2 2 4 3 5 4 6 5 7 6 9 7 10 8 8 9 3 10 11 11
REMARK H PARENT 11 12
REMARK Flexibility Score: inf
ROOT
ATOM      1  C   UNL     1     146.193 133.198 143.665  1.00  0.00     0.014 C 
ATOM      2  C   UNL     1     145.049 132.684 144.575  1.00  0.00    -0.006 C 
ATOM      3  C   UNL     1     144.948 133.444 145.941  1.00  0.00    -0.002 C 
ATOM      4  C   UNL     1     144.981 134.974 145.739  1.00  0.00     0.005 C 
ATOM      5  C   UNL     1     143.645 135.253 145.034  1.00  0.00     0.010 C 
ATOM      6  C   UNL     1     142.968 133.862 145.022  1.00  0.00    -0.006 C 
ATOM      7  C   UNL     1     143.485 133.259 146.309  1.00  0.00     0.013 C 
ATOM      8  C   UNL     1     143.647 132.980 143.940  1.00  0.00     0.126 C 
ATOM      9  C   UNL     1     141.438 133.935 144.931  1.00  0.00     0.014 C 
ATOM     10  C   UNL     1     145.309 131.176 144.834  1.00  0.00     0.014 C 
ENDROOT
BRANCH   8  11
ATOM     11  O   UNL     1     142.903 131.806 143.723  1.00  0.00    -0.392 OA
ATOM     12  H   UNL     1     142.194 131.788 144.417  1.00  0.00     0.211 HD
ENDBRANCH   8  11
TORSDOF 1
ENDMDL
MODEL 4
REMARK VINA RESULT:    -3.594     14.903     16.733
REMARK INTER + INTRA:          -3.699
REMARK INTER:                  -3.699
REMARK INTRA:                   0.000
REMARK UNBOUND:                 0.000
REMARK SMILES CC1(C)[C@H]2CC[C@](C)(C2)[C@@H]1O
REMARK SMILES IDX 1 1 2 2 4 3 5 4 6 5 7 6 9 7 10 8 8 9 3 10 11 11
REMARK H PARENT 11 12
REMARK Flexibility Score: inf
ROOT
ATOM      1  C   UNL     1     148.344 146.188 143.616  1.00  0.00     0.014 C 
ATOM      2  C   UNL     1     148.867 145.067 144.548  1.00  0.00    -0.006 C 
ATOM      3  C   UNL     1     148.095 144.974 145.909  1.00  0.00    -0.002 C 
ATOM      4  C   UNL     1     146.567 144.983 145.692  1.00  0.00     0.005 C 
ATOM      5  C   UNL     1     146.314 143.632 145.006  1.00  0.00     0.010 C 
ATOM      6  C   UNL     1     147.715 142.976 145.017  1.00  0.00    -0.006 C 
ATOM      7  C   UNL     1     148.298 143.521 146.300  1.00  0.00     0.013 C 
ATOM      8  C   UNL     1     148.597 143.650 143.932  1.00  0.00     0.126 C 
ATOM      9  C   UNL     1     147.665 141.443 144.948  1.00  0.00     0.014 C 
ATOM     10  C   UNL     1     150.368 145.352 144.817  1.00  0.00     0.014 C 
ENDROOT
BRANCH   8  11
ATOM     11  O   UNL     1     149.784 142.920 143.737  1.00  0.00    -0.392 OA
ATOM     12  H   UNL     1     150.415 143.527 143.270  1.00  0.00     0.211 HD
ENDBRANCH   8  11
TORSDOF 1
ENDMDL
MODEL 5
REMARK VINA RESULT:    -3.590     10.066     11.332
REMARK INTER + INTRA:          -3.695
REMARK INTER:                  -3.695
REMARK INTRA:                   0.000
REMARK UNBOUND:                 0.000
REMARK SMILES CC1(C)[C@H]2CC[C@](C)(C2)[C@@H]1O
REMARK SMILES IDX 1 1 2 2 4 3 5 4 6 5 7 6 9 7 10 8 8 9 3 10 11 11
REMARK H PARENT 11 12
REMARK Flexibility Score: inf
ROOT
ATOM      1  C   UNL     1     140.017 145.995 145.249  1.00  0.00     0.014 C 
ATOM      2  C   UNL     1     138.667 146.447 144.640  1.00  0.00    -0.006 C 
ATOM      3  C   UNL     1     137.477 146.411 145.659  1.00  0.00    -0.002 C 
ATOM      4  C   UNL     1     137.854 147.098 146.989  1.00  0.00     0.005 C 
ATOM      5  C   UNL     1     137.980 148.575 146.585  1.00  0.00     0.010 C 
ATOM      6  C   UNL     1     137.551 148.560 145.099  1.00  0.00    -0.006 C 
ATOM      7  C   UNL     1     136.526 147.448 145.087  1.00  0.00     0.013 C 
ATOM      8  C   UNL     1     138.704 147.964 144.247  1.00  0.00     0.126 C 
ATOM      9  C   UNL     1     137.019 149.914 144.610  1.00  0.00     0.014 C 
ATOM     10  C   UNL     1     138.360 145.503 143.446  1.00  0.00     0.014 C 
ENDROOT
BRANCH   8  11
ATOM     11  O   UNL     1     138.460 148.165 142.876  1.00  0.00    -0.392 OA
ATOM     12  H   UNL     1     137.621 148.691 142.812  1.00  0.00     0.211 HD
ENDBRANCH   8  11
TORSDOF 1
ENDMDL
MODEL 6
REMARK VINA RESULT:    -3.588      1.267      3.224
REMARK INTER + INTRA:          -3.693
REMARK INTER:                  -3.693
REMARK INTRA:                   0.000
REMARK UNBOUND:                 0.000
REMARK SMILES CC1(C)[C@H]2CC[C@](C)(C2)[C@@H]1O
REMARK SMILES IDX 1 1 2 2 4 3 5 4 6 5 7 6 9 7 10 8 8 9 3 10 11 11
REMARK H PARENT 11 12
REMARK Flexibility Score: inf
ROOT
ATOM      1  C   UNL     1     135.481 140.047 145.219  1.00  0.00     0.014 C 
ATOM      2  C   UNL     1     135.062 138.679 144.625  1.00  0.00    -0.006 C 
ATOM      3  C   UNL     1     135.095 137.508 145.666  1.00  0.00    -0.002 C 
ATOM      4  C   UNL     1     134.375 137.898 146.975  1.00  0.00     0.005 C 
ATOM      5  C   UNL     1     132.905 137.994 146.539  1.00  0.00     0.010 C 
ATOM      6  C   UNL     1     132.957 137.539 145.062  1.00  0.00    -0.006 C 
ATOM      7  C   UNL     1     134.084 136.531 145.091  1.00  0.00     0.013 C 
ATOM      8  C   UNL     1     133.552 138.686 144.202  1.00  0.00     0.126 C 
ATOM      9  C   UNL     1     131.622 136.977 144.555  1.00  0.00     0.014 C 
ATOM     10  C   UNL     1     136.034 138.365 143.457  1.00  0.00     0.014 C 
ENDROOT
BRANCH   8  11
ATOM     11  O   UNL     1     133.384 138.413 142.831  1.00  0.00    -0.392 OA
ATOM     12  H   UNL     1     134.291 138.405 142.431  1.00  0.00     0.211 HD
ENDBRANCH   8  11
TORSDOF 1
ENDMDL
MODEL 7
REMARK VINA RESULT:    -3.581      9.442     11.126
REMARK INTER + INTRA:          -3.685
REMARK INTER:                  -3.685
REMARK INTRA:                   0.000
REMARK UNBOUND:                 0.000
REMARK SMILES CC1(C)[C@H]2CC[C@](C)(C2)[C@@H]1O
REMARK SMILES IDX 1 1 2 2 4 3 5 4 6 5 7 6 9 7 10 8 8 9 3 10 11 11
REMARK H PARENT 11 12
REMARK Flexibility Score: inf
ROOT
ATOM      1  C   UNL     1     141.495 135.468 145.259  1.00  0.00     0.014 C 
ATOM      2  C   UNL     1     142.867 135.073 144.656  1.00  0.00    -0.006 C 
ATOM      3  C   UNL     1     144.041 135.115 145.693  1.00  0.00    -0.002 C 
ATOM      4  C   UNL     1     143.666 134.380 146.998  1.00  0.00     0.005 C 
ATOM      5  C   UNL     1     143.590 132.912 146.551  1.00  0.00     0.010 C 
ATOM      6  C   UNL     1     144.038 132.982 145.072  1.00  0.00    -0.006 C 
ATOM      7  C   UNL     1     145.029 134.122 145.106  1.00  0.00     0.013 C 
ATOM      8  C   UNL     1     142.879 133.567 144.221  1.00  0.00     0.126 C 
ATOM      9  C   UNL     1     144.617 131.658 144.554  1.00  0.00     0.014 C 
ATOM     10  C   UNL     1     143.161 136.059 143.494  1.00  0.00     0.014 C 
ENDROOT
BRANCH   8  11
ATOM     11  O   UNL     1     143.148 133.412 142.849  1.00  0.00    -0.392 OA
ATOM     12  H   UNL     1     142.286 133.543 142.375  1.00  0.00     0.211 HD
ENDBRANCH   8  11
TORSDOF 1
ENDMDL
MODEL 8
REMARK VINA RESULT:    -3.550     14.090     15.687
REMARK INTER + INTRA:          -3.653
REMARK INTER:                  -3.653
REMARK INTRA:                   0.000
REMARK UNBOUND:                 0.000
REMARK SMILES CC1(C)[C@H]2CC[C@](C)(C2)[C@@H]1O
REMARK SMILES IDX 1 1 2 2 4 3 5 4 6 5 7 6 9 7 10 8 8 9 3 10 11 11
REMARK H PARENT 11 12
REMARK Flexibility Score: inf
ROOT
ATOM      1  C   UNL     1     146.203 141.548 145.320  1.00  0.00     0.014 C 
ATOM      2  C   UNL     1     146.592 142.926 144.729  1.00  0.00    -0.006 C 
ATOM      3  C   UNL     1     146.548 144.091 145.776  1.00  0.00    -0.002 C 
ATOM      4  C   UNL     1     147.287 143.709 147.075  1.00  0.00     0.005 C 
ATOM      5  C   UNL     1     148.754 143.641 146.625  1.00  0.00     0.010 C 
ATOM      6  C   UNL     1     148.680 144.101 145.150  1.00  0.00    -0.006 C 
ATOM      7  C   UNL     1     147.536 145.088 145.194  1.00  0.00     0.013 C 
ATOM      8  C   UNL     1     148.097 142.947 144.291  1.00  0.00     0.126 C 
ATOM      9  C   UNL     1     150.000 144.689 144.634  1.00  0.00     0.014 C 
ATOM     10  C   UNL     1     145.603 143.227 143.571  1.00  0.00     0.014 C 
ENDROOT
BRANCH   8  11
ATOM     11  O   UNL     1     148.248 143.229 142.920  1.00  0.00    -0.392 OA
ATOM     12  H   UNL     1     147.946 142.420 142.431  1.00  0.00     0.211 HD
ENDBRANCH   8  11
TORSDOF 1
ENDMDL
MODEL 9
REMARK VINA RESULT:    -3.444      1.704      2.472
REMARK INTER + INTRA:          -3.545
REMARK INTER:                  -3.545
REMARK INTRA:                   0.000
REMARK UNBOUND:                 0.000
REMARK SMILES CC1(C)[C@H]2CC[C@](C)(C2)[C@@H]1O
REMARK SMILES IDX 1 1 2 2 4 3 5 4 6 5 7 6 9 7 10 8 8 9 3 10 11 11
REMARK H PARENT 11 12
REMARK Flexibility Score: inf
ROOT
ATOM      1  C   UNL     1     133.243 135.749 146.331  1.00  0.00     0.014 C 
ATOM      2  C   UNL     1     133.355 136.379 144.920  1.00  0.00    -0.006 C 
ATOM      3  C   UNL     1     132.920 137.884 144.870  1.00  0.00    -0.002 C 
ATOM      4  C   UNL     1     133.581 138.699 146.002  1.00  0.00     0.005 C 
ATOM      5  C   UNL     1     135.062 138.705 145.594  1.00  0.00     0.010 C 
ATOM      6  C   UNL     1     135.043 137.987 144.225  1.00  0.00    -0.006 C 
ATOM      7  C   UNL     1     133.699 138.409 143.677  1.00  0.00     0.013 C 
ATOM      8  C   UNL     1     134.850 136.464 144.457  1.00  0.00     0.126 C 
ATOM      9  C   UNL     1     136.233 138.359 143.330  1.00  0.00     0.014 C 
ATOM     10  C   UNL     1     132.456 135.544 143.970  1.00  0.00     0.014 C 
ENDROOT
BRANCH   8  11
ATOM     11  O   UNL     1     135.079 135.751 143.265  1.00  0.00    -0.392 OA
ATOM     12  H   UNL     1     134.187 135.541 142.885  1.00  0.00     0.211 HD
ENDBRANCH   8  11
TORSDOF 1
ENDMDL
