MODEL 1
REMARK VINA RESULT:    -4.383      0.000      0.000
REMARK INTER + INTRA:          -4.511
REMARK INTER:                  -4.511
REMARK INTRA:                   0.000
REMARK UNBOUND:                 0.000
REMARK SMILES O=c1ccc2ccc(O)cc2o1
REMARK SMILES IDX 6 1 7 2 8 3 10 4 11 5 5 6 4 7 3 8 2 9 1 10 12 11 9 12
REMARK H PARENT 9 13
REMARK Flexibility Score: inf
ROOT
ATOM      1  C   UNL     1     -23.664  23.823   9.210  1.00  0.00     0.016 A 
ATOM      2  C   UNL     1     -23.267  23.511  10.515  1.00  0.00     0.047 A 
ATOM      3  C   UNL     1     -22.911  24.527  11.409  1.00  0.00     0.119 A 
ATOM      4  C   UNL     1     -22.953  25.868  10.997  1.00  0.00     0.094 A 
ATOM      5  C   UNL     1     -23.350  26.191   9.695  1.00  0.00     0.142 A 
ATOM      6  C   UNL     1     -23.707  25.162   8.795  1.00  0.00     0.018 A 
ATOM      7  C   UNL     1     -24.099  25.515   7.500  1.00  0.00     0.019 A 
ATOM      8  C   UNL     1     -24.125  26.861   7.137  1.00  0.00     0.094 A 
ATOM      9  C   UNL     1     -23.758  27.826   8.081  1.00  0.00     0.336 A 
ATOM     10  O   UNL     1     -23.775  29.046   7.771  1.00  0.00    -0.246 OA
ATOM     11  O   UNL     1     -23.389  27.463   9.306  1.00  0.00    -0.423 OA
ENDROOT
BRANCH   3  12
ATOM     12  O   UNL     1     -22.519  24.196  12.704  1.00  0.00    -0.508 OA
ATOM     13  H   UNL     1     -21.894  23.419  12.885  1.00  0.00     0.293 HD
ENDBRANCH   3  12
TORSDOF 1
ENDMDL
MODEL 2
REMARK VINA RESULT:    -4.248      2.177      5.134
REMARK INTER + INTRA:          -4.372
REMARK INTER:                  -4.372
REMARK INTRA:                   0.000
REMARK UNBOUND:                 0.000
REMARK SMILES O=c1ccc2ccc(O)cc2o1
REMARK SMILES IDX 6 1 7 2 8 3 10 4 11 5 5 6 4 7 3 8 2 9 1 10 12 11 9 12
REMARK H PARENT 9 13
REMARK Flexibility Score: inf
ROOT
ATOM      1  C   UNL     1     -24.125  24.571  10.498  1.00  0.00     0.016 A 
ATOM      2  C   UNL     1     -23.595  25.014   9.281  1.00  0.00     0.047 A 
ATOM      3  C   UNL     1     -22.210  25.114   9.106  1.00  0.00     0.119 A 
ATOM      4  C   UNL     1     -21.346  24.769  10.156  1.00  0.00     0.094 A 
ATOM      5  C   UNL     1     -21.866  24.324  11.377  1.00  0.00     0.142 A 
ATOM      6  C   UNL     1     -23.264  24.225  11.549  1.00  0.00     0.018 A 
ATOM      7  C   UNL     1     -23.753  23.778  12.781  1.00  0.00     0.019 A 
ATOM      8  C   UNL     1     -22.855  23.446  13.794  1.00  0.00     0.094 A 
ATOM      9  C   UNL     1     -21.483  23.570  13.551  1.00  0.00     0.336 A 
ATOM     10  O   UNL     1     -20.657  23.275  14.454  1.00  0.00    -0.246 OA
ATOM     11  O   UNL     1     -21.043  23.997  12.371  1.00  0.00    -0.423 OA
ENDROOT
BRANCH   3  12
ATOM     12  O   UNL     1     -21.703  25.557   7.887  1.00  0.00    -0.508 OA
ATOM     13  H   UNL     1     -22.308  25.935   7.167  1.00  0.00     0.293 HD
ENDBRANCH   3  12
TORSDOF 1
ENDMDL
MODEL 3
REMARK VINA RESULT:    -4.041      2.822      4.354
REMARK INTER + INTRA:          -4.159
REMARK INTER:                  -4.159
REMARK INTRA:                   0.000
REMARK UNBOUND:                 0.000
REMARK SMILES O=c1ccc2ccc(O)cc2o1
REMARK SMILES IDX 6 1 7 2 8 3 10 4 11 5 5 6 4 7 3 8 2 9 1 10 12 11 9 12
REMARK H PARENT 9 13
REMARK Flexibility Score: inf
ROOT
ATOM      1  C   UNL     1     -23.093  23.262  14.216  1.00  0.00     0.016 A 
ATOM      2  C   UNL     1     -21.972  23.255  15.054  1.00  0.00     0.047 A 
ATOM      3  C   UNL     1     -20.717  23.629  14.559  1.00  0.00     0.119 A 
ATOM      4  C   UNL     1     -20.580  24.014  13.217  1.00  0.00     0.094 A 
ATOM      5  C   UNL     1     -21.696  24.024  12.372  1.00  0.00     0.142 A 
ATOM      6  C   UNL     1     -22.960  23.645  12.875  1.00  0.00     0.018 A 
ATOM      7  C   UNL     1     -24.056  23.665  12.006  1.00  0.00     0.019 A 
ATOM      8  C   UNL     1     -23.870  24.055  10.680  1.00  0.00     0.094 A 
ATOM      9  C   UNL     1     -22.589  24.417  10.252  1.00  0.00     0.336 A 
ATOM     10  O   UNL     1     -22.402  24.771   9.059  1.00  0.00    -0.246 OA
ATOM     11  O   UNL     1     -21.563  24.389  11.099  1.00  0.00    -0.423 OA
ENDROOT
BRANCH   3  12
ATOM     12  O   UNL     1     -19.613  23.616  15.409  1.00  0.00    -0.508 OA
ATOM     13  H   UNL     1     -18.999  22.812  15.467  1.00  0.00     0.293 HD
ENDBRANCH   3  12
TORSDOF 1
ENDMDL
MODEL 4
REMARK VINA RESULT:    -3.931      4.107      6.154
REMARK INTER + INTRA:          -4.046
REMARK INTER:                  -4.046
REMARK INTRA:                   0.000
REMARK UNBOUND:                 0.000
REMARK SMILES O=c1ccc2ccc(O)cc2o1
REMARK SMILES IDX 6 1 7 2 8 3 10 4 11 5 5 6 4 7 3 8 2 9 1 10 12 11 9 12
REMARK H PARENT 9 13
REMARK Flexibility Score: inf
ROOT
ATOM      1  C   UNL     1     -22.129  23.024  16.047  1.00  0.00     0.016 A 
ATOM      2  C   UNL     1     -20.980  23.067  16.844  1.00  0.00     0.047 A 
ATOM      3  C   UNL     1     -19.753  23.460  16.297  1.00  0.00     0.119 A 
ATOM      4  C   UNL     1     -19.673  23.812  14.941  1.00  0.00     0.094 A 
ATOM      5  C   UNL     1     -20.816  23.772  14.136  1.00  0.00     0.142 A 
ATOM      6  C   UNL     1     -22.053  23.375  14.692  1.00  0.00     0.018 A 
ATOM      7  C   UNL     1     -23.178  23.344  13.863  1.00  0.00     0.019 A 
ATOM      8  C   UNL     1     -23.049  23.704  12.522  1.00  0.00     0.094 A 
ATOM      9  C   UNL     1     -21.793  24.087  12.040  1.00  0.00     0.336 A 
ATOM     10  O   UNL     1     -21.656  24.414  10.832  1.00  0.00    -0.246 OA
ATOM     11  O   UNL     1     -20.738  24.107  12.850  1.00  0.00    -0.423 OA
ENDROOT
BRANCH   3  12
ATOM     12  O   UNL     1     -18.620  23.497  17.106  1.00  0.00    -0.508 OA
ATOM     13  H   UNL     1     -18.134  22.650  17.376  1.00  0.00     0.293 HD
ENDBRANCH   3  12
TORSDOF 1
ENDMDL
MODEL 5
REMARK VINA RESULT:    -3.906      4.810      6.879
REMARK INTER + INTRA:          -4.021
REMARK INTER:                  -4.021
REMARK INTRA:                   0.000
REMARK UNBOUND:                 0.000
REMARK SMILES O=c1ccc2ccc(O)cc2o1
REMARK SMILES IDX 6 1 7 2 8 3 10 4 11 5 5 6 4 7 3 8 2 9 1 10 12 11 9 12
REMARK H PARENT 9 13
REMARK Flexibility Score: inf
ROOT
ATOM      1  C   UNL     1     -19.254  23.852  15.638  1.00  0.00     0.016 A 
ATOM      2  C   UNL     1     -19.477  23.627  17.002  1.00  0.00     0.047 A 
ATOM      3  C   UNL     1     -20.758  23.307  17.466  1.00  0.00     0.119 A 
ATOM      4  C   UNL     1     -21.826  23.210  16.561  1.00  0.00     0.094 A 
ATOM      5  C   UNL     1     -21.613  23.433  15.196  1.00  0.00     0.142 A 
ATOM      6  C   UNL     1     -20.319  23.757  14.732  1.00  0.00     0.018 A 
ATOM      7  C   UNL     1     -20.138  23.974  13.363  1.00  0.00     0.019 A 
ATOM      8  C   UNL     1     -21.230  23.867  12.502  1.00  0.00     0.094 A 
ATOM      9  C   UNL     1     -22.483  23.543  13.034  1.00  0.00     0.336 A 
ATOM     10  O   UNL     1     -23.480  23.442  12.273  1.00  0.00    -0.246 OA
ATOM     11  O   UNL     1     -22.629  23.341  14.340  1.00  0.00    -0.423 OA
ENDROOT
BRANCH   3  12
ATOM     12  O   UNL     1     -20.960  23.086  18.827  1.00  0.00    -0.508 OA
ATOM     13  H   UNL     1     -21.684  23.575  19.340  1.00  0.00     0.293 HD
ENDBRANCH   3  12
TORSDOF 1
ENDMDL
MODEL 6
REMARK VINA RESULT:    -3.873      4.846      7.812
REMARK INTER + INTRA:          -3.987
REMARK INTER:                  -3.987
REMARK INTRA:                   0.000
REMARK UNBOUND:                 0.000
REMARK SMILES O=c1ccc2ccc(O)cc2o1
REMARK SMILES IDX 6 1 7 2 8 3 10 4 11 5 5 6 4 7 3 8 2 9 1 10 12 11 9 12
REMARK H PARENT 9 13
REMARK Flexibility Score: inf
ROOT
ATOM      1  C   UNL     1     -20.044  23.980  13.375  1.00  0.00     0.016 A 
ATOM      2  C   UNL     1     -21.123  23.830  12.497  1.00  0.00     0.047 A 
ATOM      3  C   UNL     1     -22.382  23.453  12.981  1.00  0.00     0.119 A 
ATOM      4  C   UNL     1     -22.564  23.224  14.353  1.00  0.00     0.094 A 
ATOM      5  C   UNL     1     -21.491  23.372  15.239  1.00  0.00     0.142 A 
ATOM      6  C   UNL     1     -20.222  23.751  14.747  1.00  0.00     0.018 A 
ATOM      7  C   UNL     1     -19.170  23.890  15.656  1.00  0.00     0.019 A 
ATOM      8  C   UNL     1     -19.399  23.652  17.010  1.00  0.00     0.094 A 
ATOM      9  C   UNL     1     -20.682  23.279  17.425  1.00  0.00     0.336 A 
ATOM     10  O   UNL     1     -20.909  23.059  18.644  1.00  0.00    -0.246 OA
ATOM     11  O   UNL     1     -21.667  23.154  16.540  1.00  0.00    -0.423 OA
ENDROOT
BRANCH   3  12
ATOM     12  O   UNL     1     -23.444  23.310  12.091  1.00  0.00    -0.508 OA
ATOM     13  H   UNL     1     -24.066  22.511  12.134  1.00  0.00     0.293 HD
ENDBRANCH   3  12
TORSDOF 1
ENDMDL
MODEL 7
REMARK VINA RESULT:    -3.864     11.146     13.177
REMARK INTER + INTRA:          -3.977
REMARK INTER:                  -3.977
REMARK INTRA:                   0.000
REMARK UNBOUND:                 0.000
REMARK SMILES O=c1ccc2ccc(O)cc2o1
REMARK SMILES IDX 6 1 7 2 8 3 10 4 11 5 5 6 4 7 3 8 2 9 1 10 12 11 9 12
REMARK H PARENT 9 13
REMARK Flexibility Score: inf
ROOT
ATOM      1  C   UNL     1     -20.633  28.476  19.637  1.00  0.00     0.016 A 
ATOM      2  C   UNL     1     -21.923  28.610  19.110  1.00  0.00     0.047 A 
ATOM      3  C   UNL     1     -22.846  29.474  19.709  1.00  0.00     0.119 A 
ATOM      4  C   UNL     1     -22.479  30.213  20.844  1.00  0.00     0.094 A 
ATOM      5  C   UNL     1     -21.192  30.087  21.378  1.00  0.00     0.142 A 
ATOM      6  C   UNL     1     -20.263  29.212  20.771  1.00  0.00     0.018 A 
ATOM      7  C   UNL     1     -18.985  29.107  21.328  1.00  0.00     0.019 A 
ATOM      8  C   UNL     1     -18.666  29.861  22.457  1.00  0.00     0.094 A 
ATOM      9  C   UNL     1     -19.637  30.706  23.004  1.00  0.00     0.336 A 
ATOM     10  O   UNL     1     -19.368  31.395  24.023  1.00  0.00    -0.246 OA
ATOM     11  O   UNL     1     -20.846  30.788  22.455  1.00  0.00    -0.423 OA
ENDROOT
BRANCH   3  12
ATOM     12  O   UNL     1     -24.125  29.594  19.169  1.00  0.00    -0.508 OA
ATOM     13  H   UNL     1     -24.740  28.793  19.082  1.00  0.00     0.293 HD
ENDBRANCH   3  12
TORSDOF 1
ENDMDL
MODEL 8
REMARK VINA RESULT:    -3.828      3.762      6.563
REMARK INTER + INTRA:          -3.939
REMARK INTER:                  -3.939
REMARK INTRA:                   0.000
REMARK UNBOUND:                 0.000
REMARK SMILES O=c1ccc2ccc(O)cc2o1
REMARK SMILES IDX 6 1 7 2 8 3 10 4 11 5 5 6 4 7 3 8 2 9 1 10 12 11 9 12
REMARK H PARENT 9 13
REMARK Flexibility Score: inf
ROOT
ATOM      1  C   UNL     1     -23.722  23.221  13.234  1.00  0.00     0.016 A 
ATOM      2  C   UNL     1     -23.623  23.377  11.846  1.00  0.00     0.047 A 
ATOM      3  C   UNL     1     -22.387  23.657  11.253  1.00  0.00     0.119 A 
ATOM      4  C   UNL     1     -21.239  23.783  12.051  1.00  0.00     0.094 A 
ATOM      5  C   UNL     1     -21.329  23.629  13.439  1.00  0.00     0.142 A 
ATOM      6  C   UNL     1     -22.579  23.347  14.034  1.00  0.00     0.018 A 
ATOM      7  C   UNL     1     -22.636  23.199  15.423  1.00  0.00     0.019 A 
ATOM      8  C   UNL     1     -21.469  23.333  16.174  1.00  0.00     0.094 A 
ATOM      9  C   UNL     1     -20.267  23.613  15.516  1.00  0.00     0.336 A 
ATOM     10  O   UNL     1     -19.203  23.738  16.178  1.00  0.00    -0.246 OA
ATOM     11  O   UNL     1     -20.239  23.749  14.193  1.00  0.00    -0.423 OA
ENDROOT
BRANCH   3  12
ATOM     12  O   UNL     1     -22.308  23.808   9.870  1.00  0.00    -0.508 OA
ATOM     13  H   UNL     1     -21.449  24.098   9.417  1.00  0.00     0.293 HD
ENDBRANCH   3  12
TORSDOF 1
ENDMDL
MODEL 9
REMARK VINA RESULT:    -1.982      1.861      4.746
REMARK INTER + INTRA:          -2.040
REMARK INTER:                  -2.040
REMARK INTRA:                   0.000
REMARK UNBOUND:                 0.000
REMARK SMILES O=c1ccc2ccc(O)cc2o1
REMARK SMILES IDX 6 1 7 2 8 3 10 4 11 5 5 6 4 7 3 8 2 9 1 10 12 11 9 12
REMARK H PARENT 9 13
REMARK Flexibility Score: inf
ROOT
ATOM      1  C   UNL     1     -24.075  23.664   9.463  1.00  0.00     0.016 A 
ATOM      2  C   UNL     1     -23.724  24.497   8.394  1.00  0.00     0.047 A 
ATOM      3  C   UNL     1     -22.625  25.357   8.499  1.00  0.00     0.119 A 
ATOM      4  C   UNL     1     -21.869  25.386   9.681  1.00  0.00     0.094 A 
ATOM      5  C   UNL     1     -22.211  24.557  10.754  1.00  0.00     0.142 A 
ATOM      6  C   UNL     1     -23.322  23.691  10.645  1.00  0.00     0.018 A 
ATOM      7  C   UNL     1     -23.640  22.875  11.735  1.00  0.00     0.019 A 
ATOM      8  C   UNL     1     -22.859  22.939  12.889  1.00  0.00     0.094 A 
ATOM      9  C   UNL     1     -21.774  23.821  12.925  1.00  0.00     0.336 A 
ATOM     10  O   UNL     1     -21.058  23.893  13.958  1.00  0.00    -0.246 OA
ATOM     11  O   UNL     1     -21.493  24.587  11.874  1.00  0.00    -0.423 OA
ENDROOT
BRANCH   3  12
ATOM     12  O   UNL     1     -22.291  26.178   7.424  1.00  0.00    -0.508 OA
ATOM     13  H   UNL     1     -21.909  25.797   6.566  1.00  0.00     0.293 HD
ENDBRANCH   3  12
TORSDOF 1
ENDMDL
