MODEL 1
REMARK VINA RESULT:    -5.852      0.000      0.000
REMARK INTER + INTRA:         -10.110
REMARK INTER:                  -8.076
REMARK INTRA:                  -2.034
REMARK UNBOUND:                -2.034
REMARK SMILES CC[C@H](CC[C@H](C)[C@H]1CC[C@@H]2[C@@H]3CC=C4C[C@@H](O)CC[C@]4(C)[C@@H]3CC[C@]21C)C(C)C
REMARK SMILES IDX 5 1 4 2 3 3 2 4 1 5 28 6 29 7 30 8 6 9 7 10 8 11 9 12 26 13
REMARK SMILES IDX 10 14 11 15 25 16 27 17 12 18 24 19 23 20 13 21 21 22 14 23
REMARK SMILES IDX 15 24 20 25 22 26 16 27 19 28 17 29 18 30
REMARK H PARENT 18 31
REMARK Flexibility Score: inf
ROOT
ATOM      1  C   UNL     1      23.561 -13.330  41.173  1.00  0.00     0.004 C 
ENDROOT
BRANCH   1   2
ATOM      2  C   UNL     1      24.125 -13.914  42.496  1.00  0.00     0.004 C 
BRANCH   2   3
ATOM      3  C   UNL     1      23.428 -13.321  43.758  1.00  0.00    -0.009 C 
BRANCH   3   4
ATOM      4  C   UNL     1      22.211 -12.445  43.312  1.00  0.00     0.000 C 
ATOM      5  C   UNL     1      20.967 -12.707  44.161  1.00  0.00     0.004 C 
ENDBRANCH   3   4
BRANCH   3   6
ATOM      6  C   UNL     1      22.995 -14.429  44.782  1.00  0.00    -0.014 C 
ATOM      7  C   UNL     1      23.803 -14.341  46.096  1.00  0.00     0.007 C 
ATOM      8  C   UNL     1      23.169 -15.853  44.222  1.00  0.00     0.007 C 
ENDBRANCH   3   6
ENDBRANCH   2   3
ENDBRANCH   1   2
BRANCH   1   9
ATOM      9  C   UNL     1      22.800 -14.373  40.313  1.00  0.00    -0.011 C 
ATOM     10  C   UNL     1      23.588 -14.772  39.045  1.00  0.00     0.008 C 
BRANCH   9  11
ATOM     11  C   UNL     1      21.285 -14.055  40.025  1.00  0.00    -0.002 C 
ATOM     12  C   UNL     1      20.957 -14.097  38.503  1.00  0.00     0.005 C 
ATOM     13  C   UNL     1      20.133 -14.905  40.675  1.00  0.00    -0.026 C 
ATOM     14  C   UNL     1      19.972 -15.255  38.264  1.00  0.00     0.005 C 
ATOM     15  C   UNL     1      19.919 -15.983  39.594  1.00  0.00    -0.001 C 
ATOM     16  C   UNL     1      20.395 -15.626  42.017  1.00  0.00     0.007 C 
ATOM     17  C   UNL     1      18.927 -13.922  40.867  1.00  0.00     0.012 C 
ATOM     18  C   UNL     1      18.825 -17.049  39.845  1.00  0.00     0.000 C 
ATOM     19  C   UNL     1      19.278 -16.652  42.356  1.00  0.00     0.005 C 
ATOM     20  C   UNL     1      19.069 -17.717  41.231  1.00  0.00     0.003 C 
ATOM     21  C   UNL     1      17.380 -16.572  39.661  1.00  0.00     0.031 C 
ATOM     22  C   UNL     1      18.012 -18.866  41.531  1.00  0.00    -0.008 C 
ATOM     23  C   UNL     1      16.382 -17.625  40.036  1.00  0.00    -0.027 C 
ATOM     24  C   UNL     1      16.612 -18.576  40.962  1.00  0.00    -0.065 C 
ATOM     25  C   UNL     1      17.860 -19.133  43.067  1.00  0.00     0.014 C 
ATOM     26  C   UNL     1      18.533 -20.161  40.848  1.00  0.00     0.016 C 
ATOM     27  C   UNL     1      15.478 -19.514  41.337  1.00  0.00     0.063 C 
ATOM     28  C   UNL     1      16.747 -20.133  43.430  1.00  0.00     0.033 C 
ATOM     29  C   UNL     1      15.393 -19.677  42.865  1.00  0.00     0.118 C 
BRANCH  29  30
ATOM     30  O   UNL     1      14.415 -20.621  43.215  1.00  0.00    -0.393 OA
ATOM     31  H   UNL     1      13.625 -20.116  43.555  1.00  0.00     0.210 HD
ENDBRANCH  29  30
ENDBRANCH   9  11
ENDBRANCH   1   9
TORSDOF 7
ENDMDL
MODEL 2
REMARK VINA RESULT:    -5.675     14.296     17.128
REMARK INTER + INTRA:          -9.865
REMARK INTER:                  -8.060
REMARK INTRA:                  -1.805
REMARK UNBOUND:                -2.034
REMARK SMILES CC[C@H](CC[C@H](C)[C@H]1CC[C@@H]2[C@@H]3CC=C4C[C@@H](O)CC[C@]4(C)[C@@H]3CC[C@]21C)C(C)C
REMARK SMILES IDX 5 1 4 2 3 3 2 4 1 5 28 6 29 7 30 8 6 9 7 10 8 11 9 12 26 13
REMARK SMILES IDX 10 14 11 15 25 16 27 17 12 18 24 19 23 20 13 21 21 22 14 23
REMARK SMILES IDX 15 24 20 25 22 26 16 27 19 28 17 29 18 30
REMARK H PARENT 18 31
REMARK Flexibility Score: inf
ROOT
ATOM      1  C   UNL     1       7.587 -10.693  39.963  1.00  0.00     0.004 C 
ENDROOT
BRANCH   1   2
ATOM      2  C   UNL     1       8.670  -9.606  40.196  1.00  0.00     0.004 C 
BRANCH   2   3
ATOM      3  C   UNL     1       8.689  -8.528  39.070  1.00  0.00    -0.009 C 
BRANCH   3   4
ATOM      4  C   UNL     1       8.575  -7.107  39.714  1.00  0.00     0.000 C 
ATOM      5  C   UNL     1       7.669  -7.099  40.945  1.00  0.00     0.004 C 
ENDBRANCH   3   4
BRANCH   3   6
ATOM      6  C   UNL     1       9.954  -8.644  38.149  1.00  0.00    -0.014 C 
ATOM      7  C   UNL     1      10.386 -10.114  37.950  1.00  0.00     0.007 C 
ATOM      8  C   UNL     1      11.165  -7.873  38.707  1.00  0.00     0.007 C 
ENDBRANCH   3   6
ENDBRANCH   2   3
ENDBRANCH   1   2
BRANCH   1   9
ATOM      9  C   UNL     1       6.447 -10.236  39.013  1.00  0.00    -0.011 C 
ATOM     10  C   UNL     1       5.213  -9.723  39.787  1.00  0.00     0.008 C 
BRANCH   9  11
ATOM     11  C   UNL     1       6.079 -11.230  37.849  1.00  0.00    -0.002 C 
ATOM     12  C   UNL     1       4.592 -11.687  37.918  1.00  0.00     0.005 C 
ATOM     13  C   UNL     1       6.274 -10.830  36.341  1.00  0.00    -0.026 C 
ATOM     14  C   UNL     1       3.876 -11.154  36.666  1.00  0.00     0.005 C 
ATOM     15  C   UNL     1       4.891 -10.232  36.016  1.00  0.00    -0.001 C 
ATOM     16  C   UNL     1       7.344  -9.777  35.973  1.00  0.00     0.007 C 
ATOM     17  C   UNL     1       6.606 -12.161  35.581  1.00  0.00     0.012 C 
ATOM     18  C   UNL     1       4.649  -9.711  34.578  1.00  0.00     0.000 C 
ATOM     19  C   UNL     1       7.194  -9.281  34.508  1.00  0.00     0.005 C 
ATOM     20  C   UNL     1       5.775  -8.702  34.203  1.00  0.00     0.003 C 
ATOM     21  C   UNL     1       4.438 -10.791  33.509  1.00  0.00     0.031 C 
ATOM     22  C   UNL     1       5.558  -8.082  32.755  1.00  0.00    -0.008 C 
ATOM     23  C   UNL     1       4.330 -10.212  32.131  1.00  0.00    -0.027 C 
ATOM     24  C   UNL     1       4.932  -9.067  31.753  1.00  0.00    -0.065 C 
ATOM     25  C   UNL     1       6.899  -7.558  32.138  1.00  0.00     0.014 C 
ATOM     26  C   UNL     1       4.577  -6.887  32.908  1.00  0.00     0.016 C 
ATOM     27  C   UNL     1       4.842  -8.648  30.296  1.00  0.00     0.063 C 
ATOM     28  C   UNL     1       6.781  -7.078  30.680  1.00  0.00     0.033 C 
ATOM     29  C   UNL     1       6.217  -8.187  29.780  1.00  0.00     0.118 C 
BRANCH  29  30
ATOM     30  O   UNL     1       6.122  -7.701  28.466  1.00  0.00    -0.393 OA
ATOM     31  H   UNL     1       5.598  -6.853  28.502  1.00  0.00     0.210 HD
ENDBRANCH  29  30
ENDBRANCH   9  11
ENDBRANCH   1   9
TORSDOF 7
ENDMDL
MODEL 3
REMARK VINA RESULT:    -5.369     12.173     14.184
REMARK INTER + INTRA:          -9.443
REMARK INTER:                  -7.651
REMARK INTRA:                  -1.793
REMARK UNBOUND:                -2.034
REMARK SMILES CC[C@H](CC[C@H](C)[C@H]1CC[C@@H]2[C@@H]3CC=C4C[C@@H](O)CC[C@]4(C)[C@@H]3CC[C@]21C)C(C)C
REMARK SMILES IDX 5 1 4 2 3 3 2 4 1 5 28 6 29 7 30 8 6 9 7 10 8 11 9 12 26 13
REMARK SMILES IDX 10 14 11 15 25 16 27 17 12 18 24 19 23 20 13 21 21 22 14 23
REMARK SMILES IDX 15 24 20 25 22 26 16 27 19 28 17 29 18 30
REMARK H PARENT 18 31
REMARK Flexibility Score: inf
ROOT
ATOM      1  C   UNL     1      11.777  -3.663  43.507  1.00  0.00     0.004 C 
ENDROOT
BRANCH   1   2
ATOM      2  C   UNL     1      12.842  -4.076  44.557  1.00  0.00     0.004 C 
BRANCH   2   3
ATOM      3  C   UNL     1      13.950  -4.994  43.957  1.00  0.00    -0.009 C 
BRANCH   3   4
ATOM      4  C   UNL     1      13.750  -5.102  42.409  1.00  0.00     0.000 C 
ATOM      5  C   UNL     1      13.606  -6.550  41.943  1.00  0.00     0.004 C 
ENDBRANCH   3   4
BRANCH   3   6
ATOM      6  C   UNL     1      15.397  -4.503  44.317  1.00  0.00    -0.014 C 
ATOM      7  C   UNL     1      15.374  -3.386  45.384  1.00  0.00     0.007 C 
ATOM      8  C   UNL     1      16.162  -3.964  43.093  1.00  0.00     0.007 C 
ENDBRANCH   3   6
ENDBRANCH   2   3
ENDBRANCH   1   2
BRANCH   1   9
ATOM      9  C   UNL     1      10.371  -4.258  43.787  1.00  0.00    -0.011 C 
ATOM     10  C   UNL     1       9.496  -3.312  44.641  1.00  0.00     0.008 C 
BRANCH   9  11
ATOM     11  C   UNL     1      10.342  -5.750  44.289  1.00  0.00    -0.002 C 
ATOM     12  C   UNL     1       9.491  -5.915  45.583  1.00  0.00     0.005 C 
ATOM     13  C   UNL     1       9.836  -6.914  43.361  1.00  0.00    -0.026 C 
ATOM     14  C   UNL     1       8.282  -6.805  45.242  1.00  0.00     0.005 C 
ATOM     15  C   UNL     1       8.341  -6.956  43.733  1.00  0.00    -0.001 C 
ATOM     16  C   UNL     1       9.939  -6.754  41.828  1.00  0.00     0.007 C 
ATOM     17  C   UNL     1      10.651  -8.186  43.783  1.00  0.00     0.012 C 
ATOM     18  C   UNL     1       7.451  -8.010  43.030  1.00  0.00     0.000 C 
ATOM     19  C   UNL     1       9.126  -7.842  41.071  1.00  0.00     0.005 C 
ATOM     20  C   UNL     1       7.620  -7.875  41.486  1.00  0.00     0.003 C 
ATOM     21  C   UNL     1       7.618  -9.453  43.522  1.00  0.00     0.031 C 
ATOM     22  C   UNL     1       6.689  -8.893  40.696  1.00  0.00    -0.008 C 
ATOM     23  C   UNL     1       6.814 -10.425  42.713  1.00  0.00    -0.027 C 
ATOM     24  C   UNL     1       6.503 -10.240  41.415  1.00  0.00    -0.065 C 
ATOM     25  C   UNL     1       7.237  -9.188  39.259  1.00  0.00     0.014 C 
ATOM     26  C   UNL     1       5.288  -8.234  40.571  1.00  0.00     0.016 C 
ATOM     27  C   UNL     1       5.783 -11.354  40.676  1.00  0.00     0.063 C 
ATOM     28  C   UNL     1       6.460 -10.277  38.495  1.00  0.00     0.033 C 
ATOM     29  C   UNL     1       6.422 -11.588  39.295  1.00  0.00     0.118 C 
BRANCH  29  30
ATOM     30  O   UNL     1       5.699 -12.544  38.564  1.00  0.00    -0.393 OA
ATOM     31  H   UNL     1       4.741 -12.269  38.584  1.00  0.00     0.210 HD
ENDBRANCH  29  30
ENDBRANCH   9  11
ENDBRANCH   1   9
TORSDOF 7
ENDMDL
MODEL 4
REMARK VINA RESULT:    -5.327     16.273     19.464
REMARK INTER + INTRA:          -9.384
REMARK INTER:                  -7.778
REMARK INTRA:                  -1.606
REMARK UNBOUND:                -2.034
REMARK SMILES CC[C@H](CC[C@H](C)[C@H]1CC[C@@H]2[C@@H]3CC=C4C[C@@H](O)CC[C@]4(C)[C@@H]3CC[C@]21C)C(C)C
REMARK SMILES IDX 5 1 4 2 3 3 2 4 1 5 28 6 29 7 30 8 6 9 7 10 8 11 9 12 26 13
REMARK SMILES IDX 10 14 11 15 25 16 27 17 12 18 24 19 23 20 13 21 21 22 14 23
REMARK SMILES IDX 15 24 20 25 22 26 16 27 19 28 17 29 18 30
REMARK H PARENT 18 31
REMARK Flexibility Score: inf
ROOT
ATOM      1  C   UNL     1       5.835  -7.969  29.690  1.00  0.00     0.004 C 
ENDROOT
BRANCH   1   2
ATOM      2  C   UNL     1       4.899  -9.097  30.201  1.00  0.00     0.004 C 
BRANCH   2   3
ATOM      3  C   UNL     1       4.181  -8.723  31.533  1.00  0.00    -0.009 C 
BRANCH   3   4
ATOM      4  C   UNL     1       3.891 -10.027  32.347  1.00  0.00     0.000 C 
ATOM      5  C   UNL     1       4.701 -11.219  31.840  1.00  0.00     0.004 C 
ENDBRANCH   3   4
BRANCH   3   6
ATOM      6  C   UNL     1       4.994  -7.683  32.382  1.00  0.00    -0.014 C 
ATOM      7  C   UNL     1       5.394  -8.256  33.760  1.00  0.00     0.007 C 
ATOM      8  C   UNL     1       4.211  -6.380  32.629  1.00  0.00     0.007 C 
ENDBRANCH   3   6
ENDBRANCH   2   3
ENDBRANCH   1   2
BRANCH   1   9
ATOM      9  C   UNL     1       7.343  -8.301  29.844  1.00  0.00    -0.011 C 
ATOM     10  C   UNL     1       7.595  -9.818  29.995  1.00  0.00     0.008 C 
BRANCH   9  11
ATOM     11  C   UNL     1       8.136  -7.435  30.894  1.00  0.00    -0.002 C 
ATOM     12  C   UNL     1       8.659  -8.292  32.084  1.00  0.00     0.005 C 
ATOM     13  C   UNL     1       9.390  -6.585  30.470  1.00  0.00    -0.026 C 
ATOM     14  C   UNL     1      10.197  -8.271  32.040  1.00  0.00     0.005 C 
ATOM     15  C   UNL     1      10.527  -7.594  30.723  1.00  0.00    -0.001 C 
ATOM     16  C   UNL     1       9.508  -6.093  29.010  1.00  0.00     0.007 C 
ATOM     17  C   UNL     1       9.402  -5.335  31.417  1.00  0.00     0.012 C 
ATOM     18  C   UNL     1      11.977  -7.135  30.435  1.00  0.00     0.000 C 
ATOM     19  C   UNL     1      10.927  -5.544  28.692  1.00  0.00     0.005 C 
ATOM     20  C   UNL     1      12.060  -6.582  28.981  1.00  0.00     0.003 C 
ATOM     21  C   UNL     1      12.588  -6.182  31.469  1.00  0.00     0.031 C 
ATOM     22  C   UNL     1      13.538  -6.143  28.596  1.00  0.00    -0.008 C 
ATOM     23  C   UNL     1      13.943  -5.691  31.059  1.00  0.00    -0.027 C 
ATOM     24  C   UNL     1      14.330  -5.552  29.775  1.00  0.00    -0.065 C 
ATOM     25  C   UNL     1      13.551  -5.091  27.436  1.00  0.00     0.014 C 
ATOM     26  C   UNL     1      14.289  -7.418  28.123  1.00  0.00     0.016 C 
ATOM     27  C   UNL     1      15.687  -4.934  29.490  1.00  0.00     0.063 C 
ATOM     28  C   UNL     1      14.943  -4.518  27.114  1.00  0.00     0.033 C 
ATOM     29  C   UNL     1      15.581  -3.891  28.363  1.00  0.00     0.118 C 
BRANCH  29  30
ATOM     30  O   UNL     1      16.848  -3.390  28.022  1.00  0.00    -0.393 OA
ATOM     31  H   UNL     1      17.269  -3.056  28.862  1.00  0.00     0.210 HD
ENDBRANCH  29  30
ENDBRANCH   9  11
ENDBRANCH   1   9
TORSDOF 7
ENDMDL
MODEL 5
REMARK VINA RESULT:    -5.292     11.655     13.831
REMARK INTER + INTRA:          -9.337
REMARK INTER:                  -7.155
REMARK INTRA:                  -2.182
REMARK UNBOUND:                -2.034
REMARK SMILES CC[C@H](CC[C@H](C)[C@H]1CC[C@@H]2[C@@H]3CC=C4C[C@@H](O)CC[C@]4(C)[C@@H]3CC[C@]21C)C(C)C
REMARK SMILES IDX 5 1 4 2 3 3 2 4 1 5 28 6 29 7 30 8 6 9 7 10 8 11 9 12 26 13
REMARK SMILES IDX 10 14 11 15 25 16 27 17 12 18 24 19 23 20 13 21 21 22 14 23
REMARK SMILES IDX 15 24 20 25 22 26 16 27 19 28 17 29 18 30
REMARK H PARENT 18 31
REMARK Flexibility Score: inf
ROOT
ATOM      1  C   UNL     1      13.294  -3.359  45.463  1.00  0.00     0.004 C 
ENDROOT
BRANCH   1   2
ATOM      2  C   UNL     1      14.023  -4.610  46.025  1.00  0.00     0.004 C 
BRANCH   2   3
ATOM      3  C   UNL     1      15.197  -5.079  45.113  1.00  0.00    -0.009 C 
BRANCH   3   4
ATOM      4  C   UNL     1      14.948  -6.559  44.671  1.00  0.00     0.000 C 
ATOM      5  C   UNL     1      14.536  -7.451  45.841  1.00  0.00     0.004 C 
ENDBRANCH   3   4
BRANCH   3   6
ATOM      6  C   UNL     1      15.411  -4.137  43.876  1.00  0.00    -0.014 C 
ATOM      7  C   UNL     1      15.157  -4.875  42.543  1.00  0.00     0.007 C 
ATOM      8  C   UNL     1      16.833  -3.547  43.820  1.00  0.00     0.007 C 
ENDBRANCH   3   6
ENDBRANCH   2   3
ENDBRANCH   1   2
BRANCH   1   9
ATOM      9  C   UNL     1      11.968  -3.695  44.731  1.00  0.00    -0.011 C 
ATOM     10  C   UNL     1      11.000  -2.491  44.695  1.00  0.00     0.008 C 
BRANCH   9  11
ATOM     11  C   UNL     1      11.268  -5.040  45.155  1.00  0.00    -0.002 C 
ATOM     12  C   UNL     1       9.913  -4.791  45.880  1.00  0.00     0.005 C 
ATOM     13  C   UNL     1      10.922  -6.150  44.096  1.00  0.00    -0.026 C 
ATOM     14  C   UNL     1       8.792  -5.370  45.000  1.00  0.00     0.005 C 
ATOM     15  C   UNL     1       9.487  -5.744  43.704  1.00  0.00    -0.001 C 
ATOM     16  C   UNL     1      11.759  -6.241  42.800  1.00  0.00     0.007 C 
ATOM     17  C   UNL     1      11.031  -7.518  44.854  1.00  0.00     0.012 C 
ATOM     18  C   UNL     1       8.751  -6.615  42.658  1.00  0.00     0.000 C 
ATOM     19  C   UNL     1      11.101  -7.173  41.744  1.00  0.00     0.005 C 
ATOM     20  C   UNL     1       9.640  -6.750  41.386  1.00  0.00     0.003 C 
ATOM     21  C   UNL     1       8.234  -7.966  43.167  1.00  0.00     0.031 C 
ATOM     22  C   UNL     1       8.919  -7.589  40.244  1.00  0.00    -0.008 C 
ATOM     23  C   UNL     1       7.641  -8.798  42.070  1.00  0.00    -0.027 C 
ATOM     24  C   UNL     1       8.031  -8.723  40.783  1.00  0.00    -0.065 C 
ATOM     25  C   UNL     1       9.948  -8.219  39.245  1.00  0.00     0.014 C 
ATOM     26  C   UNL     1       8.000  -6.609  39.463  1.00  0.00     0.016 C 
ATOM     27  C   UNL     1       7.435  -9.702  39.787  1.00  0.00     0.063 C 
ATOM     28  C   UNL     1       9.322  -9.161  38.200  1.00  0.00     0.033 C 
ATOM     29  C   UNL     1       8.533 -10.289  38.881  1.00  0.00     0.118 C 
BRANCH  29  30
ATOM     30  O   UNL     1       7.977 -11.115  37.891  1.00  0.00    -0.393 OA
ATOM     31  H   UNL     1       8.573 -11.061  37.093  1.00  0.00     0.210 HD
ENDBRANCH  29  30
ENDBRANCH   9  11
ENDBRANCH   1   9
TORSDOF 7
ENDMDL
MODEL 6
REMARK VINA RESULT:    -5.290     11.519     13.916
REMARK INTER + INTRA:          -9.334
REMARK INTER:                  -7.973
REMARK INTRA:                  -1.361
REMARK UNBOUND:                -2.034
REMARK SMILES CC[C@H](CC[C@H](C)[C@H]1CC[C@@H]2[C@@H]3CC=C4C[C@@H](O)CC[C@]4(C)[C@@H]3CC[C@]21C)C(C)C
REMARK SMILES IDX 5 1 4 2 3 3 2 4 1 5 28 6 29 7 30 8 6 9 7 10 8 11 9 12 26 13
REMARK SMILES IDX 10 14 11 15 25 16 27 17 12 18 24 19 23 20 13 21 21 22 14 23
REMARK SMILES IDX 15 24 20 25 22 26 16 27 19 28 17 29 18 30
REMARK H PARENT 18 31
REMARK Flexibility Score: inf
ROOT
ATOM      1  C   UNL     1      18.427  -4.045  40.439  1.00  0.00     0.004 C 
ENDROOT
BRANCH   1   2
ATOM      2  C   UNL     1      18.697  -3.089  39.246  1.00  0.00     0.004 C 
BRANCH   2   3
ATOM      3  C   UNL     1      17.774  -3.380  38.024  1.00  0.00    -0.009 C 
BRANCH   3   4
ATOM      4  C   UNL     1      18.101  -4.800  37.456  1.00  0.00     0.000 C 
ATOM      5  C   UNL     1      19.534  -4.899  36.933  1.00  0.00     0.004 C 
ENDBRANCH   3   4
BRANCH   3   6
ATOM      6  C   UNL     1      16.251  -3.237  38.374  1.00  0.00    -0.014 C 
ATOM      7  C   UNL     1      15.512  -4.591  38.283  1.00  0.00     0.007 C 
ATOM      8  C   UNL     1      15.521  -2.245  37.448  1.00  0.00     0.007 C 
ENDBRANCH   3   6
ENDBRANCH   2   3
ENDBRANCH   1   2
BRANCH   1   9
ATOM      9  C   UNL     1      17.576  -3.401  41.565  1.00  0.00    -0.011 C 
ATOM     10  C   UNL     1      18.061  -1.978  41.923  1.00  0.00     0.008 C 
BRANCH   9  11
ATOM     11  C   UNL     1      17.312  -4.302  42.830  1.00  0.00    -0.002 C 
ATOM     12  C   UNL     1      17.698  -3.579  44.154  1.00  0.00     0.005 C 
ATOM     13  C   UNL     1      15.885  -4.889  43.131  1.00  0.00    -0.026 C 
ATOM     14  C   UNL     1      16.412  -3.375  44.973  1.00  0.00     0.005 C 
ATOM     15  C   UNL     1      15.297  -3.783  44.028  1.00  0.00    -0.001 C 
ATOM     16  C   UNL     1      14.904  -5.122  41.960  1.00  0.00     0.007 C 
ATOM     17  C   UNL     1      16.127  -6.259  43.855  1.00  0.00     0.012 C 
ATOM     18  C   UNL     1      13.861  -3.982  44.571  1.00  0.00     0.000 C 
ATOM     19  C   UNL     1      13.459  -5.408  42.457  1.00  0.00     0.005 C 
ATOM     20  C   UNL     1      12.899  -4.280  43.382  1.00  0.00     0.003 C 
ATOM     21  C   UNL     1      13.720  -4.991  45.718  1.00  0.00     0.031 C 
ATOM     22  C   UNL     1      11.392  -4.440  43.863  1.00  0.00    -0.008 C 
ATOM     23  C   UNL     1      12.289  -5.214  46.105  1.00  0.00    -0.027 C 
ATOM     24  C   UNL     1      11.256  -5.093  45.249  1.00  0.00    -0.065 C 
ATOM     25  C   UNL     1      10.544  -5.283  42.851  1.00  0.00     0.014 C 
ATOM     26  C   UNL     1      10.785  -3.013  43.957  1.00  0.00     0.016 C 
ATOM     27  C   UNL     1       9.865  -5.460  45.735  1.00  0.00     0.063 C 
ATOM     28  C   UNL     1       9.114  -5.596  43.329  1.00  0.00     0.033 C 
ATOM     29  C   UNL     1       9.133  -6.316  44.685  1.00  0.00     0.118 C 
BRANCH  29  30
ATOM     30  O   UNL     1       7.811  -6.573  45.081  1.00  0.00    -0.393 OA
ATOM     31  H   UNL     1       7.600  -5.948  45.829  1.00  0.00     0.210 HD
ENDBRANCH  29  30
ENDBRANCH   9  11
ENDBRANCH   1   9
TORSDOF 7
ENDMDL
MODEL 7
REMARK VINA RESULT:    -5.286     12.039     14.836
REMARK INTER + INTRA:          -9.328
REMARK INTER:                  -7.106
REMARK INTRA:                  -2.222
REMARK UNBOUND:                -2.034
REMARK SMILES CC[C@H](CC[C@H](C)[C@H]1CC[C@@H]2[C@@H]3CC=C4C[C@@H](O)CC[C@]4(C)[C@@H]3CC[C@]21C)C(C)C
REMARK SMILES IDX 5 1 4 2 3 3 2 4 1 5 28 6 29 7 30 8 6 9 7 10 8 11 9 12 26 13
REMARK SMILES IDX 10 14 11 15 25 16 27 17 12 18 24 19 23 20 13 21 21 22 14 23
REMARK SMILES IDX 15 24 20 25 22 26 16 27 19 28 17 29 18 30
REMARK H PARENT 18 31
REMARK Flexibility Score: inf
ROOT
ATOM      1  C   UNL     1       9.837 -10.067  38.796  1.00  0.00     0.004 C 
ENDROOT
BRANCH   1   2
ATOM      2  C   UNL     1      10.670  -8.836  38.349  1.00  0.00     0.004 C 
BRANCH   2   3
ATOM      3  C   UNL     1      12.129  -8.870  38.897  1.00  0.00    -0.009 C 
BRANCH   3   4
ATOM      4  C   UNL     1      13.080  -8.152  37.883  1.00  0.00     0.000 C 
ATOM      5  C   UNL     1      12.314  -7.514  36.725  1.00  0.00     0.004 C 
ENDBRANCH   3   4
BRANCH   3   6
ATOM      6  C   UNL     1      12.246  -8.250  40.334  1.00  0.00    -0.014 C 
ATOM      7  C   UNL     1      13.496  -7.353  40.471  1.00  0.00     0.007 C 
ATOM      8  C   UNL     1      12.318  -9.322  41.438  1.00  0.00     0.007 C 
ENDBRANCH   3   6
ENDBRANCH   2   3
ENDBRANCH   1   2
BRANCH   1   9
ATOM      9  C   UNL     1       8.316  -9.913  38.527  1.00  0.00    -0.011 C 
ATOM     10  C   UNL     1       8.026  -8.979  37.330  1.00  0.00     0.008 C 
BRANCH   9  11
ATOM     11  C   UNL     1       7.422  -9.602  39.785  1.00  0.00    -0.002 C 
ATOM     12  C   UNL     1       7.438 -10.767  40.817  1.00  0.00     0.005 C 
ATOM     13  C   UNL     1       7.669  -8.323  40.667  1.00  0.00    -0.026 C 
ATOM     14  C   UNL     1       8.100 -10.248  42.106  1.00  0.00     0.005 C 
ATOM     15  C   UNL     1       8.639  -8.882  41.727  1.00  0.00    -0.001 C 
ATOM     16  C   UNL     1       8.331  -7.082  40.025  1.00  0.00     0.007 C 
ATOM     17  C   UNL     1       6.264  -7.904  41.222  1.00  0.00     0.012 C 
ATOM     18  C   UNL     1       9.136  -7.916  42.830  1.00  0.00     0.000 C 
ATOM     19  C   UNL     1       8.776  -6.042  41.091  1.00  0.00     0.005 C 
ATOM     20  C   UNL     1       9.739  -6.643  42.164  1.00  0.00     0.003 C 
ATOM     21  C   UNL     1       8.119  -7.587  43.929  1.00  0.00     0.031 C 
ATOM     22  C   UNL     1      10.322  -5.630  43.241  1.00  0.00    -0.008 C 
ATOM     23  C   UNL     1       8.633  -6.558  44.890  1.00  0.00    -0.027 C 
ATOM     24  C   UNL     1       9.523  -5.603  44.555  1.00  0.00    -0.065 C 
ATOM     25  C   UNL     1      10.386  -4.166  42.689  1.00  0.00     0.014 C 
ATOM     26  C   UNL     1      11.764  -6.099  43.582  1.00  0.00     0.016 C 
ATOM     27  C   UNL     1       9.877  -4.547  45.588  1.00  0.00     0.063 C 
ATOM     28  C   UNL     1      10.807  -3.113  43.731  1.00  0.00     0.033 C 
ATOM     29  C   UNL     1       9.875  -3.146  44.952  1.00  0.00     0.118 C 
BRANCH  29  30
ATOM     30  O   UNL     1      10.301  -2.176  45.873  1.00  0.00    -0.393 OA
ATOM     31  H   UNL     1      11.029  -1.652  45.436  1.00  0.00     0.210 HD
ENDBRANCH  29  30
ENDBRANCH   9  11
ENDBRANCH   1   9
TORSDOF 7
ENDMDL
MODEL 8
REMARK VINA RESULT:    -5.279     12.333     15.299
REMARK INTER + INTRA:          -9.319
REMARK INTER:                  -7.434
REMARK INTRA:                  -1.885
REMARK UNBOUND:                -2.034
REMARK SMILES CC[C@H](CC[C@H](C)[C@H]1CC[C@@H]2[C@@H]3CC=C4C[C@@H](O)CC[C@]4(C)[C@@H]3CC[C@]21C)C(C)C
REMARK SMILES IDX 5 1 4 2 3 3 2 4 1 5 28 6 29 7 30 8 6 9 7 10 8 11 9 12 26 13
REMARK SMILES IDX 10 14 11 15 25 16 27 17 12 18 24 19 23 20 13 21 21 22 14 23
REMARK SMILES IDX 15 24 20 25 22 26 16 27 19 28 17 29 18 30
REMARK H PARENT 18 31
REMARK Flexibility Score: inf
ROOT
ATOM      1  C   UNL     1       9.933  -9.710  32.827  1.00  0.00     0.004 C 
ENDROOT
BRANCH   1   2
ATOM      2  C   UNL     1       8.406  -9.961  32.945  1.00  0.00     0.004 C 
BRANCH   2   3
ATOM      3  C   UNL     1       7.598  -8.645  33.155  1.00  0.00    -0.009 C 
BRANCH   3   4
ATOM      4  C   UNL     1       7.144  -8.090  31.764  1.00  0.00     0.000 C 
ATOM      5  C   UNL     1       7.944  -6.858  31.343  1.00  0.00     0.004 C 
ENDBRANCH   3   4
BRANCH   3   6
ATOM      6  C   UNL     1       6.378  -8.837  34.124  1.00  0.00    -0.014 C 
ATOM      7  C   UNL     1       6.134 -10.327  34.450  1.00  0.00     0.007 C 
ATOM      8  C   UNL     1       5.069  -8.264  33.549  1.00  0.00     0.007 C 
ENDBRANCH   3   6
ENDBRANCH   2   3
ENDBRANCH   1   2
BRANCH   1   9
ATOM      9  C   UNL     1      10.485  -8.740  33.905  1.00  0.00    -0.011 C 
ATOM     10  C   UNL     1      11.282  -7.570  33.285  1.00  0.00     0.008 C 
BRANCH   9  11
ATOM     11  C   UNL     1      11.219  -9.411  35.126  1.00  0.00    -0.002 C 
ATOM     12  C   UNL     1      12.589  -8.736  35.428  1.00  0.00     0.005 C 
ATOM     13  C   UNL     1      10.534  -9.508  36.538  1.00  0.00    -0.026 C 
ATOM     14  C   UNL     1      12.498  -8.084  36.818  1.00  0.00     0.005 C 
ATOM     15  C   UNL     1      11.033  -8.206  37.194  1.00  0.00    -0.001 C 
ATOM     16  C   UNL     1       8.991  -9.524  36.628  1.00  0.00     0.007 C 
ATOM     17  C   UNL     1      11.083 -10.822  37.193  1.00  0.00     0.012 C 
ATOM     18  C   UNL     1      10.584  -7.911  38.646  1.00  0.00     0.000 C 
ATOM     19  C   UNL     1       8.489  -9.313  38.083  1.00  0.00     0.005 C 
ATOM     20  C   UNL     1       9.030  -7.997  38.730  1.00  0.00     0.003 C 
ATOM     21  C   UNL     1      11.284  -8.733  39.736  1.00  0.00     0.031 C 
ATOM     22  C   UNL     1       8.494  -7.650  40.185  1.00  0.00    -0.008 C 
ATOM     23  C   UNL     1      10.711  -8.476  41.097  1.00  0.00    -0.027 C 
ATOM     24  C   UNL     1       9.431  -8.115  41.312  1.00  0.00    -0.065 C 
ATOM     25  C   UNL     1       7.081  -8.272  40.450  1.00  0.00     0.014 C 
ATOM     26  C   UNL     1       8.384  -6.102  40.278  1.00  0.00     0.016 C 
ATOM     27  C   UNL     1       8.942  -7.998  42.745  1.00  0.00     0.063 C 
ATOM     28  C   UNL     1       6.568  -8.093  41.891  1.00  0.00     0.033 C 
ATOM     29  C   UNL     1       7.567  -8.672  42.904  1.00  0.00     0.118 C 
BRANCH  29  30
ATOM     30  O   UNL     1       7.061  -8.480  44.200  1.00  0.00    -0.393 OA
ATOM     31  H   UNL     1       6.897  -9.383  44.590  1.00  0.00     0.210 HD
ENDBRANCH  29  30
ENDBRANCH   9  11
ENDBRANCH   1   9
TORSDOF 7
ENDMDL
MODEL 9
REMARK VINA RESULT:    -5.157     13.074     15.931
REMARK INTER + INTRA:          -9.151
REMARK INTER:                  -7.084
REMARK INTRA:                  -2.067
REMARK UNBOUND:                -2.034
REMARK SMILES CC[C@H](CC[C@H](C)[C@H]1CC[C@@H]2[C@@H]3CC=C4C[C@@H](O)CC[C@]4(C)[C@@H]3CC[C@]21C)C(C)C
REMARK SMILES IDX 5 1 4 2 3 3 2 4 1 5 28 6 29 7 30 8 6 9 7 10 8 11 9 12 26 13
REMARK SMILES IDX 10 14 11 15 25 16 27 17 12 18 24 19 23 20 13 21 21 22 14 23
REMARK SMILES IDX 15 24 20 25 22 26 16 27 19 28 17 29 18 30
REMARK H PARENT 18 31
REMARK Flexibility Score: inf
ROOT
ATOM      1  C   UNL     1       4.200 -11.636  42.375  1.00  0.00     0.004 C 
ENDROOT
BRANCH   1   2
ATOM      2  C   UNL     1       4.201 -12.645  43.554  1.00  0.00     0.004 C 
BRANCH   2   3
ATOM      3  C   UNL     1       4.711 -12.011  44.884  1.00  0.00    -0.009 C 
BRANCH   3   4
ATOM      4  C   UNL     1       4.732 -13.104  46.003  1.00  0.00     0.000 C 
ATOM      5  C   UNL     1       4.330 -14.481  45.475  1.00  0.00     0.004 C 
ENDBRANCH   3   4
BRANCH   3   6
ATOM      6  C   UNL     1       6.112 -11.323  44.724  1.00  0.00    -0.014 C 
ATOM      7  C   UNL     1       7.269 -12.334  44.889  1.00  0.00     0.007 C 
ATOM      8  C   UNL     1       6.335 -10.189  45.742  1.00  0.00     0.007 C 
ENDBRANCH   3   6
ENDBRANCH   2   3
ENDBRANCH   1   2
BRANCH   1   9
ATOM      9  C   UNL     1       4.951 -12.153  41.119  1.00  0.00    -0.011 C 
ATOM     10  C   UNL     1       5.934 -13.297  41.457  1.00  0.00     0.008 C 
BRANCH   9  11
ATOM     11  C   UNL     1       5.582 -11.049  40.190  1.00  0.00    -0.002 C 
ATOM     12  C   UNL     1       4.542  -9.964  39.781  1.00  0.00     0.005 C 
ATOM     13  C   UNL     1       6.830 -10.210  40.650  1.00  0.00    -0.026 C 
ATOM     14  C   UNL     1       4.990  -8.626  40.394  1.00  0.00     0.005 C 
ATOM     15  C   UNL     1       6.142  -8.998  41.308  1.00  0.00    -0.001 C 
ATOM     16  C   UNL     1       7.808 -10.819  41.681  1.00  0.00     0.007 C 
ATOM     17  C   UNL     1       7.631  -9.878  39.344  1.00  0.00     0.012 C 
ATOM     18  C   UNL     1       7.046  -7.889  41.900  1.00  0.00     0.000 C 
ATOM     19  C   UNL     1       8.793  -9.758  42.247  1.00  0.00     0.005 C 
ATOM     20  C   UNL     1       8.067  -8.532  42.887  1.00  0.00     0.003 C 
ATOM     21  C   UNL     1       7.711  -6.960  40.878  1.00  0.00     0.031 C 
ATOM     22  C   UNL     1       8.993  -7.439  43.577  1.00  0.00    -0.008 C 
ATOM     23  C   UNL     1       8.659  -5.994  41.520  1.00  0.00    -0.027 C 
ATOM     24  C   UNL     1       9.331  -6.252  42.659  1.00  0.00    -0.065 C 
ATOM     25  C   UNL     1      10.342  -8.054  44.082  1.00  0.00     0.014 C 
ATOM     26  C   UNL     1       8.212  -6.878  44.797  1.00  0.00     0.016 C 
ATOM     27  C   UNL     1      10.351  -5.238  43.146  1.00  0.00     0.063 C 
ATOM     28  C   UNL     1      11.343  -7.021  44.631  1.00  0.00     0.033 C 
ATOM     29  C   UNL     1      11.648  -5.941  43.582  1.00  0.00     0.118 C 
BRANCH  29  30
ATOM     30  O   UNL     1      12.558  -5.022  44.129  1.00  0.00    -0.393 OA
ATOM     31  H   UNL     1      13.464  -5.434  44.073  1.00  0.00     0.210 HD
ENDBRANCH  29  30
ENDBRANCH   9  11
ENDBRANCH   1   9
TORSDOF 7
ENDMDL
