MODEL 1
REMARK VINA RESULT:    -7.069      0.000      0.000
REMARK INTER + INTRA:          -7.700
REMARK INTER:                  -7.689
REMARK INTRA:                  -0.011
REMARK UNBOUND:                -0.011
REMARK SMILES C[C@@H]1[C@H](C)CC[C@@]2(C(=O)[O-])CC[C@@]3(C)C(=CC[C@H]4[C@@]5(C)CC[C@H](O)C(C)(C)[C@H]5CC[C@]43C)[C@@H]12
REMARK SMILES IDX 7 1 6 2 11 3 33 4 5 5 12 6 15 7 2 8 3 9 13 10 16 11 1 12
REMARK SMILES IDX 4 13 14 14 31 15 17 16 18 17 30 18 32 19 19 20 29 21 28 22
REMARK SMILES IDX 21 23 20 24 25 25 22 26 23 27 26 28 27 29 8 30 9 31 10 32
REMARK SMILES IDX 24 33
REMARK H PARENT 24 34
REMARK Flexibility Score: inf
ROOT
ATOM      1  C   UNL     1      32.085  30.106  15.560  1.00  0.00     0.017 C 
ATOM      2  C   UNL     1      30.818  29.738  16.394  1.00  0.00     0.014 C 
ATOM      3  C   UNL     1      33.343  29.506  16.285  1.00  0.00     0.014 C 
ATOM      4  C   UNL     1      31.915  29.544  14.090  1.00  0.00     0.030 C 
ATOM      5  C   UNL     1      29.501  30.186  15.748  1.00  0.00     0.004 C 
ATOM      6  C   UNL     1      34.269  28.721  15.345  1.00  0.00     0.013 C 
ATOM      7  C   UNL     1      32.229  28.025  14.041  1.00  0.00    -0.063 C 
ATOM      8  C   UNL     1      30.556  29.983  13.430  1.00  0.00    -0.003 C 
ATOM      9  C   UNL     1      29.352  29.602  14.334  1.00  0.00    -0.011 C 
ATOM     10  C   UNL     1      33.526  27.508  14.687  1.00  0.00    -0.006 C 
ATOM     11  C   UNL     1      31.522  27.150  13.293  1.00  0.00    -0.027 C 
ATOM     12  C   UNL     1      30.547  31.470  13.002  1.00  0.00     0.008 C 
ATOM     13  C   UNL     1      27.999  29.992  13.721  1.00  0.00     0.008 C 
ATOM     14  C   UNL     1      33.160  26.525  15.855  1.00  0.00     0.017 C 
ATOM     15  C   UNL     1      34.400  26.758  13.561  1.00  0.00    -0.020 C 
ATOM     16  C   UNL     1      31.991  25.742  13.086  1.00  0.00     0.032 C 
ATOM     17  C   UNL     1      33.530  25.652  12.795  1.00  0.00     0.006 C 
ATOM     18  C   UNL     1      34.923  27.770  12.511  1.00  0.00     0.008 C 
ATOM     19  C   UNL     1      35.645  26.098  14.242  1.00  0.00     0.012 C 
ATOM     20  C   UNL     1      33.822  25.434  11.228  1.00  0.00    -0.025 C 
ATOM     21  C   UNL     1      35.757  27.152  11.382  1.00  0.00     0.005 C 
ATOM     22  C   UNL     1      35.328  25.735  10.874  1.00  0.00     0.003 C 
ATOM     23  C   UNL     1      32.892  26.309  10.309  1.00  0.00     0.010 C 
ATOM     24  C   UNL     1      33.500  23.927  10.966  1.00  0.00     0.012 C 
ATOM     25  C   UNL     1      35.720  25.492   9.335  1.00  0.00    -0.006 C 
ATOM     26  C   UNL     1      33.522  26.827   8.999  1.00  0.00     0.033 C 
ATOM     27  C   UNL     1      34.537  25.864   8.358  1.00  0.00     0.120 C 
ATOM     28  C   UNL     1      36.975  26.325   8.918  1.00  0.00     0.014 C 
ATOM     29  C   UNL     1      36.177  24.016   9.121  1.00  0.00     0.014 C 
ENDROOT
BRANCH   1  30
ATOM     30  C   UNL     1      32.298  31.615  15.528  1.00  0.00     0.048 C 
ATOM     31  O   UNL     1      31.750  32.369  16.377  1.00  0.00    -0.550 OA
ATOM     32  O   UNL     1      33.199  32.170  14.625  1.00  0.00    -0.550 OA
ENDBRANCH   1  30
BRANCH  27  33
ATOM     33  O   UNL     1      33.871  24.724   7.875  1.00  0.00    -0.393 OA
ATOM     34  H   UNL     1      34.525  24.203   7.338  1.00  0.00     0.210 HD
ENDBRANCH  27  33
TORSDOF 2
ENDMDL
MODEL 2
REMARK VINA RESULT:    -6.845      4.093      7.654
REMARK INTER + INTRA:          -7.456
REMARK INTER:                  -7.646
REMARK INTRA:                   0.190
REMARK UNBOUND:                -0.011
REMARK SMILES C[C@@H]1[C@H](C)CC[C@@]2(C(=O)[O-])CC[C@@]3(C)C(=CC[C@H]4[C@@]5(C)CC[C@H](O)C(C)(C)[C@H]5CC[C@]43C)[C@@H]12
REMARK SMILES IDX 7 1 6 2 11 3 33 4 5 5 12 6 15 7 2 8 3 9 13 10 16 11 1 12
REMARK SMILES IDX 4 13 14 14 31 15 17 16 18 17 30 18 32 19 19 20 29 21 28 22
REMARK SMILES IDX 21 23 20 24 25 25 22 26 23 27 26 28 27 29 8 30 9 31 10 32
REMARK SMILES IDX 24 33
REMARK H PARENT 24 34
REMARK Flexibility Score: inf
ROOT
ATOM      1  C   UNL     1      25.922  26.769  11.072  1.00  0.00     0.017 C 
ATOM      2  C   UNL     1      26.139  26.391   9.573  1.00  0.00     0.014 C 
ATOM      3  C   UNL     1      26.410  25.567  11.959  1.00  0.00     0.014 C 
ATOM      4  C   UNL     1      26.712  28.105  11.386  1.00  0.00     0.030 C 
ATOM      5  C   UNL     1      25.788  27.520   8.594  1.00  0.00     0.004 C 
ATOM      6  C   UNL     1      27.345  25.993  13.099  1.00  0.00     0.013 C 
ATOM      7  C   UNL     1      28.222  27.815  11.597  1.00  0.00    -0.063 C 
ATOM      8  C   UNL     1      26.372  29.259  10.373  1.00  0.00    -0.003 C 
ATOM      9  C   UNL     1      26.591  28.793   8.908  1.00  0.00    -0.011 C 
ATOM     10  C   UNL     1      28.641  26.684  12.552  1.00  0.00    -0.006 C 
ATOM     11  C   UNL     1      29.199  28.627  11.137  1.00  0.00    -0.027 C 
ATOM     12  C   UNL     1      24.973  29.877  10.610  1.00  0.00     0.008 C 
ATOM     13  C   UNL     1      26.291  29.894   7.881  1.00  0.00     0.008 C 
ATOM     14  C   UNL     1      29.419  25.589  11.740  1.00  0.00     0.017 C 
ATOM     15  C   UNL     1      29.571  27.305  13.711  1.00  0.00    -0.020 C 
ATOM     16  C   UNL     1      30.626  28.445  11.556  1.00  0.00     0.032 C 
ATOM     17  C   UNL     1      30.777  28.157  13.090  1.00  0.00     0.006 C 
ATOM     18  C   UNL     1      28.747  28.240  14.631  1.00  0.00     0.008 C 
ATOM     19  C   UNL     1      30.124  26.140  14.596  1.00  0.00     0.012 C 
ATOM     20  C   UNL     1      31.248  29.470  13.893  1.00  0.00    -0.025 C 
ATOM     21  C   UNL     1      29.546  28.898  15.762  1.00  0.00     0.005 C 
ATOM     22  C   UNL     1      31.022  29.310  15.445  1.00  0.00     0.003 C 
ATOM     23  C   UNL     1      30.523  30.776  13.399  1.00  0.00     0.010 C 
ATOM     24  C   UNL     1      32.774  29.603  13.583  1.00  0.00     0.012 C 
ATOM     25  C   UNL     1      31.514  30.557  16.329  1.00  0.00    -0.006 C 
ATOM     26  C   UNL     1      30.229  31.841  14.477  1.00  0.00     0.033 C 
ATOM     27  C   UNL     1      31.293  31.932  15.586  1.00  0.00     0.120 C 
ATOM     28  C   UNL     1      30.772  30.623  17.703  1.00  0.00     0.014 C 
ATOM     29  C   UNL     1      33.010  30.376  16.734  1.00  0.00     0.014 C 
ENDROOT
BRANCH   1  30
ATOM     30  C   UNL     1      24.440  26.947  11.382  1.00  0.00     0.048 C 
ATOM     31  O   UNL     1      24.058  27.623  12.374  1.00  0.00    -0.550 OA
ATOM     32  O   UNL     1      23.483  26.459  10.498  1.00  0.00    -0.550 OA
ENDBRANCH   1  30
BRANCH  27  33
ATOM     33  O   UNL     1      32.490  32.445  15.055  1.00  0.00    -0.393 OA
ATOM     34  H   UNL     1      32.253  33.225  14.487  1.00  0.00     0.210 HD
ENDBRANCH  27  33
TORSDOF 2
ENDMDL
MODEL 3
REMARK VINA RESULT:    -6.446      3.437      7.823
REMARK INTER + INTRA:          -7.023
REMARK INTER:                  -6.981
REMARK INTRA:                  -0.041
REMARK UNBOUND:                -0.011
REMARK SMILES C[C@@H]1[C@H](C)CC[C@@]2(C(=O)[O-])CC[C@@]3(C)C(=CC[C@H]4[C@@]5(C)CC[C@H](O)C(C)(C)[C@H]5CC[C@]43C)[C@@H]12
REMARK SMILES IDX 7 1 6 2 11 3 33 4 5 5 12 6 15 7 2 8 3 9 13 10 16 11 1 12
REMARK SMILES IDX 4 13 14 14 31 15 17 16 18 17 30 18 32 19 19 20 29 21 28 22
REMARK SMILES IDX 21 23 20 24 25 25 22 26 23 27 26 28 27 29 8 30 9 31 10 32
REMARK SMILES IDX 24 33
REMARK H PARENT 24 34
REMARK Flexibility Score: inf
ROOT
ATOM      1  C   UNL     1      28.946  26.109   8.946  1.00  0.00     0.017 C 
ATOM      2  C   UNL     1      27.582  26.344   8.223  1.00  0.00     0.014 C 
ATOM      3  C   UNL     1      30.041  26.976   8.226  1.00  0.00     0.014 C 
ATOM      4  C   UNL     1      28.791  26.489  10.475  1.00  0.00     0.030 C 
ATOM      5  C   UNL     1      26.400  25.624   8.885  1.00  0.00     0.004 C 
ATOM      6  C   UNL     1      30.893  27.806   9.195  1.00  0.00     0.013 C 
ATOM      7  C   UNL     1      28.864  28.027  10.671  1.00  0.00    -0.063 C 
ATOM      8  C   UNL     1      27.567  25.770  11.154  1.00  0.00    -0.003 C 
ATOM      9  C   UNL     1      26.258  26.035  10.360  1.00  0.00    -0.011 C 
ATOM     10  C   UNL     1      30.015  28.811  10.018  1.00  0.00    -0.006 C 
ATOM     11  C   UNL     1      28.080  28.696  11.544  1.00  0.00    -0.027 C 
ATOM     12  C   UNL     1      27.822  24.267  11.419  1.00  0.00     0.008 C 
ATOM     13  C   UNL     1      25.030  25.369  10.997  1.00  0.00     0.008 C 
ATOM     14  C   UNL     1      29.419  29.830   8.983  1.00  0.00     0.017 C 
ATOM     15  C   UNL     1      30.834  29.580  11.171  1.00  0.00    -0.020 C 
ATOM     16  C   UNL     1      28.334  30.134  11.878  1.00  0.00     0.032 C 
ATOM     17  C   UNL     1      29.856  30.447  12.096  1.00  0.00     0.006 C 
ATOM     18  C   UNL     1      31.582  28.570  12.077  1.00  0.00     0.008 C 
ATOM     19  C   UNL     1      31.910  30.498  10.502  1.00  0.00     0.012 C 
ATOM     20  C   UNL     1      30.216  30.556  13.660  1.00  0.00    -0.025 C 
ATOM     21  C   UNL     1      32.383  29.202  13.222  1.00  0.00     0.005 C 
ATOM     22  C   UNL     1      31.772  30.472  13.901  1.00  0.00     0.003 C 
ATOM     23  C   UNL     1      29.502  29.454  14.526  1.00  0.00     0.010 C 
ATOM     24  C   UNL     1      29.679  31.956  14.099  1.00  0.00     0.012 C 
ATOM     25  C   UNL     1      32.226  30.625  15.434  1.00  0.00    -0.006 C 
ATOM     26  C   UNL     1      30.295  28.920  15.738  1.00  0.00     0.033 C 
ATOM     27  C   UNL     1      31.186  29.970  16.426  1.00  0.00     0.120 C 
ATOM     28  C   UNL     1      33.622  29.973  15.694  1.00  0.00     0.014 C 
ATOM     29  C   UNL     1      32.457  32.128  15.783  1.00  0.00     0.014 C 
ENDROOT
BRANCH   1  30
ATOM     30  C   UNL     1      29.396  24.659   8.804  1.00  0.00     0.048 C 
ATOM     31  O   UNL     1      28.823  23.875   8.001  1.00  0.00    -0.550 OA
ATOM     32  O   UNL     1      30.528  24.215   9.479  1.00  0.00    -0.550 OA
ENDBRANCH   1  30
BRANCH  27  33
ATOM     33  O   UNL     1      30.383  30.933  17.063  1.00  0.00    -0.393 OA
ATOM     34  H   UNL     1      30.945  31.739  17.208  1.00  0.00     0.210 HD
ENDBRANCH  27  33
TORSDOF 2
ENDMDL
MODEL 4
REMARK VINA RESULT:    -6.401      2.022      3.806
REMARK INTER + INTRA:          -6.974
REMARK INTER:                  -7.227
REMARK INTRA:                   0.253
REMARK UNBOUND:                -0.011
REMARK SMILES C[C@@H]1[C@H](C)CC[C@@]2(C(=O)[O-])CC[C@@]3(C)C(=CC[C@H]4[C@@]5(C)CC[C@H](O)C(C)(C)[C@H]5CC[C@]43C)[C@@H]12
REMARK SMILES IDX 7 1 6 2 11 3 33 4 5 5 12 6 15 7 2 8 3 9 13 10 16 11 1 12
REMARK SMILES IDX 4 13 14 14 31 15 17 16 18 17 30 18 32 19 19 20 29 21 28 22
REMARK SMILES IDX 21 23 20 24 25 25 22 26 23 27 26 28 27 29 8 30 9 31 10 32
REMARK SMILES IDX 24 33
REMARK H PARENT 24 34
REMARK Flexibility Score: inf
ROOT
ATOM      1  C   UNL     1      30.089  29.581  14.607  1.00  0.00     0.017 C 
ATOM      2  C   UNL     1      29.586  31.050  14.446  1.00  0.00     0.014 C 
ATOM      3  C   UNL     1      29.100  28.634  13.838  1.00  0.00     0.014 C 
ATOM      4  C   UNL     1      31.569  29.480  14.054  1.00  0.00     0.030 C 
ATOM      5  C   UNL     1      30.517  32.095  15.076  1.00  0.00     0.004 C 
ATOM      6  C   UNL     1      29.810  27.639  12.909  1.00  0.00     0.013 C 
ATOM      7  C   UNL     1      31.573  29.392  12.505  1.00  0.00    -0.063 C 
ATOM      8  C   UNL     1      32.523  30.562  14.681  1.00  0.00    -0.003 C 
ATOM      9  C   UNL     1      31.937  31.989  14.498  1.00  0.00    -0.011 C 
ATOM     10  C   UNL     1      30.649  28.377  11.810  1.00  0.00    -0.006 C 
ATOM     11  C   UNL     1      32.485  30.024  11.734  1.00  0.00    -0.027 C 
ATOM     12  C   UNL     1      32.911  30.249  16.146  1.00  0.00     0.008 C 
ATOM     13  C   UNL     1      32.845  33.085  15.076  1.00  0.00     0.008 C 
ATOM     14  C   UNL     1      29.621  29.151  10.911  1.00  0.00     0.017 C 
ATOM     15  C   UNL     1      31.552  27.383  10.920  1.00  0.00    -0.020 C 
ATOM     16  C   UNL     1      32.604  29.734  10.269  1.00  0.00     0.032 C 
ATOM     17  C   UNL     1      32.524  28.201   9.945  1.00  0.00     0.006 C 
ATOM     18  C   UNL     1      32.427  26.481  11.827  1.00  0.00     0.008 C 
ATOM     19  C   UNL     1      30.609  26.446  10.094  1.00  0.00     0.012 C 
ATOM     20  C   UNL     1      33.982  27.582   9.661  1.00  0.00    -0.025 C 
ATOM     21  C   UNL     1      33.340  25.505  11.074  1.00  0.00     0.005 C 
ATOM     22  C   UNL     1      33.963  26.007   9.729  1.00  0.00     0.003 C 
ATOM     23  C   UNL     1      35.076  28.127  10.651  1.00  0.00     0.010 C 
ATOM     24  C   UNL     1      34.342  28.053   8.215  1.00  0.00     0.012 C 
ATOM     25  C   UNL     1      35.370  25.302   9.406  1.00  0.00    -0.006 C 
ATOM     26  C   UNL     1      36.189  27.135  11.049  1.00  0.00     0.033 C 
ATOM     27  C   UNL     1      36.591  26.152   9.934  1.00  0.00     0.120 C 
ATOM     28  C   UNL     1      35.462  23.875  10.035  1.00  0.00     0.014 C 
ATOM     29  C   UNL     1      35.500  25.032   7.875  1.00  0.00     0.014 C 
ENDROOT
BRANCH   1  30
ATOM     30  C   UNL     1      30.040  29.145  16.068  1.00  0.00     0.048 C 
ATOM     31  O   UNL     1      30.279  27.953  16.400  1.00  0.00    -0.550 OA
ATOM     32  O   UNL     1      29.845  30.091  17.068  1.00  0.00    -0.550 OA
ENDBRANCH   1  30
BRANCH  27  33
ATOM     33  O   UNL     1      37.241  26.846   8.899  1.00  0.00    -0.393 OA
ATOM     34  H   UNL     1      37.483  27.743   9.249  1.00  0.00     0.210 HD
ENDBRANCH  27  33
TORSDOF 2
ENDMDL
MODEL 5
REMARK VINA RESULT:    -6.226      4.204      7.548
REMARK INTER + INTRA:          -6.783
REMARK INTER:                  -6.740
REMARK INTRA:                  -0.044
REMARK UNBOUND:                -0.011
REMARK SMILES C[C@@H]1[C@H](C)CC[C@@]2(C(=O)[O-])CC[C@@]3(C)C(=CC[C@H]4[C@@]5(C)CC[C@H](O)C(C)(C)[C@H]5CC[C@]43C)[C@@H]12
REMARK SMILES IDX 7 1 6 2 11 3 33 4 5 5 12 6 15 7 2 8 3 9 13 10 16 11 1 12
REMARK SMILES IDX 4 13 14 14 31 15 17 16 18 17 30 18 32 19 19 20 29 21 28 22
REMARK SMILES IDX 21 23 20 24 25 25 22 26 23 27 26 28 27 29 8 30 9 31 10 32
REMARK SMILES IDX 24 33
REMARK H PARENT 24 34
REMARK Flexibility Score: inf
ROOT
ATOM      1  C   UNL     1      31.363  30.102  13.131  1.00  0.00     0.017 C 
ATOM      2  C   UNL     1      32.663  29.239  13.071  1.00  0.00     0.014 C 
ATOM      3  C   UNL     1      31.304  30.994  11.840  1.00  0.00     0.014 C 
ATOM      4  C   UNL     1      30.112  29.141  13.254  1.00  0.00     0.030 C 
ATOM      5  C   UNL     1      32.801  28.247  14.234  1.00  0.00     0.004 C 
ATOM      6  C   UNL     1      29.948  30.936  11.123  1.00  0.00     0.013 C 
ATOM      7  C   UNL     1      29.741  28.541  11.872  1.00  0.00    -0.063 C 
ATOM      8  C   UNL     1      30.257  28.108  14.432  1.00  0.00    -0.003 C 
ATOM      9  C   UNL     1      31.584  27.310  14.309  1.00  0.00    -0.011 C 
ATOM     10  C   UNL     1      29.604  29.479  10.661  1.00  0.00    -0.006 C 
ATOM     11  C   UNL     1      29.340  27.261  11.708  1.00  0.00    -0.027 C 
ATOM     12  C   UNL     1      30.063  28.752  15.826  1.00  0.00     0.008 C 
ATOM     13  C   UNL     1      31.762  26.273  15.427  1.00  0.00     0.008 C 
ATOM     14  C   UNL     1      30.679  29.088   9.586  1.00  0.00     0.017 C 
ATOM     15  C   UNL     1      28.116  29.333  10.060  1.00  0.00    -0.020 C 
ATOM     16  C   UNL     1      28.769  26.782  10.409  1.00  0.00     0.032 C 
ATOM     17  C   UNL     1      27.753  27.799   9.780  1.00  0.00     0.006 C 
ATOM     18  C   UNL     1      27.070  29.902  11.051  1.00  0.00     0.008 C 
ATOM     19  C   UNL     1      28.019  30.168   8.741  1.00  0.00     0.012 C 
ATOM     20  C   UNL     1      26.231  27.340  10.026  1.00  0.00    -0.025 C 
ATOM     21  C   UNL     1      25.614  29.796  10.580  1.00  0.00     0.005 C 
ATOM     22  C   UNL     1      25.222  28.522   9.761  1.00  0.00     0.003 C 
ATOM     23  C   UNL     1      25.993  26.776  11.476  1.00  0.00     0.010 C 
ATOM     24  C   UNL     1      25.989  26.186   9.000  1.00  0.00     0.012 C 
ATOM     25  C   UNL     1      23.672  28.136   9.933  1.00  0.00    -0.006 C 
ATOM     26  C   UNL     1      24.612  27.066  12.101  1.00  0.00     0.033 C 
ATOM     27  C   UNL     1      23.450  27.086  11.092  1.00  0.00     0.120 C 
ATOM     28  C   UNL     1      22.793  29.391  10.240  1.00  0.00     0.014 C 
ATOM     29  C   UNL     1      23.093  27.608   8.585  1.00  0.00     0.014 C 
ENDROOT
BRANCH   1  30
ATOM     30  C   UNL     1      31.405  31.069  14.310  1.00  0.00     0.048 C 
ATOM     31  O   UNL     1      32.469  31.259  14.959  1.00  0.00    -0.550 OA
ATOM     32  O   UNL     1      30.291  31.845  14.611  1.00  0.00    -0.550 OA
ENDBRANCH   1  30
BRANCH  27  33
ATOM     33  O   UNL     1      23.228  25.790  10.596  1.00  0.00    -0.393 OA
ATOM     34  H   UNL     1      23.757  25.163  11.156  1.00  0.00     0.210 HD
ENDBRANCH  27  33
TORSDOF 2
ENDMDL
MODEL 6
REMARK VINA RESULT:    -5.848      3.854      6.901
REMARK INTER + INTRA:          -6.372
REMARK INTER:                  -6.334
REMARK INTRA:                  -0.038
REMARK UNBOUND:                -0.011
REMARK SMILES C[C@@H]1[C@H](C)CC[C@@]2(C(=O)[O-])CC[C@@]3(C)C(=CC[C@H]4[C@@]5(C)CC[C@H](O)C(C)(C)[C@H]5CC[C@]43C)[C@@H]12
REMARK SMILES IDX 7 1 6 2 11 3 33 4 5 5 12 6 15 7 2 8 3 9 13 10 16 11 1 12
REMARK SMILES IDX 4 13 14 14 31 15 17 16 18 17 30 18 32 19 19 20 29 21 28 22
REMARK SMILES IDX 21 23 20 24 25 25 22 26 23 27 26 28 27 29 8 30 9 31 10 32
REMARK SMILES IDX 24 33
REMARK H PARENT 24 34
REMARK Flexibility Score: inf
ROOT
ATOM      1  C   UNL     1      31.527  29.717  14.293  1.00  0.00     0.017 C 
ATOM      2  C   UNL     1      32.969  29.132  14.165  1.00  0.00     0.014 C 
ATOM      3  C   UNL     1      31.430  30.992  13.380  1.00  0.00     0.014 C 
ATOM      4  C   UNL     1      30.481  28.603  13.881  1.00  0.00     0.030 C 
ATOM      5  C   UNL     1      33.176  27.823  14.939  1.00  0.00     0.004 C 
ATOM      6  C   UNL     1      30.193  30.995  12.471  1.00  0.00     0.013 C 
ATOM      7  C   UNL     1      30.380  28.487  12.337  1.00  0.00    -0.063 C 
ATOM      8  C   UNL     1      30.701  27.252  14.656  1.00  0.00    -0.003 C 
ATOM      9  C   UNL     1      32.164  26.754  14.496  1.00  0.00    -0.011 C 
ATOM     10  C   UNL     1      30.189  29.765  11.501  1.00  0.00    -0.006 C 
ATOM     11  C   UNL     1      30.255  27.306  11.693  1.00  0.00    -0.027 C 
ATOM     12  C   UNL     1      30.242  27.321  16.132  1.00  0.00     0.008 C 
ATOM     13  C   UNL     1      32.423  25.424  15.219  1.00  0.00     0.008 C 
ATOM     14  C   UNL     1      31.426  29.944  10.551  1.00  0.00     0.017 C 
ATOM     15  C   UNL     1      28.829  29.626  10.649  1.00  0.00    -0.020 C 
ATOM     16  C   UNL     1      29.926  27.243  10.233  1.00  0.00     0.032 C 
ATOM     17  C   UNL     1      28.803  28.257   9.819  1.00  0.00     0.006 C 
ATOM     18  C   UNL     1      27.595  29.645  11.585  1.00  0.00     0.008 C 
ATOM     19  C   UNL     1      28.709  30.853   9.685  1.00  0.00     0.012 C 
ATOM     20  C   UNL     1      27.382  27.523   9.644  1.00  0.00    -0.025 C 
ATOM     21  C   UNL     1      26.245  29.502  10.871  1.00  0.00     0.005 C 
ATOM     22  C   UNL     1      26.195  28.560   9.623  1.00  0.00     0.003 C 
ATOM     23  C   UNL     1      27.110  26.452  10.763  1.00  0.00     0.010 C 
ATOM     24  C   UNL     1      27.478  26.788   8.268  1.00  0.00     0.012 C 
ATOM     25  C   UNL     1      24.741  27.916   9.399  1.00  0.00    -0.006 C 
ATOM     26  C   UNL     1      25.641  26.294  11.212  1.00  0.00     0.033 C 
ATOM     27  C   UNL     1      24.609  26.503  10.089  1.00  0.00     0.120 C 
ATOM     28  C   UNL     1      23.607  28.836   9.954  1.00  0.00     0.014 C 
ATOM     29  C   UNL     1      24.420  27.824   7.875  1.00  0.00     0.014 C 
ENDROOT
BRANCH   1  30
ATOM     30  C   UNL     1      31.257  30.196  15.715  1.00  0.00     0.048 C 
ATOM     31  O   UNL     1      32.195  30.336  16.545  1.00  0.00    -0.550 OA
ATOM     32  O   UNL     1      29.977  30.598  16.081  1.00  0.00    -0.550 OA
ENDBRANCH   1  30
BRANCH  27  33
ATOM     33  O   UNL     1      24.696  25.450   9.161  1.00  0.00    -0.393 OA
ATOM     34  H   UNL     1      24.873  24.617   9.673  1.00  0.00     0.210 HD
ENDBRANCH  27  33
TORSDOF 2
ENDMDL
MODEL 7
REMARK VINA RESULT:    -5.750      3.389      6.853
REMARK INTER + INTRA:          -6.265
REMARK INTER:                  -6.221
REMARK INTRA:                  -0.044
REMARK UNBOUND:                -0.011
REMARK SMILES C[C@@H]1[C@H](C)CC[C@@]2(C(=O)[O-])CC[C@@]3(C)C(=CC[C@H]4[C@@]5(C)CC[C@H](O)C(C)(C)[C@H]5CC[C@]43C)[C@@H]12
REMARK SMILES IDX 7 1 6 2 11 3 33 4 5 5 12 6 15 7 2 8 3 9 13 10 16 11 1 12
REMARK SMILES IDX 4 13 14 14 31 15 17 16 18 17 30 18 32 19 19 20 29 21 28 22
REMARK SMILES IDX 21 23 20 24 25 25 22 26 23 27 26 28 27 29 8 30 9 31 10 32
REMARK SMILES IDX 24 33
REMARK H PARENT 24 34
REMARK Flexibility Score: inf
ROOT
ATOM      1  C   UNL     1      33.205  26.938  14.687  1.00  0.00     0.017 C 
ATOM      2  C   UNL     1      34.629  27.560  14.541  1.00  0.00     0.014 C 
ATOM      3  C   UNL     1      32.397  27.796  15.726  1.00  0.00     0.014 C 
ATOM      4  C   UNL     1      32.509  26.906  13.265  1.00  0.00     0.030 C 
ATOM      5  C   UNL     1      35.500  26.870  13.482  1.00  0.00     0.004 C 
ATOM      6  C   UNL     1      31.001  28.196  15.228  1.00  0.00     0.013 C 
ATOM      7  C   UNL     1      31.946  28.304  12.896  1.00  0.00    -0.063 C 
ATOM      8  C   UNL     1      33.405  26.218  12.170  1.00  0.00    -0.003 C 
ATOM      9  C   UNL     1      34.810  26.880  12.108  1.00  0.00    -0.011 C 
ATOM     10  C   UNL     1      31.080  29.057  13.922  1.00  0.00    -0.006 C 
ATOM     11  C   UNL     1      32.011  28.819  11.649  1.00  0.00    -0.027 C 
ATOM     12  C   UNL     1      33.466  24.680  12.319  1.00  0.00     0.008 C 
ATOM     13  C   UNL     1      35.715  26.256  11.037  1.00  0.00     0.008 C 
ATOM     14  C   UNL     1      31.800  30.396  14.315  1.00  0.00     0.017 C 
ATOM     15  C   UNL     1      29.641  29.354  13.263  1.00  0.00    -0.020 C 
ATOM     16  C   UNL     1      31.256  30.058  11.275  1.00  0.00     0.032 C 
ATOM     17  C   UNL     1      29.793  30.071  11.839  1.00  0.00     0.006 C 
ATOM     18  C   UNL     1      28.853  28.036  13.056  1.00  0.00     0.008 C 
ATOM     19  C   UNL     1      28.811  30.250  14.241  1.00  0.00     0.012 C 
ATOM     20  C   UNL     1      28.719  29.696  10.701  1.00  0.00    -0.025 C 
ATOM     21  C   UNL     1      27.470  28.207  12.417  1.00  0.00     0.005 C 
ATOM     22  C   UNL     1      27.322  29.321  11.327  1.00  0.00     0.003 C 
ATOM     23  C   UNL     1      29.202  28.518   9.776  1.00  0.00     0.010 C 
ATOM     24  C   UNL     1      28.589  30.988   9.831  1.00  0.00     0.012 C 
ATOM     25  C   UNL     1      26.173  28.982  10.257  1.00  0.00    -0.006 C 
ATOM     26  C   UNL     1      28.103  27.564   9.261  1.00  0.00     0.033 C 
ATOM     27  C   UNL     1      26.750  28.243   8.986  1.00  0.00     0.120 C 
ATOM     28  C   UNL     1      25.052  28.085  10.873  1.00  0.00     0.014 C 
ATOM     29  C   UNL     1      25.414  30.282   9.848  1.00  0.00     0.014 C 
ENDROOT
BRANCH   1  30
ATOM     30  C   UNL     1      33.281  25.532  15.270  1.00  0.00     0.048 C 
ATOM     31  O   UNL     1      34.355  25.084  15.754  1.00  0.00    -0.550 OA
ATOM     32  O   UNL     1      32.126  24.764  15.382  1.00  0.00    -0.550 OA
ENDBRANCH   1  30
BRANCH  27  33
ATOM     33  O   UNL     1      26.865  29.104   7.880  1.00  0.00    -0.393 OA
ATOM     34  H   UNL     1      25.976  29.522   7.735  1.00  0.00     0.210 HD
ENDBRANCH  27  33
TORSDOF 2
ENDMDL
MODEL 8
REMARK VINA RESULT:    -5.655      4.627      7.451
REMARK INTER + INTRA:          -6.162
REMARK INTER:                  -6.123
REMARK INTRA:                  -0.039
REMARK UNBOUND:                -0.011
REMARK SMILES C[C@@H]1[C@H](C)CC[C@@]2(C(=O)[O-])CC[C@@]3(C)C(=CC[C@H]4[C@@]5(C)CC[C@H](O)C(C)(C)[C@H]5CC[C@]43C)[C@@H]12
REMARK SMILES IDX 7 1 6 2 11 3 33 4 5 5 12 6 15 7 2 8 3 9 13 10 16 11 1 12
REMARK SMILES IDX 4 13 14 14 31 15 17 16 18 17 30 18 32 19 19 20 29 21 28 22
REMARK SMILES IDX 21 23 20 24 25 25 22 26 23 27 26 28 27 29 8 30 9 31 10 32
REMARK SMILES IDX 24 33
REMARK H PARENT 24 34
REMARK Flexibility Score: inf
ROOT
ATOM      1  C   UNL     1      25.519  25.408  11.829  1.00  0.00     0.017 C 
ATOM      2  C   UNL     1      25.553  24.052  11.057  1.00  0.00     0.014 C 
ATOM      3  C   UNL     1      25.268  25.104  13.349  1.00  0.00     0.014 C 
ATOM      4  C   UNL     1      26.884  26.173  11.587  1.00  0.00     0.030 C 
ATOM      5  C   UNL     1      25.884  24.197   9.566  1.00  0.00     0.004 C 
ATOM      6  C   UNL     1      26.249  25.827  14.283  1.00  0.00     0.013 C 
ATOM      7  C   UNL     1      28.005  25.597  12.493  1.00  0.00    -0.063 C 
ATOM      8  C   UNL     1      27.239  26.306  10.060  1.00  0.00    -0.003 C 
ATOM      9  C   UNL     1      27.228  24.917   9.365  1.00  0.00    -0.011 C 
ATOM     10  C   UNL     1      27.731  25.410  13.995  1.00  0.00    -0.006 C 
ATOM     11  C   UNL     1      29.279  25.430  12.073  1.00  0.00    -0.027 C 
ATOM     12  C   UNL     1      26.372  27.358   9.329  1.00  0.00     0.008 C 
ATOM     13  C   UNL     1      27.590  24.993   7.875  1.00  0.00     0.008 C 
ATOM     14  C   UNL     1      27.840  23.884  14.350  1.00  0.00     0.017 C 
ATOM     15  C   UNL     1      28.810  26.268  14.828  1.00  0.00    -0.020 C 
ATOM     16  C   UNL     1      30.380  25.096  13.033  1.00  0.00     0.032 C 
ATOM     17  C   UNL     1      30.304  25.932  14.358  1.00  0.00     0.006 C 
ATOM     18  C   UNL     1      28.574  27.786  14.626  1.00  0.00     0.008 C 
ATOM     19  C   UNL     1      28.634  25.963  16.352  1.00  0.00     0.012 C 
ATOM     20  C   UNL     1      31.371  27.136  14.356  1.00  0.00    -0.025 C 
ATOM     21  C   UNL     1      29.562  28.696  15.366  1.00  0.00     0.005 C 
ATOM     22  C   UNL     1      31.043  28.199  15.473  1.00  0.00     0.003 C 
ATOM     23  C   UNL     1      31.462  27.864  12.964  1.00  0.00     0.010 C 
ATOM     24  C   UNL     1      32.746  26.455  14.650  1.00  0.00     0.012 C 
ATOM     25  C   UNL     1      32.089  29.413  15.576  1.00  0.00    -0.006 C 
ATOM     26  C   UNL     1      31.739  29.382  13.007  1.00  0.00     0.033 C 
ATOM     27  C   UNL     1      32.653  29.829  14.162  1.00  0.00     0.120 C 
ATOM     28  C   UNL     1      31.449  30.678  16.234  1.00  0.00     0.014 C 
ATOM     29  C   UNL     1      33.249  29.045  16.552  1.00  0.00     0.014 C 
ENDROOT
BRANCH   1  30
ATOM     30  C   UNL     1      24.345  26.267  11.371  1.00  0.00     0.048 C 
ATOM     31  O   UNL     1      23.456  25.802  10.609  1.00  0.00    -0.550 OA
ATOM     32  O   UNL     1      24.179  27.547  11.889  1.00  0.00    -0.550 OA
ENDBRANCH   1  30
BRANCH  27  33
ATOM     33  O   UNL     1      33.957  29.348  13.949  1.00  0.00    -0.393 OA
ATOM     34  H   UNL     1      34.164  28.714  14.686  1.00  0.00     0.210 HD
ENDBRANCH  27  33
TORSDOF 2
ENDMDL
MODEL 9
REMARK VINA RESULT:    -5.568      4.018      6.606
REMARK INTER + INTRA:          -6.067
REMARK INTER:                  -6.072
REMARK INTRA:                   0.005
REMARK UNBOUND:                -0.011
REMARK SMILES C[C@@H]1[C@H](C)CC[C@@]2(C(=O)[O-])CC[C@@]3(C)C(=CC[C@H]4[C@@]5(C)CC[C@H](O)C(C)(C)[C@H]5CC[C@]43C)[C@@H]12
REMARK SMILES IDX 7 1 6 2 11 3 33 4 5 5 12 6 15 7 2 8 3 9 13 10 16 11 1 12
REMARK SMILES IDX 4 13 14 14 31 15 17 16 18 17 30 18 32 19 19 20 29 21 28 22
REMARK SMILES IDX 21 23 20 24 25 25 22 26 23 27 26 28 27 29 8 30 9 31 10 32
REMARK SMILES IDX 24 33
REMARK H PARENT 24 34
REMARK Flexibility Score: inf
ROOT
ATOM      1  C   UNL     1      32.280  27.703  14.204  1.00  0.00     0.017 C 
ATOM      2  C   UNL     1      32.330  28.078  15.719  1.00  0.00     0.014 C 
ATOM      3  C   UNL     1      32.134  26.143  14.088  1.00  0.00     0.014 C 
ATOM      4  C   UNL     1      31.075  28.471  13.523  1.00  0.00     0.030 C 
ATOM      5  C   UNL     1      32.379  29.590  15.980  1.00  0.00     0.004 C 
ATOM      6  C   UNL     1      31.016  25.707  13.131  1.00  0.00     0.013 C 
ATOM      7  C   UNL     1      29.729  27.759  13.823  1.00  0.00    -0.063 C 
ATOM      8  C   UNL     1      31.108  30.018  13.805  1.00  0.00    -0.003 C 
ATOM      9  C   UNL     1      31.182  30.302  15.330  1.00  0.00    -0.011 C 
ATOM     10  C   UNL     1      29.619  26.241  13.599  1.00  0.00    -0.006 C 
ATOM     11  C   UNL     1      28.585  28.427  14.087  1.00  0.00    -0.027 C 
ATOM     12  C   UNL     1      32.204  30.754  12.997  1.00  0.00     0.008 C 
ATOM     13  C   UNL     1      31.195  31.802  15.657  1.00  0.00     0.008 C 
ATOM     14  C   UNL     1      29.312  25.541  14.970  1.00  0.00     0.017 C 
ATOM     15  C   UNL     1      28.439  25.960  12.538  1.00  0.00    -0.020 C 
ATOM     16  C   UNL     1      27.263  27.723  14.140  1.00  0.00     0.032 C 
ATOM     17  C   UNL     1      27.081  26.686  12.977  1.00  0.00     0.006 C 
ATOM     18  C   UNL     1      28.832  26.483  11.134  1.00  0.00     0.008 C 
ATOM     19  C   UNL     1      28.220  24.415  12.421  1.00  0.00     0.012 C 
ATOM     20  C   UNL     1      26.141  27.270  11.809  1.00  0.00    -0.025 C 
ATOM     21  C   UNL     1      27.766  26.279  10.050  1.00  0.00     0.005 C 
ATOM     22  C   UNL     1      26.270  26.422  10.486  1.00  0.00     0.003 C 
ATOM     23  C   UNL     1      26.442  28.780  11.485  1.00  0.00     0.010 C 
ATOM     24  C   UNL     1      24.688  27.165  12.375  1.00  0.00     0.012 C 
ATOM     25  C   UNL     1      25.325  26.905   9.282  1.00  0.00    -0.006 C 
ATOM     26  C   UNL     1      26.279  29.205  10.010  1.00  0.00     0.033 C 
ATOM     27  C   UNL     1      25.150  28.474   9.260  1.00  0.00     0.120 C 
ATOM     28  C   UNL     1      25.882  26.460   7.892  1.00  0.00     0.014 C 
ATOM     29  C   UNL     1      23.939  26.192   9.362  1.00  0.00     0.014 C 
ENDROOT
BRANCH   1  30
ATOM     30  C   UNL     1      33.591  28.057  13.511  1.00  0.00     0.048 C 
ATOM     31  O   UNL     1      34.654  28.213  14.169  1.00  0.00    -0.550 OA
ATOM     32  O   UNL     1      33.653  28.096  12.122  1.00  0.00    -0.550 OA
ENDBRANCH   1  30
BRANCH  27  33
ATOM     33  O   UNL     1      23.903  28.876   9.770  1.00  0.00    -0.393 OA
ATOM     34  H   UNL     1      23.337  28.062   9.844  1.00  0.00     0.210 HD
ENDBRANCH  27  33
TORSDOF 2
ENDMDL
