MODEL 1
REMARK VINA RESULT:    -5.825      0.000      0.000
REMARK INTER + INTRA:          -7.412
REMARK INTER:                  -7.188
REMARK INTRA:                  -0.224
REMARK UNBOUND:                -0.224
REMARK SMILES Oc1cc(O)c2cc(O)c(-c3cc(O)c(O)c(O)c3)[o+]c2c1.[Cl-]
REMARK SMILES IDX 10 1 20 2 21 3 22 4 2 5 3 6 4 7 6 8 7 9 8 10 11 11 12 12
REMARK SMILES IDX 13 13 19 14 15 15 17 16 14 17 16 19 18 21 9 23 1 25 5 27
REMARK H PARENT 14 18 16 20 18 22 9 24 1 26 5 28
REMARK Flexibility Score: inf
ROOT
ATOM      1  C   UNL     1      -9.379   7.763  16.030  1.00  0.00     0.402 A 
ATOM      2  O   UNL     1      -8.423   8.290  16.793  1.00  0.00    -0.202 OA
ATOM      3  C   UNL     1      -8.655   8.812  17.993  1.00  0.00     0.368 A 
ATOM      4  C   UNL     1      -7.595   9.342  18.734  1.00  0.00     0.162 A 
ATOM      5  C   UNL     1      -7.826   9.891  20.002  1.00  0.00     0.128 A 
ATOM      6  C   UNL     1      -9.122   9.910  20.529  1.00  0.00     0.093 A 
ATOM      7  C   UNL     1     -10.196   9.383  19.795  1.00  0.00     0.136 A 
ATOM      8  C   UNL     1      -9.964   8.831  18.521  1.00  0.00     0.125 A 
ATOM      9  C   UNL     1     -10.998   8.298  17.743  1.00  0.00     0.078 A 
ATOM     10  C   UNL     1     -10.715   7.768  16.481  1.00  0.00     0.223 A 
ENDROOT
BRANCH   1  11
ATOM     11  C   UNL     1      -8.995   7.204  14.713  1.00  0.00     0.091 A 
ATOM     12  C   UNL     1      -9.458   7.771  13.515  1.00  0.00     0.068 A 
ATOM     13  C   UNL     1      -9.101   7.213  12.281  1.00  0.00     0.162 A 
ATOM     14  C   UNL     1      -8.200   6.051  14.659  1.00  0.00     0.068 A 
ATOM     15  C   UNL     1      -8.286   6.073  12.228  1.00  0.00     0.200 A 
ATOM     16  C   UNL     1      -7.836   5.483  13.432  1.00  0.00     0.162 A 
BRANCH  13  17
ATOM     17  O   UNL     1      -9.559   7.787  11.095  1.00  0.00    -0.504 OA
ATOM     18  H   UNL     1      -9.173   8.654  10.741  1.00  0.00     0.293 HD
ENDBRANCH  13  17
BRANCH  15  19
ATOM     19  O   UNL     1      -7.955   5.561  10.970  1.00  0.00    -0.502 OA
ATOM     20  H   UNL     1      -8.087   6.060  10.103  1.00  0.00     0.293 HD
ENDBRANCH  15  19
BRANCH  16  21
ATOM     21  O   UNL     1      -7.031   4.341  13.458  1.00  0.00    -0.504 OA
ATOM     22  H   UNL     1      -6.717   3.888  14.303  1.00  0.00     0.293 HD
ENDBRANCH  16  21
ENDBRANCH   1  11
BRANCH  10  23
ATOM     23  O   UNL     1     -11.747   7.281  15.679  1.00  0.00    -0.500 OA
ATOM     24  H   UNL     1     -11.570   6.913  14.752  1.00  0.00     0.294 HD
ENDBRANCH  10  23
BRANCH   5  25
ATOM     25  O   UNL     1      -6.775  10.421  20.747  1.00  0.00    -0.507 OA
ATOM     26  H   UNL     1      -6.942  11.041  21.531  1.00  0.00     0.293 HD
ENDBRANCH   5  25
BRANCH   7  27
ATOM     27  O   UNL     1     -11.484   9.409  20.332  1.00  0.00    -0.507 OA
ATOM     28  H   UNL     1     -11.934   8.568  20.674  1.00  0.00     0.293 HD
ENDBRANCH   7  27
TORSDOF 7
ENDMDL
MODEL 2
REMARK VINA RESULT:    -5.807      0.280      1.810
REMARK INTER + INTRA:          -7.388
REMARK INTER:                  -7.065
REMARK INTRA:                  -0.323
REMARK UNBOUND:                -0.224
REMARK SMILES Oc1cc(O)c2cc(O)c(-c3cc(O)c(O)c(O)c3)[o+]c2c1.[Cl-]
REMARK SMILES IDX 10 1 20 2 21 3 22 4 2 5 3 6 4 7 6 8 7 9 8 10 11 11 12 12
REMARK SMILES IDX 13 13 19 14 15 15 17 16 14 17 16 19 18 21 9 23 1 25 5 27
REMARK H PARENT 14 18 16 20 18 22 9 24 1 26 5 28
REMARK Flexibility Score: inf
ROOT
ATOM      1  C   UNL     1      -9.270   7.862  16.094  1.00  0.00     0.402 A 
ATOM      2  O   UNL     1      -8.334   8.422  16.858  1.00  0.00    -0.202 OA
ATOM      3  C   UNL     1      -8.582   8.925  18.062  1.00  0.00     0.368 A 
ATOM      4  C   UNL     1      -7.541   9.493  18.803  1.00  0.00     0.162 A 
ATOM      5  C   UNL     1      -7.788  10.023  20.075  1.00  0.00     0.128 A 
ATOM      6  C   UNL     1      -9.083   9.986  20.607  1.00  0.00     0.093 A 
ATOM      7  C   UNL     1     -10.137   9.421  19.874  1.00  0.00     0.136 A 
ATOM      8  C   UNL     1      -9.888   8.888  18.596  1.00  0.00     0.125 A 
ATOM      9  C   UNL     1     -10.903   8.319  17.817  1.00  0.00     0.078 A 
ATOM     10  C   UNL     1     -10.604   7.810  16.551  1.00  0.00     0.223 A 
ENDROOT
BRANCH   1  11
ATOM     11  C   UNL     1      -8.870   7.328  14.772  1.00  0.00     0.091 A 
ATOM     12  C   UNL     1      -8.160   6.123  14.656  1.00  0.00     0.068 A 
ATOM     13  C   UNL     1      -7.771   5.645  13.398  1.00  0.00     0.162 A 
ATOM     14  C   UNL     1      -9.155   8.065  13.615  1.00  0.00     0.068 A 
ATOM     15  C   UNL     1      -8.077   6.374  12.239  1.00  0.00     0.200 A 
ATOM     16  C   UNL     1      -8.773   7.601  12.351  1.00  0.00     0.162 A 
BRANCH  13  17
ATOM     17  O   UNL     1      -7.072   4.444  13.290  1.00  0.00    -0.504 OA
ATOM     18  H   UNL     1      -6.064   4.423  13.194  1.00  0.00     0.293 HD
ENDBRANCH  13  17
BRANCH  15  19
ATOM     19  O   UNL     1      -7.672   5.850  11.008  1.00  0.00    -0.502 OA
ATOM     20  H   UNL     1      -6.709   5.697  10.748  1.00  0.00     0.293 HD
ENDBRANCH  15  19
BRANCH  16  21
ATOM     21  O   UNL     1      -9.102   8.385  11.243  1.00  0.00    -0.504 OA
ATOM     22  H   UNL     1      -9.900   9.001  11.202  1.00  0.00     0.293 HD
ENDBRANCH  16  21
ENDBRANCH   1  11
BRANCH  10  23
ATOM     23  O   UNL     1     -11.619   7.287  15.749  1.00  0.00    -0.500 OA
ATOM     24  H   UNL     1     -11.439   6.547  15.081  1.00  0.00     0.294 HD
ENDBRANCH  10  23
BRANCH   5  25
ATOM     25  O   UNL     1      -6.757  10.590  20.820  1.00  0.00    -0.507 OA
ATOM     26  H   UNL     1      -6.138  11.288  20.423  1.00  0.00     0.293 HD
ENDBRANCH   5  25
BRANCH   7  27
ATOM     27  O   UNL     1     -11.423   9.392  20.416  1.00  0.00    -0.507 OA
ATOM     28  H   UNL     1     -12.046   8.607  20.262  1.00  0.00     0.293 HD
ENDBRANCH   7  27
TORSDOF 7
ENDMDL
MODEL 3
REMARK VINA RESULT:    -5.760      4.243      8.199
REMARK INTER + INTRA:          -7.331
REMARK INTER:                  -7.698
REMARK INTRA:                   0.367
REMARK UNBOUND:                -0.224
REMARK SMILES Oc1cc(O)c2cc(O)c(-c3cc(O)c(O)c(O)c3)[o+]c2c1.[Cl-]
REMARK SMILES IDX 10 1 20 2 21 3 22 4 2 5 3 6 4 7 6 8 7 9 8 10 11 11 12 12
REMARK SMILES IDX 13 13 19 14 15 15 17 16 14 17 16 19 18 21 9 23 1 25 5 27
REMARK H PARENT 14 18 16 20 18 22 9 24 1 26 5 28
REMARK Flexibility Score: inf
ROOT
ATOM      1  C   UNL     1      -5.304  10.217  16.978  1.00  0.00     0.402 A 
ATOM      2  O   UNL     1      -5.764  10.143  15.730  1.00  0.00    -0.202 OA
ATOM      3  C   UNL     1      -4.993  10.300  14.660  1.00  0.00     0.368 A 
ATOM      4  C   UNL     1      -5.553  10.202  13.382  1.00  0.00     0.162 A 
ATOM      5  C   UNL     1      -4.749  10.361  12.246  1.00  0.00     0.128 A 
ATOM      6  C   UNL     1      -3.381  10.621  12.389  1.00  0.00     0.093 A 
ATOM      7  C   UNL     1      -2.806  10.724  13.665  1.00  0.00     0.136 A 
ATOM      8  C   UNL     1      -3.613  10.563  14.807  1.00  0.00     0.125 A 
ATOM      9  C   UNL     1      -3.095  10.662  16.103  1.00  0.00     0.078 A 
ATOM     10  C   UNL     1      -3.941  10.501  17.204  1.00  0.00     0.223 A 
ENDROOT
BRANCH   1  11
ATOM     11  C   UNL     1      -6.260  10.016  18.091  1.00  0.00     0.091 A 
ATOM     12  C   UNL     1      -5.909  10.306  19.418  1.00  0.00     0.068 A 
ATOM     13  C   UNL     1      -6.820  10.087  20.459  1.00  0.00     0.162 A 
ATOM     14  C   UNL     1      -7.524   9.471  17.824  1.00  0.00     0.068 A 
ATOM     15  C   UNL     1      -8.093   9.564  20.187  1.00  0.00     0.200 A 
ATOM     16  C   UNL     1      -8.445   9.248  18.853  1.00  0.00     0.162 A 
BRANCH  13  17
ATOM     17  O   UNL     1      -6.466  10.385  21.774  1.00  0.00    -0.504 OA
ATOM     18  H   UNL     1      -6.365   9.659  22.474  1.00  0.00     0.293 HD
ENDBRANCH  13  17
BRANCH  15  19
ATOM     19  O   UNL     1      -8.967   9.372  21.261  1.00  0.00    -0.502 OA
ATOM     20  H   UNL     1      -9.881   8.952  21.178  1.00  0.00     0.293 HD
ENDBRANCH  15  19
BRANCH  16  21
ATOM     21  O   UNL     1      -9.689   8.714  18.509  1.00  0.00    -0.504 OA
ATOM     22  H   UNL     1      -9.856   8.151  17.688  1.00  0.00     0.293 HD
ENDBRANCH  16  21
ENDBRANCH   1  11
BRANCH  10  23
ATOM     23  O   UNL     1      -3.441  10.648  18.498  1.00  0.00    -0.500 OA
ATOM     24  H   UNL     1      -2.845   9.946  18.919  1.00  0.00     0.294 HD
ENDBRANCH  10  23
BRANCH   5  25
ATOM     25  O   UNL     1      -5.299  10.265  10.970  1.00  0.00    -0.507 OA
ATOM     26  H   UNL     1      -5.988  10.930  10.639  1.00  0.00     0.293 HD
ENDBRANCH   5  25
BRANCH   7  27
ATOM     27  O   UNL     1      -1.441  10.984  13.793  1.00  0.00    -0.507 OA
ATOM     28  H   UNL     1      -1.091  11.678  14.443  1.00  0.00     0.293 HD
ENDBRANCH   7  27
TORSDOF 7
ENDMDL
MODEL 4
REMARK VINA RESULT:    -5.637      2.380      7.848
REMARK INTER + INTRA:          -7.179
REMARK INTER:                  -7.080
REMARK INTRA:                  -0.099
REMARK UNBOUND:                -0.224
REMARK SMILES Oc1cc(O)c2cc(O)c(-c3cc(O)c(O)c(O)c3)[o+]c2c1.[Cl-]
REMARK SMILES IDX 10 1 20 2 21 3 22 4 2 5 3 6 4 7 6 8 7 9 8 10 11 11 12 12
REMARK SMILES IDX 13 13 19 14 15 15 17 16 14 17 16 19 18 21 9 23 1 25 5 27
REMARK H PARENT 14 18 16 20 18 22 9 24 1 26 5 28
REMARK Flexibility Score: inf
ROOT
ATOM      1  C   UNL     1      -9.550   7.216  13.537  1.00  0.00     0.402 A 
ATOM      2  O   UNL     1     -10.507   6.880  12.675  1.00  0.00    -0.202 OA
ATOM      3  C   UNL     1     -10.259   6.475  11.434  1.00  0.00     0.368 A 
ATOM      4  C   UNL     1     -11.322   6.135  10.591  1.00  0.00     0.162 A 
ATOM      5  C   UNL     1     -11.073   5.703   9.282  1.00  0.00     0.128 A 
ATOM      6  C   UNL     1      -9.756   5.612   8.815  1.00  0.00     0.093 A 
ATOM      7  C   UNL     1      -8.680   5.951   9.650  1.00  0.00     0.136 A 
ATOM      8  C   UNL     1      -8.930   6.385  10.965  1.00  0.00     0.125 A 
ATOM      9  C   UNL     1      -7.897   6.743  11.838  1.00  0.00     0.078 A 
ATOM     10  C   UNL     1      -8.199   7.174  13.133  1.00  0.00     0.223 A 
ENDROOT
BRANCH   1  11
ATOM     11  C   UNL     1      -9.951   7.644  14.898  1.00  0.00     0.091 A 
ATOM     12  C   UNL     1     -10.853   8.701  15.094  1.00  0.00     0.068 A 
ATOM     13  C   UNL     1     -11.203   9.105  16.389  1.00  0.00     0.162 A 
ATOM     14  C   UNL     1      -9.376   7.021  16.014  1.00  0.00     0.068 A 
ATOM     15  C   UNL     1     -10.645   8.465  17.505  1.00  0.00     0.200 A 
ATOM     16  C   UNL     1      -9.716   7.414  17.314  1.00  0.00     0.162 A 
BRANCH  13  17
ATOM     17  O   UNL     1     -12.106  10.150  16.577  1.00  0.00    -0.504 OA
ATOM     18  H   UNL     1     -12.492  10.666  15.795  1.00  0.00     0.293 HD
ENDBRANCH  13  17
BRANCH  15  19
ATOM     19  O   UNL     1     -11.033   8.902  18.775  1.00  0.00    -0.502 OA
ATOM     20  H   UNL     1     -11.179   9.871  19.019  1.00  0.00     0.293 HD
ENDBRANCH  15  19
BRANCH  16  21
ATOM     21  O   UNL     1      -9.112   6.739  18.376  1.00  0.00    -0.504 OA
ATOM     22  H   UNL     1      -9.458   6.750  19.325  1.00  0.00     0.293 HD
ENDBRANCH  16  21
ENDBRANCH   1  11
BRANCH  10  23
ATOM     23  O   UNL     1      -7.178   7.581  13.992  1.00  0.00    -0.500 OA
ATOM     24  H   UNL     1      -6.959   8.560  14.129  1.00  0.00     0.294 HD
ENDBRANCH  10  23
BRANCH   5  25
ATOM     25  O   UNL     1     -12.125   5.362   8.436  1.00  0.00    -0.507 OA
ATOM     26  H   UNL     1     -12.521   6.032   7.787  1.00  0.00     0.293 HD
ENDBRANCH   5  25
BRANCH   7  27
ATOM     27  O   UNL     1      -7.373   5.857   9.171  1.00  0.00    -0.507 OA
ATOM     28  H   UNL     1      -6.585   6.210   9.703  1.00  0.00     0.293 HD
ENDBRANCH   7  27
TORSDOF 7
ENDMDL
MODEL 5
REMARK VINA RESULT:    -5.601      2.088      7.054
REMARK INTER + INTRA:          -7.135
REMARK INTER:                  -6.809
REMARK INTRA:                  -0.326
REMARK UNBOUND:                -0.224
REMARK SMILES Oc1cc(O)c2cc(O)c(-c3cc(O)c(O)c(O)c3)[o+]c2c1.[Cl-]
REMARK SMILES IDX 10 1 20 2 21 3 22 4 2 5 3 6 4 7 6 8 7 9 8 10 11 11 12 12
REMARK SMILES IDX 13 13 19 14 15 15 17 16 14 17 16 19 18 21 9 23 1 25 5 27
REMARK H PARENT 14 18 16 20 18 22 9 24 1 26 5 28
REMARK Flexibility Score: inf
ROOT
ATOM      1  C   UNL     1      -9.180   8.557  16.982  1.00  0.00     0.402 A 
ATOM      2  O   UNL     1      -9.348   9.421  15.983  1.00  0.00    -0.202 OA
ATOM      3  C   UNL     1      -9.795   9.069  14.783  1.00  0.00     0.368 A 
ATOM      4  C   UNL     1      -9.947  10.040  13.788  1.00  0.00     0.162 A 
ATOM      5  C   UNL     1     -10.422   9.681  12.520  1.00  0.00     0.128 A 
ATOM      6  C   UNL     1     -10.743   8.347  12.246  1.00  0.00     0.093 A 
ATOM      7  C   UNL     1     -10.593   7.362  13.234  1.00  0.00     0.136 A 
ATOM      8  C   UNL     1     -10.117   7.722  14.509  1.00  0.00     0.125 A 
ATOM      9  C   UNL     1      -9.941   6.781  15.529  1.00  0.00     0.078 A 
ATOM     10  C   UNL     1      -9.459   7.190  16.776  1.00  0.00     0.223 A 
ENDROOT
BRANCH   1  11
ATOM     11  C   UNL     1      -8.683   9.072  18.279  1.00  0.00     0.091 A 
ATOM     12  C   UNL     1      -7.329   9.387  18.469  1.00  0.00     0.068 A 
ATOM     13  C   UNL     1      -6.875   9.852  19.710  1.00  0.00     0.162 A 
ATOM     14  C   UNL     1      -9.570   9.194  19.358  1.00  0.00     0.068 A 
ATOM     15  C   UNL     1      -7.769   9.996  20.782  1.00  0.00     0.200 A 
ATOM     16  C   UNL     1      -9.131   9.658  20.603  1.00  0.00     0.162 A 
BRANCH  13  17
ATOM     17  O   UNL     1      -5.530  10.171  19.889  1.00  0.00    -0.504 OA
ATOM     18  H   UNL     1      -4.855  10.066  19.141  1.00  0.00     0.293 HD
ENDBRANCH  13  17
BRANCH  15  19
ATOM     19  O   UNL     1      -7.265  10.470  21.997  1.00  0.00    -0.502 OA
ATOM     20  H   UNL     1      -6.962   9.876  22.754  1.00  0.00     0.293 HD
ENDBRANCH  15  19
BRANCH  16  21
ATOM     21  O   UNL     1     -10.075   9.765  21.627  1.00  0.00    -0.504 OA
ATOM     22  H   UNL     1     -10.010  10.421  22.391  1.00  0.00     0.293 HD
ENDBRANCH  16  21
ENDBRANCH   1  11
BRANCH  10  23
ATOM     23  O   UNL     1      -9.233   6.249  17.782  1.00  0.00    -0.500 OA
ATOM     24  H   UNL     1      -8.471   6.351  18.441  1.00  0.00     0.294 HD
ENDBRANCH  10  23
BRANCH   5  25
ATOM     25  O   UNL     1     -10.577  10.642  11.523  1.00  0.00    -0.507 OA
ATOM     26  H   UNL     1     -11.323  10.581  10.840  1.00  0.00     0.293 HD
ENDBRANCH   5  25
BRANCH   7  27
ATOM     27  O   UNL     1     -10.915   6.035  12.948  1.00  0.00    -0.507 OA
ATOM     28  H   UNL     1     -11.385   5.444  13.624  1.00  0.00     0.293 HD
ENDBRANCH   7  27
TORSDOF 7
ENDMDL
MODEL 6
REMARK VINA RESULT:    -5.562      2.143      6.985
REMARK INTER + INTRA:          -7.086
REMARK INTER:                  -6.714
REMARK INTRA:                  -0.373
REMARK UNBOUND:                -0.224
REMARK SMILES Oc1cc(O)c2cc(O)c(-c3cc(O)c(O)c(O)c3)[o+]c2c1.[Cl-]
REMARK SMILES IDX 10 1 20 2 21 3 22 4 2 5 3 6 4 7 6 8 7 9 8 10 11 11 12 12
REMARK SMILES IDX 13 13 19 14 15 15 17 16 14 17 16 19 18 21 9 23 1 25 5 27
REMARK H PARENT 14 18 16 20 18 22 9 24 1 26 5 28
REMARK Flexibility Score: inf
ROOT
ATOM      1  C   UNL     1      -9.160   8.557  17.054  1.00  0.00     0.402 A 
ATOM      2  O   UNL     1      -9.349   9.411  16.050  1.00  0.00    -0.202 OA
ATOM      3  C   UNL     1      -9.824   9.047  14.864  1.00  0.00     0.368 A 
ATOM      4  C   UNL     1      -9.997  10.007  13.862  1.00  0.00     0.162 A 
ATOM      5  C   UNL     1     -10.500   9.635  12.609  1.00  0.00     0.128 A 
ATOM      6  C   UNL     1     -10.830   8.299  12.357  1.00  0.00     0.093 A 
ATOM      7  C   UNL     1     -10.660   7.324  13.352  1.00  0.00     0.136 A 
ATOM      8  C   UNL     1     -10.154   7.697  14.612  1.00  0.00     0.125 A 
ATOM      9  C   UNL     1      -9.957   6.767  15.638  1.00  0.00     0.078 A 
ATOM     10  C   UNL     1      -9.446   7.188  16.869  1.00  0.00     0.223 A 
ENDROOT
BRANCH   1  11
ATOM     11  C   UNL     1      -8.633   9.085  18.334  1.00  0.00     0.091 A 
ATOM     12  C   UNL     1      -9.483   9.355  19.418  1.00  0.00     0.068 A 
ATOM     13  C   UNL     1      -8.968   9.875  20.612  1.00  0.00     0.162 A 
ATOM     14  C   UNL     1      -7.267   9.374  18.450  1.00  0.00     0.068 A 
ATOM     15  C   UNL     1      -7.596  10.142  20.734  1.00  0.00     0.200 A 
ATOM     16  C   UNL     1      -6.738   9.893  19.637  1.00  0.00     0.162 A 
BRANCH  13  17
ATOM     17  O   UNL     1      -9.817  10.134  21.687  1.00  0.00    -0.504 OA
ATOM     18  H   UNL     1      -9.680   9.696  22.590  1.00  0.00     0.293 HD
ENDBRANCH  13  17
BRANCH  15  19
ATOM     19  O   UNL     1      -7.133  10.654  21.950  1.00  0.00    -0.502 OA
ATOM     20  H   UNL     1      -6.594  10.123  22.618  1.00  0.00     0.293 HD
ENDBRANCH  15  19
BRANCH  16  21
ATOM     21  O   UNL     1      -5.365  10.145  19.682  1.00  0.00    -0.504 OA
ATOM     22  H   UNL     1      -4.726   9.941  18.928  1.00  0.00     0.293 HD
ENDBRANCH  16  21
ENDBRANCH   1  11
BRANCH  10  23
ATOM     23  O   UNL     1      -9.200   6.259  17.880  1.00  0.00    -0.500 OA
ATOM     24  H   UNL     1      -9.559   6.387  18.818  1.00  0.00     0.294 HD
ENDBRANCH  10  23
BRANCH   5  25
ATOM     25  O   UNL     1     -10.676  10.586  11.606  1.00  0.00    -0.507 OA
ATOM     26  H   UNL     1     -11.449  10.530  10.953  1.00  0.00     0.293 HD
ENDBRANCH   5  25
BRANCH   7  27
ATOM     27  O   UNL     1     -10.991   5.995  13.088  1.00  0.00    -0.507 OA
ATOM     28  H   UNL     1     -10.627   5.507  12.277  1.00  0.00     0.293 HD
ENDBRANCH   7  27
TORSDOF 7
ENDMDL
MODEL 7
REMARK VINA RESULT:    -5.553      1.679      2.739
REMARK INTER + INTRA:          -7.076
REMARK INTER:                  -6.777
REMARK INTRA:                  -0.299
REMARK UNBOUND:                -0.224
REMARK SMILES Oc1cc(O)c2cc(O)c(-c3cc(O)c(O)c(O)c3)[o+]c2c1.[Cl-]
REMARK SMILES IDX 10 1 20 2 21 3 22 4 2 5 3 6 4 7 6 8 7 9 8 10 11 11 12 12
REMARK SMILES IDX 13 13 19 14 15 15 17 16 14 17 16 19 18 21 9 23 1 25 5 27
REMARK H PARENT 14 18 16 20 18 22 9 24 1 26 5 28
REMARK Flexibility Score: inf
ROOT
ATOM      1  C   UNL     1      -9.530   7.622  14.632  1.00  0.00     0.402 A 
ATOM      2  O   UNL     1      -8.580   8.491  14.973  1.00  0.00    -0.202 OA
ATOM      3  C   UNL     1      -8.327   8.837  16.230  1.00  0.00     0.368 A 
ATOM      4  C   UNL     1      -7.308   9.754  16.505  1.00  0.00     0.162 A 
ATOM      5  C   UNL     1      -7.029  10.123  17.827  1.00  0.00     0.128 A 
ATOM      6  C   UNL     1      -7.774   9.574  18.877  1.00  0.00     0.093 A 
ATOM      7  C   UNL     1      -8.801   8.654  18.616  1.00  0.00     0.136 A 
ATOM      8  C   UNL     1      -9.081   8.283  17.288  1.00  0.00     0.125 A 
ATOM      9  C   UNL     1     -10.098   7.376  16.969  1.00  0.00     0.078 A 
ATOM     10  C   UNL     1     -10.339   7.045  15.633  1.00  0.00     0.223 A 
ENDROOT
BRANCH   1  11
ATOM     11  C   UNL     1      -9.712   7.310  13.195  1.00  0.00     0.091 A 
ATOM     12  C   UNL     1      -8.776   6.535  12.493  1.00  0.00     0.068 A 
ATOM     13  C   UNL     1      -8.954   6.269  11.129  1.00  0.00     0.162 A 
ATOM     14  C   UNL     1     -10.810   7.843  12.507  1.00  0.00     0.068 A 
ATOM     15  C   UNL     1     -10.066   6.784  10.447  1.00  0.00     0.200 A 
ATOM     16  C   UNL     1     -11.001   7.586  11.145  1.00  0.00     0.162 A 
BRANCH  13  17
ATOM     17  O   UNL     1      -8.024   5.493  10.440  1.00  0.00    -0.504 OA
ATOM     18  H   UNL     1      -7.224   5.082  10.907  1.00  0.00     0.293 HD
ENDBRANCH  13  17
BRANCH  15  19
ATOM     19  O   UNL     1     -10.200   6.483   9.089  1.00  0.00    -0.502 OA
ATOM     20  H   UNL     1      -9.459   6.105   8.517  1.00  0.00     0.293 HD
ENDBRANCH  15  19
BRANCH  16  21
ATOM     21  O   UNL     1     -12.125   8.141  10.529  1.00  0.00    -0.504 OA
ATOM     22  H   UNL     1     -12.182   8.359   9.545  1.00  0.00     0.293 HD
ENDBRANCH  16  21
ENDBRANCH   1  11
BRANCH  10  23
ATOM     23  O   UNL     1     -11.384   6.181  15.303  1.00  0.00    -0.500 OA
ATOM     24  H   UNL     1     -11.685   5.448  15.934  1.00  0.00     0.294 HD
ENDBRANCH  10  23
BRANCH   5  25
ATOM     25  O   UNL     1      -6.015  11.036  18.109  1.00  0.00    -0.507 OA
ATOM     26  H   UNL     1      -5.114  10.985  17.649  1.00  0.00     0.293 HD
ENDBRANCH   5  25
BRANCH   7  27
ATOM     27  O   UNL     1      -9.537   8.115  19.672  1.00  0.00    -0.507 OA
ATOM     28  H   UNL     1      -9.577   7.116  19.836  1.00  0.00     0.293 HD
ENDBRANCH   7  27
TORSDOF 7
ENDMDL
MODEL 8
REMARK VINA RESULT:    -5.443      1.889      3.412
REMARK INTER + INTRA:          -6.940
REMARK INTER:                  -6.626
REMARK INTRA:                  -0.314
REMARK UNBOUND:                -0.224
REMARK SMILES Oc1cc(O)c2cc(O)c(-c3cc(O)c(O)c(O)c3)[o+]c2c1.[Cl-]
REMARK SMILES IDX 10 1 20 2 21 3 22 4 2 5 3 6 4 7 6 8 7 9 8 10 11 11 12 12
REMARK SMILES IDX 13 13 19 14 15 15 17 16 14 17 16 19 18 21 9 23 1 25 5 27
REMARK H PARENT 14 18 16 20 18 22 9 24 1 26 5 28
REMARK Flexibility Score: inf
ROOT
ATOM      1  C   UNL     1      -8.003   9.529  16.987  1.00  0.00     0.402 A 
ATOM      2  O   UNL     1      -9.086   9.543  17.762  1.00  0.00    -0.202 OA
ATOM      3  C   UNL     1      -9.046   9.799  19.065  1.00  0.00     0.368 A 
ATOM      4  C   UNL     1     -10.231   9.799  19.808  1.00  0.00     0.162 A 
ATOM      5  C   UNL     1     -10.202  10.071  21.181  1.00  0.00     0.128 A 
ATOM      6  C   UNL     1      -8.983  10.342  21.814  1.00  0.00     0.093 A 
ATOM      7  C   UNL     1      -7.786  10.343  21.081  1.00  0.00     0.136 A 
ATOM      8  C   UNL     1      -7.815  10.070  19.701  1.00  0.00     0.125 A 
ATOM      9  C   UNL     1      -6.652  10.051  18.923  1.00  0.00     0.078 A 
ATOM     10  C   UNL     1      -6.735   9.768  17.557  1.00  0.00     0.223 A 
ENDROOT
BRANCH   1  11
ATOM     11  C   UNL     1      -8.176   9.239  15.545  1.00  0.00     0.091 A 
ATOM     12  C   UNL     1      -8.000  10.237  14.574  1.00  0.00     0.068 A 
ATOM     13  C   UNL     1      -8.190   9.948  13.216  1.00  0.00     0.162 A 
ATOM     14  C   UNL     1      -8.578   7.958  15.142  1.00  0.00     0.068 A 
ATOM     15  C   UNL     1      -8.570   8.659  12.813  1.00  0.00     0.200 A 
ATOM     16  C   UNL     1      -8.771   7.655  13.789  1.00  0.00     0.162 A 
BRANCH  13  17
ATOM     17  O   UNL     1      -8.007  10.942  12.257  1.00  0.00    -0.504 OA
ATOM     18  H   UNL     1      -8.230  10.787  11.281  1.00  0.00     0.293 HD
ENDBRANCH  13  17
BRANCH  15  19
ATOM     19  O   UNL     1      -8.739   8.423  11.446  1.00  0.00    -0.502 OA
ATOM     20  H   UNL     1      -9.530   7.936  11.050  1.00  0.00     0.293 HD
ENDBRANCH  15  19
BRANCH  16  21
ATOM     21  O   UNL     1      -9.160   6.354  13.463  1.00  0.00    -0.504 OA
ATOM     22  H   UNL     1      -9.143   5.579  14.110  1.00  0.00     0.293 HD
ENDBRANCH  16  21
ENDBRANCH   1  11
BRANCH  10  23
ATOM     23  O   UNL     1      -5.575   9.697  16.785  1.00  0.00    -0.500 OA
ATOM     24  H   UNL     1      -4.655   9.694  17.210  1.00  0.00     0.294 HD
ENDBRANCH  10  23
BRANCH   5  25
ATOM     25  O   UNL     1     -11.377  10.074  21.928  1.00  0.00    -0.507 OA
ATOM     26  H   UNL     1     -12.241  10.453  21.556  1.00  0.00     0.293 HD
ENDBRANCH   5  25
BRANCH   7  27
ATOM     27  O   UNL     1      -6.578  10.614  21.725  1.00  0.00    -0.507 OA
ATOM     28  H   UNL     1      -5.819   9.941  21.736  1.00  0.00     0.293 HD
ENDBRANCH   7  27
TORSDOF 7
ENDMDL
MODEL 9
REMARK VINA RESULT:    -5.376      2.636      4.107
REMARK INTER + INTRA:          -6.857
REMARK INTER:                  -6.687
REMARK INTRA:                  -0.170
REMARK UNBOUND:                -0.224
REMARK SMILES Oc1cc(O)c2cc(O)c(-c3cc(O)c(O)c(O)c3)[o+]c2c1.[Cl-]
REMARK SMILES IDX 10 1 20 2 21 3 22 4 2 5 3 6 4 7 6 8 7 9 8 10 11 11 12 12
REMARK SMILES IDX 13 13 19 14 15 15 17 16 14 17 16 19 18 21 9 23 1 25 5 27
REMARK H PARENT 14 18 16 20 18 22 9 24 1 26 5 28
REMARK Flexibility Score: inf
ROOT
ATOM      1  C   UNL     1     -10.530   7.291  12.678  1.00  0.00     0.402 A 
ATOM      2  O   UNL     1      -9.962   6.816  13.784  1.00  0.00    -0.202 OA
ATOM      3  C   UNL     1     -10.169   7.334  14.990  1.00  0.00     0.368 A 
ATOM      4  C   UNL     1      -9.537   6.773  16.104  1.00  0.00     0.162 A 
ATOM      5  C   UNL     1      -9.751   7.308  17.380  1.00  0.00     0.128 A 
ATOM      6  C   UNL     1     -10.599   8.410  17.542  1.00  0.00     0.093 A 
ATOM      7  C   UNL     1     -11.238   8.985  16.433  1.00  0.00     0.136 A 
ATOM      8  C   UNL     1     -11.024   8.447  15.151  1.00  0.00     0.125 A 
ATOM      9  C   UNL     1     -11.629   8.984  14.009  1.00  0.00     0.078 A 
ATOM     10  C   UNL     1     -11.378   8.416  12.757  1.00  0.00     0.223 A 
ENDROOT
BRANCH   1  11
ATOM     11  C   UNL     1     -10.229   6.622  11.392  1.00  0.00     0.091 A 
ATOM     12  C   UNL     1      -8.920   6.559  10.890  1.00  0.00     0.068 A 
ATOM     13  C   UNL     1      -8.658   5.940   9.661  1.00  0.00     0.162 A 
ATOM     14  C   UNL     1     -11.277   6.088  10.630  1.00  0.00     0.068 A 
ATOM     15  C   UNL     1      -9.706   5.386   8.911  1.00  0.00     0.200 A 
ATOM     16  C   UNL     1     -11.031   5.467   9.400  1.00  0.00     0.162 A 
BRANCH  13  17
ATOM     17  O   UNL     1      -7.354   5.875   9.173  1.00  0.00    -0.504 OA
ATOM     18  H   UNL     1      -6.691   6.625   9.327  1.00  0.00     0.293 HD
ENDBRANCH  13  17
BRANCH  15  19
ATOM     19  O   UNL     1      -9.390   4.775   7.694  1.00  0.00    -0.502 OA
ATOM     20  H   UNL     1      -9.567   5.188   6.790  1.00  0.00     0.293 HD
ENDBRANCH  15  19
BRANCH  16  21
ATOM     21  O   UNL     1     -12.125   4.948   8.703  1.00  0.00    -0.504 OA
ATOM     22  H   UNL     1     -12.319   3.962   8.606  1.00  0.00     0.293 HD
ENDBRANCH  16  21
ENDBRANCH   1  11
BRANCH  10  23
ATOM     23  O   UNL     1     -11.938   8.977  11.609  1.00  0.00    -0.500 OA
ATOM     24  H   UNL     1     -11.371   9.465  10.926  1.00  0.00     0.294 HD
ENDBRANCH  10  23
BRANCH   5  25
ATOM     25  O   UNL     1      -9.125   6.755  18.495  1.00  0.00    -0.507 OA
ATOM     26  H   UNL     1      -9.045   5.752  18.614  1.00  0.00     0.293 HD
ENDBRANCH   5  25
BRANCH   7  27
ATOM     27  O   UNL     1     -12.080  10.084  16.608  1.00  0.00    -0.507 OA
ATOM     28  H   UNL     1     -12.026  10.896  16.004  1.00  0.00     0.293 HD
ENDBRANCH   7  27
TORSDOF 7
ENDMDL
