MODEL 1
REMARK VINA RESULT:    -4.125      0.000      0.000
REMARK INTER + INTRA:         -16.248
REMARK INTER:                 -10.878
REMARK INTRA:                  -5.370
REMARK UNBOUND:                -5.370
REMARK SMILES CCCCCCCCCCCCCCCCCCCCCCCCCCCCCC(=O)[O-]
REMARK SMILES IDX 16 1 17 2 18 3 19 4 20 5 21 6 22 7 23 8 24 9 25 10 26 11
REMARK SMILES IDX 27 12 28 13 29 14 30 15 31 16 32 17 15 18 14 19 13 20 12 21
REMARK SMILES IDX 11 22 10 23 9 24 8 25 7 26 6 27 5 28 4 29 3 30 2 31 1 32
REMARK H PARENT
REMARK Flexibility Score: inf
ROOT
ATOM      1  C   UNL     1      93.248  83.650  77.627  1.00  0.00     0.000 C 
ENDROOT
BRANCH   1   2
ATOM      2  C   UNL     1      93.866  84.876  76.940  1.00  0.00     0.000 C 
BRANCH   2   3
ATOM      3  C   UNL     1      94.407  85.908  77.939  1.00  0.00     0.000 C 
BRANCH   3   4
ATOM      4  C   UNL     1      95.924  86.083  77.774  1.00  0.00     0.000 C 
BRANCH   4   5
ATOM      5  C   UNL     1      96.735  85.287  78.812  1.00  0.00     0.000 C 
BRANCH   5   6
ATOM      6  C   UNL     1      95.976  84.949  80.108  1.00  0.00     0.000 C 
BRANCH   6   7
ATOM      7  C   UNL     1      95.693  83.446  80.259  1.00  0.00     0.000 C 
BRANCH   7   8
ATOM      8  C   UNL     1      96.402  82.639  79.166  1.00  0.00     0.000 C 
BRANCH   8   9
ATOM      9  C   UNL     1      97.382  81.628  79.778  1.00  0.00     0.000 C 
BRANCH   9  10
ATOM     10  C   UNL     1      98.803  82.193  79.934  1.00  0.00     0.000 C 
BRANCH  10  11
ATOM     11  C   UNL     1      99.230  82.380  81.406  1.00  0.00     0.000 C 
BRANCH  11  12
ATOM     12  C   UNL     1      99.548  83.847  81.733  1.00  0.00     0.000 C 
BRANCH  12  13
ATOM     13  C   UNL     1      98.512  84.435  82.699  1.00  0.00     0.006 C 
BRANCH  13  14
ATOM     14  C   UNL     1      97.679  83.329  83.352  1.00  0.00     0.053 C 
BRANCH  14  15
ATOM     15  C   UNL     1      97.976  83.237  84.816  1.00  0.00     0.041 C 
ATOM     16  O   UNL     1      99.130  82.911  85.209  1.00  0.00    -0.550 OA
ATOM     17  O   UNL     1      96.978  83.502  85.747  1.00  0.00    -0.550 OA
ENDBRANCH  14  15
ENDBRANCH  13  14
ENDBRANCH  12  13
ENDBRANCH  11  12
ENDBRANCH  10  11
ENDBRANCH   9  10
ENDBRANCH   8   9
ENDBRANCH   7   8
ENDBRANCH   6   7
ENDBRANCH   5   6
ENDBRANCH   4   5
ENDBRANCH   3   4
ENDBRANCH   2   3
ENDBRANCH   1   2
BRANCH   1  18
ATOM     18  C   UNL     1      91.960  83.164  76.940  1.00  0.00     0.000 C 
BRANCH  18  19
ATOM     19  C   UNL     1      90.910  84.277  76.801  1.00  0.00     0.000 C 
BRANCH  19  20
ATOM     20  C   UNL     1      89.470  83.759  76.947  1.00  0.00     0.000 C 
BRANCH  20  21
ATOM     21  C   UNL     1      89.198  83.297  78.386  1.00  0.00     0.000 C 
BRANCH  21  22
ATOM     22  C   UNL     1      89.293  84.441  79.412  1.00  0.00     0.000 C 
BRANCH  22  23
ATOM     23  C   UNL     1      89.990  84.046  80.730  1.00  0.00     0.000 C 
BRANCH  23  24
ATOM     24  C   UNL     1      91.504  84.325  80.702  1.00  0.00    -0.000 C 
BRANCH  24  25
ATOM     25  C   UNL     1      91.824  85.807  80.442  1.00  0.00    -0.000 C 
BRANCH  25  26
ATOM     26  C   UNL     1      91.178  86.738  81.484  1.00  0.00    -0.000 C 
BRANCH  26  27
ATOM     27  C   UNL     1      91.694  86.485  82.912  1.00  0.00    -0.000 C 
BRANCH  27  28
ATOM     28  C   UNL     1      90.632  85.972  83.906  1.00  0.00    -0.000 C 
BRANCH  28  29
ATOM     29  C   UNL     1      91.125  84.910  84.906  1.00  0.00    -0.000 C 
BRANCH  29  30
ATOM     30  C   UNL     1      91.591  83.613  84.220  1.00  0.00    -0.000 C 
BRANCH  30  31
ATOM     31  C   UNL     1      93.060  83.279  84.525  1.00  0.00    -0.003 C 
ATOM     32  C   UNL     1      94.028  83.851  83.488  1.00  0.00     0.004 C 
ENDBRANCH  30  31
ENDBRANCH  29  30
ENDBRANCH  28  29
ENDBRANCH  27  28
ENDBRANCH  26  27
ENDBRANCH  25  26
ENDBRANCH  24  25
ENDBRANCH  23  24
ENDBRANCH  22  23
ENDBRANCH  21  22
ENDBRANCH  20  21
ENDBRANCH  19  20
ENDBRANCH  18  19
ENDBRANCH   1  18
TORSDOF 28
ENDMDL
MODEL 2
REMARK VINA RESULT:    -4.079      2.031      5.426
REMARK INTER + INTRA:         -16.126
REMARK INTER:                 -10.987
REMARK INTRA:                  -5.139
REMARK UNBOUND:                -5.370
REMARK SMILES CCCCCCCCCCCCCCCCCCCCCCCCCCCCCC(=O)[O-]
REMARK SMILES IDX 16 1 17 2 18 3 19 4 20 5 21 6 22 7 23 8 24 9 25 10 26 11
REMARK SMILES IDX 27 12 28 13 29 14 30 15 31 16 32 17 15 18 14 19 13 20 12 21
REMARK SMILES IDX 11 22 10 23 9 24 8 25 7 26 6 27 5 28 4 29 3 30 2 31 1 32
REMARK H PARENT
REMARK Flexibility Score: inf
ROOT
ATOM      1  C   UNL     1      95.452  83.409  81.349  1.00  0.00     0.000 C 
ENDROOT
BRANCH   1   2
ATOM      2  C   UNL     1      94.528  84.592  81.676  1.00  0.00     0.000 C 
BRANCH   2   3
ATOM      3  C   UNL     1      93.474  84.246  82.737  1.00  0.00     0.000 C 
BRANCH   3   4
ATOM      4  C   UNL     1      94.037  83.248  83.760  1.00  0.00     0.000 C 
BRANCH   4   5
ATOM      5  C   UNL     1      94.604  83.935  85.016  1.00  0.00     0.000 C 
BRANCH   5   6
ATOM      6  C   UNL     1      96.132  83.832  85.178  1.00  0.00     0.000 C 
BRANCH   6   7
ATOM      7  C   UNL     1      96.878  85.024  84.561  1.00  0.00     0.000 C 
BRANCH   7   8
ATOM      8  C   UNL     1      98.258  84.603  84.043  1.00  0.00     0.000 C 
BRANCH   8   9
ATOM      9  C   UNL     1      98.390  83.074  84.013  1.00  0.00     0.000 C 
BRANCH   9  10
ATOM     10  C   UNL     1      99.721  82.601  83.407  1.00  0.00     0.000 C 
BRANCH  10  11
ATOM     11  C   UNL     1      99.668  82.421  81.875  1.00  0.00     0.000 C 
BRANCH  11  12
ATOM     12  C   UNL     1     100.780  83.206  81.162  1.00  0.00     0.000 C 
BRANCH  12  13
ATOM     13  C   UNL     1     100.293  84.598  80.743  1.00  0.00     0.006 C 
BRANCH  13  14
ATOM     14  C   UNL     1     101.352  85.663  81.039  1.00  0.00     0.053 C 
BRANCH  14  15
ATOM     15  C   UNL     1     101.189  86.199  82.427  1.00  0.00     0.041 C 
ATOM     16  O   UNL     1     101.796  85.656  83.391  1.00  0.00    -0.550 OA
ATOM     17  O   UNL     1     100.361  87.291  82.660  1.00  0.00    -0.550 OA
ENDBRANCH  14  15
ENDBRANCH  13  14
ENDBRANCH  12  13
ENDBRANCH  11  12
ENDBRANCH  10  11
ENDBRANCH   9  10
ENDBRANCH   8   9
ENDBRANCH   7   8
ENDBRANCH   6   7
ENDBRANCH   5   6
ENDBRANCH   4   5
ENDBRANCH   3   4
ENDBRANCH   2   3
ENDBRANCH   1   2
BRANCH   1  18
ATOM     18  C   UNL     1      96.768  83.845  80.681  1.00  0.00     0.000 C 
BRANCH  18  19
ATOM     19  C   UNL     1      97.050  83.079  79.379  1.00  0.00     0.000 C 
BRANCH  19  20
ATOM     20  C   UNL     1      96.769  83.919  78.122  1.00  0.00     0.000 C 
BRANCH  20  21
ATOM     21  C   UNL     1      96.898  85.419  78.425  1.00  0.00     0.000 C 
BRANCH  21  22
ATOM     22  C   UNL     1      95.628  86.214  78.074  1.00  0.00     0.000 C 
BRANCH  22  23
ATOM     23  C   UNL     1      94.570  85.398  77.302  1.00  0.00     0.000 C 
BRANCH  23  24
ATOM     24  C   UNL     1      93.354  85.036  78.174  1.00  0.00    -0.000 C 
BRANCH  24  25
ATOM     25  C   UNL     1      93.018  83.536  78.120  1.00  0.00    -0.000 C 
BRANCH  25  26
ATOM     26  C   UNL     1      91.987  83.204  77.026  1.00  0.00    -0.000 C 
BRANCH  26  27
ATOM     27  C   UNL     1      91.096  84.405  76.662  1.00  0.00    -0.000 C 
BRANCH  27  28
ATOM     28  C   UNL     1      89.879  84.618  77.586  1.00  0.00    -0.000 C 
BRANCH  28  29
ATOM     29  C   UNL     1      89.102  83.341  77.955  1.00  0.00    -0.000 C 
BRANCH  29  30
ATOM     30  C   UNL     1      88.930  83.163  79.474  1.00  0.00    -0.000 C 
BRANCH  30  31
ATOM     31  C   UNL     1      90.039  83.860  80.279  1.00  0.00    -0.003 C 
ATOM     32  C   UNL     1      89.906  83.644  81.787  1.00  0.00     0.004 C 
ENDBRANCH  30  31
ENDBRANCH  29  30
ENDBRANCH  28  29
ENDBRANCH  27  28
ENDBRANCH  26  27
ENDBRANCH  25  26
ENDBRANCH  24  25
ENDBRANCH  23  24
ENDBRANCH  22  23
ENDBRANCH  21  22
ENDBRANCH  20  21
ENDBRANCH  19  20
ENDBRANCH  18  19
ENDBRANCH   1  18
TORSDOF 28
ENDMDL
MODEL 3
REMARK VINA RESULT:    -4.062      1.480      3.774
REMARK INTER + INTRA:         -16.080
REMARK INTER:                 -10.321
REMARK INTRA:                  -5.760
REMARK UNBOUND:                -5.370
REMARK SMILES CCCCCCCCCCCCCCCCCCCCCCCCCCCCCC(=O)[O-]
REMARK SMILES IDX 16 1 17 2 18 3 19 4 20 5 21 6 22 7 23 8 24 9 25 10 26 11
REMARK SMILES IDX 27 12 28 13 29 14 30 15 31 16 32 17 15 18 14 19 13 20 12 21
REMARK SMILES IDX 11 22 10 23 9 24 8 25 7 26 6 27 5 28 4 29 3 30 2 31 1 32
REMARK H PARENT
REMARK Flexibility Score: inf
ROOT
ATOM      1  C   UNL     1      97.380  82.751  78.506  1.00  0.00     0.000 C 
ENDROOT
BRANCH   1   2
ATOM      2  C   UNL     1      96.988  82.138  79.859  1.00  0.00     0.000 C 
BRANCH   2   3
ATOM      3  C   UNL     1      98.176  82.022  80.824  1.00  0.00     0.000 C 
BRANCH   3   4
ATOM      4  C   UNL     1      99.506  82.193  80.076  1.00  0.00     0.000 C 
BRANCH   4   5
ATOM      5  C   UNL     1     100.529  83.036  80.858  1.00  0.00     0.000 C 
BRANCH   5   6
ATOM      6  C   UNL     1      99.992  83.668  82.156  1.00  0.00     0.000 C 
BRANCH   6   7
ATOM      7  C   UNL     1      99.933  85.201  82.093  1.00  0.00     0.000 C 
BRANCH   7   8
ATOM      8  C   UNL     1      99.810  85.690  80.645  1.00  0.00     0.000 C 
BRANCH   8   9
ATOM      9  C   UNL     1      98.356  86.043  80.306  1.00  0.00     0.000 C 
BRANCH   9  10
ATOM     10  C   UNL     1      97.469  86.184  81.553  1.00  0.00     0.000 C 
BRANCH  10  11
ATOM     11  C   UNL     1      96.096  85.493  81.411  1.00  0.00     0.000 C 
BRANCH  11  12
ATOM     12  C   UNL     1      95.854  84.451  82.513  1.00  0.00     0.000 C 
BRANCH  12  13
ATOM     13  C   UNL     1      96.614  84.815  83.794  1.00  0.00     0.006 C 
BRANCH  13  14
ATOM     14  C   UNL     1      97.119  83.558  84.509  1.00  0.00     0.053 C 
BRANCH  14  15
ATOM     15  C   UNL     1      98.267  83.888  85.410  1.00  0.00     0.041 C 
ATOM     16  O   UNL     1      99.028  82.971  85.827  1.00  0.00    -0.550 OA
ATOM     17  O   UNL     1      98.494  85.202  85.799  1.00  0.00    -0.550 OA
ENDBRANCH  14  15
ENDBRANCH  13  14
ENDBRANCH  12  13
ENDBRANCH  11  12
ENDBRANCH  10  11
ENDBRANCH   9  10
ENDBRANCH   8   9
ENDBRANCH   7   8
ENDBRANCH   6   7
ENDBRANCH   5   6
ENDBRANCH   4   5
ENDBRANCH   3   4
ENDBRANCH   2   3
ENDBRANCH   1   2
BRANCH   1  18
ATOM     18  C   UNL     1      96.455  83.906  78.082  1.00  0.00     0.000 C 
BRANCH  18  19
ATOM     19  C   UNL     1      95.001  83.691  78.529  1.00  0.00     0.000 C 
BRANCH  19  20
ATOM     20  C   UNL     1      94.046  84.764  77.981  1.00  0.00     0.000 C 
BRANCH  20  21
ATOM     21  C   UNL     1      93.336  84.270  76.712  1.00  0.00     0.000 C 
BRANCH  21  22
ATOM     22  C   UNL     1      92.268  83.200  77.000  1.00  0.00     0.000 C 
BRANCH  22  23
ATOM     23  C   UNL     1      90.885  83.776  77.370  1.00  0.00     0.000 C 
BRANCH  23  24
ATOM     24  C   UNL     1      90.474  83.437  78.814  1.00  0.00    -0.000 C 
BRANCH  24  25
ATOM     25  C   UNL     1      90.707  84.609  79.782  1.00  0.00    -0.000 C 
BRANCH  25  26
ATOM     26  C   UNL     1      91.913  84.372  80.711  1.00  0.00    -0.000 C 
BRANCH  26  27
ATOM     27  C   UNL     1      92.200  85.571  81.632  1.00  0.00    -0.000 C 
BRANCH  27  28
ATOM     28  C   UNL     1      92.246  85.240  83.138  1.00  0.00    -0.000 C 
BRANCH  28  29
ATOM     29  C   UNL     1      92.330  83.741  83.480  1.00  0.00    -0.000 C 
BRANCH  29  30
ATOM     30  C   UNL     1      92.917  83.479  84.879  1.00  0.00    -0.000 C 
BRANCH  30  31
ATOM     31  C   UNL     1      93.487  84.750  85.528  1.00  0.00    -0.003 C 
ATOM     32  C   UNL     1      93.991  84.516  86.952  1.00  0.00     0.004 C 
ENDBRANCH  30  31
ENDBRANCH  29  30
ENDBRANCH  28  29
ENDBRANCH  27  28
ENDBRANCH  26  27
ENDBRANCH  25  26
ENDBRANCH  24  25
ENDBRANCH  23  24
ENDBRANCH  22  23
ENDBRANCH  21  22
ENDBRANCH  20  21
ENDBRANCH  19  20
ENDBRANCH  18  19
ENDBRANCH   1  18
TORSDOF 28
ENDMDL
MODEL 4
REMARK VINA RESULT:    -4.041      2.185      7.213
REMARK INTER + INTRA:         -16.025
REMARK INTER:                 -10.640
REMARK INTRA:                  -5.385
REMARK UNBOUND:                -5.370
REMARK SMILES CCCCCCCCCCCCCCCCCCCCCCCCCCCCCC(=O)[O-]
REMARK SMILES IDX 16 1 17 2 18 3 19 4 20 5 21 6 22 7 23 8 24 9 25 10 26 11
REMARK SMILES IDX 27 12 28 13 29 14 30 15 31 16 32 17 15 18 14 19 13 20 12 21
REMARK SMILES IDX 11 22 10 23 9 24 8 25 7 26 6 27 5 28 4 29 3 30 2 31 1 32
REMARK H PARENT
REMARK Flexibility Score: inf
ROOT
ATOM      1  C   UNL     1      96.733  85.825  79.874  1.00  0.00     0.000 C 
ENDROOT
BRANCH   1   2
ATOM      2  C   UNL     1      95.671  86.736  80.507  1.00  0.00     0.000 C 
BRANCH   2   3
ATOM      3  C   UNL     1      94.304  86.622  79.817  1.00  0.00     0.000 C 
BRANCH   3   4
ATOM      4  C   UNL     1      93.296  85.898  80.721  1.00  0.00     0.000 C 
BRANCH   4   5
ATOM      5  C   UNL     1      92.674  84.659  80.052  1.00  0.00     0.000 C 
BRANCH   5   6
ATOM      6  C   UNL     1      92.741  84.650  78.513  1.00  0.00     0.000 C 
BRANCH   6   7
ATOM      7  C   UNL     1      92.447  83.268  77.912  1.00  0.00     0.000 C 
BRANCH   7   8
ATOM      8  C   UNL     1      91.444  83.370  76.758  1.00  0.00     0.000 C 
BRANCH   8   9
ATOM      9  C   UNL     1      90.241  84.238  77.152  1.00  0.00     0.000 C 
BRANCH   9  10
ATOM     10  C   UNL     1      89.015  83.409  77.565  1.00  0.00     0.000 C 
BRANCH  10  11
ATOM     11  C   UNL     1      88.829  83.308  79.094  1.00  0.00     0.000 C 
BRANCH  11  12
ATOM     12  C   UNL     1      89.173  84.624  79.807  1.00  0.00     0.000 C 
BRANCH  12  13
ATOM     13  C   UNL     1      88.819  84.555  81.297  1.00  0.00     0.006 C 
BRANCH  13  14
ATOM     14  C   UNL     1      89.693  83.530  82.023  1.00  0.00     0.053 C 
BRANCH  14  15
ATOM     15  C   UNL     1      90.551  84.200  83.051  1.00  0.00     0.041 C 
ATOM     16  O   UNL     1      90.315  85.391  83.393  1.00  0.00    -0.550 OA
ATOM     17  O   UNL     1      91.616  83.515  83.623  1.00  0.00    -0.550 OA
ENDBRANCH  14  15
ENDBRANCH  13  14
ENDBRANCH  12  13
ENDBRANCH  11  12
ENDBRANCH  10  11
ENDBRANCH   9  10
ENDBRANCH   8   9
ENDBRANCH   7   8
ENDBRANCH   6   7
ENDBRANCH   5   6
ENDBRANCH   4   5
ENDBRANCH   3   4
ENDBRANCH   2   3
ENDBRANCH   1   2
BRANCH   1  18
ATOM     18  C   UNL     1      96.382  85.405  78.436  1.00  0.00     0.000 C 
BRANCH  18  19
ATOM     19  C   UNL     1      96.405  83.880  78.244  1.00  0.00     0.000 C 
BRANCH  19  20
ATOM     20  C   UNL     1      95.934  83.117  79.493  1.00  0.00     0.000 C 
BRANCH  20  21
ATOM     21  C   UNL     1      96.804  81.877  79.738  1.00  0.00     0.000 C 
BRANCH  21  22
ATOM     22  C   UNL     1      98.179  81.962  79.050  1.00  0.00     0.000 C 
BRANCH  22  23
ATOM     23  C   UNL     1      99.371  81.989  80.029  1.00  0.00     0.000 C 
BRANCH  23  24
ATOM     24  C   UNL     1      99.484  83.327  80.782  1.00  0.00    -0.000 C 
BRANCH  24  25
ATOM     25  C   UNL     1     100.187  83.179  82.142  1.00  0.00    -0.000 C 
BRANCH  25  26
ATOM     26  C   UNL     1      99.503  82.137  83.047  1.00  0.00    -0.000 C 
BRANCH  26  27
ATOM     27  C   UNL     1      98.569  82.775  84.090  1.00  0.00    -0.000 C 
BRANCH  27  28
ATOM     28  C   UNL     1      98.686  84.307  84.219  1.00  0.00    -0.000 C 
BRANCH  28  29
ATOM     29  C   UNL     1      97.538  85.112  83.584  1.00  0.00    -0.000 C 
BRANCH  29  30
ATOM     30  C   UNL     1      96.247  85.076  84.421  1.00  0.00    -0.000 C 
BRANCH  30  31
ATOM     31  C   UNL     1      95.015  84.685  83.590  1.00  0.00    -0.003 C 
ATOM     32  C   UNL     1      95.063  83.239  83.098  1.00  0.00     0.004 C 
ENDBRANCH  30  31
ENDBRANCH  29  30
ENDBRANCH  28  29
ENDBRANCH  27  28
ENDBRANCH  26  27
ENDBRANCH  25  26
ENDBRANCH  24  25
ENDBRANCH  23  24
ENDBRANCH  22  23
ENDBRANCH  21  22
ENDBRANCH  20  21
ENDBRANCH  19  20
ENDBRANCH  18  19
ENDBRANCH   1  18
TORSDOF 28
ENDMDL
MODEL 5
REMARK VINA RESULT:    -3.983      3.477      7.993
REMARK INTER + INTRA:         -15.872
REMARK INTER:                 -10.808
REMARK INTRA:                  -5.065
REMARK UNBOUND:                -5.370
REMARK SMILES CCCCCCCCCCCCCCCCCCCCCCCCCCCCCC(=O)[O-]
REMARK SMILES IDX 16 1 17 2 18 3 19 4 20 5 21 6 22 7 23 8 24 9 25 10 26 11
REMARK SMILES IDX 27 12 28 13 29 14 30 15 31 16 32 17 15 18 14 19 13 20 12 21
REMARK SMILES IDX 11 22 10 23 9 24 8 25 7 26 6 27 5 28 4 29 3 30 2 31 1 32
REMARK H PARENT
REMARK Flexibility Score: inf
ROOT
ATOM      1  C   UNL     1      99.458  84.435  80.578  1.00  0.00     0.000 C 
ENDROOT
BRANCH   1   2
ATOM      2  C   UNL     1      98.748  83.136  80.987  1.00  0.00     0.000 C 
BRANCH   2   3
ATOM      3  C   UNL     1      98.967  81.997  79.981  1.00  0.00     0.000 C 
BRANCH   3   4
ATOM      4  C   UNL     1      97.922  82.054  78.857  1.00  0.00     0.000 C 
BRANCH   4   5
ATOM      5  C   UNL     1      96.518  81.632  79.324  1.00  0.00     0.000 C 
BRANCH   5   6
ATOM      6  C   UNL     1      95.423  82.697  79.134  1.00  0.00     0.000 C 
BRANCH   6   7
ATOM      7  C   UNL     1      95.912  83.921  78.346  1.00  0.00     0.000 C 
BRANCH   7   8
ATOM      8  C   UNL     1      95.014  85.137  78.601  1.00  0.00     0.000 C 
BRANCH   8   9
ATOM      9  C   UNL     1      94.717  85.885  77.294  1.00  0.00     0.000 C 
BRANCH   9  10
ATOM     10  C   UNL     1      94.021  85.003  76.246  1.00  0.00     0.000 C 
BRANCH  10  11
ATOM     11  C   UNL     1      92.565  84.644  76.616  1.00  0.00     0.000 C 
BRANCH  11  12
ATOM     12  C   UNL     1      92.391  83.144  76.894  1.00  0.00     0.000 C 
BRANCH  12  13
ATOM     13  C   UNL     1      91.751  82.905  78.266  1.00  0.00     0.006 C 
BRANCH  13  14
ATOM     14  C   UNL     1      91.141  84.196  78.819  1.00  0.00     0.053 C 
BRANCH  14  15
ATOM     15  C   UNL     1      89.648  84.100  78.863  1.00  0.00     0.041 C 
ATOM     16  O   UNL     1      89.044  83.284  78.113  1.00  0.00    -0.550 OA
ATOM     17  O   UNL     1      88.921  84.916  79.722  1.00  0.00    -0.550 OA
ENDBRANCH  14  15
ENDBRANCH  13  14
ENDBRANCH  12  13
ENDBRANCH  11  12
ENDBRANCH  10  11
ENDBRANCH   9  10
ENDBRANCH   8   9
ENDBRANCH   7   8
ENDBRANCH   6   7
ENDBRANCH   5   6
ENDBRANCH   4   5
ENDBRANCH   3   4
ENDBRANCH   2   3
ENDBRANCH   1   2
BRANCH   1  18
ATOM     18  C   UNL     1      98.484  85.607  80.364  1.00  0.00     0.000 C 
BRANCH  18  19
ATOM     19  C   UNL     1      97.835  86.081  81.674  1.00  0.00     0.000 C 
BRANCH  19  20
ATOM     20  C   UNL     1      96.318  86.297  81.542  1.00  0.00     0.000 C 
BRANCH  20  21
ATOM     21  C   UNL     1      95.565  85.610  82.689  1.00  0.00     0.000 C 
BRANCH  21  22
ATOM     22  C   UNL     1      95.627  84.073  82.614  1.00  0.00     0.000 C 
BRANCH  22  23
ATOM     23  C   UNL     1      95.491  83.370  83.980  1.00  0.00     0.000 C 
BRANCH  23  24
ATOM     24  C   UNL     1      96.660  83.693  84.927  1.00  0.00    -0.000 C 
BRANCH  24  25
ATOM     25  C   UNL     1      98.030  83.405  84.290  1.00  0.00    -0.000 C 
BRANCH  25  26
ATOM     26  C   UNL     1      99.097  83.033  85.336  1.00  0.00    -0.000 C 
BRANCH  26  27
ATOM     27  C   UNL     1     100.236  84.064  85.418  1.00  0.00    -0.000 C 
BRANCH  27  28
ATOM     28  C   UNL     1     100.073  85.290  84.497  1.00  0.00    -0.000 C 
BRANCH  28  29
ATOM     29  C   UNL     1     101.155  85.449  83.414  1.00  0.00    -0.000 C 
BRANCH  29  30
ATOM     30  C   UNL     1     101.419  86.918  83.041  1.00  0.00    -0.000 C 
BRANCH  30  31
ATOM     31  C   UNL     1     102.595  87.079  82.065  1.00  0.00    -0.003 C 
ATOM     32  C   UNL     1     102.217  86.756  80.620  1.00  0.00     0.004 C 
ENDBRANCH  30  31
ENDBRANCH  29  30
ENDBRANCH  28  29
ENDBRANCH  27  28
ENDBRANCH  26  27
ENDBRANCH  25  26
ENDBRANCH  24  25
ENDBRANCH  23  24
ENDBRANCH  22  23
ENDBRANCH  21  22
ENDBRANCH  20  21
ENDBRANCH  19  20
ENDBRANCH  18  19
ENDBRANCH   1  18
TORSDOF 28
ENDMDL
MODEL 6
REMARK VINA RESULT:    -3.972      3.267      8.225
REMARK INTER + INTRA:         -15.843
REMARK INTER:                 -11.251
REMARK INTRA:                  -4.592
REMARK UNBOUND:                -5.370
REMARK SMILES CCCCCCCCCCCCCCCCCCCCCCCCCCCCCC(=O)[O-]
REMARK SMILES IDX 16 1 17 2 18 3 19 4 20 5 21 6 22 7 23 8 24 9 25 10 26 11
REMARK SMILES IDX 27 12 28 13 29 14 30 15 31 16 32 17 15 18 14 19 13 20 12 21
REMARK SMILES IDX 11 22 10 23 9 24 8 25 7 26 6 27 5 28 4 29 3 30 2 31 1 32
REMARK H PARENT
REMARK Flexibility Score: inf
ROOT
ATOM      1  C   UNL     1      93.862  85.120  80.790  1.00  0.00     0.000 C 
ENDROOT
BRANCH   1   2
ATOM      2  C   UNL     1      95.151  85.763  81.325  1.00  0.00     0.000 C 
BRANCH   2   3
ATOM      3  C   UNL     1      95.844  84.904  82.392  1.00  0.00     0.000 C 
BRANCH   3   4
ATOM      4  C   UNL     1      95.273  83.478  82.400  1.00  0.00     0.000 C 
BRANCH   4   5
ATOM      5  C   UNL     1      94.634  83.097  83.747  1.00  0.00     0.000 C 
BRANCH   5   6
ATOM      6  C   UNL     1      94.387  84.276  84.706  1.00  0.00     0.000 C 
BRANCH   6   7
ATOM      7  C   UNL     1      92.897  84.613  84.866  1.00  0.00     0.000 C 
BRANCH   7   8
ATOM      8  C   UNL     1      92.019  83.587  84.140  1.00  0.00     0.000 C 
BRANCH   8   9
ATOM      9  C   UNL     1      90.657  84.193  83.773  1.00  0.00     0.000 C 
BRANCH   9  10
ATOM     10  C   UNL     1      89.954  83.435  82.636  1.00  0.00     0.000 C 
BRANCH  10  11
ATOM     11  C   UNL     1      90.281  83.993  81.234  1.00  0.00     0.000 C 
BRANCH  11  12
ATOM     12  C   UNL     1      89.326  83.451  80.159  1.00  0.00     0.000 C 
BRANCH  12  13
ATOM     13  C   UNL     1      90.067  83.188  78.843  1.00  0.00     0.006 C 
BRANCH  13  14
ATOM     14  C   UNL     1      90.490  84.501  78.178  1.00  0.00     0.053 C 
BRANCH  14  15
ATOM     15  C   UNL     1      91.016  84.251  76.799  1.00  0.00     0.041 C 
ATOM     16  O   UNL     1      90.476  84.809  75.804  1.00  0.00    -0.550 OA
ATOM     17  O   UNL     1      92.094  83.395  76.609  1.00  0.00    -0.550 OA
ENDBRANCH  14  15
ENDBRANCH  13  14
ENDBRANCH  12  13
ENDBRANCH  11  12
ENDBRANCH  10  11
ENDBRANCH   9  10
ENDBRANCH   8   9
ENDBRANCH   7   8
ENDBRANCH   6   7
ENDBRANCH   5   6
ENDBRANCH   4   5
ENDBRANCH   3   4
ENDBRANCH   2   3
ENDBRANCH   1   2
BRANCH   1  18
ATOM     18  C   UNL     1      94.024  84.546  79.371  1.00  0.00     0.000 C 
BRANCH  18  19
ATOM     19  C   UNL     1      95.328  85.000  78.697  1.00  0.00     0.000 C 
BRANCH  19  20
ATOM     20  C   UNL     1      96.154  83.825  78.150  1.00  0.00     0.000 C 
BRANCH  20  21
ATOM     21  C   UNL     1      95.803  82.521  78.880  1.00  0.00     0.000 C 
BRANCH  21  22
ATOM     22  C   UNL     1      97.021  81.864  79.554  1.00  0.00     0.000 C 
BRANCH  22  23
ATOM     23  C   UNL     1      98.064  82.869  80.086  1.00  0.00     0.000 C 
BRANCH  23  24
ATOM     24  C   UNL     1      99.204  82.181  80.858  1.00  0.00    -0.000 C 
BRANCH  24  25
ATOM     25  C   UNL     1     100.592  82.687  80.432  1.00  0.00    -0.000 C 
BRANCH  25  26
ATOM     26  C   UNL     1     101.069  83.881  81.281  1.00  0.00    -0.000 C 
BRANCH  26  27
ATOM     27  C   UNL     1     101.416  85.116  80.432  1.00  0.00    -0.000 C 
BRANCH  27  28
ATOM     28  C   UNL     1     100.864  86.452  80.969  1.00  0.00    -0.000 C 
BRANCH  28  29
ATOM     29  C   UNL     1      99.332  86.594  80.936  1.00  0.00    -0.000 C 
BRANCH  29  30
ATOM     30  C   UNL     1      98.724  86.200  79.579  1.00  0.00    -0.000 C 
BRANCH  30  31
ATOM     31  C   UNL     1      99.000  87.241  78.483  1.00  0.00    -0.003 C 
ATOM     32  C   UNL     1      97.725  87.757  77.816  1.00  0.00     0.004 C 
ENDBRANCH  30  31
ENDBRANCH  29  30
ENDBRANCH  28  29
ENDBRANCH  27  28
ENDBRANCH  26  27
ENDBRANCH  25  26
ENDBRANCH  24  25
ENDBRANCH  23  24
ENDBRANCH  22  23
ENDBRANCH  21  22
ENDBRANCH  20  21
ENDBRANCH  19  20
ENDBRANCH  18  19
ENDBRANCH   1  18
TORSDOF 28
ENDMDL
MODEL 7
REMARK VINA RESULT:    -3.971      1.654      4.920
REMARK INTER + INTRA:         -15.840
REMARK INTER:                 -10.661
REMARK INTRA:                  -5.180
REMARK UNBOUND:                -5.370
REMARK SMILES CCCCCCCCCCCCCCCCCCCCCCCCCCCCCC(=O)[O-]
REMARK SMILES IDX 16 1 17 2 18 3 19 4 20 5 21 6 22 7 23 8 24 9 25 10 26 11
REMARK SMILES IDX 27 12 28 13 29 14 30 15 31 16 32 17 15 18 14 19 13 20 12 21
REMARK SMILES IDX 11 22 10 23 9 24 8 25 7 26 6 27 5 28 4 29 3 30 2 31 1 32
REMARK H PARENT
REMARK Flexibility Score: inf
ROOT
ATOM      1  C   UNL     1      97.049  85.343  81.552  1.00  0.00     0.000 C 
ENDROOT
BRANCH   1   2
ATOM      2  C   UNL     1      96.050  85.322  80.385  1.00  0.00     0.000 C 
BRANCH   2   3
ATOM      3  C   UNL     1      96.733  85.452  79.016  1.00  0.00     0.000 C 
BRANCH   3   4
ATOM      4  C   UNL     1      96.425  84.231  78.137  1.00  0.00     0.000 C 
BRANCH   4   5
ATOM      5  C   UNL     1      95.533  83.194  78.843  1.00  0.00     0.000 C 
BRANCH   5   6
ATOM      6  C   UNL     1      96.248  81.892  79.249  1.00  0.00     0.000 C 
BRANCH   6   7
ATOM      7  C   UNL     1      97.775  81.986  79.125  1.00  0.00     0.000 C 
BRANCH   7   8
ATOM      8  C   UNL     1      98.436  82.084  80.505  1.00  0.00     0.000 C 
BRANCH   8   9
ATOM      9  C   UNL     1      99.945  82.337  80.374  1.00  0.00     0.000 C 
BRANCH   9  10
ATOM     10  C   UNL     1     100.434  83.497  81.255  1.00  0.00     0.000 C 
BRANCH  10  11
ATOM     11  C   UNL     1     100.499  84.847  80.509  1.00  0.00     0.000 C 
BRANCH  11  12
ATOM     12  C   UNL     1     100.680  86.031  81.471  1.00  0.00     0.000 C 
BRANCH  12  13
ATOM     13  C   UNL     1     101.610  85.664  82.633  1.00  0.00     0.006 C 
BRANCH  13  14
ATOM     14  C   UNL     1     101.147  86.318  83.937  1.00  0.00     0.053 C 
BRANCH  14  15
ATOM     15  C   UNL     1      99.812  85.781  84.353  1.00  0.00     0.041 C 
ATOM     16  O   UNL     1      99.664  84.545  84.561  1.00  0.00    -0.550 OA
ATOM     17  O   UNL     1      98.731  86.641  84.502  1.00  0.00    -0.550 OA
ENDBRANCH  14  15
ENDBRANCH  13  14
ENDBRANCH  12  13
ENDBRANCH  11  12
ENDBRANCH  10  11
ENDBRANCH   9  10
ENDBRANCH   8   9
ENDBRANCH   7   8
ENDBRANCH   6   7
ENDBRANCH   5   6
ENDBRANCH   4   5
ENDBRANCH   3   4
ENDBRANCH   2   3
ENDBRANCH   1   2
BRANCH   1  18
ATOM     18  C   UNL     1      96.651  84.396  82.698  1.00  0.00     0.000 C 
BRANCH  18  19
ATOM     19  C   UNL     1      95.350  83.633  82.406  1.00  0.00     0.000 C 
BRANCH  19  20
ATOM     20  C   UNL     1      94.714  83.036  83.673  1.00  0.00     0.000 C 
BRANCH  20  21
ATOM     21  C   UNL     1      94.411  84.133  84.703  1.00  0.00     0.000 C 
BRANCH  21  22
ATOM     22  C   UNL     1      92.907  84.283  84.995  1.00  0.00     0.000 C 
BRANCH  22  23
ATOM     23  C   UNL     1      91.999  83.469  84.050  1.00  0.00     0.000 C 
BRANCH  23  24
ATOM     24  C   UNL     1      91.266  84.358  83.029  1.00  0.00    -0.000 C 
BRANCH  24  25
ATOM     25  C   UNL     1      91.961  85.715  82.824  1.00  0.00    -0.000 C 
BRANCH  25  26
ATOM     26  C   UNL     1      92.231  86.018  81.338  1.00  0.00    -0.000 C 
BRANCH  26  27
ATOM     27  C   UNL     1      92.506  84.750  80.512  1.00  0.00    -0.000 C 
BRANCH  27  28
ATOM     28  C   UNL     1      91.746  84.667  79.172  1.00  0.00    -0.000 C 
BRANCH  28  29
ATOM     29  C   UNL     1      91.714  83.274  78.517  1.00  0.00    -0.000 C 
BRANCH  29  30
ATOM     30  C   UNL     1      91.932  83.323  76.995  1.00  0.00    -0.000 C 
BRANCH  30  31
ATOM     31  C   UNL     1      91.648  84.713  76.402  1.00  0.00    -0.003 C 
ATOM     32  C   UNL     1      90.214  84.860  75.891  1.00  0.00     0.004 C 
ENDBRANCH  30  31
ENDBRANCH  29  30
ENDBRANCH  28  29
ENDBRANCH  27  28
ENDBRANCH  26  27
ENDBRANCH  25  26
ENDBRANCH  24  25
ENDBRANCH  23  24
ENDBRANCH  22  23
ENDBRANCH  21  22
ENDBRANCH  20  21
ENDBRANCH  19  20
ENDBRANCH  18  19
ENDBRANCH   1  18
TORSDOF 28
ENDMDL
MODEL 8
REMARK VINA RESULT:    -3.969      2.763      7.686
REMARK INTER + INTRA:         -15.835
REMARK INTER:                 -10.490
REMARK INTRA:                  -5.345
REMARK UNBOUND:                -5.370
REMARK SMILES CCCCCCCCCCCCCCCCCCCCCCCCCCCCCC(=O)[O-]
REMARK SMILES IDX 16 1 17 2 18 3 19 4 20 5 21 6 22 7 23 8 24 9 25 10 26 11
REMARK SMILES IDX 27 12 28 13 29 14 30 15 31 16 32 17 15 18 14 19 13 20 12 21
REMARK SMILES IDX 11 22 10 23 9 24 8 25 7 26 6 27 5 28 4 29 3 30 2 31 1 32
REMARK H PARENT
REMARK Flexibility Score: inf
ROOT
ATOM      1  C   UNL     1      99.198  81.990  79.902  1.00  0.00     0.000 C 
ENDROOT
BRANCH   1   2
ATOM      2  C   UNL     1      98.029  82.148  78.919  1.00  0.00     0.000 C 
BRANCH   2   3
ATOM      3  C   UNL     1      96.698  81.642  79.492  1.00  0.00     0.000 C 
BRANCH   3   4
ATOM      4  C   UNL     1      95.585  82.679  79.279  1.00  0.00     0.000 C 
BRANCH   4   5
ATOM      5  C   UNL     1      95.445  83.657  80.459  1.00  0.00     0.000 C 
BRANCH   5   6
ATOM      6  C   UNL     1      95.286  85.136  80.060  1.00  0.00     0.000 C 
BRANCH   6   7
ATOM      7  C   UNL     1      95.881  85.449  78.679  1.00  0.00     0.000 C 
BRANCH   7   8
ATOM      8  C   UNL     1      94.835  86.092  77.760  1.00  0.00     0.000 C 
BRANCH   8   9
ATOM      9  C   UNL     1      94.409  85.121  76.650  1.00  0.00     0.000 C 
BRANCH   9  10
ATOM     10  C   UNL     1      92.931  84.712  76.749  1.00  0.00     0.000 C 
BRANCH  10  11
ATOM     11  C   UNL     1      92.727  83.203  77.001  1.00  0.00     0.000 C 
BRANCH  11  12
ATOM     12  C   UNL     1      91.836  82.936  78.223  1.00  0.00     0.000 C 
BRANCH  12  13
ATOM     13  C   UNL     1      91.408  84.246  78.893  1.00  0.00     0.006 C 
BRANCH  13  14
ATOM     14  C   UNL     1      89.893  84.446  78.794  1.00  0.00     0.053 C 
BRANCH  14  15
ATOM     15  C   UNL     1      89.230  84.126  80.097  1.00  0.00     0.041 C 
ATOM     16  O   UNL     1      89.893  83.597  81.032  1.00  0.00    -0.550 OA
ATOM     17  O   UNL     1      87.881  84.403  80.279  1.00  0.00    -0.550 OA
ENDBRANCH  14  15
ENDBRANCH  13  14
ENDBRANCH  12  13
ENDBRANCH  11  12
ENDBRANCH  10  11
ENDBRANCH   9  10
ENDBRANCH   8   9
ENDBRANCH   7   8
ENDBRANCH   6   7
ENDBRANCH   5   6
ENDBRANCH   4   5
ENDBRANCH   3   4
ENDBRANCH   2   3
ENDBRANCH   1   2
BRANCH   1  18
ATOM     18  C   UNL     1      98.946  82.693  81.249  1.00  0.00     0.000 C 
BRANCH  18  19
ATOM     19  C   UNL     1      99.089  84.220  81.152  1.00  0.00     0.000 C 
BRANCH  19  20
ATOM     20  C   UNL     1     100.296  84.755  81.941  1.00  0.00     0.000 C 
BRANCH  20  21
ATOM     21  C   UNL     1      99.882  85.918  82.854  1.00  0.00     0.000 C 
BRANCH  21  22
ATOM     22  C   UNL     1     100.566  85.871  84.232  1.00  0.00     0.000 C 
BRANCH  22  23
ATOM     23  C   UNL     1     100.484  84.497  84.928  1.00  0.00     0.000 C 
BRANCH  23  24
ATOM     24  C   UNL     1      99.663  84.544  86.229  1.00  0.00    -0.000 C 
BRANCH  24  25
ATOM     25  C   UNL     1      98.339  83.769  86.118  1.00  0.00    -0.000 C 
BRANCH  25  26
ATOM     26  C   UNL     1      98.196  83.043  84.767  1.00  0.00    -0.000 C 
BRANCH  26  27
ATOM     27  C   UNL     1      96.882  83.385  84.044  1.00  0.00    -0.000 C 
BRANCH  27  28
ATOM     28  C   UNL     1      96.519  84.884  84.025  1.00  0.00    -0.000 C 
BRANCH  28  29
ATOM     29  C   UNL     1      95.036  85.206  84.282  1.00  0.00    -0.000 C 
BRANCH  29  30
ATOM     30  C   UNL     1      94.244  83.997  84.809  1.00  0.00    -0.000 C 
BRANCH  30  31
ATOM     31  C   UNL     1      93.218  83.474  83.791  1.00  0.00    -0.003 C 
ATOM     32  C   UNL     1      92.764  84.546  82.799  1.00  0.00     0.004 C 
ENDBRANCH  30  31
ENDBRANCH  29  30
ENDBRANCH  28  29
ENDBRANCH  27  28
ENDBRANCH  26  27
ENDBRANCH  25  26
ENDBRANCH  24  25
ENDBRANCH  23  24
ENDBRANCH  22  23
ENDBRANCH  21  22
ENDBRANCH  20  21
ENDBRANCH  19  20
ENDBRANCH  18  19
ENDBRANCH   1  18
TORSDOF 28
ENDMDL
MODEL 9
REMARK VINA RESULT:    -3.963      2.986      5.452
REMARK INTER + INTRA:         -15.821
REMARK INTER:                  -9.864
REMARK INTRA:                  -5.957
REMARK UNBOUND:                -5.370
REMARK SMILES CCCCCCCCCCCCCCCCCCCCCCCCCCCCCC(=O)[O-]
REMARK SMILES IDX 16 1 17 2 18 3 19 4 20 5 21 6 22 7 23 8 24 9 25 10 26 11
REMARK SMILES IDX 27 12 28 13 29 14 30 15 31 16 32 17 15 18 14 19 13 20 12 21
REMARK SMILES IDX 11 22 10 23 9 24 8 25 7 26 6 27 5 28 4 29 3 30 2 31 1 32
REMARK H PARENT
REMARK Flexibility Score: inf
ROOT
ATOM      1  C   UNL     1      94.648  86.063  77.721  1.00  0.00     0.000 C 
ENDROOT
BRANCH   1   2
ATOM      2  C   UNL     1      94.888  84.587  77.373  1.00  0.00     0.000 C 
BRANCH   2   3
ATOM      3  C   UNL     1      96.110  83.997  78.091  1.00  0.00     0.000 C 
BRANCH   3   4
ATOM      4  C   UNL     1      95.700  82.815  78.982  1.00  0.00     0.000 C 
BRANCH   4   5
ATOM      5  C   UNL     1      96.892  81.928  79.384  1.00  0.00     0.000 C 
BRANCH   5   6
ATOM      6  C   UNL     1      98.210  82.685  79.633  1.00  0.00     0.000 C 
BRANCH   6   7
ATOM      7  C   UNL     1      99.084  82.023  80.708  1.00  0.00     0.000 C 
BRANCH   7   8
ATOM      8  C   UNL     1      99.904  83.068  81.473  1.00  0.00     0.000 C 
BRANCH   8   9
ATOM      9  C   UNL     1     101.208  83.392  80.730  1.00  0.00     0.000 C 
BRANCH   9  10
ATOM     10  C   UNL     1     101.392  84.896  80.474  1.00  0.00     0.000 C 
BRANCH  10  11
ATOM     11  C   UNL     1     100.537  85.785  81.402  1.00  0.00     0.000 C 
BRANCH  11  12
ATOM     12  C   UNL     1     100.077  87.075  80.706  1.00  0.00     0.000 C 
BRANCH  12  13
ATOM     13  C   UNL     1     100.277  86.987  79.189  1.00  0.00     0.006 C 
BRANCH  13  14
ATOM     14  C   UNL     1      99.093  87.605  78.441  1.00  0.00     0.053 C 
BRANCH  14  15
ATOM     15  C   UNL     1      98.942  89.052  78.794  1.00  0.00     0.041 C 
ATOM     16  O   UNL     1      97.852  89.478  79.267  1.00  0.00    -0.550 OA
ATOM     17  O   UNL     1      99.998  89.933  78.594  1.00  0.00    -0.550 OA
ENDBRANCH  14  15
ENDBRANCH  13  14
ENDBRANCH  12  13
ENDBRANCH  11  12
ENDBRANCH  10  11
ENDBRANCH   9  10
ENDBRANCH   8   9
ENDBRANCH   7   8
ENDBRANCH   6   7
ENDBRANCH   5   6
ENDBRANCH   4   5
ENDBRANCH   3   4
ENDBRANCH   2   3
ENDBRANCH   1   2
BRANCH   1  18
ATOM     18  C   UNL     1      95.704  86.629  78.688  1.00  0.00     0.000 C 
BRANCH  18  19
ATOM     19  C   UNL     1      95.075  87.340  79.897  1.00  0.00     0.000 C 
BRANCH  19  20
ATOM     20  C   UNL     1      95.838  87.076  81.205  1.00  0.00     0.000 C 
BRANCH  20  21
ATOM     21  C   UNL     1      96.559  85.721  81.155  1.00  0.00     0.000 C 
BRANCH  21  22
ATOM     22  C   UNL     1      97.028  85.239  82.539  1.00  0.00     0.000 C 
BRANCH  22  23
ATOM     23  C   UNL     1      96.577  83.806  82.892  1.00  0.00     0.000 C 
BRANCH  23  24
ATOM     24  C   UNL     1      95.094  83.558  82.564  1.00  0.00    -0.000 C 
BRANCH  24  25
ATOM     25  C   UNL     1      94.292  83.089  83.789  1.00  0.00    -0.000 C 
BRANCH  25  26
ATOM     26  C   UNL     1      93.088  84.001  84.087  1.00  0.00    -0.000 C 
BRANCH  26  27
ATOM     27  C   UNL     1      91.974  83.882  83.033  1.00  0.00    -0.000 C 
BRANCH  27  28
ATOM     28  C   UNL     1      91.529  85.217  82.401  1.00  0.00    -0.000 C 
BRANCH  28  29
ATOM     29  C   UNL     1      92.240  85.594  81.089  1.00  0.00    -0.000 C 
BRANCH  29  30
ATOM     30  C   UNL     1      92.459  84.388  80.159  1.00  0.00    -0.000 C 
BRANCH  30  31
ATOM     31  C   UNL     1      91.498  84.385  78.959  1.00  0.00    -0.003 C 
ATOM     32  C   UNL     1      90.345  83.395  79.122  1.00  0.00     0.004 C 
ENDBRANCH  30  31
ENDBRANCH  29  30
ENDBRANCH  28  29
ENDBRANCH  27  28
ENDBRANCH  26  27
ENDBRANCH  25  26
ENDBRANCH  24  25
ENDBRANCH  23  24
ENDBRANCH  22  23
ENDBRANCH  21  22
ENDBRANCH  20  21
ENDBRANCH  19  20
ENDBRANCH  18  19
ENDBRANCH   1  18
TORSDOF 28
ENDMDL
