MODEL 1
REMARK VINA RESULT:    -5.040      0.000      0.000
REMARK INTER + INTRA:          -9.951
REMARK INTER:                  -8.575
REMARK INTRA:                  -1.375
REMARK UNBOUND:                -1.375
REMARK SMILES CCCCCCCCCCCCCC(=O)[O-]
REMARK SMILES IDX 8 1 9 2 10 3 11 4 12 5 13 6 14 7 15 8 16 9 7 10 6 11 5 12
REMARK SMILES IDX 4 13 3 14 2 15 1 16
REMARK H PARENT
REMARK Flexibility Score: inf
ROOT
ATOM      1  C   UNL     1      45.529  -7.058  24.685  1.00  0.00     0.000 C 
ENDROOT
BRANCH   1   2
ATOM      2  C   UNL     1      45.735  -7.718  26.058  1.00  0.00     0.000 C 
BRANCH   2   3
ATOM      3  C   UNL     1      45.633  -6.712  27.218  1.00  0.00     0.000 C 
BRANCH   3   4
ATOM      4  C   UNL     1      45.025  -5.365  26.788  1.00  0.00     0.000 C 
BRANCH   4   5
ATOM      5  C   UNL     1      45.061  -4.262  27.866  1.00  0.00     0.006 C 
BRANCH   5   6
ATOM      6  C   UNL     1      45.948  -3.056  27.518  1.00  0.00     0.053 C 
BRANCH   6   7
ATOM      7  C   UNL     1      45.443  -1.789  28.138  1.00  0.00     0.041 C 
ATOM      8  O   UNL     1      46.067  -0.709  27.968  1.00  0.00    -0.550 OA
ATOM      9  O   UNL     1      44.267  -1.797  28.877  1.00  0.00    -0.550 OA
ENDBRANCH   6   7
ENDBRANCH   5   6
ENDBRANCH   4   5
ENDBRANCH   3   4
ENDBRANCH   2   3
ENDBRANCH   1   2
BRANCH   1  10
ATOM     10  C   UNL     1      45.884  -7.995  23.521  1.00  0.00     0.000 C 
BRANCH  10  11
ATOM     11  C   UNL     1      46.770  -7.278  22.491  1.00  0.00    -0.000 C 
BRANCH  11  12
ATOM     12  C   UNL     1      47.994  -6.600  23.135  1.00  0.00    -0.000 C 
BRANCH  12  13
ATOM     13  C   UNL     1      49.015  -7.596  23.720  1.00  0.00    -0.000 C 
BRANCH  13  14
ATOM     14  C   UNL     1      49.278  -7.384  25.229  1.00  0.00    -0.000 C 
BRANCH  14  15
ATOM     15  C   UNL     1      49.928  -6.030  25.551  1.00  0.00    -0.003 C 
ATOM     16  C   UNL     1      48.954  -5.040  26.188  1.00  0.00     0.004 C 
ENDBRANCH  14  15
ENDBRANCH  13  14
ENDBRANCH  12  13
ENDBRANCH  11  12
ENDBRANCH  10  11
ENDBRANCH   1  10
TORSDOF 12
ENDMDL
MODEL 2
REMARK VINA RESULT:    -4.886      1.737      3.208
REMARK INTER + INTRA:          -9.689
REMARK INTER:                  -8.946
REMARK INTRA:                  -0.743
REMARK UNBOUND:                -1.375
REMARK SMILES CCCCCCCCCCCCCC(=O)[O-]
REMARK SMILES IDX 8 1 9 2 10 3 11 4 12 5 13 6 14 7 15 8 16 9 7 10 6 11 5 12
REMARK SMILES IDX 4 13 3 14 2 15 1 16
REMARK H PARENT
REMARK Flexibility Score: inf
ROOT
ATOM      1  C   UNL     1      44.589  -5.831  26.404  1.00  0.00     0.000 C 
ENDROOT
BRANCH   1   2
ATOM      2  C   UNL     1      43.497  -5.756  27.484  1.00  0.00     0.000 C 
BRANCH   2   3
ATOM      3  C   UNL     1      42.543  -4.568  27.276  1.00  0.00     0.000 C 
BRANCH   3   4
ATOM      4  C   UNL     1      42.095  -3.924  28.601  1.00  0.00     0.000 C 
BRANCH   4   5
ATOM      5  C   UNL     1      43.244  -3.409  29.494  1.00  0.00     0.006 C 
BRANCH   5   6
ATOM      6  C   UNL     1      43.606  -1.930  29.279  1.00  0.00     0.053 C 
BRANCH   6   7
ATOM      7  C   UNL     1      44.905  -1.772  28.548  1.00  0.00     0.041 C 
ATOM      8  O   UNL     1      45.477  -2.777  28.050  1.00  0.00    -0.550 OA
ATOM      9  O   UNL     1      45.465  -0.512  28.390  1.00  0.00    -0.550 OA
ENDBRANCH   6   7
ENDBRANCH   5   6
ENDBRANCH   4   5
ENDBRANCH   3   4
ENDBRANCH   2   3
ENDBRANCH   1   2
BRANCH   1  10
ATOM     10  C   UNL     1      45.112  -7.260  26.192  1.00  0.00     0.000 C 
BRANCH  10  11
ATOM     11  C   UNL     1      46.648  -7.282  26.161  1.00  0.00    -0.000 C 
BRANCH  11  12
ATOM     12  C   UNL     1      47.213  -7.082  24.742  1.00  0.00    -0.000 C 
BRANCH  12  13
ATOM     13  C   UNL     1      46.274  -7.584  23.628  1.00  0.00    -0.000 C 
BRANCH  13  14
ATOM     14  C   UNL     1      46.961  -7.670  22.245  1.00  0.00    -0.000 C 
BRANCH  14  15
ATOM     15  C   UNL     1      48.455  -7.310  22.282  1.00  0.00    -0.003 C 
ATOM     16  C   UNL     1      49.269  -8.049  21.221  1.00  0.00     0.004 C 
ENDBRANCH  14  15
ENDBRANCH  13  14
ENDBRANCH  12  13
ENDBRANCH  11  12
ENDBRANCH  10  11
ENDBRANCH   1  10
TORSDOF 12
ENDMDL
MODEL 3
REMARK VINA RESULT:    -4.785      1.875      3.513
REMARK INTER + INTRA:          -9.517
REMARK INTER:                  -8.119
REMARK INTRA:                  -1.398
REMARK UNBOUND:                -1.375
REMARK SMILES CCCCCCCCCCCCCC(=O)[O-]
REMARK SMILES IDX 8 1 9 2 10 3 11 4 12 5 13 6 14 7 15 8 16 9 7 10 6 11 5 12
REMARK SMILES IDX 4 13 3 14 2 15 1 16
REMARK H PARENT
REMARK Flexibility Score: inf
ROOT
ATOM      1  C   UNL     1      45.908  -4.205  27.001  1.00  0.00     0.000 C 
ENDROOT
BRANCH   1   2
ATOM      2  C   UNL     1      45.872  -5.663  27.486  1.00  0.00     0.000 C 
BRANCH   2   3
ATOM      3  C   UNL     1      44.681  -6.448  26.909  1.00  0.00     0.000 C 
BRANCH   3   4
ATOM      4  C   UNL     1      43.568  -5.531  26.370  1.00  0.00     0.000 C 
BRANCH   4   5
ATOM      5  C   UNL     1      42.334  -5.399  27.286  1.00  0.00     0.006 C 
BRANCH   5   6
ATOM      6  C   UNL     1      42.139  -4.002  27.898  1.00  0.00     0.053 C 
BRANCH   6   7
ATOM      7  C   UNL     1      42.859  -3.856  29.204  1.00  0.00     0.041 C 
ATOM      8  O   UNL     1      42.971  -4.843  29.979  1.00  0.00    -0.550 OA
ATOM      9  O   UNL     1      43.434  -2.641  29.550  1.00  0.00    -0.550 OA
ENDBRANCH   6   7
ENDBRANCH   5   6
ENDBRANCH   4   5
ENDBRANCH   3   4
ENDBRANCH   2   3
ENDBRANCH   1   2
BRANCH   1  10
ATOM     10  C   UNL     1      47.056  -3.940  26.015  1.00  0.00     0.000 C 
BRANCH  10  11
ATOM     11  C   UNL     1      48.169  -4.987  26.176  1.00  0.00    -0.000 C 
BRANCH  11  12
ATOM     12  C   UNL     1      48.612  -5.590  24.829  1.00  0.00    -0.000 C 
BRANCH  12  13
ATOM     13  C   UNL     1      48.203  -7.064  24.648  1.00  0.00    -0.000 C 
BRANCH  13  14
ATOM     14  C   UNL     1      46.815  -7.235  23.987  1.00  0.00    -0.000 C 
BRANCH  14  15
ATOM     15  C   UNL     1      46.890  -7.676  22.516  1.00  0.00    -0.003 C 
ATOM     16  C   UNL     1      48.319  -7.698  21.976  1.00  0.00     0.004 C 
ENDBRANCH  14  15
ENDBRANCH  13  14
ENDBRANCH  12  13
ENDBRANCH  11  12
ENDBRANCH  10  11
ENDBRANCH   1  10
TORSDOF 12
ENDMDL
MODEL 4
REMARK VINA RESULT:    -4.746      3.042      6.528
REMARK INTER + INTRA:          -9.451
REMARK INTER:                  -8.504
REMARK INTRA:                  -0.947
REMARK UNBOUND:                -1.375
REMARK SMILES CCCCCCCCCCCCCC(=O)[O-]
REMARK SMILES IDX 8 1 9 2 10 3 11 4 12 5 13 6 14 7 15 8 16 9 7 10 6 11 5 12
REMARK SMILES IDX 4 13 3 14 2 15 1 16
REMARK H PARENT
REMARK Flexibility Score: inf
ROOT
ATOM      1  C   UNL     1      44.726  -5.971  25.979  1.00  0.00     0.000 C 
ENDROOT
BRANCH   1   2
ATOM      2  C   UNL     1      45.413  -7.346  25.980  1.00  0.00     0.000 C 
BRANCH   2   3
ATOM      3  C   UNL     1      45.361  -8.032  24.604  1.00  0.00     0.000 C 
BRANCH   3   4
ATOM      4  C   UNL     1      45.992  -7.179  23.488  1.00  0.00     0.000 C 
BRANCH   4   5
ATOM      5  C   UNL     1      47.211  -7.820  22.792  1.00  0.00     0.006 C 
BRANCH   5   6
ATOM      6  C   UNL     1      48.541  -7.085  23.027  1.00  0.00     0.053 C 
BRANCH   6   7
ATOM      7  C   UNL     1      48.764  -6.780  24.477  1.00  0.00     0.041 C 
ATOM      8  O   UNL     1      49.126  -7.692  25.267  1.00  0.00    -0.550 OA
ATOM      9  O   UNL     1      48.604  -5.484  24.948  1.00  0.00    -0.550 OA
ENDBRANCH   6   7
ENDBRANCH   5   6
ENDBRANCH   4   5
ENDBRANCH   3   4
ENDBRANCH   2   3
ENDBRANCH   1   2
BRANCH   1  10
ATOM     10  C   UNL     1      44.719  -5.315  27.368  1.00  0.00     0.000 C 
BRANCH  10  11
ATOM     11  C   UNL     1      43.360  -5.509  28.059  1.00  0.00    -0.000 C 
BRANCH  11  12
ATOM     12  C   UNL     1      42.321  -4.458  27.623  1.00  0.00    -0.000 C 
BRANCH  12  13
ATOM     13  C   UNL     1      41.889  -3.510  28.758  1.00  0.00    -0.000 C 
BRANCH  13  14
ATOM     14  C   UNL     1      43.030  -3.187  29.750  1.00  0.00    -0.000 C 
BRANCH  14  15
ATOM     15  C   UNL     1      43.588  -1.763  29.595  1.00  0.00    -0.003 C 
ATOM     16  C   UNL     1      44.729  -1.680  28.582  1.00  0.00     0.004 C 
ENDBRANCH  14  15
ENDBRANCH  13  14
ENDBRANCH  12  13
ENDBRANCH  11  12
ENDBRANCH  10  11
ENDBRANCH   1  10
TORSDOF 12
ENDMDL
MODEL 5
REMARK VINA RESULT:    -4.730      3.593      6.515
REMARK INTER + INTRA:          -9.424
REMARK INTER:                  -7.908
REMARK INTRA:                  -1.516
REMARK UNBOUND:                -1.375
REMARK SMILES CCCCCCCCCCCCCC(=O)[O-]
REMARK SMILES IDX 8 1 9 2 10 3 11 4 12 5 13 6 14 7 15 8 16 9 7 10 6 11 5 12
REMARK SMILES IDX 4 13 3 14 2 15 1 16
REMARK H PARENT
REMARK Flexibility Score: inf
ROOT
ATOM      1  C   UNL     1      45.841  -4.401  26.374  1.00  0.00     0.000 C 
ENDROOT
BRANCH   1   2
ATOM      2  C   UNL     1      47.185  -3.657  26.430  1.00  0.00     0.000 C 
BRANCH   2   3
ATOM      3  C   UNL     1      48.389  -4.613  26.437  1.00  0.00     0.000 C 
BRANCH   3   4
ATOM      4  C   UNL     1      48.550  -5.380  25.112  1.00  0.00     0.000 C 
BRANCH   4   5
ATOM      5  C   UNL     1      48.293  -6.899  25.204  1.00  0.00     0.006 C 
BRANCH   5   6
ATOM      6  C   UNL     1      47.051  -7.385  24.438  1.00  0.00     0.053 C 
BRANCH   6   7
ATOM      7  C   UNL     1      47.305  -7.484  22.965  1.00  0.00     0.041 C 
ATOM      8  O   UNL     1      48.461  -7.746  22.538  1.00  0.00    -0.550 OA
ATOM      9  O   UNL     1      46.260  -7.320  22.066  1.00  0.00    -0.550 OA
ENDBRANCH   6   7
ENDBRANCH   5   6
ENDBRANCH   4   5
ENDBRANCH   3   4
ENDBRANCH   2   3
ENDBRANCH   1   2
BRANCH   1  10
ATOM     10  C   UNL     1      45.658  -5.375  27.548  1.00  0.00     0.000 C 
BRANCH  10  11
ATOM     11  C   UNL     1      44.403  -6.240  27.352  1.00  0.00    -0.000 C 
BRANCH  11  12
ATOM     12  C   UNL     1      43.216  -5.439  26.785  1.00  0.00    -0.000 C 
BRANCH  12  13
ATOM     13  C   UNL     1      42.179  -5.034  27.850  1.00  0.00    -0.000 C 
BRANCH  13  14
ATOM     14  C   UNL     1      42.232  -3.532  28.212  1.00  0.00    -0.000 C 
BRANCH  14  15
ATOM     15  C   UNL     1      43.232  -3.209  29.334  1.00  0.00    -0.003 C 
ATOM     16  C   UNL     1      44.223  -2.111  28.947  1.00  0.00     0.004 C 
ENDBRANCH  14  15
ENDBRANCH  13  14
ENDBRANCH  12  13
ENDBRANCH  11  12
ENDBRANCH  10  11
ENDBRANCH   1  10
TORSDOF 12
ENDMDL
MODEL 6
REMARK VINA RESULT:    -4.653      2.784      4.028
REMARK INTER + INTRA:          -9.292
REMARK INTER:                  -8.101
REMARK INTRA:                  -1.191
REMARK UNBOUND:                -1.375
REMARK SMILES CCCCCCCCCCCCCC(=O)[O-]
REMARK SMILES IDX 8 1 9 2 10 3 11 4 12 5 13 6 14 7 15 8 16 9 7 10 6 11 5 12
REMARK SMILES IDX 4 13 3 14 2 15 1 16
REMARK H PARENT
REMARK Flexibility Score: inf
ROOT
ATOM      1  C   UNL     1      45.632  -5.107  27.529  1.00  0.00     0.000 C 
ENDROOT
BRANCH   1   2
ATOM      2  C   UNL     1      45.154  -3.714  27.970  1.00  0.00     0.000 C 
BRANCH   2   3
ATOM      3  C   UNL     1      43.663  -3.695  28.350  1.00  0.00     0.000 C 
BRANCH   3   4
ATOM      4  C   UNL     1      43.165  -5.052  28.881  1.00  0.00     0.000 C 
BRANCH   4   5
ATOM      5  C   UNL     1      42.075  -5.725  28.021  1.00  0.00     0.006 C 
BRANCH   5   6
ATOM      6  C   UNL     1      41.567  -4.870  26.848  1.00  0.00     0.053 C 
BRANCH   6   7
ATOM      7  C   UNL     1      40.196  -4.324  27.105  1.00  0.00     0.041 C 
ATOM      8  O   UNL     1      39.914  -3.823  28.226  1.00  0.00    -0.550 OA
ATOM      9  O   UNL     1      39.241  -4.338  26.098  1.00  0.00    -0.550 OA
ENDBRANCH   6   7
ENDBRANCH   5   6
ENDBRANCH   4   5
ENDBRANCH   3   4
ENDBRANCH   2   3
ENDBRANCH   1   2
BRANCH   1  10
ATOM     10  C   UNL     1      45.402  -5.362  26.031  1.00  0.00     0.000 C 
BRANCH  10  11
ATOM     11  C   UNL     1      45.120  -6.850  25.766  1.00  0.00    -0.000 C 
BRANCH  11  12
ATOM     12  C   UNL     1      46.388  -7.628  25.366  1.00  0.00    -0.000 C 
BRANCH  12  13
ATOM     13  C   UNL     1      46.896  -7.295  23.950  1.00  0.00    -0.000 C 
BRANCH  13  14
ATOM     14  C   UNL     1      48.438  -7.267  23.846  1.00  0.00    -0.000 C 
BRANCH  14  15
ATOM     15  C   UNL     1      49.144  -7.410  25.204  1.00  0.00    -0.003 C 
ATOM     16  C   UNL     1      50.196  -6.328  25.442  1.00  0.00     0.004 C 
ENDBRANCH  14  15
ENDBRANCH  13  14
ENDBRANCH  12  13
ENDBRANCH  11  12
ENDBRANCH  10  11
ENDBRANCH   1  10
TORSDOF 12
ENDMDL
MODEL 7
REMARK VINA RESULT:    -4.643      3.082      6.690
REMARK INTER + INTRA:          -9.275
REMARK INTER:                  -8.424
REMARK INTRA:                  -0.851
REMARK UNBOUND:                -1.375
REMARK SMILES CCCCCCCCCCCCCC(=O)[O-]
REMARK SMILES IDX 8 1 9 2 10 3 11 4 12 5 13 6 14 7 15 8 16 9 7 10 6 11 5 12
REMARK SMILES IDX 4 13 3 14 2 15 1 16
REMARK H PARENT
REMARK Flexibility Score: inf
ROOT
ATOM      1  C   UNL     1      43.845  -5.653  26.317  1.00  0.00     0.000 C 
ENDROOT
BRANCH   1   2
ATOM      2  C   UNL     1      44.939  -6.245  27.220  1.00  0.00     0.000 C 
BRANCH   2   3
ATOM      3  C   UNL     1      45.522  -7.554  26.660  1.00  0.00     0.000 C 
BRANCH   3   4
ATOM      4  C   UNL     1      45.367  -7.670  25.132  1.00  0.00     0.000 C 
BRANCH   4   5
ATOM      5  C   UNL     1      46.642  -7.350  24.324  1.00  0.00     0.006 C 
BRANCH   5   6
ATOM      6  C   UNL     1      47.929  -7.279  25.162  1.00  0.00     0.053 C 
BRANCH   6   7
ATOM      7  C   UNL     1      48.417  -5.871  25.322  1.00  0.00     0.041 C 
ATOM      8  O   UNL     1      49.651  -5.622  25.294  1.00  0.00    -0.550 OA
ATOM      9  O   UNL     1      47.508  -4.832  25.471  1.00  0.00    -0.550 OA
ENDBRANCH   6   7
ENDBRANCH   5   6
ENDBRANCH   4   5
ENDBRANCH   3   4
ENDBRANCH   2   3
ENDBRANCH   1   2
BRANCH   1  10
ATOM     10  C   UNL     1      42.633  -5.147  27.114  1.00  0.00     0.000 C 
BRANCH  10  11
ATOM     11  C   UNL     1      42.999  -4.932  28.591  1.00  0.00    -0.000 C 
BRANCH  11  12
ATOM     12  C   UNL     1      42.619  -3.528  29.096  1.00  0.00    -0.000 C 
BRANCH  12  13
ATOM     13  C   UNL     1      43.820  -2.569  29.217  1.00  0.00    -0.000 C 
BRANCH  13  14
ATOM     14  C   UNL     1      43.515  -1.315  30.069  1.00  0.00    -0.000 C 
BRANCH  14  15
ATOM     15  C   UNL     1      42.894  -1.643  31.436  1.00  0.00    -0.003 C 
ATOM     16  C   UNL     1      43.188  -0.577  32.491  1.00  0.00     0.004 C 
ENDBRANCH  14  15
ENDBRANCH  13  14
ENDBRANCH  12  13
ENDBRANCH  11  12
ENDBRANCH  10  11
ENDBRANCH   1  10
TORSDOF 12
ENDMDL
MODEL 8
REMARK VINA RESULT:    -4.554      4.762      7.694
REMARK INTER + INTRA:          -9.125
REMARK INTER:                  -8.661
REMARK INTRA:                  -0.464
REMARK UNBOUND:                -1.375
REMARK SMILES CCCCCCCCCCCCCC(=O)[O-]
REMARK SMILES IDX 8 1 9 2 10 3 11 4 12 5 13 6 14 7 15 8 16 9 7 10 6 11 5 12
REMARK SMILES IDX 4 13 3 14 2 15 1 16
REMARK H PARENT
REMARK Flexibility Score: inf
ROOT
ATOM      1  C   UNL     1      43.627  -5.810  27.251  1.00  0.00     0.000 C 
ENDROOT
BRANCH   1   2
ATOM      2  C   UNL     1      45.144  -6.037  27.147  1.00  0.00     0.000 C 
BRANCH   2   3
ATOM      3  C   UNL     1      45.499  -7.483  26.763  1.00  0.00     0.000 C 
BRANCH   3   4
ATOM      4  C   UNL     1      45.361  -7.751  25.253  1.00  0.00     0.000 C 
BRANCH   4   5
ATOM      5  C   UNL     1      46.566  -7.301  24.401  1.00  0.00     0.006 C 
BRANCH   5   6
ATOM      6  C   UNL     1      47.892  -7.201  25.172  1.00  0.00     0.053 C 
BRANCH   6   7
ATOM      7  C   UNL     1      49.078  -7.247  24.257  1.00  0.00     0.041 C 
ATOM      8  O   UNL     1      48.924  -7.502  23.033  1.00  0.00    -0.550 OA
ATOM      9  O   UNL     1      50.348  -6.978  24.749  1.00  0.00    -0.550 OA
ENDBRANCH   6   7
ENDBRANCH   5   6
ENDBRANCH   4   5
ENDBRANCH   3   4
ENDBRANCH   2   3
ENDBRANCH   1   2
BRANCH   1  10
ATOM     10  C   UNL     1      43.264  -4.685  28.232  1.00  0.00     0.000 C 
BRANCH  10  11
ATOM     11  C   UNL     1      41.824  -4.201  28.003  1.00  0.00    -0.000 C 
BRANCH  11  12
ATOM     12  C   UNL     1      41.212  -4.761  26.705  1.00  0.00    -0.000 C 
BRANCH  12  13
ATOM     13  C   UNL     1      39.943  -5.605  26.935  1.00  0.00    -0.000 C 
BRANCH  13  14
ATOM     14  C   UNL     1      38.792  -5.250  25.965  1.00  0.00    -0.000 C 
BRANCH  14  15
ATOM     15  C   UNL     1      38.379  -6.419  25.056  1.00  0.00    -0.003 C 
ATOM     16  C   UNL     1      37.231  -7.244  25.636  1.00  0.00     0.004 C 
ENDBRANCH  14  15
ENDBRANCH  13  14
ENDBRANCH  12  13
ENDBRANCH  11  12
ENDBRANCH  10  11
ENDBRANCH   1  10
TORSDOF 12
ENDMDL
MODEL 9
REMARK VINA RESULT:    -4.530      4.909      6.187
REMARK INTER + INTRA:          -9.084
REMARK INTER:                  -8.572
REMARK INTRA:                  -0.511
REMARK UNBOUND:                -1.375
REMARK SMILES CCCCCCCCCCCCCC(=O)[O-]
REMARK SMILES IDX 8 1 9 2 10 3 11 4 12 5 13 6 14 7 15 8 16 9 7 10 6 11 5 12
REMARK SMILES IDX 4 13 3 14 2 15 1 16
REMARK H PARENT
REMARK Flexibility Score: inf
ROOT
ATOM      1  C   UNL     1      43.902  -4.790  27.438  1.00  0.00     0.000 C 
ENDROOT
BRANCH   1   2
ATOM      2  C   UNL     1      42.632  -5.257  26.707  1.00  0.00     0.000 C 
BRANCH   2   3
ATOM      3  C   UNL     1      41.346  -4.720  27.359  1.00  0.00     0.000 C 
BRANCH   3   4
ATOM      4  C   UNL     1      40.276  -4.321  26.326  1.00  0.00     0.000 C 
BRANCH   4   5
ATOM      5  C   UNL     1      38.923  -5.046  26.479  1.00  0.00     0.006 C 
BRANCH   5   6
ATOM      6  C   UNL     1      38.751  -6.276  25.573  1.00  0.00     0.053 C 
BRANCH   6   7
ATOM      7  C   UNL     1      37.311  -6.658  25.413  1.00  0.00     0.041 C 
ATOM      8  O   UNL     1      36.867  -6.995  24.283  1.00  0.00    -0.550 OA
ATOM      9  O   UNL     1      36.467  -6.672  26.515  1.00  0.00    -0.550 OA
ENDBRANCH   6   7
ENDBRANCH   5   6
ENDBRANCH   4   5
ENDBRANCH   3   4
ENDBRANCH   2   3
ENDBRANCH   1   2
BRANCH   1  10
ATOM     10  C   UNL     1      45.169  -5.492  26.926  1.00  0.00     0.000 C 
BRANCH  10  11
ATOM     11  C   UNL     1      45.024  -7.019  27.018  1.00  0.00    -0.000 C 
BRANCH  11  12
ATOM     12  C   UNL     1      46.170  -7.765  26.309  1.00  0.00    -0.000 C 
BRANCH  12  13
ATOM     13  C   UNL     1      46.482  -7.222  24.901  1.00  0.00    -0.000 C 
BRANCH  13  14
ATOM     14  C   UNL     1      47.992  -7.213  24.572  1.00  0.00    -0.000 C 
BRANCH  14  15
ATOM     15  C   UNL     1      48.292  -7.399  23.076  1.00  0.00    -0.003 C 
ATOM     16  C   UNL     1      47.034  -7.653  22.246  1.00  0.00     0.004 C 
ENDBRANCH  14  15
ENDBRANCH  13  14
ENDBRANCH  12  13
ENDBRANCH  11  12
ENDBRANCH  10  11
ENDBRANCH   1  10
TORSDOF 12
ENDMDL
