MODEL 1
REMARK VINA RESULT:    -4.581      0.000      0.000
REMARK INTER + INTRA:         -15.291
REMARK INTER:                 -11.545
REMARK INTRA:                  -3.746
REMARK UNBOUND:                -3.746
REMARK SMILES CCCCCCCCCCCCCCCCCCCCCCCCCCCC(=O)[O-]
REMARK SMILES IDX 15 1 16 2 17 3 18 4 19 5 20 6 21 7 22 8 23 9 24 10 25 11
REMARK SMILES IDX 26 12 27 13 28 14 29 15 30 16 14 17 13 18 12 19 11 20 10 21
REMARK SMILES IDX 9 22 8 23 7 24 6 25 5 26 4 27 3 28 2 29 1 30
REMARK H PARENT
REMARK Flexibility Score: inf
ROOT
ATOM      1  C   UNL     1      58.770  -3.563  30.677  1.00  0.00     0.000 C 
ENDROOT
BRANCH   1   2
ATOM      2  C   UNL     1      58.942  -3.476  29.148  1.00  0.00     0.000 C 
BRANCH   2   3
ATOM      3  C   UNL     1      60.417  -3.451  28.709  1.00  0.00     0.000 C 
BRANCH   3   4
ATOM      4  C   UNL     1      60.905  -2.037  28.345  1.00  0.00     0.000 C 
BRANCH   4   5
ATOM      5  C   UNL     1      62.320  -1.692  28.846  1.00  0.00     0.000 C 
BRANCH   5   6
ATOM      6  C   UNL     1      63.252  -2.916  28.882  1.00  0.00     0.000 C 
BRANCH   6   7
ATOM      7  C   UNL     1      64.187  -3.000  27.661  1.00  0.00     0.000 C 
BRANCH   7   8
ATOM      8  C   UNL     1      63.546  -3.561  26.377  1.00  0.00     0.000 C 
BRANCH   8   9
ATOM      9  C   UNL     1      63.243  -5.065  26.461  1.00  0.00     0.000 C 
BRANCH   9  10
ATOM     10  C   UNL     1      64.535  -5.886  26.548  1.00  0.00     0.000 C 
BRANCH  10  11
ATOM     11  C   UNL     1      64.371  -7.058  27.527  1.00  0.00     0.000 C 
BRANCH  11  12
ATOM     12  C   UNL     1      63.209  -7.990  27.152  1.00  0.00     0.006 C 
BRANCH  12  13
ATOM     13  C   UNL     1      63.478  -8.786  25.867  1.00  0.00     0.053 C 
BRANCH  13  14
ATOM     14  C   UNL     1      63.482 -10.256  26.149  1.00  0.00     0.041 C 
ATOM     15  O   UNL     1      64.069 -10.704  27.171  1.00  0.00    -0.550 OA
ATOM     16  O   UNL     1      62.868 -11.136  25.267  1.00  0.00    -0.550 OA
ENDBRANCH  13  14
ENDBRANCH  12  13
ENDBRANCH  11  12
ENDBRANCH  10  11
ENDBRANCH   9  10
ENDBRANCH   8   9
ENDBRANCH   7   8
ENDBRANCH   6   7
ENDBRANCH   5   6
ENDBRANCH   4   5
ENDBRANCH   3   4
ENDBRANCH   2   3
ENDBRANCH   1   2
BRANCH   1  17
ATOM     17  C   UNL     1      59.978  -3.088  31.505  1.00  0.00     0.000 C 
BRANCH  17  18
ATOM     18  C   UNL     1      59.907  -1.595  31.869  1.00  0.00     0.000 C 
BRANCH  18  19
ATOM     19  C   UNL     1      58.462  -1.102  32.047  1.00  0.00     0.000 C 
BRANCH  19  20
ATOM     20  C   UNL     1      58.199   0.244  31.346  1.00  0.00     0.000 C 
BRANCH  20  21
ATOM     21  C   UNL     1      58.243   0.131  29.814  1.00  0.00     0.000 C 
BRANCH  21  22
ATOM     22  C   UNL     1      57.209   1.036  29.127  1.00  0.00    -0.000 C 
BRANCH  22  23
ATOM     23  C   UNL     1      56.213   0.210  28.305  1.00  0.00    -0.000 C 
BRANCH  23  24
ATOM     24  C   UNL     1      55.996  -1.174  28.931  1.00  0.00    -0.000 C 
BRANCH  24  25
ATOM     25  C   UNL     1      54.563  -1.671  28.688  1.00  0.00    -0.000 C 
BRANCH  25  26
ATOM     26  C   UNL     1      53.597  -1.301  29.827  1.00  0.00    -0.000 C 
BRANCH  26  27
ATOM     27  C   UNL     1      54.208  -1.346  31.240  1.00  0.00    -0.000 C 
BRANCH  27  28
ATOM     28  C   UNL     1      54.102  -2.734  31.894  1.00  0.00    -0.000 C 
BRANCH  28  29
ATOM     29  C   UNL     1      55.449  -3.474  31.918  1.00  0.00    -0.003 C 
ATOM     30  C   UNL     1      55.321  -4.950  31.538  1.00  0.00     0.004 C 
ENDBRANCH  28  29
ENDBRANCH  27  28
ENDBRANCH  26  27
ENDBRANCH  25  26
ENDBRANCH  24  25
ENDBRANCH  23  24
ENDBRANCH  22  23
ENDBRANCH  21  22
ENDBRANCH  20  21
ENDBRANCH  19  20
ENDBRANCH  18  19
ENDBRANCH  17  18
ENDBRANCH   1  17
TORSDOF 26
ENDMDL
MODEL 2
REMARK VINA RESULT:    -4.471      1.248      1.718
REMARK INTER + INTRA:         -15.014
REMARK INTER:                 -11.431
REMARK INTRA:                  -3.582
REMARK UNBOUND:                -3.746
REMARK SMILES CCCCCCCCCCCCCCCCCCCCCCCCCCCC(=O)[O-]
REMARK SMILES IDX 15 1 16 2 17 3 18 4 19 5 20 6 21 7 22 8 23 9 24 10 25 11
REMARK SMILES IDX 26 12 27 13 28 14 29 15 30 16 14 17 13 18 12 19 11 20 10 21
REMARK SMILES IDX 9 22 8 23 7 24 6 25 5 26 4 27 3 28 2 29 1 30
REMARK H PARENT
REMARK Flexibility Score: inf
ROOT
ATOM      1  C   UNL     1      60.203  -3.491  30.276  1.00  0.00     0.000 C 
ENDROOT
BRANCH   1   2
ATOM      2  C   UNL     1      60.308  -3.224  28.762  1.00  0.00     0.000 C 
BRANCH   2   3
ATOM      3  C   UNL     1      61.238  -2.046  28.423  1.00  0.00     0.000 C 
BRANCH   3   4
ATOM      4  C   UNL     1      61.945  -2.217  27.066  1.00  0.00     0.000 C 
BRANCH   4   5
ATOM      5  C   UNL     1      63.306  -2.935  27.133  1.00  0.00     0.000 C 
BRANCH   5   6
ATOM      6  C   UNL     1      63.761  -3.214  28.577  1.00  0.00     0.000 C 
BRANCH   6   7
ATOM      7  C   UNL     1      64.098  -4.695  28.829  1.00  0.00     0.000 C 
BRANCH   7   8
ATOM      8  C   UNL     1      63.075  -5.707  28.279  1.00  0.00     0.000 C 
BRANCH   8   9
ATOM      9  C   UNL     1      63.551  -6.410  26.998  1.00  0.00     0.000 C 
BRANCH   9  10
ATOM     10  C   UNL     1      64.163  -7.780  27.312  1.00  0.00     0.000 C 
BRANCH  10  11
ATOM     11  C   UNL     1      64.155  -8.680  26.068  1.00  0.00     0.000 C 
BRANCH  11  12
ATOM     12  C   UNL     1      62.740  -9.117  25.657  1.00  0.00     0.006 C 
BRANCH  12  13
ATOM     13  C   UNL     1      62.742 -10.082  24.463  1.00  0.00     0.053 C 
BRANCH  13  14
ATOM     14  C   UNL     1      61.563 -11.002  24.528  1.00  0.00     0.041 C 
ATOM     15  O   UNL     1      60.412 -10.578  24.243  1.00  0.00    -0.550 OA
ATOM     16  O   UNL     1      61.730 -12.319  24.937  1.00  0.00    -0.550 OA
ENDBRANCH  13  14
ENDBRANCH  12  13
ENDBRANCH  11  12
ENDBRANCH  10  11
ENDBRANCH   9  10
ENDBRANCH   8   9
ENDBRANCH   7   8
ENDBRANCH   6   7
ENDBRANCH   5   6
ENDBRANCH   4   5
ENDBRANCH   3   4
ENDBRANCH   2   3
ENDBRANCH   1   2
BRANCH   1  17
ATOM     17  C   UNL     1      61.101  -2.613  31.166  1.00  0.00     0.000 C 
BRANCH  17  18
ATOM     18  C   UNL     1      60.308  -1.591  31.999  1.00  0.00     0.000 C 
BRANCH  18  19
ATOM     19  C   UNL     1      58.827  -1.528  31.594  1.00  0.00     0.000 C 
BRANCH  19  20
ATOM     20  C   UNL     1      58.449  -0.202  30.909  1.00  0.00     0.000 C 
BRANCH  20  21
ATOM     21  C   UNL     1      57.969  -0.399  29.463  1.00  0.00     0.000 C 
BRANCH  21  22
ATOM     22  C   UNL     1      57.094   0.764  28.969  1.00  0.00    -0.000 C 
BRANCH  22  23
ATOM     23  C   UNL     1      55.800   0.246  28.329  1.00  0.00    -0.000 C 
BRANCH  23  24
ATOM     24  C   UNL     1      55.646  -1.265  28.543  1.00  0.00    -0.000 C 
BRANCH  24  25
ATOM     25  C   UNL     1      54.194  -1.628  28.885  1.00  0.00    -0.000 C 
BRANCH  25  26
ATOM     26  C   UNL     1      53.820  -1.304  30.342  1.00  0.00    -0.000 C 
BRANCH  26  27
ATOM     27  C   UNL     1      54.818  -1.811  31.400  1.00  0.00    -0.000 C 
BRANCH  27  28
ATOM     28  C   UNL     1      54.577  -3.278  31.795  1.00  0.00    -0.000 C 
BRANCH  28  29
ATOM     29  C   UNL     1      55.866  -4.113  31.762  1.00  0.00    -0.003 C 
ATOM     30  C   UNL     1      56.485  -4.192  30.367  1.00  0.00     0.004 C 
ENDBRANCH  28  29
ENDBRANCH  27  28
ENDBRANCH  26  27
ENDBRANCH  25  26
ENDBRANCH  24  25
ENDBRANCH  23  24
ENDBRANCH  22  23
ENDBRANCH  21  22
ENDBRANCH  20  21
ENDBRANCH  19  20
ENDBRANCH  18  19
ENDBRANCH  17  18
ENDBRANCH   1  17
TORSDOF 26
ENDMDL
MODEL 3
REMARK VINA RESULT:    -4.281      1.199      3.315
REMARK INTER + INTRA:         -14.536
REMARK INTER:                 -10.804
REMARK INTRA:                  -3.732
REMARK UNBOUND:                -3.746
REMARK SMILES CCCCCCCCCCCCCCCCCCCCCCCCCCCC(=O)[O-]
REMARK SMILES IDX 15 1 16 2 17 3 18 4 19 5 20 6 21 7 22 8 23 9 24 10 25 11
REMARK SMILES IDX 26 12 27 13 28 14 29 15 30 16 14 17 13 18 12 19 11 20 10 21
REMARK SMILES IDX 9 22 8 23 7 24 6 25 5 26 4 27 3 28 2 29 1 30
REMARK H PARENT
REMARK Flexibility Score: inf
ROOT
ATOM      1  C   UNL     1      59.345  -3.604  29.102  1.00  0.00     0.000 C 
ENDROOT
BRANCH   1   2
ATOM      2  C   UNL     1      60.686  -3.308  28.403  1.00  0.00     0.000 C 
BRANCH   2   3
ATOM      3  C   UNL     1      61.240  -1.911  28.732  1.00  0.00     0.000 C 
BRANCH   3   4
ATOM      4  C   UNL     1      62.516  -1.964  29.591  1.00  0.00     0.000 C 
BRANCH   4   5
ATOM      5  C   UNL     1      63.827  -1.729  28.817  1.00  0.00     0.000 C 
BRANCH   5   6
ATOM      6  C   UNL     1      64.775  -2.941  28.875  1.00  0.00     0.000 C 
BRANCH   6   7
ATOM      7  C   UNL     1      64.242  -4.084  29.758  1.00  0.00     0.000 C 
BRANCH   7   8
ATOM      8  C   UNL     1      64.331  -5.492  29.139  1.00  0.00     0.000 C 
BRANCH   8   9
ATOM      9  C   UNL     1      63.153  -5.817  28.207  1.00  0.00     0.000 C 
BRANCH   9  10
ATOM     10  C   UNL     1      63.570  -5.721  26.734  1.00  0.00     0.000 C 
BRANCH  10  11
ATOM     11  C   UNL     1      65.075  -5.980  26.574  1.00  0.00     0.000 C 
BRANCH  11  12
ATOM     12  C   UNL     1      65.379  -7.294  25.839  1.00  0.00     0.006 C 
BRANCH  12  13
ATOM     13  C   UNL     1      65.804  -8.421  26.790  1.00  0.00     0.053 C 
BRANCH  13  14
ATOM     14  C   UNL     1      64.604  -9.112  27.357  1.00  0.00     0.041 C 
ATOM     15  O   UNL     1      63.627  -9.397  26.614  1.00  0.00    -0.550 OA
ATOM     16  O   UNL     1      64.549  -9.413  28.712  1.00  0.00    -0.550 OA
ENDBRANCH  13  14
ENDBRANCH  12  13
ENDBRANCH  11  12
ENDBRANCH  10  11
ENDBRANCH   9  10
ENDBRANCH   8   9
ENDBRANCH   7   8
ENDBRANCH   6   7
ENDBRANCH   5   6
ENDBRANCH   4   5
ENDBRANCH   3   4
ENDBRANCH   2   3
ENDBRANCH   1   2
BRANCH   1  17
ATOM     17  C   UNL     1      59.357  -3.472  30.636  1.00  0.00     0.000 C 
BRANCH  17  18
ATOM     18  C   UNL     1      58.018  -3.864  31.284  1.00  0.00     0.000 C 
BRANCH  18  19
ATOM     19  C   UNL     1      56.951  -4.241  30.244  1.00  0.00     0.000 C 
BRANCH  19  20
ATOM     20  C   UNL     1      55.593  -4.591  30.880  1.00  0.00     0.000 C 
BRANCH  20  21
ATOM     21  C   UNL     1      55.274  -3.721  32.107  1.00  0.00     0.000 C 
BRANCH  21  22
ATOM     22  C   UNL     1      54.033  -2.840  31.897  1.00  0.00    -0.000 C 
BRANCH  22  23
ATOM     23  C   UNL     1      54.409  -1.503  31.248  1.00  0.00    -0.000 C 
BRANCH  23  24
ATOM     24  C   UNL     1      53.566  -1.243  29.993  1.00  0.00    -0.000 C 
BRANCH  24  25
ATOM     25  C   UNL     1      54.380  -1.502  28.718  1.00  0.00    -0.000 C 
BRANCH  25  26
ATOM     26  C   UNL     1      55.864  -1.119  28.864  1.00  0.00    -0.000 C 
BRANCH  26  27
ATOM     27  C   UNL     1      56.219   0.305  28.396  1.00  0.00    -0.000 C 
BRANCH  27  28
ATOM     28  C   UNL     1      57.488   0.857  29.069  1.00  0.00    -0.000 C 
BRANCH  28  29
ATOM     29  C   UNL     1      57.352   0.941  30.597  1.00  0.00    -0.003 C 
ATOM     30  C   UNL     1      58.179  -0.119  31.325  1.00  0.00     0.004 C 
ENDBRANCH  28  29
ENDBRANCH  27  28
ENDBRANCH  26  27
ENDBRANCH  25  26
ENDBRANCH  24  25
ENDBRANCH  23  24
ENDBRANCH  22  23
ENDBRANCH  21  22
ENDBRANCH  20  21
ENDBRANCH  19  20
ENDBRANCH  18  19
ENDBRANCH  17  18
ENDBRANCH   1  17
TORSDOF 26
ENDMDL
MODEL 4
REMARK VINA RESULT:    -4.271      9.867     16.924
REMARK INTER + INTRA:         -14.509
REMARK INTER:                  -9.474
REMARK INTRA:                  -5.035
REMARK UNBOUND:                -3.746
REMARK SMILES CCCCCCCCCCCCCCCCCCCCCCCCCCCC(=O)[O-]
REMARK SMILES IDX 15 1 16 2 17 3 18 4 19 5 20 6 21 7 22 8 23 9 24 10 25 11
REMARK SMILES IDX 26 12 27 13 28 14 29 15 30 16 14 17 13 18 12 19 11 20 10 21
REMARK SMILES IDX 9 22 8 23 7 24 6 25 5 26 4 27 3 28 2 29 1 30
REMARK H PARENT
REMARK Flexibility Score: inf
ROOT
ATOM      1  C   UNL     1      61.987 -12.305  14.245  1.00  0.00     0.000 C 
ENDROOT
BRANCH   1   2
ATOM      2  C   UNL     1      61.526 -11.870  15.650  1.00  0.00     0.000 C 
BRANCH   2   3
ATOM      3  C   UNL     1      61.621 -12.999  16.691  1.00  0.00     0.000 C 
BRANCH   3   4
ATOM      4  C   UNL     1      62.793 -12.809  17.670  1.00  0.00     0.000 C 
BRANCH   4   5
ATOM      5  C   UNL     1      63.583 -11.499  17.486  1.00  0.00     0.000 C 
BRANCH   5   6
ATOM      6  C   UNL     1      64.960 -11.536  18.173  1.00  0.00     0.000 C 
BRANCH   6   7
ATOM      7  C   UNL     1      65.183 -12.807  19.013  1.00  0.00     0.000 C 
BRANCH   7   8
ATOM      8  C   UNL     1      65.431 -12.570  20.515  1.00  0.00     0.000 C 
BRANCH   8   9
ATOM      9  C   UNL     1      65.637 -11.088  20.866  1.00  0.00     0.000 C 
BRANCH   9  10
ATOM     10  C   UNL     1      64.973 -10.737  22.203  1.00  0.00     0.000 C 
BRANCH  10  11
ATOM     11  C   UNL     1      63.940 -11.804  22.595  1.00  0.00     0.000 C 
BRANCH  11  12
ATOM     12  C   UNL     1      63.831 -11.997  24.116  1.00  0.00     0.006 C 
BRANCH  12  13
ATOM     13  C   UNL     1      62.382 -11.927  24.619  1.00  0.00     0.053 C 
BRANCH  13  14
ATOM     14  C   UNL     1      61.889 -10.515  24.609  1.00  0.00     0.041 C 
ATOM     15  O   UNL     1      62.638  -9.578  24.995  1.00  0.00    -0.550 OA
ATOM     16  O   UNL     1      60.589 -10.234  24.205  1.00  0.00    -0.550 OA
ENDBRANCH  13  14
ENDBRANCH  12  13
ENDBRANCH  11  12
ENDBRANCH  10  11
ENDBRANCH   9  10
ENDBRANCH   8   9
ENDBRANCH   7   8
ENDBRANCH   6   7
ENDBRANCH   5   6
ENDBRANCH   4   5
ENDBRANCH   3   4
ENDBRANCH   2   3
ENDBRANCH   1   2
BRANCH   1  17
ATOM     17  C   UNL     1      63.246 -11.595  13.715  1.00  0.00     0.000 C 
BRANCH  17  18
ATOM     18  C   UNL     1      64.408 -12.563  13.434  1.00  0.00     0.000 C 
BRANCH  18  19
ATOM     19  C   UNL     1      65.553 -12.415  14.450  1.00  0.00     0.000 C 
BRANCH  19  20
ATOM     20  C   UNL     1      65.975 -13.757  15.075  1.00  0.00     0.000 C 
BRANCH  20  21
ATOM     21  C   UNL     1      64.774 -14.652  15.421  1.00  0.00     0.000 C 
BRANCH  21  22
ATOM     22  C   UNL     1      65.077 -16.146  15.227  1.00  0.00    -0.000 C 
BRANCH  22  23
ATOM     23  C   UNL     1      63.900 -16.864  14.556  1.00  0.00    -0.000 C 
BRANCH  23  24
ATOM     24  C   UNL     1      62.862 -15.859  14.042  1.00  0.00    -0.000 C 
BRANCH  24  25
ATOM     25  C   UNL     1      61.514 -16.044  14.754  1.00  0.00    -0.000 C 
BRANCH  25  26
ATOM     26  C   UNL     1      61.524 -17.204  15.766  1.00  0.00    -0.000 C 
BRANCH  26  27
ATOM     27  C   UNL     1      61.554 -16.778  17.245  1.00  0.00    -0.000 C 
BRANCH  27  28
ATOM     28  C   UNL     1      62.671 -17.471  18.045  1.00  0.00    -0.000 C 
BRANCH  28  29
ATOM     29  C   UNL     1      63.516 -16.476  18.856  1.00  0.00    -0.003 C 
ATOM     30  C   UNL     1      62.667 -15.567  19.746  1.00  0.00     0.004 C 
ENDBRANCH  28  29
ENDBRANCH  27  28
ENDBRANCH  26  27
ENDBRANCH  25  26
ENDBRANCH  24  25
ENDBRANCH  23  24
ENDBRANCH  22  23
ENDBRANCH  21  22
ENDBRANCH  20  21
ENDBRANCH  19  20
ENDBRANCH  18  19
ENDBRANCH  17  18
ENDBRANCH   1  17
TORSDOF 26
ENDMDL
MODEL 5
REMARK VINA RESULT:    -4.269      3.403      9.869
REMARK INTER + INTRA:         -14.504
REMARK INTER:                 -11.648
REMARK INTRA:                  -2.856
REMARK UNBOUND:                -3.746
REMARK SMILES CCCCCCCCCCCCCCCCCCCCCCCCCCCC(=O)[O-]
REMARK SMILES IDX 15 1 16 2 17 3 18 4 19 5 20 6 21 7 22 8 23 9 24 10 25 11
REMARK SMILES IDX 26 12 27 13 28 14 29 15 30 16 14 17 13 18 12 19 11 20 10 21
REMARK SMILES IDX 9 22 8 23 7 24 6 25 5 26 4 27 3 28 2 29 1 30
REMARK H PARENT
REMARK Flexibility Score: inf
ROOT
ATOM      1  C   UNL     1      61.352  -3.775  28.804  1.00  0.00     0.000 C 
ENDROOT
BRANCH   1   2
ATOM      2  C   UNL     1      60.253  -3.320  29.784  1.00  0.00     0.000 C 
BRANCH   2   3
ATOM      3  C   UNL     1      59.033  -4.258  29.798  1.00  0.00     0.000 C 
BRANCH   3   4
ATOM      4  C   UNL     1      57.698  -3.498  29.895  1.00  0.00     0.000 C 
BRANCH   4   5
ATOM      5  C   UNL     1      57.088  -3.441  31.308  1.00  0.00     0.000 C 
BRANCH   5   6
ATOM      6  C   UNL     1      55.724  -4.151  31.394  1.00  0.00     0.000 C 
BRANCH   6   7
ATOM      7  C   UNL     1      54.571  -3.200  31.765  1.00  0.00     0.000 C 
BRANCH   7   8
ATOM      8  C   UNL     1      54.747  -1.740  31.307  1.00  0.00     0.000 C 
BRANCH   8   9
ATOM      9  C   UNL     1      54.085  -1.448  29.952  1.00  0.00     0.000 C 
BRANCH   9  10
ATOM     10  C   UNL     1      55.104  -1.520  28.809  1.00  0.00     0.000 C 
BRANCH  10  11
ATOM     11  C   UNL     1      55.296  -0.141  28.161  1.00  0.00     0.000 C 
BRANCH  11  12
ATOM     12  C   UNL     1      56.700   0.437  28.393  1.00  0.00     0.006 C 
BRANCH  12  13
ATOM     13  C   UNL     1      56.971   0.759  29.869  1.00  0.00     0.053 C 
BRANCH  13  14
ATOM     14  C   UNL     1      58.266   0.153  30.311  1.00  0.00     0.041 C 
ATOM     15  O   UNL     1      58.470  -0.088  31.531  1.00  0.00    -0.550 OA
ATOM     16  O   UNL     1      59.263  -0.114  29.381  1.00  0.00    -0.550 OA
ENDBRANCH  13  14
ENDBRANCH  12  13
ENDBRANCH  11  12
ENDBRANCH  10  11
ENDBRANCH   9  10
ENDBRANCH   8   9
ENDBRANCH   7   8
ENDBRANCH   6   7
ENDBRANCH   5   6
ENDBRANCH   4   5
ENDBRANCH   3   4
ENDBRANCH   2   3
ENDBRANCH   1   2
BRANCH   1  17
ATOM     17  C   UNL     1      61.825  -2.707  27.801  1.00  0.00     0.000 C 
BRANCH  17  18
ATOM     18  C   UNL     1      62.421  -3.309  26.517  1.00  0.00     0.000 C 
BRANCH  18  19
ATOM     19  C   UNL     1      63.793  -2.710  26.169  1.00  0.00     0.000 C 
BRANCH  19  20
ATOM     20  C   UNL     1      64.557  -2.207  27.407  1.00  0.00     0.000 C 
BRANCH  20  21
ATOM     21  C   UNL     1      65.739  -3.115  27.782  1.00  0.00     0.000 C 
BRANCH  21  22
ATOM     22  C   UNL     1      65.335  -4.239  28.748  1.00  0.00    -0.000 C 
BRANCH  22  23
ATOM     23  C   UNL     1      65.313  -5.597  28.036  1.00  0.00    -0.000 C 
BRANCH  23  24
ATOM     24  C   UNL     1      63.939  -6.267  28.170  1.00  0.00    -0.000 C 
BRANCH  24  25
ATOM     25  C   UNL     1      63.499  -6.895  26.840  1.00  0.00    -0.000 C 
BRANCH  25  26
ATOM     26  C   UNL     1      63.473  -8.433  26.882  1.00  0.00    -0.000 C 
BRANCH  26  27
ATOM     27  C   UNL     1      62.764  -9.107  25.691  1.00  0.00    -0.000 C 
BRANCH  27  28
ATOM     28  C   UNL     1      63.747  -9.729  24.685  1.00  0.00    -0.000 C 
BRANCH  28  29
ATOM     29  C   UNL     1      63.138 -10.925  23.935  1.00  0.00    -0.003 C 
ATOM     30  C   UNL     1      61.856 -11.443  24.587  1.00  0.00     0.004 C 
ENDBRANCH  28  29
ENDBRANCH  27  28
ENDBRANCH  26  27
ENDBRANCH  25  26
ENDBRANCH  24  25
ENDBRANCH  23  24
ENDBRANCH  22  23
ENDBRANCH  21  22
ENDBRANCH  20  21
ENDBRANCH  19  20
ENDBRANCH  18  19
ENDBRANCH  17  18
ENDBRANCH   1  17
TORSDOF 26
ENDMDL
MODEL 6
REMARK VINA RESULT:    -4.217     10.182     17.388
REMARK INTER + INTRA:         -14.373
REMARK INTER:                  -9.350
REMARK INTRA:                  -5.023
REMARK UNBOUND:                -3.746
REMARK SMILES CCCCCCCCCCCCCCCCCCCCCCCCCCCC(=O)[O-]
REMARK SMILES IDX 15 1 16 2 17 3 18 4 19 5 20 6 21 7 22 8 23 9 24 10 25 11
REMARK SMILES IDX 26 12 27 13 28 14 29 15 30 16 14 17 13 18 12 19 11 20 10 21
REMARK SMILES IDX 9 22 8 23 7 24 6 25 5 26 4 27 3 28 2 29 1 30
REMARK H PARENT
REMARK Flexibility Score: inf
ROOT
ATOM      1  C   UNL     1      63.050 -13.336  13.695  1.00  0.00     0.000 C 
ENDROOT
BRANCH   1   2
ATOM      2  C   UNL     1      62.148 -12.266  14.340  1.00  0.00     0.000 C 
BRANCH   2   3
ATOM      3  C   UNL     1      61.297 -12.816  15.499  1.00  0.00     0.000 C 
BRANCH   3   4
ATOM      4  C   UNL     1      61.987 -12.666  16.867  1.00  0.00     0.000 C 
BRANCH   4   5
ATOM      5  C   UNL     1      62.995 -11.505  16.960  1.00  0.00     0.000 C 
BRANCH   5   6
ATOM      6  C   UNL     1      64.317 -11.920  17.630  1.00  0.00     0.000 C 
BRANCH   6   7
ATOM      7  C   UNL     1      64.255 -13.316  18.277  1.00  0.00     0.000 C 
BRANCH   7   8
ATOM      8  C   UNL     1      65.295 -13.577  19.383  1.00  0.00     0.000 C 
BRANCH   8   9
ATOM      9  C   UNL     1      64.661 -13.857  20.754  1.00  0.00     0.000 C 
BRANCH   9  10
ATOM     10  C   UNL     1      63.947 -12.615  21.299  1.00  0.00     0.000 C 
BRANCH  10  11
ATOM     11  C   UNL     1      64.954 -11.498  21.609  1.00  0.00     0.000 C 
BRANCH  11  12
ATOM     12  C   UNL     1      64.608 -10.722  22.889  1.00  0.00     0.006 C 
BRANCH  12  13
ATOM     13  C   UNL     1      63.608 -11.468  23.783  1.00  0.00     0.053 C 
BRANCH  13  14
ATOM     14  C   UNL     1      62.587 -10.523  24.334  1.00  0.00     0.041 C 
ATOM     15  O   UNL     1      62.949  -9.448  24.882  1.00  0.00    -0.550 OA
ATOM     16  O   UNL     1      61.237 -10.844  24.273  1.00  0.00    -0.550 OA
ENDBRANCH  13  14
ENDBRANCH  12  13
ENDBRANCH  11  12
ENDBRANCH  10  11
ENDBRANCH   9  10
ENDBRANCH   8   9
ENDBRANCH   7   8
ENDBRANCH   6   7
ENDBRANCH   5   6
ENDBRANCH   4   5
ENDBRANCH   3   4
ENDBRANCH   2   3
ENDBRANCH   1   2
BRANCH   1  17
ATOM     17  C   UNL     1      64.544 -13.247  14.057  1.00  0.00     0.000 C 
BRANCH  17  18
ATOM     18  C   UNL     1      65.023 -14.427  14.920  1.00  0.00     0.000 C 
BRANCH  18  19
ATOM     19  C   UNL     1      63.885 -15.398  15.271  1.00  0.00     0.000 C 
BRANCH  19  20
ATOM     20  C   UNL     1      64.336 -16.870  15.277  1.00  0.00     0.000 C 
BRANCH  20  21
ATOM     21  C   UNL     1      63.945 -17.613  13.990  1.00  0.00     0.000 C 
BRANCH  21  22
ATOM     22  C   UNL     1      62.786 -16.932  13.245  1.00  0.00    -0.000 C 
BRANCH  22  23
ATOM     23  C   UNL     1      61.439 -17.545  13.644  1.00  0.00    -0.000 C 
BRANCH  23  24
ATOM     24  C   UNL     1      60.504 -16.482  14.234  1.00  0.00    -0.000 C 
BRANCH  24  25
ATOM     25  C   UNL     1      59.925 -16.942  15.580  1.00  0.00    -0.000 C 
BRANCH  25  26
ATOM     26  C   UNL     1      60.795 -18.004  16.276  1.00  0.00    -0.000 C 
BRANCH  26  27
ATOM     27  C   UNL     1      61.400 -17.570  17.625  1.00  0.00    -0.000 C 
BRANCH  27  28
ATOM     28  C   UNL     1      61.328 -16.050  17.851  1.00  0.00    -0.000 C 
BRANCH  28  29
ATOM     29  C   UNL     1      61.602 -15.662  19.313  1.00  0.00    -0.003 C 
ATOM     30  C   UNL     1      61.201 -16.757  20.302  1.00  0.00     0.004 C 
ENDBRANCH  28  29
ENDBRANCH  27  28
ENDBRANCH  26  27
ENDBRANCH  25  26
ENDBRANCH  24  25
ENDBRANCH  23  24
ENDBRANCH  22  23
ENDBRANCH  21  22
ENDBRANCH  20  21
ENDBRANCH  19  20
ENDBRANCH  18  19
ENDBRANCH  17  18
ENDBRANCH   1  17
TORSDOF 26
ENDMDL
MODEL 7
REMARK VINA RESULT:    -4.141      9.324     15.714
REMARK INTER + INTRA:         -14.181
REMARK INTER:                  -9.699
REMARK INTRA:                  -4.483
REMARK UNBOUND:                -3.746
REMARK SMILES CCCCCCCCCCCCCCCCCCCCCCCCCCCC(=O)[O-]
REMARK SMILES IDX 15 1 16 2 17 3 18 4 19 5 20 6 21 7 22 8 23 9 24 10 25 11
REMARK SMILES IDX 26 12 27 13 28 14 29 15 30 16 14 17 13 18 12 19 11 20 10 21
REMARK SMILES IDX 9 22 8 23 7 24 6 25 5 26 4 27 3 28 2 29 1 30
REMARK H PARENT
REMARK Flexibility Score: inf
ROOT
ATOM      1  C   UNL     1      60.647 -14.881  16.149  1.00  0.00     0.000 C 
ENDROOT
BRANCH   1   2
ATOM      2  C   UNL     1      60.935 -14.710  14.645  1.00  0.00     0.000 C 
BRANCH   2   3
ATOM      3  C   UNL     1      62.211 -15.440  14.190  1.00  0.00     0.000 C 
BRANCH   3   4
ATOM      4  C   UNL     1      63.113 -14.564  13.302  1.00  0.00     0.000 C 
BRANCH   4   5
ATOM      5  C   UNL     1      62.851 -13.050  13.409  1.00  0.00     0.000 C 
BRANCH   5   6
ATOM      6  C   UNL     1      64.125 -12.249  13.736  1.00  0.00     0.000 C 
BRANCH   6   7
ATOM      7  C   UNL     1      65.331 -13.145  14.075  1.00  0.00     0.000 C 
BRANCH   7   8
ATOM      8  C   UNL     1      65.590 -13.360  15.578  1.00  0.00     0.000 C 
BRANCH   8   9
ATOM      9  C   UNL     1      65.807 -14.836  15.948  1.00  0.00     0.000 C 
BRANCH   9  10
ATOM     10  C   UNL     1      64.952 -15.236  17.155  1.00  0.00     0.000 C 
BRANCH  10  11
ATOM     11  C   UNL     1      64.211 -16.554  16.886  1.00  0.00     0.000 C 
BRANCH  11  12
ATOM     12  C   UNL     1      63.335 -16.997  18.068  1.00  0.00     0.006 C 
BRANCH  12  13
ATOM     13  C   UNL     1      63.097 -15.871  19.085  1.00  0.00     0.053 C 
BRANCH  13  14
ATOM     14  C   UNL     1      62.407 -16.399  20.303  1.00  0.00     0.041 C 
ATOM     15  O   UNL     1      61.171 -16.211  20.463  1.00  0.00    -0.550 OA
ATOM     16  O   UNL     1      63.133 -17.070  21.280  1.00  0.00    -0.550 OA
ENDBRANCH  13  14
ENDBRANCH  12  13
ENDBRANCH  11  12
ENDBRANCH  10  11
ENDBRANCH   9  10
ENDBRANCH   8   9
ENDBRANCH   7   8
ENDBRANCH   6   7
ENDBRANCH   5   6
ENDBRANCH   4   5
ENDBRANCH   3   4
ENDBRANCH   2   3
ENDBRANCH   1   2
BRANCH   1  17
ATOM     17  C   UNL     1      61.045 -13.688  17.038  1.00  0.00     0.000 C 
BRANCH  17  18
ATOM     18  C   UNL     1      60.869 -12.331  16.336  1.00  0.00     0.000 C 
BRANCH  18  19
ATOM     19  C   UNL     1      62.043 -11.375  16.603  1.00  0.00     0.000 C 
BRANCH  19  20
ATOM     20  C   UNL     1      63.133 -12.001  17.493  1.00  0.00     0.000 C 
BRANCH  20  21
ATOM     21  C   UNL     1      64.235 -10.998  17.870  1.00  0.00     0.000 C 
BRANCH  21  22
ATOM     22  C   UNL     1      64.999 -11.411  19.137  1.00  0.00    -0.000 C 
BRANCH  22  23
ATOM     23  C   UNL     1      64.257 -12.520  19.892  1.00  0.00    -0.000 C 
BRANCH  23  24
ATOM     24  C   UNL     1      64.310 -12.285  21.407  1.00  0.00    -0.000 C 
BRANCH  24  25
ATOM     25  C   UNL     1      65.210 -11.090  21.749  1.00  0.00    -0.000 C 
BRANCH  25  26
ATOM     26  C   UNL     1      64.834 -10.416  23.081  1.00  0.00    -0.000 C 
BRANCH  26  27
ATOM     27  C   UNL     1      63.564 -10.967  23.755  1.00  0.00    -0.000 C 
BRANCH  27  28
ATOM     28  C   UNL     1      62.833  -9.914  24.606  1.00  0.00    -0.000 C 
BRANCH  28  29
ATOM     29  C   UNL     1      63.788  -9.143  25.531  1.00  0.00    -0.003 C 
ATOM     30  C   UNL     1      63.052  -8.312  26.582  1.00  0.00     0.004 C 
ENDBRANCH  28  29
ENDBRANCH  27  28
ENDBRANCH  26  27
ENDBRANCH  25  26
ENDBRANCH  24  25
ENDBRANCH  23  24
ENDBRANCH  22  23
ENDBRANCH  21  22
ENDBRANCH  20  21
ENDBRANCH  19  20
ENDBRANCH  18  19
ENDBRANCH  17  18
ENDBRANCH   1  17
TORSDOF 26
ENDMDL
MODEL 8
REMARK VINA RESULT:    -4.113     13.321     17.438
REMARK INTER + INTRA:         -14.112
REMARK INTER:                  -8.586
REMARK INTRA:                  -5.526
REMARK UNBOUND:                -3.746
REMARK SMILES CCCCCCCCCCCCCCCCCCCCCCCCCCCC(=O)[O-]
REMARK SMILES IDX 15 1 16 2 17 3 18 4 19 5 20 6 21 7 22 8 23 9 24 10 25 11
REMARK SMILES IDX 26 12 27 13 28 14 29 15 30 16 14 17 13 18 12 19 11 20 10 21
REMARK SMILES IDX 9 22 8 23 7 24 6 25 5 26 4 27 3 28 2 29 1 30
REMARK H PARENT
REMARK Flexibility Score: inf
ROOT
ATOM      1  C   UNL     1      61.784 -12.116  14.771  1.00  0.00     0.000 C 
ENDROOT
BRANCH   1   2
ATOM      2  C   UNL     1      61.640 -11.974  16.298  1.00  0.00     0.000 C 
BRANCH   2   3
ATOM      3  C   UNL     1      62.263 -13.148  17.073  1.00  0.00     0.000 C 
BRANCH   3   4
ATOM      4  C   UNL     1      63.482 -12.727  17.914  1.00  0.00     0.000 C 
BRANCH   4   5
ATOM      5  C   UNL     1      63.905 -11.256  17.747  1.00  0.00     0.000 C 
BRANCH   5   6
ATOM      6  C   UNL     1      65.306 -10.972  18.320  1.00  0.00     0.000 C 
BRANCH   6   7
ATOM      7  C   UNL     1      65.637 -11.828  19.557  1.00  0.00     0.000 C 
BRANCH   7   8
ATOM      8  C   UNL     1      65.017 -11.340  20.880  1.00  0.00     0.000 C 
BRANCH   8   9
ATOM      9  C   UNL     1      64.294 -12.453  21.655  1.00  0.00     0.000 C 
BRANCH   9  10
ATOM     10  C   UNL     1      65.255 -13.592  22.015  1.00  0.00     0.000 C 
BRANCH  10  11
ATOM     11  C   UNL     1      64.489 -14.906  22.225  1.00  0.00     0.000 C 
BRANCH  11  12
ATOM     12  C   UNL     1      63.773 -15.389  20.954  1.00  0.00     0.006 C 
BRANCH  12  13
ATOM     13  C   UNL     1      63.147 -16.781  21.119  1.00  0.00     0.053 C 
BRANCH  13  14
ATOM     14  C   UNL     1      61.694 -16.668  21.458  1.00  0.00     0.041 C 
ATOM     15  O   UNL     1      61.334 -16.492  22.652  1.00  0.00    -0.550 OA
ATOM     16  O   UNL     1      60.734 -16.791  20.461  1.00  0.00    -0.550 OA
ENDBRANCH  13  14
ENDBRANCH  12  13
ENDBRANCH  11  12
ENDBRANCH  10  11
ENDBRANCH   9  10
ENDBRANCH   8   9
ENDBRANCH   7   8
ENDBRANCH   6   7
ENDBRANCH   5   6
ENDBRANCH   4   5
ENDBRANCH   3   4
ENDBRANCH   2   3
ENDBRANCH   1   2
BRANCH   1  17
ATOM     17  C   UNL     1      62.929 -11.305  14.137  1.00  0.00     0.000 C 
BRANCH  17  18
ATOM     18  C   UNL     1      64.131 -12.176  13.734  1.00  0.00     0.000 C 
BRANCH  18  19
ATOM     19  C   UNL     1      65.395 -11.840  14.542  1.00  0.00     0.000 C 
BRANCH  19  20
ATOM     20  C   UNL     1      66.032 -13.079  15.198  1.00  0.00     0.000 C 
BRANCH  20  21
ATOM     21  C   UNL     1      65.237 -14.366  14.925  1.00  0.00     0.000 C 
BRANCH  21  22
ATOM     22  C   UNL     1      65.238 -15.324  16.126  1.00  0.00    -0.000 C 
BRANCH  22  23
ATOM     23  C   UNL     1      65.082 -16.780  15.671  1.00  0.00    -0.000 C 
BRANCH  23  24
ATOM     24  C   UNL     1      64.167 -17.561  16.623  1.00  0.00    -0.000 C 
BRANCH  24  25
ATOM     25  C   UNL     1      63.276 -16.610  17.435  1.00  0.00    -0.000 C 
BRANCH  25  26
ATOM     26  C   UNL     1      61.784 -16.737  17.082  1.00  0.00    -0.000 C 
BRANCH  26  27
ATOM     27  C   UNL     1      61.488 -17.075  15.609  1.00  0.00    -0.000 C 
BRANCH  27  28
ATOM     28  C   UNL     1      61.224 -15.826  14.750  1.00  0.00    -0.000 C 
BRANCH  28  29
ATOM     29  C   UNL     1      62.256 -15.661  13.623  1.00  0.00    -0.003 C 
ATOM     30  C   UNL     1      62.693 -16.997  13.020  1.00  0.00     0.004 C 
ENDBRANCH  28  29
ENDBRANCH  27  28
ENDBRANCH  26  27
ENDBRANCH  25  26
ENDBRANCH  24  25
ENDBRANCH  23  24
ENDBRANCH  22  23
ENDBRANCH  21  22
ENDBRANCH  20  21
ENDBRANCH  19  20
ENDBRANCH  18  19
ENDBRANCH  17  18
ENDBRANCH   1  17
TORSDOF 26
ENDMDL
