MODEL 1
REMARK VINA RESULT:    -7.367      0.000      0.000
REMARK INTER + INTRA:          -9.197
REMARK INTER:                  -9.090
REMARK INTRA:                  -0.107
REMARK UNBOUND:                -0.107
REMARK SMILES Oc1cc(O)c2cc(O)c(-c3cc(O)c(O)c(O)c3)[o+]c2c1
REMARK SMILES IDX 10 1 20 2 21 3 22 4 2 5 3 6 4 7 6 8 7 9 8 10 11 11 12 12
REMARK SMILES IDX 13 13 19 14 15 15 17 16 14 17 16 19 18 21 9 23 1 25 5 27
REMARK H PARENT 14 18 16 20 18 22 9 24 1 26 5 28
REMARK Flexibility Score: inf
ROOT
ATOM      1  C   UNL     1      48.125  11.562   8.815  1.00  0.00     0.402 A 
ATOM      2  O   UNL     1      47.703  12.760   9.210  1.00  0.00    -0.202 OA
ATOM      3  C   UNL     1      46.825  12.937  10.193  1.00  0.00     0.368 A 
ATOM      4  C   UNL     1      46.445  14.236  10.538  1.00  0.00     0.162 A 
ATOM      5  C   UNL     1      45.526  14.452  11.570  1.00  0.00     0.128 A 
ATOM      6  C   UNL     1      44.986  13.364  12.258  1.00  0.00     0.093 A 
ATOM      7  C   UNL     1      45.351  12.051  11.931  1.00  0.00     0.136 A 
ATOM      8  C   UNL     1      46.282  11.827  10.884  1.00  0.00     0.125 A 
ATOM      9  C   UNL     1      46.695  10.548  10.479  1.00  0.00     0.078 A 
ATOM     10  C   UNL     1      47.613  10.405   9.433  1.00  0.00     0.223 A 
ENDROOT
BRANCH   1  11
ATOM     11  C   UNL     1      49.113  11.495   7.715  1.00  0.00     0.091 A 
ATOM     12  C   UNL     1      50.340  12.159   7.849  1.00  0.00     0.068 A 
ATOM     13  C   UNL     1      51.299  12.096   6.831  1.00  0.00     0.162 A 
ATOM     14  C   UNL     1      48.873  10.732   6.561  1.00  0.00     0.068 A 
ATOM     15  C   UNL     1      51.050  11.352   5.669  1.00  0.00     0.200 A 
ATOM     16  C   UNL     1      49.825  10.656   5.538  1.00  0.00     0.162 A 
BRANCH  13  17
ATOM     17  O   UNL     1      52.510  12.774   6.967  1.00  0.00    -0.504 OA
ATOM     18  H   UNL     1      52.636  13.502   7.661  1.00  0.00     0.293 HD
ENDBRANCH  13  17
BRANCH  15  19
ATOM     19  O   UNL     1      52.038  11.328   4.681  1.00  0.00    -0.502 OA
ATOM     20  H   UNL     1      52.322  12.136   4.145  1.00  0.00     0.293 HD
ENDBRANCH  15  19
BRANCH  16  21
ATOM     21  O   UNL     1      49.516   9.878   4.419  1.00  0.00    -0.504 OA
ATOM     22  H   UNL     1      48.991   9.016   4.457  1.00  0.00     0.293 HD
ENDBRANCH  16  21
ENDBRANCH   1  11
BRANCH  10  23
ATOM     23  O   UNL     1      47.986   9.134   8.998  1.00  0.00    -0.500 OA
ATOM     24  H   UNL     1      48.338   8.433   9.639  1.00  0.00     0.294 HD
ENDBRANCH  10  23
BRANCH   5  25
ATOM     25  O   UNL     1      45.142  15.744  11.919  1.00  0.00    -0.507 OA
ATOM     26  H   UNL     1      44.377  15.914  12.564  1.00  0.00     0.293 HD
ENDBRANCH   5  25
BRANCH   7  27
ATOM     27  O   UNL     1      44.768  11.018  12.670  1.00  0.00    -0.507 OA
ATOM     28  H   UNL     1      45.270  10.217  13.026  1.00  0.00     0.293 HD
ENDBRANCH   7  27
TORSDOF 7
ENDMDL
MODEL 2
REMARK VINA RESULT:    -7.367      0.084      1.801
REMARK INTER + INTRA:          -9.197
REMARK INTER:                  -9.093
REMARK INTRA:                  -0.104
REMARK UNBOUND:                -0.107
REMARK SMILES Oc1cc(O)c2cc(O)c(-c3cc(O)c(O)c(O)c3)[o+]c2c1
REMARK SMILES IDX 10 1 20 2 21 3 22 4 2 5 3 6 4 7 6 8 7 9 8 10 11 11 12 12
REMARK SMILES IDX 13 13 19 14 15 15 17 16 14 17 16 19 18 21 9 23 1 25 5 27
REMARK H PARENT 14 18 16 20 18 22 9 24 1 26 5 28
REMARK Flexibility Score: inf
ROOT
ATOM      1  C   UNL     1      48.177  11.549   8.820  1.00  0.00     0.402 A 
ATOM      2  O   UNL     1      47.743  12.747   9.203  1.00  0.00    -0.202 OA
ATOM      3  C   UNL     1      46.862  12.926  10.182  1.00  0.00     0.368 A 
ATOM      4  C   UNL     1      46.470  14.225  10.515  1.00  0.00     0.162 A 
ATOM      5  C   UNL     1      45.547  14.442  11.542  1.00  0.00     0.128 A 
ATOM      6  C   UNL     1      45.016  13.356  12.240  1.00  0.00     0.093 A 
ATOM      7  C   UNL     1      45.393  12.044  11.926  1.00  0.00     0.136 A 
ATOM      8  C   UNL     1      46.327  11.818  10.883  1.00  0.00     0.125 A 
ATOM      9  C   UNL     1      46.753  10.538  10.491  1.00  0.00     0.078 A 
ATOM     10  C   UNL     1      47.674  10.394   9.449  1.00  0.00     0.223 A 
ENDROOT
BRANCH   1  11
ATOM     11  C   UNL     1      49.168  11.480   7.723  1.00  0.00     0.091 A 
ATOM     12  C   UNL     1      48.872  10.736   6.572  1.00  0.00     0.068 A 
ATOM     13  C   UNL     1      49.784  10.670   5.512  1.00  0.00     0.162 A 
ATOM     14  C   UNL     1      50.378  12.190   7.783  1.00  0.00     0.068 A 
ATOM     15  C   UNL     1      51.001  11.362   5.582  1.00  0.00     0.200 A 
ATOM     16  C   UNL     1      51.297  12.137   6.729  1.00  0.00     0.162 A 
BRANCH  13  17
ATOM     17  O   UNL     1      49.487   9.914   4.379  1.00  0.00    -0.504 OA
ATOM     18  H   UNL     1      48.808  10.226   3.694  1.00  0.00     0.293 HD
ENDBRANCH  13  17
BRANCH  15  19
ATOM     19  O   UNL     1      51.880  11.256   4.500  1.00  0.00    -0.502 OA
ATOM     20  H   UNL     1      52.003  11.973   3.800  1.00  0.00     0.293 HD
ENDBRANCH  15  19
BRANCH  16  21
ATOM     21  O   UNL     1      52.479  12.869   6.861  1.00  0.00    -0.504 OA
ATOM     22  H   UNL     1      52.512  13.865   7.027  1.00  0.00     0.293 HD
ENDBRANCH  16  21
ENDBRANCH   1  11
BRANCH  10  23
ATOM     23  O   UNL     1      48.058   9.121   9.026  1.00  0.00    -0.500 OA
ATOM     24  H   UNL     1      48.998   8.930   8.698  1.00  0.00     0.294 HD
ENDBRANCH  10  23
BRANCH   5  25
ATOM     25  O   UNL     1      45.151  15.734  11.879  1.00  0.00    -0.507 OA
ATOM     26  H   UNL     1      45.665  16.287  12.557  1.00  0.00     0.293 HD
ENDBRANCH   5  25
BRANCH   7  27
ATOM     27  O   UNL     1      44.817  11.013  12.674  1.00  0.00    -0.507 OA
ATOM     28  H   UNL     1      45.165  10.065  12.702  1.00  0.00     0.293 HD
ENDBRANCH   7  27
TORSDOF 7
ENDMDL
MODEL 3
REMARK VINA RESULT:    -7.284      2.036      7.358
REMARK INTER + INTRA:          -9.095
REMARK INTER:                  -8.718
REMARK INTRA:                  -0.377
REMARK UNBOUND:                -0.107
REMARK SMILES Oc1cc(O)c2cc(O)c(-c3cc(O)c(O)c(O)c3)[o+]c2c1
REMARK SMILES IDX 10 1 20 2 21 3 22 4 2 5 3 6 4 7 6 8 7 9 8 10 11 11 12 12
REMARK SMILES IDX 13 13 19 14 15 15 17 16 14 17 16 19 18 21 9 23 1 25 5 27
REMARK H PARENT 14 18 16 20 18 22 9 24 1 26 5 28
REMARK Flexibility Score: inf
ROOT
ATOM      1  C   UNL     1      49.345  11.725   8.127  1.00  0.00     0.402 A 
ATOM      2  O   UNL     1      49.276  11.266   6.881  1.00  0.00    -0.202 OA
ATOM      3  C   UNL     1      50.194  11.526   5.955  1.00  0.00     0.368 A 
ATOM      4  C   UNL     1      50.036  10.996   4.672  1.00  0.00     0.162 A 
ATOM      5  C   UNL     1      50.988  11.251   3.681  1.00  0.00     0.128 A 
ATOM      6  C   UNL     1      52.102  12.039   3.974  1.00  0.00     0.093 A 
ATOM      7  C   UNL     1      52.284  12.582   5.252  1.00  0.00     0.136 A 
ATOM      8  C   UNL     1      51.320  12.328   6.261  1.00  0.00     0.125 A 
ATOM      9  C   UNL     1      51.413  12.842   7.565  1.00  0.00     0.078 A 
ATOM     10  C   UNL     1      50.420  12.552   8.506  1.00  0.00     0.223 A 
ENDROOT
BRANCH   1  11
ATOM     11  C   UNL     1      48.264  11.358   9.070  1.00  0.00     0.091 A 
ATOM     12  C   UNL     1      47.042  12.042   9.019  1.00  0.00     0.068 A 
ATOM     13  C   UNL     1      45.998  11.701   9.887  1.00  0.00     0.162 A 
ATOM     14  C   UNL     1      48.415  10.298   9.980  1.00  0.00     0.068 A 
ATOM     15  C   UNL     1      46.157  10.658  10.809  1.00  0.00     0.200 A 
ATOM     16  C   UNL     1      47.378   9.944  10.850  1.00  0.00     0.162 A 
BRANCH  13  17
ATOM     17  O   UNL     1      44.792  12.399   9.839  1.00  0.00    -0.504 OA
ATOM     18  H   UNL     1      44.705  13.336  10.214  1.00  0.00     0.293 HD
ENDBRANCH  13  17
BRANCH  15  19
ATOM     19  O   UNL     1      45.086  10.363  11.658  1.00  0.00    -0.502 OA
ATOM     20  H   UNL     1      45.067  10.587  12.642  1.00  0.00     0.293 HD
ENDBRANCH  15  19
BRANCH  16  21
ATOM     21  O   UNL     1      47.602   8.880  11.727  1.00  0.00    -0.504 OA
ATOM     22  H   UNL     1      48.512   8.486  11.917  1.00  0.00     0.293 HD
ENDBRANCH  16  21
ENDBRANCH   1  11
BRANCH  10  23
ATOM     23  O   UNL     1      50.486  13.103   9.785  1.00  0.00    -0.500 OA
ATOM     24  H   UNL     1      49.978  12.702  10.565  1.00  0.00     0.294 HD
ENDBRANCH  10  23
BRANCH   5  25
ATOM     25  O   UNL     1      50.836  10.726   2.400  1.00  0.00    -0.507 OA
ATOM     26  H   UNL     1      51.383   9.932   2.084  1.00  0.00     0.293 HD
ENDBRANCH   5  25
BRANCH   7  27
ATOM     27  O   UNL     1      53.429  13.357   5.465  1.00  0.00    -0.507 OA
ATOM     28  H   UNL     1      54.019  13.291   6.281  1.00  0.00     0.293 HD
ENDBRANCH   7  27
TORSDOF 7
ENDMDL
MODEL 4
REMARK VINA RESULT:    -7.268      2.030      7.337
REMARK INTER + INTRA:          -9.074
REMARK INTER:                  -8.747
REMARK INTRA:                  -0.327
REMARK UNBOUND:                -0.107
REMARK SMILES Oc1cc(O)c2cc(O)c(-c3cc(O)c(O)c(O)c3)[o+]c2c1
REMARK SMILES IDX 10 1 20 2 21 3 22 4 2 5 3 6 4 7 6 8 7 9 8 10 11 11 12 12
REMARK SMILES IDX 13 13 19 14 15 15 17 16 14 17 16 19 18 21 9 23 1 25 5 27
REMARK H PARENT 14 18 16 20 18 22 9 24 1 26 5 28
REMARK Flexibility Score: inf
ROOT
ATOM      1  C   UNL     1      49.373  11.764   8.003  1.00  0.00     0.402 A 
ATOM      2  O   UNL     1      49.276  11.411   6.724  1.00  0.00    -0.202 OA
ATOM      3  C   UNL     1      50.220  11.663   5.823  1.00  0.00     0.368 A 
ATOM      4  C   UNL     1      50.028  11.248   4.503  1.00  0.00     0.162 A 
ATOM      5  C   UNL     1      51.006  11.498   3.536  1.00  0.00     0.128 A 
ATOM      6  C   UNL     1      52.180  12.164   3.891  1.00  0.00     0.093 A 
ATOM      7  C   UNL     1      52.397  12.590   5.207  1.00  0.00     0.136 A 
ATOM      8  C   UNL     1      51.407  12.341   6.192  1.00  0.00     0.125 A 
ATOM      9  C   UNL     1      51.533  12.742   7.532  1.00  0.00     0.078 A 
ATOM     10  C   UNL     1      50.511  12.466   8.446  1.00  0.00     0.223 A 
ENDROOT
BRANCH   1  11
ATOM     11  C   UNL     1      48.258  11.418   8.913  1.00  0.00     0.091 A 
ATOM     12  C   UNL     1      48.415  10.366   9.826  1.00  0.00     0.068 A 
ATOM     13  C   UNL     1      47.382  10.031  10.711  1.00  0.00     0.162 A 
ATOM     14  C   UNL     1      47.064  12.157   8.922  1.00  0.00     0.068 A 
ATOM     15  C   UNL     1      46.182  10.754  10.704  1.00  0.00     0.200 A 
ATOM     16  C   UNL     1      46.025  11.835   9.803  1.00  0.00     0.162 A 
BRANCH  13  17
ATOM     17  O   UNL     1      47.542   8.972  11.604  1.00  0.00    -0.504 OA
ATOM     18  H   UNL     1      47.267   8.027  11.362  1.00  0.00     0.293 HD
ENDBRANCH  13  17
BRANCH  15  19
ATOM     19  O   UNL     1      45.180  10.374  11.601  1.00  0.00    -0.502 OA
ATOM     20  H   UNL     1      44.477  11.001  11.963  1.00  0.00     0.293 HD
ENDBRANCH  15  19
BRANCH  16  21
ATOM     21  O   UNL     1      44.867  12.614   9.753  1.00  0.00    -0.504 OA
ATOM     22  H   UNL     1      44.851  13.614   9.897  1.00  0.00     0.293 HD
ENDBRANCH  16  21
ENDBRANCH   1  11
BRANCH  10  23
ATOM     23  O   UNL     1      50.613  12.908   9.765  1.00  0.00    -0.500 OA
ATOM     24  H   UNL     1      49.921  13.523  10.176  1.00  0.00     0.294 HD
ENDBRANCH  10  23
BRANCH   5  25
ATOM     25  O   UNL     1      50.821  11.088   2.217  1.00  0.00    -0.507 OA
ATOM     26  H   UNL     1      50.186  10.334   1.981  1.00  0.00     0.293 HD
ENDBRANCH   5  25
BRANCH   7  27
ATOM     27  O   UNL     1      53.601  13.246   5.482  1.00  0.00    -0.507 OA
ATOM     28  H   UNL     1      53.706  14.249   5.525  1.00  0.00     0.293 HD
ENDBRANCH   7  27
TORSDOF 7
ENDMDL
MODEL 5
REMARK VINA RESULT:    -7.059      1.946      7.119
REMARK INTER + INTRA:          -8.817
REMARK INTER:                  -8.437
REMARK INTRA:                  -0.380
REMARK UNBOUND:                -0.107
REMARK SMILES Oc1cc(O)c2cc(O)c(-c3cc(O)c(O)c(O)c3)[o+]c2c1
REMARK SMILES IDX 10 1 20 2 21 3 22 4 2 5 3 6 4 7 6 8 7 9 8 10 11 11 12 12
REMARK SMILES IDX 13 13 19 14 15 15 17 16 14 17 16 19 18 21 9 23 1 25 5 27
REMARK H PARENT 14 18 16 20 18 22 9 24 1 26 5 28
REMARK Flexibility Score: inf
ROOT
ATOM      1  C   UNL     1      48.927  11.216   7.448  1.00  0.00     0.402 A 
ATOM      2  O   UNL     1      49.967  12.037   7.562  1.00  0.00    -0.202 OA
ATOM      3  C   UNL     1      50.844  12.243   6.584  1.00  0.00     0.368 A 
ATOM      4  C   UNL     1      51.903  13.129   6.797  1.00  0.00     0.162 A 
ATOM      5  C   UNL     1      52.839  13.366   5.786  1.00  0.00     0.128 A 
ATOM      6  C   UNL     1      52.713  12.716   4.557  1.00  0.00     0.093 A 
ATOM      7  C   UNL     1      51.660  11.824   4.318  1.00  0.00     0.136 A 
ATOM      8  C   UNL     1      50.710  11.578   5.342  1.00  0.00     0.125 A 
ATOM      9  C   UNL     1      49.631  10.690   5.197  1.00  0.00     0.078 A 
ATOM     10  C   UNL     1      48.736  10.495   6.254  1.00  0.00     0.223 A 
ENDROOT
BRANCH   1  11
ATOM     11  C   UNL     1      48.013  11.078   8.605  1.00  0.00     0.091 A 
ATOM     12  C   UNL     1      46.877  11.895   8.688  1.00  0.00     0.068 A 
ATOM     13  C   UNL     1      45.988  11.772   9.762  1.00  0.00     0.162 A 
ATOM     14  C   UNL     1      48.228  10.106   9.596  1.00  0.00     0.068 A 
ATOM     15  C   UNL     1      46.214  10.816  10.762  1.00  0.00     0.200 A 
ATOM     16  C   UNL     1      47.344   9.969  10.673  1.00  0.00     0.162 A 
BRANCH  13  17
ATOM     17  O   UNL     1      44.870  12.601   9.844  1.00  0.00    -0.504 OA
ATOM     18  H   UNL     1      43.931  12.224   9.901  1.00  0.00     0.293 HD
ENDBRANCH  13  17
BRANCH  15  19
ATOM     19  O   UNL     1      45.300  10.740  11.816  1.00  0.00    -0.502 OA
ATOM     20  H   UNL     1      45.501  11.033  12.761  1.00  0.00     0.293 HD
ENDBRANCH  15  19
BRANCH  16  21
ATOM     21  O   UNL     1      47.623   8.980  11.620  1.00  0.00    -0.504 OA
ATOM     22  H   UNL     1      48.154   8.143  11.424  1.00  0.00     0.293 HD
ENDBRANCH  16  21
ENDBRANCH   1  11
BRANCH  10  23
ATOM     23  O   UNL     1      47.694   9.577   6.128  1.00  0.00    -0.500 OA
ATOM     24  H   UNL     1      47.740   8.657   6.550  1.00  0.00     0.294 HD
ENDBRANCH  10  23
BRANCH   5  25
ATOM     25  O   UNL     1      53.898  14.248   5.991  1.00  0.00    -0.507 OA
ATOM     26  H   UNL     1      54.862  13.953   5.880  1.00  0.00     0.293 HD
ENDBRANCH   5  25
BRANCH   7  27
ATOM     27  O   UNL     1      51.604  11.216   3.060  1.00  0.00    -0.507 OA
ATOM     28  H   UNL     1      52.085  11.557   2.240  1.00  0.00     0.293 HD
ENDBRANCH   7  27
TORSDOF 7
ENDMDL
MODEL 6
REMARK VINA RESULT:    -7.058      1.981      7.090
REMARK INTER + INTRA:          -8.816
REMARK INTER:                  -8.432
REMARK INTRA:                  -0.384
REMARK UNBOUND:                -0.107
REMARK SMILES Oc1cc(O)c2cc(O)c(-c3cc(O)c(O)c(O)c3)[o+]c2c1
REMARK SMILES IDX 10 1 20 2 21 3 22 4 2 5 3 6 4 7 6 8 7 9 8 10 11 11 12 12
REMARK SMILES IDX 13 13 19 14 15 15 17 16 14 17 16 19 18 21 9 23 1 25 5 27
REMARK H PARENT 14 18 16 20 18 22 9 24 1 26 5 28
REMARK Flexibility Score: inf
ROOT
ATOM      1  C   UNL     1      48.881  11.135   7.388  1.00  0.00     0.402 A 
ATOM      2  O   UNL     1      49.906  11.974   7.512  1.00  0.00    -0.202 OA
ATOM      3  C   UNL     1      50.793  12.192   6.547  1.00  0.00     0.368 A 
ATOM      4  C   UNL     1      51.834  13.096   6.771  1.00  0.00     0.162 A 
ATOM      5  C   UNL     1      52.779  13.345   5.771  1.00  0.00     0.128 A 
ATOM      6  C   UNL     1      52.682  12.689   4.543  1.00  0.00     0.093 A 
ATOM      7  C   UNL     1      51.648  11.778   4.293  1.00  0.00     0.136 A 
ATOM      8  C   UNL     1      50.687  11.520   5.305  1.00  0.00     0.125 A 
ATOM      9  C   UNL     1      49.625  10.614   5.149  1.00  0.00     0.078 A 
ATOM     10  C   UNL     1      48.720  10.407   6.194  1.00  0.00     0.223 A 
ENDROOT
BRANCH   1  11
ATOM     11  C   UNL     1      47.954  10.987   8.533  1.00  0.00     0.091 A 
ATOM     12  C   UNL     1      48.240  10.049   9.534  1.00  0.00     0.068 A 
ATOM     13  C   UNL     1      47.389   9.902  10.637  1.00  0.00     0.162 A 
ATOM     14  C   UNL     1      46.821  11.805   8.668  1.00  0.00     0.068 A 
ATOM     15  C   UNL     1      46.247  10.704  10.760  1.00  0.00     0.200 A 
ATOM     16  C   UNL     1      45.965  11.672   9.767  1.00  0.00     0.162 A 
BRANCH  13  17
ATOM     17  O   UNL     1      47.674   8.955  11.619  1.00  0.00    -0.504 OA
ATOM     18  H   UNL     1      47.985   9.226  12.545  1.00  0.00     0.293 HD
ENDBRANCH  13  17
BRANCH  15  19
ATOM     19  O   UNL     1      45.427  10.512  11.875  1.00  0.00    -0.502 OA
ATOM     20  H   UNL     1      44.663  11.122  12.128  1.00  0.00     0.293 HD
ENDBRANCH  15  19
BRANCH  16  21
ATOM     21  O   UNL     1      44.857  12.521   9.833  1.00  0.00    -0.504 OA
ATOM     22  H   UNL     1      44.730  13.231  10.539  1.00  0.00     0.293 HD
ENDBRANCH  16  21
ENDBRANCH   1  11
BRANCH  10  23
ATOM     23  O   UNL     1      47.695   9.471   6.057  1.00  0.00    -0.500 OA
ATOM     24  H   UNL     1      47.593   8.911   5.219  1.00  0.00     0.294 HD
ENDBRANCH  10  23
BRANCH   5  25
ATOM     25  O   UNL     1      53.821  14.245   5.988  1.00  0.00    -0.507 OA
ATOM     26  H   UNL     1      53.655  15.244   6.047  1.00  0.00     0.293 HD
ENDBRANCH   5  25
BRANCH   7  27
ATOM     27  O   UNL     1      51.619  11.165   3.037  1.00  0.00    -0.507 OA
ATOM     28  H   UNL     1      51.716  11.656   2.160  1.00  0.00     0.293 HD
ENDBRANCH   7  27
TORSDOF 7
ENDMDL
MODEL 7
REMARK VINA RESULT:    -7.049      1.058      3.109
REMARK INTER + INTRA:          -8.805
REMARK INTER:                  -8.913
REMARK INTRA:                   0.108
REMARK UNBOUND:                -0.107
REMARK SMILES Oc1cc(O)c2cc(O)c(-c3cc(O)c(O)c(O)c3)[o+]c2c1
REMARK SMILES IDX 10 1 20 2 21 3 22 4 2 5 3 6 4 7 6 8 7 9 8 10 11 11 12 12
REMARK SMILES IDX 13 13 19 14 15 15 17 16 14 17 16 19 18 21 9 23 1 25 5 27
REMARK H PARENT 14 18 16 20 18 22 9 24 1 26 5 28
REMARK Flexibility Score: inf
ROOT
ATOM      1  C   UNL     1      48.102  12.323   8.986  1.00  0.00     0.402 A 
ATOM      2  O   UNL     1      47.334  11.381   9.527  1.00  0.00    -0.202 OA
ATOM      3  C   UNL     1      46.423  11.631  10.463  1.00  0.00     0.368 A 
ATOM      4  C   UNL     1      45.660  10.575  10.968  1.00  0.00     0.162 A 
ATOM      5  C   UNL     1      44.694  10.810  11.950  1.00  0.00     0.128 A 
ATOM      6  C   UNL     1      44.488  12.105  12.428  1.00  0.00     0.093 A 
ATOM      7  C   UNL     1      45.239  13.181  11.937  1.00  0.00     0.136 A 
ATOM      8  C   UNL     1      46.223  12.948  10.942  1.00  0.00     0.125 A 
ATOM      9  C   UNL     1      47.031  13.962  10.402  1.00  0.00     0.078 A 
ATOM     10  C   UNL     1      47.985  13.655   9.427  1.00  0.00     0.223 A 
ENDROOT
BRANCH   1  11
ATOM     11  C   UNL     1      49.074  11.921   7.944  1.00  0.00     0.091 A 
ATOM     12  C   UNL     1      48.694  10.987   6.970  1.00  0.00     0.068 A 
ATOM     13  C   UNL     1      49.588  10.605   5.963  1.00  0.00     0.162 A 
ATOM     14  C   UNL     1      50.353  12.497   7.874  1.00  0.00     0.068 A 
ATOM     15  C   UNL     1      50.872  11.164   5.907  1.00  0.00     0.200 A 
ATOM     16  C   UNL     1      51.255  12.127   6.870  1.00  0.00     0.162 A 
BRANCH  13  17
ATOM     17  O   UNL     1      49.206   9.663   5.008  1.00  0.00    -0.504 OA
ATOM     18  H   UNL     1      48.511   8.954   5.210  1.00  0.00     0.293 HD
ENDBRANCH  13  17
BRANCH  15  19
ATOM     19  O   UNL     1      51.728  10.742   4.886  1.00  0.00    -0.502 OA
ATOM     20  H   UNL     1      52.329   9.933   4.950  1.00  0.00     0.293 HD
ENDBRANCH  15  19
BRANCH  16  21
ATOM     21  O   UNL     1      52.509  12.742   6.866  1.00  0.00    -0.504 OA
ATOM     22  H   UNL     1      53.367  12.277   6.605  1.00  0.00     0.293 HD
ENDBRANCH  16  21
ENDBRANCH   1  11
BRANCH  10  23
ATOM     23  O   UNL     1      48.821  14.653   8.927  1.00  0.00    -0.500 OA
ATOM     24  H   UNL     1      49.830  14.569   8.960  1.00  0.00     0.294 HD
ENDBRANCH  10  23
BRANCH   5  25
ATOM     25  O   UNL     1      43.930   9.762  12.459  1.00  0.00    -0.507 OA
ATOM     26  H   UNL     1      43.811   8.895  11.947  1.00  0.00     0.293 HD
ENDBRANCH   5  25
BRANCH   7  27
ATOM     27  O   UNL     1      44.970  14.448  12.465  1.00  0.00    -0.507 OA
ATOM     28  H   UNL     1      44.677  14.619  13.416  1.00  0.00     0.293 HD
ENDBRANCH   7  27
TORSDOF 7
ENDMDL
MODEL 8
REMARK VINA RESULT:    -6.999      1.136      6.939
REMARK INTER + INTRA:          -8.743
REMARK INTER:                  -8.885
REMARK INTRA:                   0.142
REMARK UNBOUND:                -0.107
REMARK SMILES Oc1cc(O)c2cc(O)c(-c3cc(O)c(O)c(O)c3)[o+]c2c1
REMARK SMILES IDX 10 1 20 2 21 3 22 4 2 5 3 6 4 7 6 8 7 9 8 10 11 11 12 12
REMARK SMILES IDX 13 13 19 14 15 15 17 16 14 17 16 19 18 21 9 23 1 25 5 27
REMARK H PARENT 14 18 16 20 18 22 9 24 1 26 5 28
REMARK Flexibility Score: inf
ROOT
ATOM      1  C   UNL     1      47.512  11.368   8.773  1.00  0.00     0.402 A 
ATOM      2  O   UNL     1      48.689  11.985   8.701  1.00  0.00    -0.202 OA
ATOM      3  C   UNL     1      49.529  11.836   7.681  1.00  0.00     0.368 A 
ATOM      4  C   UNL     1      50.742  12.529   7.694  1.00  0.00     0.162 A 
ATOM      5  C   UNL     1      51.643  12.393   6.633  1.00  0.00     0.128 A 
ATOM      6  C   UNL     1      51.329  11.562   5.557  1.00  0.00     0.093 A 
ATOM      7  C   UNL     1      50.120  10.856   5.520  1.00  0.00     0.136 A 
ATOM      8  C   UNL     1      49.203  10.989   6.595  1.00  0.00     0.125 A 
ATOM      9  C   UNL     1      47.974  10.310   6.650  1.00  0.00     0.078 A 
ATOM     10  C   UNL     1      47.124  10.487   7.746  1.00  0.00     0.223 A 
ENDROOT
BRANCH   1  11
ATOM     11  C   UNL     1      46.659  11.623   9.956  1.00  0.00     0.091 A 
ATOM     12  C   UNL     1      46.593  12.917  10.492  1.00  0.00     0.068 A 
ATOM     13  C   UNL     1      45.779  13.188  11.599  1.00  0.00     0.162 A 
ATOM     14  C   UNL     1      45.869  10.609  10.521  1.00  0.00     0.068 A 
ATOM     15  C   UNL     1      45.007  12.170  12.176  1.00  0.00     0.200 A 
ATOM     16  C   UNL     1      45.048  10.867  11.625  1.00  0.00     0.162 A 
BRANCH  13  17
ATOM     17  O   UNL     1      45.733  14.474  12.135  1.00  0.00    -0.504 OA
ATOM     18  H   UNL     1      46.436  15.169  11.911  1.00  0.00     0.293 HD
ENDBRANCH  13  17
BRANCH  15  19
ATOM     19  O   UNL     1      44.219  12.492  13.284  1.00  0.00    -0.502 OA
ATOM     20  H   UNL     1      43.223  12.335  13.334  1.00  0.00     0.293 HD
ENDBRANCH  15  19
BRANCH  16  21
ATOM     21  O   UNL     1      44.291   9.809  12.133  1.00  0.00    -0.504 OA
ATOM     22  H   UNL     1      44.677   9.043  12.667  1.00  0.00     0.293 HD
ENDBRANCH  16  21
ENDBRANCH   1  11
BRANCH  10  23
ATOM     23  O   UNL     1      45.927   9.776   7.825  1.00  0.00    -0.500 OA
ATOM     24  H   UNL     1      45.714   9.018   7.187  1.00  0.00     0.294 HD
ENDBRANCH  10  23
BRANCH   5  25
ATOM     25  O   UNL     1      52.854  13.081   6.639  1.00  0.00    -0.507 OA
ATOM     26  H   UNL     1      52.963  13.968   6.159  1.00  0.00     0.293 HD
ENDBRANCH   5  25
BRANCH   7  27
ATOM     27  O   UNL     1      49.880  10.047   4.405  1.00  0.00    -0.507 OA
ATOM     28  H   UNL     1      50.313   9.150   4.248  1.00  0.00     0.293 HD
ENDBRANCH   7  27
TORSDOF 7
ENDMDL
MODEL 9
REMARK VINA RESULT:    -6.958      1.896      3.096
REMARK INTER + INTRA:          -8.692
REMARK INTER:                  -8.308
REMARK INTRA:                  -0.384
REMARK UNBOUND:                -0.107
REMARK SMILES Oc1cc(O)c2cc(O)c(-c3cc(O)c(O)c(O)c3)[o+]c2c1
REMARK SMILES IDX 10 1 20 2 21 3 22 4 2 5 3 6 4 7 6 8 7 9 8 10 11 11 12 12
REMARK SMILES IDX 13 13 19 14 15 15 17 16 14 17 16 19 18 21 9 23 1 25 5 27
REMARK H PARENT 14 18 16 20 18 22 9 24 1 26 5 28
REMARK Flexibility Score: inf
ROOT
ATOM      1  C   UNL     1      49.070  10.720   7.114  1.00  0.00     0.402 A 
ATOM      2  O   UNL     1      48.063  11.505   7.487  1.00  0.00    -0.202 OA
ATOM      3  C   UNL     1      47.386  11.336   8.619  1.00  0.00     0.368 A 
ATOM      4  C   UNL     1      46.345  12.215   8.926  1.00  0.00     0.162 A 
ATOM      5  C   UNL     1      45.619  12.062  10.111  1.00  0.00     0.128 A 
ATOM      6  C   UNL     1      45.937  11.027  10.992  1.00  0.00     0.093 A 
ATOM      7  C   UNL     1      46.977  10.133  10.708  1.00  0.00     0.136 A 
ATOM      8  C   UNL     1      47.715  10.282   9.505  1.00  0.00     0.125 A 
ATOM      9  C   UNL     1      48.764   9.426   9.132  1.00  0.00     0.078 A 
ATOM     10  C   UNL     1      49.443   9.633   7.927  1.00  0.00     0.223 A 
ENDROOT
BRANCH   1  11
ATOM     11  C   UNL     1      49.753  11.016   5.834  1.00  0.00     0.091 A 
ATOM     12  C   UNL     1      49.247  10.479   4.642  1.00  0.00     0.068 A 
ATOM     13  C   UNL     1      49.862  10.759   3.417  1.00  0.00     0.162 A 
ATOM     14  C   UNL     1      50.864  11.872   5.778  1.00  0.00     0.068 A 
ATOM     15  C   UNL     1      50.986  11.596   3.364  1.00  0.00     0.200 A 
ATOM     16  C   UNL     1      51.487  12.165   4.559  1.00  0.00     0.162 A 
BRANCH  13  17
ATOM     17  O   UNL     1      49.362  10.206   2.239  1.00  0.00    -0.504 OA
ATOM     18  H   UNL     1      49.351  10.726   1.369  1.00  0.00     0.293 HD
ENDBRANCH  13  17
BRANCH  15  19
ATOM     19  O   UNL     1      51.567  11.837   2.116  1.00  0.00    -0.502 OA
ATOM     20  H   UNL     1      51.726  12.758   1.735  1.00  0.00     0.293 HD
ENDBRANCH  15  19
BRANCH  16  21
ATOM     21  O   UNL     1      52.588  13.024   4.582  1.00  0.00    -0.504 OA
ATOM     22  H   UNL     1      52.731  13.778   3.925  1.00  0.00     0.293 HD
ENDBRANCH  16  21
ENDBRANCH   1  11
BRANCH  10  23
ATOM     23  O   UNL     1      50.450   8.753   7.532  1.00  0.00    -0.500 OA
ATOM     24  H   UNL     1      50.481   8.362   6.598  1.00  0.00     0.294 HD
ENDBRANCH  10  23
BRANCH   5  25
ATOM     25  O   UNL     1      44.579  12.934  10.423  1.00  0.00    -0.507 OA
ATOM     26  H   UNL     1      44.129  12.919  11.332  1.00  0.00     0.293 HD
ENDBRANCH   5  25
BRANCH   7  27
ATOM     27  O   UNL     1      47.234   9.126  11.643  1.00  0.00    -0.507 OA
ATOM     28  H   UNL     1      47.256   9.268  12.642  1.00  0.00     0.293 HD
ENDBRANCH   7  27
TORSDOF 7
ENDMDL
