MODEL 1
REMARK VINA RESULT:    -6.250      0.000      0.000
REMARK INTER + INTRA:          -6.406
REMARK INTER:                  -6.798
REMARK INTRA:                   0.392
REMARK UNBOUND:                 0.392
REMARK SMILES CC1(C)CC[C@]2(C(=O)[O-])CC[C@@]3(C)C(=CC[C@H]4[C@@]5(C)CC[C@@H](O)C(C)(C)[C@H]5CC[C@@]43C)[C@H]2C1
REMARK SMILES IDX 6 1 5 2 10 3 32 4 4 5 11 6 14 7 33 8 2 9 12 10 15 11 1 12
REMARK SMILES IDX 3 13 13 14 30 15 16 16 17 17 29 18 31 19 18 20 28 21 27 22
REMARK SMILES IDX 20 23 19 24 24 25 21 26 22 27 25 28 26 29 7 30 8 31 9 32
REMARK SMILES IDX 23 33
REMARK H PARENT 23 34
REMARK Flexibility Score: inf
ROOT
ATOM      1  C   UNL     1      69.784  52.580  19.674  1.00  0.00     0.017 C 
ATOM      2  C   UNL     1      70.014  51.063  19.513  1.00  0.00     0.014 C 
ATOM      3  C   UNL     1      70.672  53.110  20.830  1.00  0.00     0.014 C 
ATOM      4  C   UNL     1      68.278  52.831  20.050  1.00  0.00     0.028 C 
ATOM      5  C   UNL     1      69.148  50.499  18.375  1.00  0.00     0.007 C 
ATOM      6  C   UNL     1      70.624  54.639  20.901  1.00  0.00     0.013 C 
ATOM      7  C   UNL     1      68.031  54.306  20.412  1.00  0.00    -0.064 C 
ATOM      8  C   UNL     1      67.327  52.214  18.980  1.00  0.00     0.015 C 
ATOM      9  C   UNL     1      67.627  50.717  18.622  1.00  0.00    -0.035 C 
ATOM     10  C   UNL     1      69.198  55.319  20.711  1.00  0.00    -0.006 C 
ATOM     11  C   UNL     1      66.755  54.701  20.625  1.00  0.00    -0.027 C 
ATOM     12  C   UNL     1      66.868  50.354  17.329  1.00  0.00     0.011 C 
ATOM     13  C   UNL     1      67.128  49.785  19.761  1.00  0.00     0.011 C 
ATOM     14  C   UNL     1      69.273  56.259  19.446  1.00  0.00     0.017 C 
ATOM     15  C   UNL     1      68.857  56.109  22.039  1.00  0.00    -0.020 C 
ATOM     16  C   UNL     1      66.358  55.752  21.623  1.00  0.00     0.032 C 
ATOM     17  C   UNL     1      67.459  56.808  21.936  1.00  0.00     0.006 C 
ATOM     18  C   UNL     1      69.867  57.260  22.306  1.00  0.00     0.008 C 
ATOM     19  C   UNL     1      68.816  55.062  23.209  1.00  0.00     0.012 C 
ATOM     20  C   UNL     1      67.119  57.822  23.142  1.00  0.00    -0.025 C 
ATOM     21  C   UNL     1      69.770  57.787  23.715  1.00  0.00     0.005 C 
ATOM     22  C   UNL     1      68.339  58.249  24.111  1.00  0.00     0.003 C 
ATOM     23  C   UNL     1      65.948  57.299  24.032  1.00  0.00     0.010 C 
ATOM     24  C   UNL     1      66.547  59.125  22.492  1.00  0.00     0.012 C 
ATOM     25  C   UNL     1      68.085  58.180  25.682  1.00  0.00    -0.006 C 
ATOM     26  C   UNL     1      65.518  58.270  25.113  1.00  0.00     0.033 C 
ATOM     27  C   UNL     1      66.670  58.722  26.065  1.00  0.00     0.120 C 
ATOM     28  C   UNL     1      69.140  59.125  26.362  1.00  0.00     0.014 C 
ATOM     29  C   UNL     1      68.248  56.778  26.351  1.00  0.00     0.014 C 
ENDROOT
BRANCH   1  30
ATOM     30  C   UNL     1      70.260  53.279  18.385  1.00  0.00     0.048 C 
ATOM     31  O   UNL     1      69.455  53.653  17.495  1.00  0.00    -0.550 OA
ATOM     32  O   UNL     1      71.623  53.499  18.175  1.00  0.00    -0.550 OA
ENDBRANCH   1  30
BRANCH  27  33
ATOM     33  O   UNL     1      66.317  58.350  27.389  1.00  0.00    -0.393 OA
ATOM     34  H   UNL     1      65.408  57.940  27.344  1.00  0.00     0.210 HD
ENDBRANCH  27  33
TORSDOF 2
ENDMDL
MODEL 2
REMARK VINA RESULT:    -5.855      2.367      8.037
REMARK INTER + INTRA:          -5.976
REMARK INTER:                  -6.375
REMARK INTRA:                   0.399
REMARK UNBOUND:                 0.392
REMARK SMILES CC1(C)CC[C@]2(C(=O)[O-])CC[C@@]3(C)C(=CC[C@H]4[C@@]5(C)CC[C@@H](O)C(C)(C)[C@H]5CC[C@@]43C)[C@H]2C1
REMARK SMILES IDX 6 1 5 2 10 3 32 4 4 5 11 6 14 7 33 8 2 9 12 10 15 11 1 12
REMARK SMILES IDX 3 13 13 14 30 15 16 16 17 17 29 18 31 19 18 20 28 21 27 22
REMARK SMILES IDX 20 23 19 24 24 25 21 26 22 27 25 28 26 29 7 30 8 31 9 32
REMARK SMILES IDX 23 33
REMARK H PARENT 23 34
REMARK Flexibility Score: inf
ROOT
ATOM      1  C   UNL     1      69.833  57.035  25.086  1.00  0.00     0.017 C 
ATOM      2  C   UNL     1      69.406  58.315  25.833  1.00  0.00     0.014 C 
ATOM      3  C   UNL     1      71.244  57.246  24.476  1.00  0.00     0.014 C 
ATOM      4  C   UNL     1      68.820  56.768  23.912  1.00  0.00     0.028 C 
ATOM      5  C   UNL     1      68.010  58.145  26.451  1.00  0.00     0.007 C 
ATOM      6  C   UNL     1      71.789  55.941  23.891  1.00  0.00     0.013 C 
ATOM      7  C   UNL     1      69.300  55.616  23.013  1.00  0.00    -0.064 C 
ATOM      8  C   UNL     1      67.361  56.663  24.451  1.00  0.00     0.015 C 
ATOM      9  C   UNL     1      66.920  57.844  25.382  1.00  0.00    -0.035 C 
ATOM     10  C   UNL     1      70.767  55.047  23.061  1.00  0.00    -0.006 C 
ATOM     11  C   UNL     1      68.465  55.182  22.041  1.00  0.00    -0.027 C 
ATOM     12  C   UNL     1      65.621  57.442  26.112  1.00  0.00     0.011 C 
ATOM     13  C   UNL     1      66.632  59.114  24.535  1.00  0.00     0.011 C 
ATOM     14  C   UNL     1      70.650  53.648  23.780  1.00  0.00     0.017 C 
ATOM     15  C   UNL     1      71.315  54.930  21.582  1.00  0.00    -0.020 C 
ATOM     16  C   UNL     1      68.927  54.674  20.704  1.00  0.00     0.032 C 
ATOM     17  C   UNL     1      70.359  54.064  20.693  1.00  0.00     0.006 C 
ATOM     18  C   UNL     1      72.689  54.202  21.527  1.00  0.00     0.008 C 
ATOM     19  C   UNL     1      71.382  56.384  20.991  1.00  0.00     0.012 C 
ATOM     20  C   UNL     1      70.940  53.695  19.235  1.00  0.00    -0.025 C 
ATOM     21  C   UNL     1      73.379  54.388  20.201  1.00  0.00     0.005 C 
ATOM     22  C   UNL     1      72.514  53.958  18.982  1.00  0.00     0.003 C 
ATOM     23  C   UNL     1      70.138  54.394  18.093  1.00  0.00     0.010 C 
ATOM     24  C   UNL     1      70.669  52.171  19.012  1.00  0.00     0.012 C 
ATOM     25  C   UNL     1      72.923  54.717  17.642  1.00  0.00    -0.006 C 
ATOM     26  C   UNL     1      70.577  53.990  16.699  1.00  0.00     0.033 C 
ATOM     27  C   UNL     1      72.095  54.213  16.415  1.00  0.00     0.120 C 
ATOM     28  C   UNL     1      74.428  54.368  17.355  1.00  0.00     0.014 C 
ATOM     29  C   UNL     1      72.825  56.274  17.667  1.00  0.00     0.014 C 
ENDROOT
BRANCH   1  30
ATOM     30  C   UNL     1      69.954  55.893  26.115  1.00  0.00     0.048 C 
ATOM     31  O   UNL     1      69.045  55.040  26.272  1.00  0.00    -0.550 OA
ATOM     32  O   UNL     1      71.095  55.797  26.916  1.00  0.00    -0.550 OA
ENDBRANCH   1  30
BRANCH  27  33
ATOM     33  O   UNL     1      72.210  55.104  15.316  1.00  0.00    -0.393 OA
ATOM     34  H   UNL     1      71.930  54.600  14.501  1.00  0.00     0.210 HD
ENDBRANCH  27  33
TORSDOF 2
ENDMDL
MODEL 3
REMARK VINA RESULT:    -5.770      3.721      5.028
REMARK INTER + INTRA:          -5.884
REMARK INTER:                  -6.309
REMARK INTRA:                   0.426
REMARK UNBOUND:                 0.392
REMARK SMILES CC1(C)CC[C@]2(C(=O)[O-])CC[C@@]3(C)C(=CC[C@H]4[C@@]5(C)CC[C@@H](O)C(C)(C)[C@H]5CC[C@@]43C)[C@H]2C1
REMARK SMILES IDX 6 1 5 2 10 3 32 4 4 5 11 6 14 7 33 8 2 9 12 10 15 11 1 12
REMARK SMILES IDX 3 13 13 14 30 15 16 16 17 17 29 18 31 19 18 20 28 21 27 22
REMARK SMILES IDX 20 23 19 24 24 25 21 26 22 27 25 28 26 29 7 30 8 31 9 32
REMARK SMILES IDX 23 33
REMARK H PARENT 23 34
REMARK Flexibility Score: inf
ROOT
ATOM      1  C   UNL     1      74.111  54.964  19.409  1.00  0.00     0.017 C 
ATOM      2  C   UNL     1      74.401  54.024  18.221  1.00  0.00     0.014 C 
ATOM      3  C   UNL     1      74.660  54.326  20.712  1.00  0.00     0.014 C 
ATOM      4  C   UNL     1      72.553  55.133  19.558  1.00  0.00     0.028 C 
ATOM      5  C   UNL     1      73.869  54.623  16.910  1.00  0.00     0.007 C 
ATOM      6  C   UNL     1      74.568  55.306  21.884  1.00  0.00     0.013 C 
ATOM      7  C   UNL     1      72.195  55.904  20.840  1.00  0.00    -0.064 C 
ATOM      8  C   UNL     1      71.923  55.663  18.234  1.00  0.00     0.015 C 
ATOM      9  C   UNL     1      72.332  54.865  16.948  1.00  0.00    -0.035 C 
ATOM     10  C   UNL     1      73.227  56.155  22.003  1.00  0.00    -0.006 C 
ATOM     11  C   UNL     1      70.901  56.244  21.033  1.00  0.00    -0.027 C 
ATOM     12  C   UNL     1      71.939  55.691  15.705  1.00  0.00     0.011 C 
ATOM     13  C   UNL     1      71.572  53.510  16.895  1.00  0.00     0.011 C 
ATOM     14  C   UNL     1      73.609  57.683  21.900  1.00  0.00     0.017 C 
ATOM     15  C   UNL     1      72.540  55.788  23.379  1.00  0.00    -0.020 C 
ATOM     16  C   UNL     1      70.241  56.300  22.382  1.00  0.00     0.032 C 
ATOM     17  C   UNL     1      71.204  56.582  23.573  1.00  0.00     0.006 C 
ATOM     18  C   UNL     1      73.426  56.184  24.594  1.00  0.00     0.008 C 
ATOM     19  C   UNL     1      72.217  54.251  23.346  1.00  0.00     0.012 C 
ATOM     20  C   UNL     1      70.546  56.452  25.038  1.00  0.00    -0.025 C 
ATOM     21  C   UNL     1      72.959  55.538  25.873  1.00  0.00     0.005 C 
ATOM     22  C   UNL     1      71.466  55.820  26.205  1.00  0.00     0.003 C 
ATOM     23  C   UNL     1      69.195  55.671  25.004  1.00  0.00     0.010 C 
ATOM     24  C   UNL     1      70.137  57.896  25.482  1.00  0.00     0.012 C 
ATOM     25  C   UNL     1      70.817  54.686  27.117  1.00  0.00    -0.006 C 
ATOM     26  C   UNL     1      68.482  55.619  26.341  1.00  0.00     0.033 C 
ATOM     27  C   UNL     1      69.341  55.028  27.503  1.00  0.00     0.120 C 
ATOM     28  C   UNL     1      71.642  54.638  28.453  1.00  0.00     0.014 C 
ATOM     29  C   UNL     1      70.827  53.237  26.537  1.00  0.00     0.014 C 
ENDROOT
BRANCH   1  30
ATOM     30  C   UNL     1      74.890  56.276  19.188  1.00  0.00     0.048 C 
ATOM     31  O   UNL     1      76.124  56.361  19.406  1.00  0.00    -0.550 OA
ATOM     32  O   UNL     1      74.218  57.418  18.746  1.00  0.00    -0.550 OA
ENDBRANCH   1  30
BRANCH  27  33
ATOM     33  O   UNL     1      68.665  53.888  28.013  1.00  0.00    -0.393 OA
ATOM     34  H   UNL     1      67.815  53.798  27.497  1.00  0.00     0.210 HD
ENDBRANCH  27  33
TORSDOF 2
ENDMDL
MODEL 4
REMARK VINA RESULT:    -5.495      2.956      8.240
REMARK INTER + INTRA:          -5.585
REMARK INTER:                  -5.973
REMARK INTRA:                   0.388
REMARK UNBOUND:                 0.392
REMARK SMILES CC1(C)CC[C@]2(C(=O)[O-])CC[C@@]3(C)C(=CC[C@H]4[C@@]5(C)CC[C@@H](O)C(C)(C)[C@H]5CC[C@@]43C)[C@H]2C1
REMARK SMILES IDX 6 1 5 2 10 3 32 4 4 5 11 6 14 7 33 8 2 9 12 10 15 11 1 12
REMARK SMILES IDX 3 13 13 14 30 15 16 16 17 17 29 18 31 19 18 20 28 21 27 22
REMARK SMILES IDX 20 23 19 24 24 25 21 26 22 27 25 28 26 29 7 30 8 31 9 32
REMARK SMILES IDX 23 33
REMARK H PARENT 23 34
REMARK Flexibility Score: inf
ROOT
ATOM      1  C   UNL     1      71.409  56.858  25.517  1.00  0.00     0.017 C 
ATOM      2  C   UNL     1      72.005  56.672  26.927  1.00  0.00     0.014 C 
ATOM      3  C   UNL     1      70.100  56.034  25.403  1.00  0.00     0.014 C 
ATOM      4  C   UNL     1      72.433  56.312  24.455  1.00  0.00     0.028 C 
ATOM      5  C   UNL     1      73.307  57.474  27.079  1.00  0.00     0.007 C 
ATOM      6  C   UNL     1      69.372  56.338  24.091  1.00  0.00     0.013 C 
ATOM      7  C   UNL     1      71.817  56.293  23.045  1.00  0.00    -0.064 C 
ATOM      8  C   UNL     1      73.812  57.023  24.597  1.00  0.00     0.015 C 
ATOM      9  C   UNL     1      74.394  57.041  26.052  1.00  0.00    -0.035 C 
ATOM     10  C   UNL     1      70.272  56.453  22.784  1.00  0.00    -0.006 C 
ATOM     11  C   UNL     1      72.623  55.977  22.006  1.00  0.00    -0.027 C 
ATOM     12  C   UNL     1      75.552  58.059  26.112  1.00  0.00     0.011 C 
ATOM     13  C   UNL     1      74.955  55.640  26.422  1.00  0.00     0.011 C 
ATOM     14  C   UNL     1      70.095  57.906  22.197  1.00  0.00     0.017 C 
ATOM     15  C   UNL     1      69.809  55.326  21.775  1.00  0.00    -0.020 C 
ATOM     16  C   UNL     1      72.167  55.221  20.790  1.00  0.00     0.032 C 
ATOM     17  C   UNL     1      70.653  55.367  20.457  1.00  0.00     0.006 C 
ATOM     18  C   UNL     1      68.335  55.524  21.320  1.00  0.00     0.008 C 
ATOM     19  C   UNL     1      70.038  53.942  22.483  1.00  0.00     0.012 C 
ATOM     20  C   UNL     1      70.112  54.412  19.277  1.00  0.00    -0.025 C 
ATOM     21  C   UNL     1      67.776  54.295  20.652  1.00  0.00     0.005 C 
ATOM     22  C   UNL     1      68.629  53.795  19.450  1.00  0.00     0.003 C 
ATOM     23  C   UNL     1      71.096  53.238  18.977  1.00  0.00     0.010 C 
ATOM     24  C   UNL     1      70.125  55.262  17.964  1.00  0.00     0.012 C 
ATOM     25  C   UNL     1      68.446  52.236  19.176  1.00  0.00    -0.006 C 
ATOM     26  C   UNL     1      70.684  52.377  17.800  1.00  0.00     0.033 C 
ATOM     27  C   UNL     1      69.250  51.772  17.918  1.00  0.00     0.120 C 
ATOM     28  C   UNL     1      66.925  51.997  18.864  1.00  0.00     0.014 C 
ATOM     29  C   UNL     1      68.815  51.276  20.351  1.00  0.00     0.014 C 
ENDROOT
BRANCH   1  30
ATOM     30  C   UNL     1      71.022  58.341  25.348  1.00  0.00     0.048 C 
ATOM     31  O   UNL     1      71.692  59.125  24.630  1.00  0.00    -0.550 OA
ATOM     32  O   UNL     1      69.906  58.850  26.017  1.00  0.00    -0.550 OA
ENDBRANCH   1  30
BRANCH  27  33
ATOM     33  O   UNL     1      69.365  50.357  17.875  1.00  0.00    -0.393 OA
ATOM     34  H   UNL     1      70.252  50.149  17.468  1.00  0.00     0.210 HD
ENDBRANCH  27  33
TORSDOF 2
ENDMDL
MODEL 5
REMARK VINA RESULT:    -5.311      4.080      7.649
REMARK INTER + INTRA:          -5.384
REMARK INTER:                  -5.770
REMARK INTRA:                   0.387
REMARK UNBOUND:                 0.392
REMARK SMILES CC1(C)CC[C@]2(C(=O)[O-])CC[C@@]3(C)C(=CC[C@H]4[C@@]5(C)CC[C@@H](O)C(C)(C)[C@H]5CC[C@@]43C)[C@H]2C1
REMARK SMILES IDX 6 1 5 2 10 3 32 4 4 5 11 6 14 7 33 8 2 9 12 10 15 11 1 12
REMARK SMILES IDX 3 13 13 14 30 15 16 16 17 17 29 18 31 19 18 20 28 21 27 22
REMARK SMILES IDX 20 23 19 24 24 25 21 26 22 27 25 28 26 29 7 30 8 31 9 32
REMARK SMILES IDX 23 33
REMARK H PARENT 23 34
REMARK Flexibility Score: inf
ROOT
ATOM      1  C   UNL     1      72.416  53.080  23.751  1.00  0.00     0.017 C 
ATOM      2  C   UNL     1      73.433  52.737  24.859  1.00  0.00     0.014 C 
ATOM      3  C   UNL     1      72.984  52.631  22.380  1.00  0.00     0.014 C 
ATOM      4  C   UNL     1      72.207  54.639  23.716  1.00  0.00     0.028 C 
ATOM      5  C   UNL     1      72.905  53.169  26.236  1.00  0.00     0.007 C 
ATOM      6  C   UNL     1      71.933  52.774  21.276  1.00  0.00     0.013 C 
ATOM      7  C   UNL     1      71.352  55.060  22.508  1.00  0.00    -0.064 C 
ATOM      8  C   UNL     1      71.747  55.169  25.107  1.00  0.00     0.015 C 
ATOM      9  C   UNL     1      72.630  54.699  26.314  1.00  0.00    -0.035 C 
ATOM     10  C   UNL     1      71.051  54.099  21.298  1.00  0.00    -0.006 C 
ATOM     11  C   UNL     1      70.974  56.355  22.421  1.00  0.00    -0.027 C 
ATOM     12  C   UNL     1      71.874  54.990  27.627  1.00  0.00     0.011 C 
ATOM     13  C   UNL     1      73.969  55.486  26.335  1.00  0.00     0.011 C 
ATOM     14  C   UNL     1      69.541  53.674  21.466  1.00  0.00     0.017 C 
ATOM     15  C   UNL     1      71.319  54.882  19.949  1.00  0.00    -0.020 C 
ATOM     16  C   UNL     1      70.822  57.099  21.124  1.00  0.00     0.032 C 
ATOM     17  C   UNL     1      70.487  56.208  19.892  1.00  0.00     0.006 C 
ATOM     18  C   UNL     1      70.867  54.066  18.705  1.00  0.00     0.008 C 
ATOM     19  C   UNL     1      72.848  55.239  19.912  1.00  0.00     0.012 C 
ATOM     20  C   UNL     1      70.513  56.962  18.467  1.00  0.00    -0.025 C 
ATOM     21  C   UNL     1      71.424  54.630  17.423  1.00  0.00     0.005 C 
ATOM     22  C   UNL     1      71.092  56.134  17.207  1.00  0.00     0.003 C 
ATOM     23  C   UNL     1      71.267  58.326  18.543  1.00  0.00     0.010 C 
ATOM     24  C   UNL     1      69.037  57.362  18.139  1.00  0.00     0.012 C 
ATOM     25  C   UNL     1      72.154  56.868  16.273  1.00  0.00    -0.006 C 
ATOM     26  C   UNL     1      71.223  59.124  17.255  1.00  0.00     0.033 C 
ATOM     27  C   UNL     1      71.759  58.357  16.006  1.00  0.00     0.120 C 
ATOM     28  C   UNL     1      72.136  56.131  14.886  1.00  0.00     0.014 C 
ATOM     29  C   UNL     1      73.636  56.856  16.764  1.00  0.00     0.014 C 
ENDROOT
BRANCH   1  30
ATOM     30  C   UNL     1      71.137  52.256  23.999  1.00  0.00     0.048 C 
ATOM     31  O   UNL     1      70.109  52.763  24.515  1.00  0.00    -0.550 OA
ATOM     32  O   UNL     1      71.105  50.901  23.661  1.00  0.00    -0.550 OA
ENDBRANCH   1  30
BRANCH  27  33
ATOM     33  O   UNL     1      72.851  59.091  15.475  1.00  0.00    -0.393 OA
ATOM     34  H   UNL     1      72.484  59.955  15.134  1.00  0.00     0.210 HD
ENDBRANCH  27  33
TORSDOF 2
ENDMDL
MODEL 6
REMARK VINA RESULT:    -5.180      2.779      7.881
REMARK INTER + INTRA:          -5.242
REMARK INTER:                  -5.872
REMARK INTRA:                   0.630
REMARK UNBOUND:                 0.392
REMARK SMILES CC1(C)CC[C@]2(C(=O)[O-])CC[C@@]3(C)C(=CC[C@H]4[C@@]5(C)CC[C@@H](O)C(C)(C)[C@H]5CC[C@@]43C)[C@H]2C1
REMARK SMILES IDX 6 1 5 2 10 3 32 4 4 5 11 6 14 7 33 8 2 9 12 10 15 11 1 12
REMARK SMILES IDX 3 13 13 14 30 15 16 16 17 17 29 18 31 19 18 20 28 21 27 22
REMARK SMILES IDX 20 23 19 24 24 25 21 26 22 27 25 28 26 29 7 30 8 31 9 32
REMARK SMILES IDX 23 33
REMARK H PARENT 23 34
REMARK Flexibility Score: inf
ROOT
ATOM      1  C   UNL     1      66.500  56.725  22.690  1.00  0.00     0.017 C 
ATOM      2  C   UNL     1      65.569  56.057  23.723  1.00  0.00     0.014 C 
ATOM      3  C   UNL     1      66.430  55.938  21.355  1.00  0.00     0.014 C 
ATOM      4  C   UNL     1      67.978  56.668  23.223  1.00  0.00     0.028 C 
ATOM      5  C   UNL     1      65.612  56.809  25.062  1.00  0.00     0.007 C 
ATOM      6  C   UNL     1      67.186  56.672  20.245  1.00  0.00     0.013 C 
ATOM      7  C   UNL     1      68.976  57.146  22.154  1.00  0.00    -0.064 C 
ATOM      8  C   UNL     1      68.090  57.343  24.623  1.00  0.00     0.015 C 
ATOM      9  C   UNL     1      67.041  56.846  25.677  1.00  0.00    -0.035 C 
ATOM     10  C   UNL     1      68.589  57.312  20.637  1.00  0.00    -0.006 C 
ATOM     11  C   UNL     1      70.273  57.281  22.513  1.00  0.00    -0.027 C 
ATOM     12  C   UNL     1      67.032  57.826  26.869  1.00  0.00     0.011 C 
ATOM     13  C   UNL     1      67.437  55.439  26.203  1.00  0.00     0.011 C 
ATOM     14  C   UNL     1      68.497  58.869  20.396  1.00  0.00     0.017 C 
ATOM     15  C   UNL     1      69.702  56.621  19.750  1.00  0.00    -0.020 C 
ATOM     16  C   UNL     1      71.431  57.012  21.594  1.00  0.00     0.032 C 
ATOM     17  C   UNL     1      71.122  57.195  20.079  1.00  0.00     0.006 C 
ATOM     18  C   UNL     1      69.493  56.901  18.234  1.00  0.00     0.008 C 
ATOM     19  C   UNL     1      69.682  55.087  20.086  1.00  0.00     0.012 C 
ATOM     20  C   UNL     1      72.291  56.723  19.075  1.00  0.00    -0.025 C 
ATOM     21  C   UNL     1      70.317  55.983  17.368  1.00  0.00     0.005 C 
ATOM     22  C   UNL     1      71.837  56.012  17.698  1.00  0.00     0.003 C 
ATOM     23  C   UNL     1      73.330  55.798  19.782  1.00  0.00     0.010 C 
ATOM     24  C   UNL     1      73.113  58.001  18.704  1.00  0.00     0.012 C 
ATOM     25  C   UNL     1      72.577  54.661  17.291  1.00  0.00    -0.006 C 
ATOM     26  C   UNL     1      74.509  55.418  18.908  1.00  0.00     0.033 C 
ATOM     27  C   UNL     1      74.115  54.741  17.558  1.00  0.00     0.120 C 
ATOM     28  C   UNL     1      72.388  54.478  15.742  1.00  0.00     0.014 C 
ATOM     29  C   UNL     1      72.052  53.352  17.960  1.00  0.00     0.014 C 
ENDROOT
BRANCH   1  30
ATOM     30  C   UNL     1      65.964  58.142  22.404  1.00  0.00     0.048 C 
ATOM     31  O   UNL     1      66.264  59.125  23.127  1.00  0.00    -0.550 OA
ATOM     32  O   UNL     1      65.106  58.357  21.322  1.00  0.00    -0.550 OA
ENDBRANCH   1  30
BRANCH  27  33
ATOM     33  O   UNL     1      74.711  53.453  17.523  1.00  0.00    -0.393 OA
ATOM     34  H   UNL     1      75.107  53.290  18.425  1.00  0.00     0.210 HD
ENDBRANCH  27  33
TORSDOF 2
ENDMDL
MODEL 7
REMARK VINA RESULT:    -5.165      4.731      6.360
REMARK INTER + INTRA:          -5.226
REMARK INTER:                  -5.701
REMARK INTRA:                   0.475
REMARK UNBOUND:                 0.392
REMARK SMILES CC1(C)CC[C@]2(C(=O)[O-])CC[C@@]3(C)C(=CC[C@H]4[C@@]5(C)CC[C@@H](O)C(C)(C)[C@H]5CC[C@@]43C)[C@H]2C1
REMARK SMILES IDX 6 1 5 2 10 3 32 4 4 5 11 6 14 7 33 8 2 9 12 10 15 11 1 12
REMARK SMILES IDX 3 13 13 14 30 15 16 16 17 17 29 18 31 19 18 20 28 21 27 22
REMARK SMILES IDX 20 23 19 24 24 25 21 26 22 27 25 28 26 29 7 30 8 31 9 32
REMARK SMILES IDX 23 33
REMARK H PARENT 23 34
REMARK Flexibility Score: inf
ROOT
ATOM      1  C   UNL     1      73.198  55.260  18.006  1.00  0.00     0.017 C 
ATOM      2  C   UNL     1      72.448  55.320  16.660  1.00  0.00     0.014 C 
ATOM      3  C   UNL     1      72.843  53.936  18.731  1.00  0.00     0.014 C 
ATOM      4  C   UNL     1      72.726  56.460  18.907  1.00  0.00     0.028 C 
ATOM      5  C   UNL     1      72.774  56.621  15.911  1.00  0.00     0.007 C 
ATOM      6  C   UNL     1      73.710  53.743  19.978  1.00  0.00     0.013 C 
ATOM      7  C   UNL     1      73.295  56.346  20.332  1.00  0.00    -0.064 C 
ATOM      8  C   UNL     1      72.950  57.821  18.181  1.00  0.00     0.015 C 
ATOM      9  C   UNL     1      72.377  57.889  16.723  1.00  0.00    -0.035 C 
ATOM     10  C   UNL     1      73.948  55.026  20.889  1.00  0.00    -0.006 C 
ATOM     11  C   UNL     1      73.087  57.378  21.181  1.00  0.00    -0.027 C 
ATOM     12  C   UNL     1      72.968  59.125  16.013  1.00  0.00     0.011 C 
ATOM     13  C   UNL     1      70.831  58.040  16.763  1.00  0.00     0.011 C 
ATOM     14  C   UNL     1      75.499  55.311  20.930  1.00  0.00     0.017 C 
ATOM     15  C   UNL     1      73.343  54.725  22.319  1.00  0.00    -0.020 C 
ATOM     16  C   UNL     1      72.880  57.217  22.661  1.00  0.00     0.032 C 
ATOM     17  C   UNL     1      73.533  55.946  23.280  1.00  0.00     0.006 C 
ATOM     18  C   UNL     1      74.069  53.541  23.019  1.00  0.00     0.008 C 
ATOM     19  C   UNL     1      71.806  54.460  22.131  1.00  0.00     0.012 C 
ATOM     20  C   UNL     1      73.158  55.659  24.821  1.00  0.00    -0.025 C 
ATOM     21  C   UNL     1      73.298  53.022  24.204  1.00  0.00     0.005 C 
ATOM     22  C   UNL     1      72.956  54.117  25.255  1.00  0.00     0.003 C 
ATOM     23  C   UNL     1      71.899  56.463  25.275  1.00  0.00     0.010 C 
ATOM     24  C   UNL     1      74.317  56.252  25.688  1.00  0.00     0.012 C 
ATOM     25  C   UNL     1      71.662  53.760  26.114  1.00  0.00    -0.006 C 
ATOM     26  C   UNL     1      71.572  56.311  26.747  1.00  0.00     0.033 C 
ATOM     27  C   UNL     1      71.384  54.834  27.214  1.00  0.00     0.120 C 
ATOM     28  C   UNL     1      71.959  52.407  26.856  1.00  0.00     0.014 C 
ATOM     29  C   UNL     1      70.337  53.548  25.317  1.00  0.00     0.014 C 
ENDROOT
BRANCH   1  30
ATOM     30  C   UNL     1      74.712  55.220  17.713  1.00  0.00     0.048 C 
ATOM     31  O   UNL     1      75.408  56.265  17.669  1.00  0.00    -0.550 OA
ATOM     32  O   UNL     1      75.342  53.997  17.473  1.00  0.00    -0.550 OA
ENDBRANCH   1  30
BRANCH  27  33
ATOM     33  O   UNL     1      70.071  54.704  27.740  1.00  0.00    -0.393 OA
ATOM     34  H   UNL     1      70.153  54.705  28.734  1.00  0.00     0.210 HD
ENDBRANCH  27  33
TORSDOF 2
ENDMDL
MODEL 8
REMARK VINA RESULT:    -5.124      5.186      8.620
REMARK INTER + INTRA:          -5.181
REMARK INTER:                  -5.570
REMARK INTRA:                   0.389
REMARK UNBOUND:                 0.392
REMARK SMILES CC1(C)CC[C@]2(C(=O)[O-])CC[C@@]3(C)C(=CC[C@H]4[C@@]5(C)CC[C@@H](O)C(C)(C)[C@H]5CC[C@@]43C)[C@H]2C1
REMARK SMILES IDX 6 1 5 2 10 3 32 4 4 5 11 6 14 7 33 8 2 9 12 10 15 11 1 12
REMARK SMILES IDX 3 13 13 14 30 15 16 16 17 17 29 18 31 19 18 20 28 21 27 22
REMARK SMILES IDX 20 23 19 24 24 25 21 26 22 27 25 28 26 29 7 30 8 31 9 32
REMARK SMILES IDX 23 33
REMARK H PARENT 23 34
REMARK Flexibility Score: inf
ROOT
ATOM      1  C   UNL     1      73.395  55.710  24.992  1.00  0.00     0.017 C 
ATOM      2  C   UNL     1      72.556  55.948  26.264  1.00  0.00     0.014 C 
ATOM      3  C   UNL     1      73.581  57.056  24.243  1.00  0.00     0.014 C 
ATOM      4  C   UNL     1      72.620  54.720  24.047  1.00  0.00     0.028 C 
ATOM      5  C   UNL     1      72.348  54.635  27.034  1.00  0.00     0.007 C 
ATOM      6  C   UNL     1      74.567  56.905  23.081  1.00  0.00     0.013 C 
ATOM      7  C   UNL     1      73.315  54.593  22.680  1.00  0.00    -0.064 C 
ATOM      8  C   UNL     1      72.298  53.385  24.785  1.00  0.00     0.015 C 
ATOM      9  C   UNL     1      71.612  53.558  26.184  1.00  0.00    -0.035 C 
ATOM     10  C   UNL     1      74.427  55.594  22.191  1.00  0.00    -0.006 C 
ATOM     11  C   UNL     1      72.839  53.672  21.811  1.00  0.00    -0.027 C 
ATOM     12  C   UNL     1      71.678  52.215  26.940  1.00  0.00     0.011 C 
ATOM     13  C   UNL     1      70.118  53.945  26.003  1.00  0.00     0.011 C 
ATOM     14  C   UNL     1      75.783  54.793  22.289  1.00  0.00     0.017 C 
ATOM     15  C   UNL     1      74.090  56.044  20.713  1.00  0.00    -0.020 C 
ATOM     16  C   UNL     1      72.830  53.853  20.319  1.00  0.00     0.032 C 
ATOM     17  C   UNL     1      73.931  54.805  19.767  1.00  0.00     0.006 C 
ATOM     18  C   UNL     1      75.236  56.888  20.086  1.00  0.00     0.008 C 
ATOM     19  C   UNL     1      72.727  56.825  20.761  1.00  0.00     0.012 C 
ATOM     20  C   UNL     1      73.813  55.161  18.200  1.00  0.00    -0.025 C 
ATOM     21  C   UNL     1      74.797  57.607  18.838  1.00  0.00     0.005 C 
ATOM     22  C   UNL     1      74.192  56.667  17.756  1.00  0.00     0.003 C 
ATOM     23  C   UNL     1      72.399  54.826  17.630  1.00  0.00     0.010 C 
ATOM     24  C   UNL     1      74.769  54.184  17.440  1.00  0.00     0.012 C 
ATOM     25  C   UNL     1      73.180  57.422  16.784  1.00  0.00    -0.006 C 
ATOM     26  C   UNL     1      72.273  55.039  16.135  1.00  0.00     0.033 C 
ATOM     27  C   UNL     1      72.645  56.478  15.658  1.00  0.00     0.120 C 
ATOM     28  C   UNL     1      73.987  58.570  16.078  1.00  0.00     0.014 C 
ATOM     29  C   UNL     1      71.944  58.097  17.457  1.00  0.00     0.014 C 
ENDROOT
BRANCH   1  30
ATOM     30  C   UNL     1      74.798  55.237  25.421  1.00  0.00     0.048 C 
ATOM     31  O   UNL     1      75.151  54.034  25.333  1.00  0.00    -0.550 OA
ATOM     32  O   UNL     1      75.714  56.156  25.941  1.00  0.00    -0.550 OA
ENDBRANCH   1  30
BRANCH  27  33
ATOM     33  O   UNL     1      71.509  57.036  15.016  1.00  0.00    -0.393 OA
ATOM     34  H   UNL     1      71.030  57.587  15.697  1.00  0.00     0.210 HD
ENDBRANCH  27  33
TORSDOF 2
ENDMDL
MODEL 9
REMARK VINA RESULT:    -5.069      3.686      4.946
REMARK INTER + INTRA:          -5.121
REMARK INTER:                  -5.509
REMARK INTRA:                   0.388
REMARK UNBOUND:                 0.392
REMARK SMILES CC1(C)CC[C@]2(C(=O)[O-])CC[C@@]3(C)C(=CC[C@H]4[C@@]5(C)CC[C@@H](O)C(C)(C)[C@H]5CC[C@@]43C)[C@H]2C1
REMARK SMILES IDX 6 1 5 2 10 3 32 4 4 5 11 6 14 7 33 8 2 9 12 10 15 11 1 12
REMARK SMILES IDX 3 13 13 14 30 15 16 16 17 17 29 18 31 19 18 20 28 21 27 22
REMARK SMILES IDX 20 23 19 24 24 25 21 26 22 27 25 28 26 29 7 30 8 31 9 32
REMARK SMILES IDX 23 33
REMARK H PARENT 23 34
REMARK Flexibility Score: inf
ROOT
ATOM      1  C   UNL     1      70.497  54.494  18.771  1.00  0.00     0.017 C 
ATOM      2  C   UNL     1      70.507  53.468  17.619  1.00  0.00     0.014 C 
ATOM      3  C   UNL     1      71.877  55.198  18.838  1.00  0.00     0.014 C 
ATOM      4  C   UNL     1      70.261  53.735  20.128  1.00  0.00     0.028 C 
ATOM      5  C   UNL     1      69.153  52.747  17.521  1.00  0.00     0.007 C 
ATOM      6  C   UNL     1      71.854  56.358  19.838  1.00  0.00     0.013 C 
ATOM      7  C   UNL     1      70.432  54.678  21.332  1.00  0.00    -0.064 C 
ATOM      8  C   UNL     1      68.940  52.909  20.080  1.00  0.00     0.015 C 
ATOM      9  C   UNL     1      68.793  51.979  18.826  1.00  0.00    -0.035 C 
ATOM     10  C   UNL     1      71.104  56.096  21.218  1.00  0.00    -0.006 C 
ATOM     11  C   UNL     1      70.126  54.199  22.559  1.00  0.00    -0.027 C 
ATOM     12  C   UNL     1      67.327  51.509  18.724  1.00  0.00     0.011 C 
ATOM     13  C   UNL     1      69.699  50.726  18.981  1.00  0.00     0.011 C 
ATOM     14  C   UNL     1      69.920  57.132  21.331  1.00  0.00     0.017 C 
ATOM     15  C   UNL     1      72.164  56.251  22.382  1.00  0.00    -0.020 C 
ATOM     16  C   UNL     1      70.848  54.593  23.817  1.00  0.00     0.032 C 
ATOM     17  C   UNL     1      71.505  56.004  23.781  1.00  0.00     0.006 C 
ATOM     18  C   UNL     1      72.741  57.694  22.455  1.00  0.00     0.008 C 
ATOM     19  C   UNL     1      73.279  55.170  22.147  1.00  0.00     0.012 C 
ATOM     20  C   UNL     1      72.443  56.360  25.043  1.00  0.00    -0.025 C 
ATOM     21  C   UNL     1      73.981  57.768  23.308  1.00  0.00     0.005 C 
ATOM     22  C   UNL     1      73.781  57.215  24.748  1.00  0.00     0.003 C 
ATOM     23  C   UNL     1      72.845  55.086  25.850  1.00  0.00     0.010 C 
ATOM     24  C   UNL     1      71.564  57.180  26.044  1.00  0.00     0.012 C 
ATOM     25  C   UNL     1      75.140  56.697  25.399  1.00  0.00    -0.006 C 
ATOM     26  C   UNL     1      73.635  55.381  27.109  1.00  0.00     0.033 C 
ATOM     27  C   UNL     1      74.931  56.219  26.872  1.00  0.00     0.120 C 
ATOM     28  C   UNL     1      76.125  57.920  25.448  1.00  0.00     0.014 C 
ATOM     29  C   UNL     1      75.886  55.557  24.636  1.00  0.00     0.014 C 
ENDROOT
BRANCH   1  30
ATOM     30  C   UNL     1      69.454  55.580  18.441  1.00  0.00     0.048 C 
ATOM     31  O   UNL     1      68.329  55.613  18.999  1.00  0.00    -0.550 OA
ATOM     32  O   UNL     1      69.744  56.556  17.485  1.00  0.00    -0.550 OA
ENDBRANCH   1  30
BRANCH  27  33
ATOM     33  O   UNL     1      76.037  55.455  27.328  1.00  0.00    -0.393 OA
ATOM     34  H   UNL     1      75.750  54.995  28.166  1.00  0.00     0.210 HD
ENDBRANCH  27  33
TORSDOF 2
ENDMDL
