MODEL 1
REMARK VINA RESULT:    -5.892      0.000      0.000
REMARK INTER + INTRA:          -7.211
REMARK INTER:                  -6.925
REMARK INTRA:                  -0.286
REMARK UNBOUND:                -0.286
REMARK SMILES O=c1cc(-c2ccc(O)c(O)c2)oc2cc(O)cc(O)c12
REMARK SMILES IDX 4 1 3 2 2 3 1 4 21 5 19 6 18 7 16 8 15 9 14 10 13 11 5 12
REMARK SMILES IDX 6 13 7 14 8 15 12 16 10 17 9 18 11 20 20 22 17 24
REMARK H PARENT 9 19 11 21 20 23 17 25
REMARK Flexibility Score: inf
ROOT
ATOM      1  C   UNL     1       8.162   4.827  75.404  1.00  0.00     0.138 A 
ATOM      2  C   UNL     1       8.933   5.336  74.349  1.00  0.00     0.100 A 
ATOM      3  C   UNL     1      10.246   5.743  74.588  1.00  0.00     0.197 A 
ATOM      4  O   UNL     1      10.892   6.253  73.636  1.00  0.00    -0.289 OA
ATOM      5  C   UNL     1      10.800   5.608  75.883  1.00  0.00     0.107 A 
ATOM      6  C   UNL     1      12.141   5.950  76.233  1.00  0.00     0.134 A 
ATOM      7  C   UNL     1      12.542   5.884  77.574  1.00  0.00     0.093 A 
ATOM      8  C   UNL     1      11.673   5.431  78.564  1.00  0.00     0.123 A 
ATOM      9  C   UNL     1      10.376   5.041  78.226  1.00  0.00     0.094 A 
ATOM     10  C   UNL     1       9.934   5.129  76.902  1.00  0.00     0.146 A 
ATOM     11  O   UNL     1       8.688   4.763  76.622  1.00  0.00    -0.456 OA
ENDROOT
BRANCH   1  12
ATOM     12  C   UNL     1       6.761   4.380  75.206  1.00  0.00     0.021 A 
ATOM     13  C   UNL     1       6.257   3.320  75.979  1.00  0.00     0.016 A 
ATOM     14  C   UNL     1       4.944   2.875  75.806  1.00  0.00     0.051 A 
ATOM     15  C   UNL     1       4.114   3.473  74.855  1.00  0.00     0.157 A 
ATOM     16  C   UNL     1       5.925   4.970  74.238  1.00  0.00     0.062 A 
ATOM     17  C   UNL     1       4.606   4.524  74.064  1.00  0.00     0.158 A 
BRANCH  15  18
ATOM     18  O   UNL     1       2.808   3.009  74.707  1.00  0.00    -0.504 OA
ATOM     19  H   UNL     1       2.245   2.725  75.500  1.00  0.00     0.293 HD
ENDBRANCH  15  18
BRANCH  17  20
ATOM     20  O   UNL     1       3.787   5.117  73.105  1.00  0.00    -0.504 OA
ATOM     21  H   UNL     1       3.704   6.124  73.025  1.00  0.00     0.293 HD
ENDBRANCH  17  20
ENDBRANCH   1  12
BRANCH   6  22
ATOM     22  O   UNL     1      13.116   6.335  75.309  1.00  0.00    -0.507 OA
ATOM     23  H   UNL     1      13.146   6.039  74.345  1.00  0.00     0.293 HD
ENDBRANCH   6  22
BRANCH   8  24
ATOM     24  O   UNL     1      12.111   5.362  79.885  1.00  0.00    -0.508 OA
ATOM     25  H   UNL     1      11.574   4.881  80.598  1.00  0.00     0.293 HD
ENDBRANCH   8  24
TORSDOF 5
ENDMDL
MODEL 2
REMARK VINA RESULT:    -5.719      1.285      2.904
REMARK INTER + INTRA:          -7.008
REMARK INTER:                  -6.713
REMARK INTRA:                  -0.296
REMARK UNBOUND:                -0.286
REMARK SMILES O=c1cc(-c2ccc(O)c(O)c2)oc2cc(O)cc(O)c12
REMARK SMILES IDX 4 1 3 2 2 3 1 4 21 5 19 6 18 7 16 8 15 9 14 10 13 11 5 12
REMARK SMILES IDX 6 13 7 14 8 15 12 16 10 17 9 18 11 20 20 22 17 24
REMARK H PARENT 9 19 11 21 20 23 17 25
REMARK Flexibility Score: inf
ROOT
ATOM      1  C   UNL     1       8.228   4.634  75.760  1.00  0.00     0.138 A 
ATOM      2  C   UNL     1       8.714   3.969  76.893  1.00  0.00     0.100 A 
ATOM      3  C   UNL     1      10.020   4.205  77.325  1.00  0.00     0.197 A 
ATOM      4  O   UNL     1      10.448   3.548  78.309  1.00  0.00    -0.289 OA
ATOM      5  C   UNL     1      10.831   5.138  76.636  1.00  0.00     0.107 A 
ATOM      6  C   UNL     1      12.162   5.489  77.011  1.00  0.00     0.134 A 
ATOM      7  C   UNL     1      12.910   6.337  76.184  1.00  0.00     0.093 A 
ATOM      8  C   UNL     1      12.357   6.893  75.032  1.00  0.00     0.123 A 
ATOM      9  C   UNL     1      11.037   6.599  74.685  1.00  0.00     0.094 A 
ATOM     10  C   UNL     1      10.276   5.729  75.470  1.00  0.00     0.146 A 
ATOM     11  O   UNL     1       9.028   5.463  75.098  1.00  0.00    -0.456 OA
ENDROOT
BRANCH   1  12
ATOM     12  C   UNL     1       6.847   4.421  75.257  1.00  0.00     0.021 A 
ATOM     13  C   UNL     1       6.480   4.938  74.003  1.00  0.00     0.016 A 
ATOM     14  C   UNL     1       5.185   4.757  73.510  1.00  0.00     0.051 A 
ATOM     15  C   UNL     1       4.233   4.066  74.264  1.00  0.00     0.157 A 
ATOM     16  C   UNL     1       5.880   3.738  76.019  1.00  0.00     0.062 A 
ATOM     17  C   UNL     1       4.579   3.557  75.525  1.00  0.00     0.158 A 
BRANCH  15  18
ATOM     18  O   UNL     1       2.949   3.900  73.745  1.00  0.00    -0.504 OA
ATOM     19  H   UNL     1       2.693   3.092  73.191  1.00  0.00     0.293 HD
ENDBRANCH  15  18
BRANCH  17  20
ATOM     20  O   UNL     1       3.629   2.877  76.287  1.00  0.00    -0.504 OA
ATOM     21  H   UNL     1       2.778   3.329  76.603  1.00  0.00     0.293 HD
ENDBRANCH  17  20
ENDBRANCH   1  12
BRANCH   6  22
ATOM     22  O   UNL     1      12.784   5.056  78.186  1.00  0.00    -0.507 OA
ATOM     23  H   UNL     1      13.514   5.557  78.670  1.00  0.00     0.293 HD
ENDBRANCH   6  22
BRANCH   8  24
ATOM     24  O   UNL     1      13.125   7.745  74.242  1.00  0.00    -0.508 OA
ATOM     25  H   UNL     1      13.899   8.273  74.629  1.00  0.00     0.293 HD
ENDBRANCH   8  24
TORSDOF 5
ENDMDL
MODEL 3
REMARK VINA RESULT:    -5.689      1.138      2.591
REMARK INTER + INTRA:          -6.973
REMARK INTER:                  -6.658
REMARK INTRA:                  -0.315
REMARK UNBOUND:                -0.286
REMARK SMILES O=c1cc(-c2ccc(O)c(O)c2)oc2cc(O)cc(O)c12
REMARK SMILES IDX 4 1 3 2 2 3 1 4 21 5 19 6 18 7 16 8 15 9 14 10 13 11 5 12
REMARK SMILES IDX 6 13 7 14 8 15 12 16 10 17 9 18 11 20 20 22 17 24
REMARK H PARENT 9 19 11 21 20 23 17 25
REMARK Flexibility Score: inf
ROOT
ATOM      1  C   UNL     1       7.956   4.384  76.013  1.00  0.00     0.138 A 
ATOM      2  C   UNL     1       8.440   3.788  77.185  1.00  0.00     0.100 A 
ATOM      3  C   UNL     1       9.752   4.034  77.594  1.00  0.00     0.197 A 
ATOM      4  O   UNL     1      10.177   3.436  78.615  1.00  0.00    -0.289 OA
ATOM      5  C   UNL     1      10.570   4.908  76.841  1.00  0.00     0.107 A 
ATOM      6  C   UNL     1      11.909   5.265  77.185  1.00  0.00     0.134 A 
ATOM      7  C   UNL     1      12.662   6.048  76.301  1.00  0.00     0.093 A 
ATOM      8  C   UNL     1      12.109   6.535  75.118  1.00  0.00     0.123 A 
ATOM      9  C   UNL     1      10.784   6.237  74.797  1.00  0.00     0.094 A 
ATOM     10  C   UNL     1      10.016   5.430  75.642  1.00  0.00     0.146 A 
ATOM     11  O   UNL     1       8.763   5.157  75.294  1.00  0.00    -0.456 OA
ENDROOT
BRANCH   1  12
ATOM     12  C   UNL     1       6.569   4.157  75.533  1.00  0.00     0.021 A 
ATOM     13  C   UNL     1       5.807   3.115  76.086  1.00  0.00     0.016 A 
ATOM     14  C   UNL     1       4.503   2.876  75.647  1.00  0.00     0.051 A 
ATOM     15  C   UNL     1       3.940   3.666  74.641  1.00  0.00     0.157 A 
ATOM     16  C   UNL     1       6.003   4.942  74.509  1.00  0.00     0.062 A 
ATOM     17  C   UNL     1       4.693   4.702  74.066  1.00  0.00     0.158 A 
BRANCH  15  18
ATOM     18  O   UNL     1       2.635   3.405  74.224  1.00  0.00    -0.504 OA
ATOM     19  H   UNL     1       1.900   4.098  74.292  1.00  0.00     0.293 HD
ENDBRANCH  15  18
BRANCH  17  20
ATOM     20  O   UNL     1       4.141   5.486  73.055  1.00  0.00    -0.504 OA
ATOM     21  H   UNL     1       4.105   5.165  72.093  1.00  0.00     0.293 HD
ENDBRANCH  17  20
ENDBRANCH   1  12
BRANCH   6  22
ATOM     22  O   UNL     1      12.532   4.902  78.382  1.00  0.00    -0.507 OA
ATOM     23  H   UNL     1      12.071   4.846  79.278  1.00  0.00     0.293 HD
ENDBRANCH   6  22
BRANCH   8  24
ATOM     24  O   UNL     1      12.883   7.324  74.270  1.00  0.00    -0.508 OA
ATOM     25  H   UNL     1      12.461   7.924  73.572  1.00  0.00     0.293 HD
ENDBRANCH   8  24
TORSDOF 5
ENDMDL
MODEL 4
REMARK VINA RESULT:    -4.628     16.907     18.543
REMARK INTER + INTRA:          -5.726
REMARK INTER:                  -5.445
REMARK INTRA:                  -0.280
REMARK UNBOUND:                -0.286
REMARK SMILES O=c1cc(-c2ccc(O)c(O)c2)oc2cc(O)cc(O)c12
REMARK SMILES IDX 4 1 3 2 2 3 1 4 21 5 19 6 18 7 16 8 15 9 14 10 13 11 5 12
REMARK SMILES IDX 6 13 7 14 8 15 12 16 10 17 9 18 11 20 20 22 17 24
REMARK H PARENT 9 19 11 21 20 23 17 25
REMARK Flexibility Score: inf
ROOT
ATOM      1  C   UNL     1       7.758  22.367  76.404  1.00  0.00     0.138 A 
ATOM      2  C   UNL     1       7.724  22.844  77.721  1.00  0.00     0.100 A 
ATOM      3  C   UNL     1       6.589  22.631  78.504  1.00  0.00     0.197 A 
ATOM      4  O   UNL     1       6.564  23.125  79.660  1.00  0.00    -0.289 OA
ATOM      5  C   UNL     1       5.495  21.907  77.973  1.00  0.00     0.107 A 
ATOM      6  C   UNL     1       4.303  21.593  78.693  1.00  0.00     0.134 A 
ATOM      7  C   UNL     1       3.239  20.972  78.027  1.00  0.00     0.093 A 
ATOM      8  C   UNL     1       3.345  20.600  76.688  1.00  0.00     0.123 A 
ATOM      9  C   UNL     1       4.526  20.853  75.989  1.00  0.00     0.094 A 
ATOM     10  C   UNL     1       5.594  21.502  76.615  1.00  0.00     0.146 A 
ATOM     11  O   UNL     1       6.696  21.738  75.912  1.00  0.00    -0.456 OA
ENDROOT
BRANCH   1  12
ATOM     12  C   UNL     1       8.940  22.565  75.527  1.00  0.00     0.021 A 
ATOM     13  C   UNL     1       8.751  22.918  74.180  1.00  0.00     0.016 A 
ATOM     14  C   UNL     1       9.847  23.103  73.333  1.00  0.00     0.051 A 
ATOM     15  C   UNL     1      11.148  22.931  73.813  1.00  0.00     0.157 A 
ATOM     16  C   UNL     1      10.253  22.379  76.002  1.00  0.00     0.062 A 
ATOM     17  C   UNL     1      11.354  22.564  75.152  1.00  0.00     0.158 A 
BRANCH  15  18
ATOM     18  O   UNL     1      12.221  23.125  72.944  1.00  0.00    -0.504 OA
ATOM     19  H   UNL     1      12.285  23.936  72.340  1.00  0.00     0.293 HD
ENDBRANCH  15  18
BRANCH  17  20
ATOM     20  O   UNL     1      12.649  22.379  75.633  1.00  0.00    -0.504 OA
ATOM     21  H   UNL     1      13.373  23.074  75.490  1.00  0.00     0.293 HD
ENDBRANCH  17  20
ENDBRANCH   1  12
BRANCH   6  22
ATOM     22  O   UNL     1       4.124  21.845  80.056  1.00  0.00    -0.507 OA
ATOM     23  H   UNL     1       4.824  22.238  80.667  1.00  0.00     0.293 HD
ENDBRANCH   6  22
BRANCH   8  24
ATOM     24  O   UNL     1       2.272  19.969  76.062  1.00  0.00    -0.508 OA
ATOM     25  H   UNL     1       2.085  20.096  75.074  1.00  0.00     0.293 HD
ENDBRANCH   8  24
TORSDOF 5
ENDMDL
MODEL 5
REMARK VINA RESULT:    -4.507      1.958      6.868
REMARK INTER + INTRA:          -5.583
REMARK INTER:                  -5.319
REMARK INTRA:                  -0.264
REMARK UNBOUND:                -0.286
REMARK SMILES O=c1cc(-c2ccc(O)c(O)c2)oc2cc(O)cc(O)c12
REMARK SMILES IDX 4 1 3 2 2 3 1 4 21 5 19 6 18 7 16 8 15 9 14 10 13 11 5 12
REMARK SMILES IDX 6 13 7 14 8 15 12 16 10 17 9 18 11 20 20 22 17 24
REMARK H PARENT 9 19 11 21 20 23 17 25
REMARK Flexibility Score: inf
ROOT
ATOM      1  C   UNL     1      11.033   5.778  76.584  1.00  0.00     0.138 A 
ATOM      2  C   UNL     1      11.857   5.642  75.459  1.00  0.00     0.100 A 
ATOM      3  C   UNL     1      11.306   5.227  74.246  1.00  0.00     0.197 A 
ATOM      4  O   UNL     1      12.081   5.054  73.270  1.00  0.00    -0.289 OA
ATOM      5  C   UNL     1       9.916   4.980  74.153  1.00  0.00     0.107 A 
ATOM      6  C   UNL     1       9.238   4.594  72.958  1.00  0.00     0.134 A 
ATOM      7  C   UNL     1       7.878   4.262  73.013  1.00  0.00     0.093 A 
ATOM      8  C   UNL     1       7.160   4.361  74.203  1.00  0.00     0.123 A 
ATOM      9  C   UNL     1       7.800   4.790  75.367  1.00  0.00     0.094 A 
ATOM     10  C   UNL     1       9.164   5.095  75.353  1.00  0.00     0.146 A 
ATOM     11  O   UNL     1       9.741   5.486  76.484  1.00  0.00    -0.456 OA
ENDROOT
BRANCH   1  12
ATOM     12  C   UNL     1      11.566   6.216  77.899  1.00  0.00     0.021 A 
ATOM     13  C   UNL     1      12.074   5.258  78.793  1.00  0.00     0.016 A 
ATOM     14  C   UNL     1      12.575   5.644  80.039  1.00  0.00     0.051 A 
ATOM     15  C   UNL     1      12.569   6.989  80.418  1.00  0.00     0.157 A 
ATOM     16  C   UNL     1      11.550   7.569  78.291  1.00  0.00     0.062 A 
ATOM     17  C   UNL     1      12.052   7.956  79.542  1.00  0.00     0.158 A 
BRANCH  15  18
ATOM     18  O   UNL     1      13.078   7.343  81.667  1.00  0.00    -0.504 OA
ATOM     19  H   UNL     1      12.482   7.665  82.419  1.00  0.00     0.293 HD
ENDBRANCH  15  18
BRANCH  17  20
ATOM     20  O   UNL     1      12.034   9.298  79.919  1.00  0.00    -0.504 OA
ATOM     21  H   UNL     1      12.676   9.972  79.517  1.00  0.00     0.293 HD
ENDBRANCH  17  20
ENDBRANCH   1  12
BRANCH   6  22
ATOM     22  O   UNL     1       9.842   4.543  71.698  1.00  0.00    -0.507 OA
ATOM     23  H   UNL     1       9.531   5.059  70.889  1.00  0.00     0.293 HD
ENDBRANCH   6  22
BRANCH   8  24
ATOM     24  O   UNL     1       5.804   4.039  74.218  1.00  0.00    -0.508 OA
ATOM     25  H   UNL     1       5.367   3.624  75.032  1.00  0.00     0.293 HD
ENDBRANCH   8  24
TORSDOF 5
ENDMDL
MODEL 6
REMARK VINA RESULT:    -4.282     17.833     19.144
REMARK INTER + INTRA:          -5.319
REMARK INTER:                  -5.005
REMARK INTRA:                  -0.314
REMARK UNBOUND:                -0.286
REMARK SMILES O=c1cc(-c2ccc(O)c(O)c2)oc2cc(O)cc(O)c12
REMARK SMILES IDX 4 1 3 2 2 3 1 4 21 5 19 6 18 7 16 8 15 9 14 10 13 11 5 12
REMARK SMILES IDX 6 13 7 14 8 15 12 16 10 17 9 18 11 20 20 22 17 24
REMARK H PARENT 9 19 11 21 20 23 17 25
REMARK Flexibility Score: inf
ROOT
ATOM      1  C   UNL     1       7.097  22.801  76.060  1.00  0.00     0.138 A 
ATOM      2  C   UNL     1       6.027  22.537  75.194  1.00  0.00     0.100 A 
ATOM      3  C   UNL     1       4.729  22.464  75.702  1.00  0.00     0.197 A 
ATOM      4  O   UNL     1       3.798  22.165  74.911  1.00  0.00    -0.289 OA
ATOM      5  C   UNL     1       4.500  22.690  77.079  1.00  0.00     0.107 A 
ATOM      6  C   UNL     1       3.215  22.683  77.701  1.00  0.00     0.134 A 
ATOM      7  C   UNL     1       3.122  22.802  79.094  1.00  0.00     0.093 A 
ATOM      8  C   UNL     1       4.258  22.989  79.879  1.00  0.00     0.123 A 
ATOM      9  C   UNL     1       5.516  23.053  79.276  1.00  0.00     0.094 A 
ATOM     10  C   UNL     1       5.645  22.902  77.893  1.00  0.00     0.146 A 
ATOM     11  O   UNL     1       6.861  22.953  77.358  1.00  0.00    -0.456 OA
ENDROOT
BRANCH   1  12
ATOM     12  C   UNL     1       8.497  22.889  75.573  1.00  0.00     0.021 A 
ATOM     13  C   UNL     1       8.743  23.044  74.198  1.00  0.00     0.016 A 
ATOM     14  C   UNL     1      10.051  23.122  73.713  1.00  0.00     0.051 A 
ATOM     15  C   UNL     1      11.135  23.038  74.590  1.00  0.00     0.157 A 
ATOM     16  C   UNL     1       9.593  22.791  76.451  1.00  0.00     0.062 A 
ATOM     17  C   UNL     1      10.907  22.869  75.965  1.00  0.00     0.158 A 
BRANCH  15  18
ATOM     18  O   UNL     1      12.429  23.122  74.077  1.00  0.00    -0.504 OA
ATOM     19  H   UNL     1      12.964  22.299  73.831  1.00  0.00     0.293 HD
ENDBRANCH  15  18
BRANCH  17  20
ATOM     20  O   UNL     1      11.986  22.773  76.843  1.00  0.00    -0.504 OA
ATOM     21  H   UNL     1      12.172  23.489  77.536  1.00  0.00     0.293 HD
ENDBRANCH  17  20
ENDBRANCH   1  12
BRANCH   6  22
ATOM     22  O   UNL     1       2.009  22.586  77.001  1.00  0.00    -0.507 OA
ATOM     23  H   UNL     1       1.433  21.759  76.958  1.00  0.00     0.293 HD
ENDBRANCH   6  22
BRANCH   8  24
ATOM     24  O   UNL     1       4.127  23.121  81.260  1.00  0.00    -0.508 OA
ATOM     25  H   UNL     1       4.663  23.804  81.781  1.00  0.00     0.293 HD
ENDBRANCH   8  24
TORSDOF 5
ENDMDL
MODEL 7
REMARK VINA RESULT:    -3.983      1.835      6.828
REMARK INTER + INTRA:          -4.967
REMARK INTER:                  -4.703
REMARK INTRA:                  -0.265
REMARK UNBOUND:                -0.286
REMARK SMILES O=c1cc(-c2ccc(O)c(O)c2)oc2cc(O)cc(O)c12
REMARK SMILES IDX 4 1 3 2 2 3 1 4 21 5 19 6 18 7 16 8 15 9 14 10 13 11 5 12
REMARK SMILES IDX 6 13 7 14 8 15 12 16 10 17 9 18 11 20 20 22 17 24
REMARK H PARENT 9 19 11 21 20 23 17 25
REMARK Flexibility Score: inf
ROOT
ATOM      1  C   UNL     1       9.009   4.369  76.538  1.00  0.00     0.138 A 
ATOM      2  C   UNL     1       9.268   4.747  75.214  1.00  0.00     0.100 A 
ATOM      3  C   UNL     1       8.226   4.771  74.286  1.00  0.00     0.197 A 
ATOM      4  O   UNL     1       8.500   5.055  73.092  1.00  0.00    -0.289 OA
ATOM      5  C   UNL     1       6.912   4.445  74.696  1.00  0.00     0.107 A 
ATOM      6  C   UNL     1       5.765   4.475  73.847  1.00  0.00     0.134 A 
ATOM      7  C   UNL     1       4.533   4.018  74.335  1.00  0.00     0.093 A 
ATOM      8  C   UNL     1       4.394   3.591  75.654  1.00  0.00     0.123 A 
ATOM      9  C   UNL     1       5.497   3.608  76.510  1.00  0.00     0.094 A 
ATOM     10  C   UNL     1       6.747   4.025  76.043  1.00  0.00     0.146 A 
ATOM     11  O   UNL     1       7.776   4.013  76.884  1.00  0.00    -0.456 OA
ENDROOT
BRANCH   1  12
ATOM     12  C   UNL     1      10.079   4.327  77.566  1.00  0.00     0.021 A 
ATOM     13  C   UNL     1      10.860   3.166  77.705  1.00  0.00     0.016 A 
ATOM     14  C   UNL     1      11.869   3.099  78.669  1.00  0.00     0.051 A 
ATOM     15  C   UNL     1      12.110   4.183  79.516  1.00  0.00     0.157 A 
ATOM     16  C   UNL     1      10.317   5.412  78.432  1.00  0.00     0.062 A 
ATOM     17  C   UNL     1      11.329   5.344  79.401  1.00  0.00     0.158 A 
BRANCH  15  18
ATOM     18  O   UNL     1      13.125   4.087  80.467  1.00  0.00    -0.504 OA
ATOM     19  H   UNL     1      14.054   3.761  80.231  1.00  0.00     0.293 HD
ENDBRANCH  15  18
BRANCH  17  20
ATOM     20  O   UNL     1      11.558   6.425  80.252  1.00  0.00    -0.504 OA
ATOM     21  H   UNL     1      10.806   6.852  80.782  1.00  0.00     0.293 HD
ENDBRANCH  17  20
ENDBRANCH   1  12
BRANCH   6  22
ATOM     22  O   UNL     1       5.774   4.962  72.537  1.00  0.00    -0.507 OA
ATOM     23  H   UNL     1       6.553   4.887  71.900  1.00  0.00     0.293 HD
ENDBRANCH   6  22
BRANCH   8  24
ATOM     24  O   UNL     1       3.151   3.158  76.110  1.00  0.00    -0.508 OA
ATOM     25  H   UNL     1       3.022   2.818  77.056  1.00  0.00     0.293 HD
ENDBRANCH   8  24
TORSDOF 5
ENDMDL
