MODEL 1
REMARK VINA RESULT:    -5.477      0.000      0.000
REMARK INTER + INTRA:          -6.560
REMARK INTER:                  -6.437
REMARK INTRA:                  -0.123
REMARK UNBOUND:                -0.123
REMARK SMILES O=C([O-])C=Cc1ccc(O)c(O)c1
REMARK SMILES IDX 6 1 13 2 7 3 11 4 8 5 9 6 5 7 4 8 2 9 1 10 3 11 12 12 10 14
REMARK H PARENT 12 13 10 15
REMARK Flexibility Score: inf
ROOT
ATOM      1  C   UNL     1       6.995   8.727 -11.798  1.00  0.00    -0.022 A 
ATOM      2  C   UNL     1       6.858   7.449 -12.376  1.00  0.00     0.058 A 
ATOM      3  C   UNL     1       6.959   9.855 -12.633  1.00  0.00     0.012 A 
ATOM      4  C   UNL     1       6.663   7.308 -13.758  1.00  0.00     0.157 A 
ATOM      5  C   UNL     1       6.763   9.716 -14.009  1.00  0.00     0.051 A 
ATOM      6  C   UNL     1       6.611   8.448 -14.577  1.00  0.00     0.157 A 
ENDROOT
BRANCH   1   7
ATOM      7  C   UNL     1       7.215   8.926 -10.344  1.00  0.00     0.010 C 
ATOM      8  C   UNL     1       6.698   8.132  -9.397  1.00  0.00     0.025 C 
BRANCH   8   9
ATOM      9  C   UNL     1       6.933   8.375  -7.964  1.00  0.00     0.064 C 
ATOM     10  O   UNL     1       8.108   8.563  -7.551  1.00  0.00    -0.545 OA
ATOM     11  O   UNL     1       5.878   8.403  -7.059  1.00  0.00    -0.545 OA
ENDBRANCH   8   9
ENDBRANCH   1   7
BRANCH   4  12
ATOM     12  O   UNL     1       6.524   6.039 -14.320  1.00  0.00    -0.504 OA
ATOM     13  H   UNL     1       6.581   5.199 -13.756  1.00  0.00     0.293 HD
ENDBRANCH   4  12
BRANCH   6  14
ATOM     14  O   UNL     1       6.415   8.339 -15.953  1.00  0.00    -0.504 OA
ATOM     15  H   UNL     1       6.605   7.483 -16.459  1.00  0.00     0.293 HD
ENDBRANCH   6  14
TORSDOF 4
ENDMDL
MODEL 2
REMARK VINA RESULT:    -5.466     10.612     14.220
REMARK INTER + INTRA:          -6.547
REMARK INTER:                  -6.422
REMARK INTRA:                  -0.126
REMARK UNBOUND:                -0.123
REMARK SMILES O=C([O-])C=Cc1ccc(O)c(O)c1
REMARK SMILES IDX 6 1 13 2 7 3 11 4 8 5 9 6 5 7 4 8 2 9 1 10 3 11 12 12 10 14
REMARK H PARENT 12 13 10 15
REMARK Flexibility Score: inf
ROOT
ATOM      1  C   UNL     1       8.727  15.651 -21.736  1.00  0.00    -0.022 A 
ATOM      2  C   UNL     1       8.499  16.934 -21.200  1.00  0.00     0.058 A 
ATOM      3  C   UNL     1       8.822  14.558 -20.859  1.00  0.00     0.012 A 
ATOM      4  C   UNL     1       8.346  17.114 -19.817  1.00  0.00     0.157 A 
ATOM      5  C   UNL     1       8.667  14.736 -19.482  1.00  0.00     0.051 A 
ATOM      6  C   UNL     1       8.426  16.008 -18.956  1.00  0.00     0.157 A 
ENDROOT
BRANCH   1   7
ATOM      7  C   UNL     1       8.907  15.413 -23.189  1.00  0.00     0.010 C 
ATOM      8  C   UNL     1       9.822  16.040 -23.939  1.00  0.00     0.025 C 
BRANCH   8   9
ATOM      9  C   UNL     1       9.958  15.781 -25.381  1.00  0.00     0.064 C 
ATOM     10  O   UNL     1       8.946  15.867 -26.125  1.00  0.00    -0.545 OA
ATOM     11  O   UNL     1      11.187  15.444 -25.937  1.00  0.00    -0.545 OA
ENDBRANCH   8   9
ENDBRANCH   1   7
BRANCH   4  12
ATOM     12  O   UNL     1       8.117  18.387 -19.297  1.00  0.00    -0.504 OA
ATOM     13  H   UNL     1       7.342  18.959 -19.613  1.00  0.00     0.293 HD
ENDBRANCH   4  12
BRANCH   6  14
ATOM     14  O   UNL     1       8.274  16.154 -17.577  1.00  0.00    -0.504 OA
ATOM     15  H   UNL     1       8.083  17.052 -17.149  1.00  0.00     0.293 HD
ENDBRANCH   6  14
TORSDOF 4
ENDMDL
MODEL 3
REMARK VINA RESULT:    -5.368     10.371     13.921
REMARK INTER + INTRA:          -6.432
REMARK INTER:                  -6.298
REMARK INTRA:                  -0.134
REMARK UNBOUND:                -0.123
REMARK SMILES O=C([O-])C=Cc1ccc(O)c(O)c1
REMARK SMILES IDX 6 1 13 2 7 3 11 4 8 5 9 6 5 7 4 8 2 9 1 10 3 11 12 12 10 14
REMARK H PARENT 12 13 10 15
REMARK Flexibility Score: inf
ROOT
ATOM      1  C   UNL     1       8.764  15.607 -21.798  1.00  0.00    -0.022 A 
ATOM      2  C   UNL     1       8.840  14.492 -20.939  1.00  0.00     0.058 A 
ATOM      3  C   UNL     1       8.542  16.876 -21.241  1.00  0.00     0.012 A 
ATOM      4  C   UNL     1       8.722  14.651 -19.550  1.00  0.00     0.157 A 
ATOM      5  C   UNL     1       8.426  17.037 -19.858  1.00  0.00     0.051 A 
ATOM      6  C   UNL     1       8.518  15.931 -19.008  1.00  0.00     0.157 A 
ENDROOT
BRANCH   1   7
ATOM      7  C   UNL     1       8.871  15.487 -23.273  1.00  0.00     0.010 C 
ATOM      8  C   UNL     1       9.931  15.902 -23.979  1.00  0.00     0.025 C 
BRANCH   8   9
ATOM      9  C   UNL     1       9.990  15.774 -25.444  1.00  0.00     0.064 C 
ATOM     10  O   UNL     1       8.948  15.963 -26.125  1.00  0.00    -0.545 OA
ATOM     11  O   UNL     1      11.177  15.449 -26.089  1.00  0.00    -0.545 OA
ENDBRANCH   8   9
ENDBRANCH   1   7
BRANCH   4  12
ATOM     12  O   UNL     1       8.803  13.542 -18.709  1.00  0.00    -0.504 OA
ATOM     13  H   UNL     1       8.231  12.719 -18.858  1.00  0.00     0.293 HD
ENDBRANCH   4  12
BRANCH   6  14
ATOM     14  O   UNL     1       8.400  16.121 -17.632  1.00  0.00    -0.504 OA
ATOM     15  H   UNL     1       7.545  16.457 -17.206  1.00  0.00     0.293 HD
ENDBRANCH   6  14
TORSDOF 4
ENDMDL
MODEL 4
REMARK VINA RESULT:    -5.055      1.162      2.243
REMARK INTER + INTRA:          -6.064
REMARK INTER:                  -5.927
REMARK INTRA:                  -0.137
REMARK UNBOUND:                -0.123
REMARK SMILES O=C([O-])C=Cc1ccc(O)c(O)c1
REMARK SMILES IDX 6 1 13 2 7 3 11 4 8 5 9 6 5 7 4 8 2 9 1 10 3 11 12 12 10 14
REMARK H PARENT 12 13 10 15
REMARK Flexibility Score: inf
ROOT
ATOM      1  C   UNL     1       7.032   8.810 -12.157  1.00  0.00    -0.022 A 
ATOM      2  C   UNL     1       7.308   9.925 -12.972  1.00  0.00     0.058 A 
ATOM      3  C   UNL     1       7.005   7.534 -12.741  1.00  0.00     0.012 A 
ATOM      4  C   UNL     1       7.575   9.761 -14.340  1.00  0.00     0.157 A 
ATOM      5  C   UNL     1       7.273   7.369 -14.103  1.00  0.00     0.051 A 
ATOM      6  C   UNL     1       7.562   8.476 -14.905  1.00  0.00     0.157 A 
ENDROOT
BRANCH   1   7
ATOM      7  C   UNL     1       6.732   8.934 -10.709  1.00  0.00     0.010 C 
ATOM      8  C   UNL     1       7.435   8.321  -9.747  1.00  0.00     0.025 C 
BRANCH   8   9
ATOM      9  C   UNL     1       7.093   8.464  -8.323  1.00  0.00     0.064 C 
ATOM     10  O   UNL     1       5.884   8.542  -7.979  1.00  0.00    -0.545 OA
ATOM     11  O   UNL     1       8.084   8.511  -7.349  1.00  0.00    -0.545 OA
ENDBRANCH   8   9
ENDBRANCH   1   7
BRANCH   4  12
ATOM     12  O   UNL     1       7.851  10.871 -15.138  1.00  0.00    -0.504 OA
ATOM     13  H   UNL     1       8.435  10.801 -15.962  1.00  0.00     0.293 HD
ENDBRANCH   4  12
BRANCH   6  14
ATOM     14  O   UNL     1       7.827   8.281 -16.261  1.00  0.00    -0.504 OA
ATOM     15  H   UNL     1       7.208   8.623 -16.985  1.00  0.00     0.293 HD
ENDBRANCH   6  14
TORSDOF 4
ENDMDL
MODEL 5
REMARK VINA RESULT:    -4.970     10.897     12.426
REMARK INTER + INTRA:          -5.964
REMARK INTER:                  -5.835
REMARK INTRA:                  -0.130
REMARK UNBOUND:                -0.123
REMARK SMILES O=C([O-])C=Cc1ccc(O)c(O)c1
REMARK SMILES IDX 6 1 13 2 7 3 11 4 8 5 9 6 5 7 4 8 2 9 1 10 3 11 12 12 10 14
REMARK H PARENT 12 13 10 15
REMARK Flexibility Score: inf
ROOT
ATOM      1  C   UNL     1       8.894  17.043 -19.599  1.00  0.00    -0.022 A 
ATOM      2  C   UNL     1       8.540  16.833 -20.947  1.00  0.00     0.058 A 
ATOM      3  C   UNL     1       9.253  15.937 -18.812  1.00  0.00     0.012 A 
ATOM      4  C   UNL     1       8.569  15.544 -21.499  1.00  0.00     0.157 A 
ATOM      5  C   UNL     1       9.284  14.652 -19.362  1.00  0.00     0.051 A 
ATOM      6  C   UNL     1       8.947  14.450 -20.703  1.00  0.00     0.157 A 
ENDROOT
BRANCH   1   7
ATOM      7  C   UNL     1       8.868  18.385 -18.967  1.00  0.00     0.010 C 
ATOM      8  C   UNL     1       7.747  18.997 -18.563  1.00  0.00     0.025 C 
BRANCH   8   9
ATOM      9  C   UNL     1       7.767  20.335 -17.951  1.00  0.00     0.064 C 
ATOM     10  O   UNL     1       8.854  20.963 -17.868  1.00  0.00    -0.545 OA
ATOM     11  O   UNL     1       6.603  20.918 -17.463  1.00  0.00    -0.545 OA
ENDBRANCH   8   9
ENDBRANCH   1   7
BRANCH   4  12
ATOM     12  O   UNL     1       8.220  15.346 -22.835  1.00  0.00    -0.504 OA
ATOM     13  H   UNL     1       7.327  15.654 -23.202  1.00  0.00     0.293 HD
ENDBRANCH   4  12
BRANCH   6  14
ATOM     14  O   UNL     1       8.989  13.157 -21.226  1.00  0.00    -0.504 OA
ATOM     15  H   UNL     1       9.784  12.814 -21.750  1.00  0.00     0.293 HD
ENDBRANCH   6  14
TORSDOF 4
ENDMDL
MODEL 6
REMARK VINA RESULT:    -4.868      2.855      3.645
REMARK INTER + INTRA:          -5.845
REMARK INTER:                  -5.717
REMARK INTRA:                  -0.127
REMARK UNBOUND:                -0.123
REMARK SMILES O=C([O-])C=Cc1ccc(O)c(O)c1
REMARK SMILES IDX 6 1 13 2 7 3 11 4 8 5 9 6 5 7 4 8 2 9 1 10 3 11 12 12 10 14
REMARK H PARENT 12 13 10 15
REMARK Flexibility Score: inf
ROOT
ATOM      1  C   UNL     1       8.040   7.961 -14.506  1.00  0.00    -0.022 A 
ATOM      2  C   UNL     1       9.437   8.003 -14.689  1.00  0.00     0.058 A 
ATOM      3  C   UNL     1       7.206   8.302 -15.583  1.00  0.00     0.012 A 
ATOM      4  C   UNL     1       9.984   8.354 -15.932  1.00  0.00     0.157 A 
ATOM      5  C   UNL     1       7.749   8.649 -16.822  1.00  0.00     0.051 A 
ATOM      6  C   UNL     1       9.135   8.674 -17.004  1.00  0.00     0.157 A 
ENDROOT
BRANCH   1   7
ATOM      7  C   UNL     1       7.415   7.608 -13.208  1.00  0.00     0.010 C 
ATOM      8  C   UNL     1       7.623   8.286 -12.072  1.00  0.00     0.025 C 
BRANCH   8   9
ATOM      9  C   UNL     1       6.990   7.892 -10.803  1.00  0.00     0.064 C 
ATOM     10  O   UNL     1       5.945   7.191 -10.822  1.00  0.00    -0.545 OA
ATOM     11  O   UNL     1       7.530   8.279  -9.581  1.00  0.00    -0.545 OA
ENDBRANCH   8   9
ENDBRANCH   1   7
BRANCH   4  12
ATOM     12  O   UNL     1      11.367   8.389 -16.104  1.00  0.00    -0.504 OA
ATOM     13  H   UNL     1      11.789   8.383 -17.026  1.00  0.00     0.293 HD
ENDBRANCH   4  12
BRANCH   6  14
ATOM     14  O   UNL     1       9.649   9.023 -18.253  1.00  0.00    -0.504 OA
ATOM     15  H   UNL     1       9.349   8.567 -19.106  1.00  0.00     0.293 HD
ENDBRANCH   6  14
TORSDOF 4
ENDMDL
MODEL 7
REMARK VINA RESULT:    -4.804      2.869      5.686
REMARK INTER + INTRA:          -5.769
REMARK INTER:                  -5.645
REMARK INTRA:                  -0.125
REMARK UNBOUND:                -0.123
REMARK SMILES O=C([O-])C=Cc1ccc(O)c(O)c1
REMARK SMILES IDX 6 1 13 2 7 3 11 4 8 5 9 6 5 7 4 8 2 9 1 10 3 11 12 12 10 14
REMARK H PARENT 12 13 10 15
REMARK Flexibility Score: inf
ROOT
ATOM      1  C   UNL     1       7.775   7.714 -14.196  1.00  0.00    -0.022 A 
ATOM      2  C   UNL     1       7.022   7.916 -13.022  1.00  0.00     0.058 A 
ATOM      3  C   UNL     1       8.489   8.795 -14.738  1.00  0.00     0.012 A 
ATOM      4  C   UNL     1       7.005   9.170 -12.392  1.00  0.00     0.157 A 
ATOM      5  C   UNL     1       8.475  10.043 -14.110  1.00  0.00     0.051 A 
ATOM      6  C   UNL     1       7.739  10.236 -12.937  1.00  0.00     0.157 A 
ENDROOT
BRANCH   1   7
ATOM      7  C   UNL     1       7.815   6.411 -14.904  1.00  0.00     0.010 C 
ATOM      8  C   UNL     1       6.759   5.595 -15.024  1.00  0.00     0.025 C 
BRANCH   8   9
ATOM      9  C   UNL     1       6.847   4.305 -15.726  1.00  0.00     0.064 C 
ATOM     10  O   UNL     1       7.753   3.488 -15.411  1.00  0.00    -0.545 OA
ATOM     11  O   UNL     1       5.946   3.972 -16.730  1.00  0.00    -0.545 OA
ENDBRANCH   8   9
ENDBRANCH   1   7
BRANCH   4  12
ATOM     12  O   UNL     1       6.260   9.359 -11.229  1.00  0.00    -0.504 OA
ATOM     13  H   UNL     1       6.526   8.930 -10.351  1.00  0.00     0.293 HD
ENDBRANCH   4  12
BRANCH   6  14
ATOM     14  O   UNL     1       7.745  11.493 -12.332  1.00  0.00    -0.504 OA
ATOM     15  H   UNL     1       8.514  11.808 -11.753  1.00  0.00     0.293 HD
ENDBRANCH   6  14
TORSDOF 4
ENDMDL
MODEL 8
REMARK VINA RESULT:    -4.798      3.437      5.620
REMARK INTER + INTRA:          -5.762
REMARK INTER:                  -5.625
REMARK INTRA:                  -0.138
REMARK UNBOUND:                -0.123
REMARK SMILES O=C([O-])C=Cc1ccc(O)c(O)c1
REMARK SMILES IDX 6 1 13 2 7 3 11 4 8 5 9 6 5 7 4 8 2 9 1 10 3 11 12 12 10 14
REMARK H PARENT 12 13 10 15
REMARK Flexibility Score: inf
ROOT
ATOM      1  C   UNL     1       7.855   8.455 -13.981  1.00  0.00    -0.022 A 
ATOM      2  C   UNL     1       8.554   9.501 -14.615  1.00  0.00     0.058 A 
ATOM      3  C   UNL     1       7.143   8.732 -12.803  1.00  0.00     0.012 A 
ATOM      4  C   UNL     1       8.520  10.803 -14.093  1.00  0.00     0.157 A 
ATOM      5  C   UNL     1       7.106  10.029 -12.283  1.00  0.00     0.051 A 
ATOM      6  C   UNL     1       7.788  11.067 -12.924  1.00  0.00     0.157 A 
ENDROOT
BRANCH   1   7
ATOM      7  C   UNL     1       7.871   7.061 -14.488  1.00  0.00     0.010 C 
ATOM      8  C   UNL     1       6.768   6.370 -14.806  1.00  0.00     0.025 C 
BRANCH   8   9
ATOM      9  C   UNL     1       6.831   4.983 -15.294  1.00  0.00     0.064 C 
ATOM     10  O   UNL     1       7.764   4.231 -14.908  1.00  0.00    -0.545 OA
ATOM     11  O   UNL     1       5.875   4.489 -16.175  1.00  0.00    -0.545 OA
ENDBRANCH   8   9
ENDBRANCH   1   7
BRANCH   4  12
ATOM     12  O   UNL     1       9.212  11.832 -14.730  1.00  0.00    -0.504 OA
ATOM     13  H   UNL     1       9.763  12.504 -14.209  1.00  0.00     0.293 HD
ENDBRANCH   4  12
BRANCH   6  14
ATOM     14  O   UNL     1       7.732  12.351 -12.383  1.00  0.00    -0.504 OA
ATOM     15  H   UNL     1       8.157  12.580 -11.492  1.00  0.00     0.293 HD
ENDBRANCH   6  14
TORSDOF 4
ENDMDL
MODEL 9
REMARK VINA RESULT:    -4.776      9.632     11.594
REMARK INTER + INTRA:          -5.736
REMARK INTER:                  -5.608
REMARK INTRA:                  -0.128
REMARK UNBOUND:                -0.123
REMARK SMILES O=C([O-])C=Cc1ccc(O)c(O)c1
REMARK SMILES IDX 6 1 13 2 7 3 11 4 8 5 9 6 5 7 4 8 2 9 1 10 3 11 12 12 10 14
REMARK H PARENT 12 13 10 15
REMARK Flexibility Score: inf
ROOT
ATOM      1  C   UNL     1       8.431  15.566 -19.927  1.00  0.00    -0.022 A 
ATOM      2  C   UNL     1       8.868  14.625 -18.974  1.00  0.00     0.058 A 
ATOM      3  C   UNL     1       8.413  15.200 -21.282  1.00  0.00     0.012 A 
ATOM      4  C   UNL     1       9.255  13.336 -19.369  1.00  0.00     0.157 A 
ATOM      5  C   UNL     1       8.796  13.915 -21.677  1.00  0.00     0.051 A 
ATOM      6  C   UNL     1       9.214  12.979 -20.727  1.00  0.00     0.157 A 
ENDROOT
BRANCH   1   7
ATOM      7  C   UNL     1       8.023  16.945 -19.559  1.00  0.00     0.010 C 
ATOM      8  C   UNL     1       8.841  17.834 -18.979  1.00  0.00     0.025 C 
BRANCH   8   9
ATOM      9  C   UNL     1       8.389  19.188 -18.620  1.00  0.00     0.064 C 
ATOM     10  O   UNL     1       7.167  19.398 -18.405  1.00  0.00    -0.545 OA
ATOM     11  O   UNL     1       9.292  20.240 -18.514  1.00  0.00    -0.545 OA
ENDBRANCH   8   9
ENDBRANCH   1   7
BRANCH   4  12
ATOM     12  O   UNL     1       9.683  12.410 -18.418  1.00  0.00    -0.504 OA
ATOM     13  H   UNL     1      10.044  12.702 -17.517  1.00  0.00     0.293 HD
ENDBRANCH   4  12
BRANCH   6  14
ATOM     14  O   UNL     1       9.589  11.704 -21.150  1.00  0.00    -0.504 OA
ATOM     15  H   UNL     1      10.558  11.410 -21.180  1.00  0.00     0.293 HD
ENDBRANCH   6  14
TORSDOF 4
ENDMDL
