MODEL 1
REMARK VINA RESULT:    -5.219      0.000      0.000
REMARK INTER + INTRA:          -6.031
REMARK INTER:                  -6.134
REMARK INTRA:                   0.103
REMARK UNBOUND:                 0.103
REMARK SMILES O=c1c(O)c(-c2ccc(O)cc2)oc2cc(O)cc(O)c12
REMARK SMILES IDX 5 1 3 2 2 3 1 4 21 5 19 6 18 7 16 8 15 9 14 10 13 11 6 12
REMARK SMILES IDX 7 13 8 14 9 15 12 16 11 17 10 18 4 20 20 22 17 24
REMARK H PARENT 10 19 4 21 20 23 17 25
REMARK Flexibility Score: inf
ROOT
ATOM      1  C   UNL     1       0.913  -0.865  -8.245  1.00  0.00     0.180 A 
ATOM      2  C   UNL     1       0.714  -2.091  -8.903  1.00  0.00     0.208 A 
ATOM      3  C   UNL     1      -0.587  -2.455  -9.284  1.00  0.00     0.238 A 
ATOM      4  O   UNL     1      -0.753  -3.528  -9.922  1.00  0.00    -0.285 OA
ATOM      5  C   UNL     1      -1.675  -1.598  -8.988  1.00  0.00     0.111 A 
ATOM      6  C   UNL     1      -3.040  -1.885  -9.292  1.00  0.00     0.134 A 
ATOM      7  C   UNL     1      -4.016  -0.907  -9.071  1.00  0.00     0.093 A 
ATOM      8  C   UNL     1      -3.687   0.323  -8.497  1.00  0.00     0.123 A 
ATOM      9  C   UNL     1      -2.367   0.590  -8.142  1.00  0.00     0.094 A 
ATOM     10  C   UNL     1      -1.364  -0.351  -8.383  1.00  0.00     0.146 A 
ATOM     11  O   UNL     1      -0.117  -0.053  -8.040  1.00  0.00    -0.452 OA
ENDROOT
BRANCH   1  12
ATOM     12  C   UNL     1       2.252  -0.423  -7.789  1.00  0.00     0.021 A 
ATOM     13  C   UNL     1       2.415   0.051  -6.477  1.00  0.00     0.016 A 
ATOM     14  C   UNL     1       3.674   0.452  -6.019  1.00  0.00     0.047 A 
ATOM     15  C   UNL     1       4.787   0.370  -6.861  1.00  0.00     0.115 A 
ATOM     16  C   UNL     1       3.380  -0.520  -8.626  1.00  0.00     0.016 A 
ATOM     17  C   UNL     1       4.638  -0.120  -8.165  1.00  0.00     0.047 A 
BRANCH  15  18
ATOM     18  O   UNL     1       6.034   0.774  -6.393  1.00  0.00    -0.508 OA
ATOM     19  H   UNL     1       6.878   0.260  -6.620  1.00  0.00     0.293 HD
ENDBRANCH  15  18
ENDBRANCH   1  12
BRANCH   2  20
ATOM     20  O   UNL     1       1.804  -2.911  -9.205  1.00  0.00    -0.502 OA
ATOM     21  H   UNL     1       2.021  -3.200 -10.152  1.00  0.00     0.293 HD
ENDBRANCH   2  20
BRANCH   6  22
ATOM     22  O   UNL     1      -3.487  -3.115  -9.782  1.00  0.00    -0.507 OA
ATOM     23  H   UNL     1      -4.055  -3.768  -9.264  1.00  0.00     0.293 HD
ENDBRANCH   6  22
BRANCH   8  24
ATOM     24  O   UNL     1      -4.668   1.286  -8.265  1.00  0.00    -0.508 OA
ATOM     25  H   UNL     1      -4.927   1.563  -7.325  1.00  0.00     0.293 HD
ENDBRANCH   8  24
TORSDOF 5
ENDMDL
MODEL 2
REMARK VINA RESULT:    -5.208      2.427      6.997
REMARK INTER + INTRA:          -6.018
REMARK INTER:                  -6.055
REMARK INTRA:                   0.036
REMARK UNBOUND:                 0.103
REMARK SMILES O=c1c(O)c(-c2ccc(O)cc2)oc2cc(O)cc(O)c12
REMARK SMILES IDX 5 1 3 2 2 3 1 4 21 5 19 6 18 7 16 8 15 9 14 10 13 11 6 12
REMARK SMILES IDX 7 13 8 14 9 15 12 16 11 17 10 18 4 20 20 22 17 24
REMARK H PARENT 10 19 4 21 20 23 17 25
REMARK Flexibility Score: inf
ROOT
ATOM      1  C   UNL     1      -0.626   0.888  -8.191  1.00  0.00     0.180 A 
ATOM      2  C   UNL     1      -0.434   2.132  -8.817  1.00  0.00     0.208 A 
ATOM      3  C   UNL     1       0.862   2.503  -9.208  1.00  0.00     0.238 A 
ATOM      4  O   UNL     1       1.021   3.594  -9.817  1.00  0.00    -0.285 OA
ATOM      5  C   UNL     1       1.952   1.636  -8.953  1.00  0.00     0.111 A 
ATOM      6  C   UNL     1       3.313   1.929  -9.269  1.00  0.00     0.134 A 
ATOM      7  C   UNL     1       4.290   0.943  -9.090  1.00  0.00     0.093 A 
ATOM      8  C   UNL     1       3.967  -0.302  -8.547  1.00  0.00     0.123 A 
ATOM      9  C   UNL     1       2.651  -0.577  -8.180  1.00  0.00     0.094 A 
ATOM     10  C   UNL     1       1.647   0.374  -8.378  1.00  0.00     0.146 A 
ATOM     11  O   UNL     1       0.405   0.068  -8.025  1.00  0.00    -0.452 OA
ENDROOT
BRANCH   1  12
ATOM     12  C   UNL     1      -1.959   0.436  -7.728  1.00  0.00     0.021 A 
ATOM     13  C   UNL     1      -2.126   0.025  -6.395  1.00  0.00     0.016 A 
ATOM     14  C   UNL     1      -3.380  -0.383  -5.931  1.00  0.00     0.047 A 
ATOM     15  C   UNL     1      -4.484  -0.373  -6.788  1.00  0.00     0.115 A 
ATOM     16  C   UNL     1      -3.079   0.462  -8.581  1.00  0.00     0.016 A 
ATOM     17  C   UNL     1      -4.332   0.054  -8.114  1.00  0.00     0.047 A 
BRANCH  15  18
ATOM     18  O   UNL     1      -5.727  -0.784  -6.313  1.00  0.00    -0.508 OA
ATOM     19  H   UNL     1      -5.831  -1.210  -5.399  1.00  0.00     0.293 HD
ENDBRANCH  15  18
ENDBRANCH   1  12
BRANCH   2  20
ATOM     20  O   UNL     1      -1.526   2.963  -9.079  1.00  0.00    -0.502 OA
ATOM     21  H   UNL     1      -1.736   3.778  -8.516  1.00  0.00     0.293 HD
ENDBRANCH   2  20
BRANCH   6  22
ATOM     22  O   UNL     1       3.756   3.171  -9.731  1.00  0.00    -0.507 OA
ATOM     23  H   UNL     1       4.585   3.644  -9.404  1.00  0.00     0.293 HD
ENDBRANCH   6  22
BRANCH   8  24
ATOM     24  O   UNL     1       4.949  -1.274  -8.358  1.00  0.00    -0.508 OA
ATOM     25  H   UNL     1       5.836  -1.051  -7.921  1.00  0.00     0.293 HD
ENDBRANCH   8  24
TORSDOF 5
ENDMDL
MODEL 3
REMARK VINA RESULT:    -5.094      2.030      6.693
REMARK INTER + INTRA:          -5.884
REMARK INTER:                  -5.601
REMARK INTRA:                  -0.283
REMARK UNBOUND:                 0.103
REMARK SMILES O=c1c(O)c(-c2ccc(O)cc2)oc2cc(O)cc(O)c12
REMARK SMILES IDX 5 1 3 2 2 3 1 4 21 5 19 6 18 7 16 8 15 9 14 10 13 11 6 12
REMARK SMILES IDX 7 13 8 14 9 15 12 16 11 17 10 18 4 20 20 22 17 24
REMARK H PARENT 10 19 4 21 20 23 17 25
REMARK Flexibility Score: inf
ROOT
ATOM      1  C   UNL     1      -1.707  -0.505  -7.511  1.00  0.00     0.180 A 
ATOM      2  C   UNL     1      -1.012  -1.570  -8.110  1.00  0.00     0.208 A 
ATOM      3  C   UNL     1       0.388  -1.502  -8.201  1.00  0.00     0.238 A 
ATOM      4  O   UNL     1       1.009  -2.483  -8.689  1.00  0.00    -0.285 OA
ATOM      5  C   UNL     1       1.073  -0.365  -7.710  1.00  0.00     0.111 A 
ATOM      6  C   UNL     1       2.485  -0.173  -7.787  1.00  0.00     0.134 A 
ATOM      7  C   UNL     1       3.068   0.929  -7.151  1.00  0.00     0.093 A 
ATOM      8  C   UNL     1       2.283   1.881  -6.496  1.00  0.00     0.123 A 
ATOM      9  C   UNL     1       0.898   1.733  -6.466  1.00  0.00     0.094 A 
ATOM     10  C   UNL     1       0.290   0.626  -7.061  1.00  0.00     0.146 A 
ATOM     11  O   UNL     1      -1.031   0.518  -7.000  1.00  0.00    -0.452 OA
ENDROOT
BRANCH   1  12
ATOM     12  C   UNL     1      -3.184  -0.491  -7.399  1.00  0.00     0.021 A 
ATOM     13  C   UNL     1      -3.956  -0.046  -8.486  1.00  0.00     0.016 A 
ATOM     14  C   UNL     1      -5.352  -0.046  -8.410  1.00  0.00     0.047 A 
ATOM     15  C   UNL     1      -5.994  -0.504  -7.256  1.00  0.00     0.115 A 
ATOM     16  C   UNL     1      -3.837  -0.969  -6.247  1.00  0.00     0.016 A 
ATOM     17  C   UNL     1      -5.233  -0.968  -6.175  1.00  0.00     0.047 A 
BRANCH  15  18
ATOM     18  O   UNL     1      -7.385  -0.497  -7.194  1.00  0.00    -0.508 OA
ATOM     19  H   UNL     1      -7.879  -0.067  -6.420  1.00  0.00     0.293 HD
ENDBRANCH  15  18
ENDBRANCH   1  12
BRANCH   2  20
ATOM     20  O   UNL     1      -1.705  -2.692  -8.569  1.00  0.00    -0.502 OA
ATOM     21  H   UNL     1      -2.547  -2.620  -9.128  1.00  0.00     0.293 HD
ENDBRANCH   2  20
BRANCH   6  22
ATOM     22  O   UNL     1       3.349  -1.015  -8.494  1.00  0.00    -0.507 OA
ATOM     23  H   UNL     1       3.936  -1.720  -8.074  1.00  0.00     0.293 HD
ENDBRANCH   6  22
BRANCH   8  24
ATOM     24  O   UNL     1       2.869   2.984  -5.879  1.00  0.00    -0.508 OA
ATOM     25  H   UNL     1       2.308   3.736  -5.493  1.00  0.00     0.293 HD
ENDBRANCH   8  24
TORSDOF 5
ENDMDL
MODEL 4
REMARK VINA RESULT:    -5.080      2.458      3.967
REMARK INTER + INTRA:          -5.867
REMARK INTER:                  -5.573
REMARK INTRA:                  -0.294
REMARK UNBOUND:                 0.103
REMARK SMILES O=c1c(O)c(-c2ccc(O)cc2)oc2cc(O)cc(O)c12
REMARK SMILES IDX 5 1 3 2 2 3 1 4 21 5 19 6 18 7 16 8 15 9 14 10 13 11 6 12
REMARK SMILES IDX 7 13 8 14 9 15 12 16 11 17 10 18 4 20 20 22 17 24
REMARK H PARENT 10 19 4 21 20 23 17 25
REMARK Flexibility Score: inf
ROOT
ATOM      1  C   UNL     1       2.366  -0.464  -8.497  1.00  0.00     0.180 A 
ATOM      2  C   UNL     1       1.766   0.238  -7.437  1.00  0.00     0.208 A 
ATOM      3  C   UNL     1       0.592  -0.273  -6.861  1.00  0.00     0.238 A 
ATOM      4  O   UNL     1       0.090   0.330  -5.876  1.00  0.00    -0.285 OA
ATOM      5  C   UNL     1       0.023  -1.468  -7.363  1.00  0.00     0.111 A 
ATOM      6  C   UNL     1      -1.187  -2.055  -6.882  1.00  0.00     0.134 A 
ATOM      7  C   UNL     1      -1.586  -3.306  -7.364  1.00  0.00     0.093 A 
ATOM      8  C   UNL     1      -0.855  -3.963  -8.356  1.00  0.00     0.123 A 
ATOM      9  C   UNL     1       0.295  -3.372  -8.875  1.00  0.00     0.094 A 
ATOM     10  C   UNL     1       0.739  -2.140  -8.389  1.00  0.00     0.146 A 
ATOM     11  O   UNL     1       1.845  -1.616  -8.902  1.00  0.00    -0.452 OA
ENDROOT
BRANCH   1  12
ATOM     12  C   UNL     1       3.591   0.024  -9.172  1.00  0.00     0.021 A 
ATOM     13  C   UNL     1       4.850  -0.386  -8.703  1.00  0.00     0.016 A 
ATOM     14  C   UNL     1       6.018   0.044  -9.339  1.00  0.00     0.047 A 
ATOM     15  C   UNL     1       5.943   0.877 -10.459  1.00  0.00     0.115 A 
ATOM     16  C   UNL     1       3.521   0.848 -10.312  1.00  0.00     0.016 A 
ATOM     17  C   UNL     1       4.691   1.276 -10.947  1.00  0.00     0.047 A 
BRANCH  15  18
ATOM     18  O   UNL     1       7.115   1.300 -11.082  1.00  0.00    -0.508 OA
ATOM     19  H   UNL     1       8.019   1.200 -10.634  1.00  0.00     0.293 HD
ENDBRANCH  15  18
ENDBRANCH   1  12
BRANCH   2  20
ATOM     20  O   UNL     1       2.357   1.404  -6.943  1.00  0.00    -0.502 OA
ATOM     21  H   UNL     1       1.813   2.175  -6.575  1.00  0.00     0.293 HD
ENDBRANCH   2  20
BRANCH   6  22
ATOM     22  O   UNL     1      -2.038  -1.440  -5.959  1.00  0.00    -0.507 OA
ATOM     23  H   UNL     1      -2.435  -1.895  -5.151  1.00  0.00     0.293 HD
ENDBRANCH   6  22
BRANCH   8  24
ATOM     24  O   UNL     1      -1.267  -5.203  -8.843  1.00  0.00    -0.508 OA
ATOM     25  H   UNL     1      -2.250  -5.426  -8.957  1.00  0.00     0.293 HD
ENDBRANCH   8  24
TORSDOF 5
ENDMDL
MODEL 5
REMARK VINA RESULT:    -5.067      2.810      6.928
REMARK INTER + INTRA:          -5.853
REMARK INTER:                  -5.553
REMARK INTRA:                  -0.299
REMARK UNBOUND:                 0.103
REMARK SMILES O=c1c(O)c(-c2ccc(O)cc2)oc2cc(O)cc(O)c12
REMARK SMILES IDX 5 1 3 2 2 3 1 4 21 5 19 6 18 7 16 8 15 9 14 10 13 11 6 12
REMARK SMILES IDX 7 13 8 14 9 15 12 16 11 17 10 18 4 20 20 22 17 24
REMARK H PARENT 10 19 4 21 20 23 17 25
REMARK Flexibility Score: inf
ROOT
ATOM      1  C   UNL     1      -1.962   0.442  -8.331  1.00  0.00     0.180 A 
ATOM      2  C   UNL     1      -1.307  -0.332  -7.358  1.00  0.00     0.208 A 
ATOM      3  C   UNL     1      -0.121   0.156  -6.786  1.00  0.00     0.238 A 
ATOM      4  O   UNL     1       0.432  -0.515  -5.875  1.00  0.00    -0.285 OA
ATOM      5  C   UNL     1       0.403   1.403  -7.205  1.00  0.00     0.111 A 
ATOM      6  C   UNL     1       1.618   1.976  -6.722  1.00  0.00     0.134 A 
ATOM      7  C   UNL     1       1.972   3.273  -7.111  1.00  0.00     0.093 A 
ATOM      8  C   UNL     1       1.189   3.993  -8.015  1.00  0.00     0.123 A 
ATOM      9  C   UNL     1       0.032   3.420  -8.538  1.00  0.00     0.094 A 
ATOM     10  C   UNL     1      -0.367   2.141  -8.142  1.00  0.00     0.146 A 
ATOM     11  O   UNL     1      -1.482   1.636  -8.656  1.00  0.00    -0.452 OA
ENDROOT
BRANCH   1  12
ATOM     12  C   UNL     1      -3.203  -0.016  -8.999  1.00  0.00     0.021 A 
ATOM     13  C   UNL     1      -4.450   0.398  -8.502  1.00  0.00     0.016 A 
ATOM     14  C   UNL     1      -5.632  -0.004  -9.130  1.00  0.00     0.047 A 
ATOM     15  C   UNL     1      -5.583  -0.813 -10.269  1.00  0.00     0.115 A 
ATOM     16  C   UNL     1      -3.160  -0.815 -10.157  1.00  0.00     0.016 A 
ATOM     17  C   UNL     1      -4.344  -1.216 -10.784  1.00  0.00     0.047 A 
BRANCH  15  18
ATOM     18  O   UNL     1      -6.769  -1.208 -10.883  1.00  0.00    -0.508 OA
ATOM     19  H   UNL     1      -7.651  -0.752 -10.676  1.00  0.00     0.293 HD
ENDBRANCH  15  18
ENDBRANCH   1  12
BRANCH   2  20
ATOM     20  O   UNL     1      -1.853  -1.549  -6.943  1.00  0.00    -0.502 OA
ATOM     21  H   UNL     1      -1.346  -2.200  -6.354  1.00  0.00     0.293 HD
ENDBRANCH   2  20
BRANCH   6  22
ATOM     22  O   UNL     1       2.518   1.306  -5.888  1.00  0.00    -0.507 OA
ATOM     23  H   UNL     1       2.613   0.304  -5.832  1.00  0.00     0.293 HD
ENDBRANCH   6  22
BRANCH   8  24
ATOM     24  O   UNL     1       1.556   5.279  -8.409  1.00  0.00    -0.508 OA
ATOM     25  H   UNL     1       0.889   5.913  -8.835  1.00  0.00     0.293 HD
ENDBRANCH   8  24
TORSDOF 5
ENDMDL
MODEL 6
REMARK VINA RESULT:    -5.060      6.988      9.390
REMARK INTER + INTRA:          -5.844
REMARK INTER:                  -5.585
REMARK INTRA:                  -0.259
REMARK UNBOUND:                 0.103
REMARK SMILES O=c1c(O)c(-c2ccc(O)cc2)oc2cc(O)cc(O)c12
REMARK SMILES IDX 5 1 3 2 2 3 1 4 21 5 19 6 18 7 16 8 15 9 14 10 13 11 6 12
REMARK SMILES IDX 7 13 8 14 9 15 12 16 11 17 10 18 4 20 20 22 17 24
REMARK H PARENT 10 19 4 21 20 23 17 25
REMARK Flexibility Score: inf
ROOT
ATOM      1  C   UNL     1       6.240   1.031 -12.495  1.00  0.00     0.180 A 
ATOM      2  C   UNL     1       6.613   2.386 -12.529  1.00  0.00     0.208 A 
ATOM      3  C   UNL     1       6.785   3.075 -11.317  1.00  0.00     0.238 A 
ATOM      4  O   UNL     1       7.171   4.273 -11.352  1.00  0.00    -0.285 OA
ATOM      5  C   UNL     1       6.566   2.406 -10.089  1.00  0.00     0.111 A 
ATOM      6  C   UNL     1       6.672   3.016  -8.803  1.00  0.00     0.134 A 
ATOM      7  C   UNL     1       6.562   2.226  -7.652  1.00  0.00     0.093 A 
ATOM      8  C   UNL     1       6.286   0.860  -7.740  1.00  0.00     0.123 A 
ATOM      9  C   UNL     1       6.122   0.266  -8.990  1.00  0.00     0.094 A 
ATOM     10  C   UNL     1       6.261   1.021 -10.157  1.00  0.00     0.146 A 
ATOM     11  O   UNL     1       6.107   0.414 -11.327  1.00  0.00    -0.452 OA
ENDROOT
BRANCH   1  12
ATOM     12  C   UNL     1       6.015   0.245 -13.730  1.00  0.00     0.021 A 
ATOM     13  C   UNL     1       7.116  -0.293 -14.418  1.00  0.00     0.016 A 
ATOM     14  C   UNL     1       6.925  -1.058 -15.573  1.00  0.00     0.047 A 
ATOM     15  C   UNL     1       5.633  -1.306 -16.046  1.00  0.00     0.115 A 
ATOM     16  C   UNL     1       4.717  -0.024 -14.201  1.00  0.00     0.016 A 
ATOM     17  C   UNL     1       4.529  -0.790 -15.356  1.00  0.00     0.047 A 
BRANCH  15  18
ATOM     18  O   UNL     1       5.458  -2.067 -17.199  1.00  0.00    -0.508 OA
ATOM     19  H   UNL     1       5.864  -2.992 -17.291  1.00  0.00     0.293 HD
ENDBRANCH  15  18
ENDBRANCH   1  12
BRANCH   2  20
ATOM     20  O   UNL     1       6.844   3.021 -13.751  1.00  0.00    -0.502 OA
ATOM     21  H   UNL     1       6.616   2.591 -14.639  1.00  0.00     0.293 HD
ENDBRANCH   2  20
BRANCH   6  22
ATOM     22  O   UNL     1       6.856   4.387  -8.603  1.00  0.00    -0.507 OA
ATOM     23  H   UNL     1       6.778   5.089  -9.324  1.00  0.00     0.293 HD
ENDBRANCH   6  22
BRANCH   8  24
ATOM     24  O   UNL     1       6.162   0.083  -6.590  1.00  0.00    -0.508 OA
ATOM     25  H   UNL     1       5.264  -0.276  -6.288  1.00  0.00     0.293 HD
ENDBRANCH   8  24
TORSDOF 5
ENDMDL
MODEL 7
REMARK VINA RESULT:    -5.033      7.258      8.735
REMARK INTER + INTRA:          -5.813
REMARK INTER:                  -5.548
REMARK INTRA:                  -0.265
REMARK UNBOUND:                 0.103
REMARK SMILES O=c1c(O)c(-c2ccc(O)cc2)oc2cc(O)cc(O)c12
REMARK SMILES IDX 5 1 3 2 2 3 1 4 21 5 19 6 18 7 16 8 15 9 14 10 13 11 6 12
REMARK SMILES IDX 7 13 8 14 9 15 12 16 11 17 10 18 4 20 20 22 17 24
REMARK H PARENT 10 19 4 21 20 23 17 25
REMARK Flexibility Score: inf
ROOT
ATOM      1  C   UNL     1      -6.115  -0.989 -12.542  1.00  0.00     0.180 A 
ATOM      2  C   UNL     1      -6.423  -2.359 -12.614  1.00  0.00     0.208 A 
ATOM      3  C   UNL     1      -6.572  -3.087 -11.423  1.00  0.00     0.238 A 
ATOM      4  O   UNL     1      -6.901  -4.300 -11.493  1.00  0.00    -0.285 OA
ATOM      5  C   UNL     1      -6.395  -2.441 -10.175  1.00  0.00     0.111 A 
ATOM      6  C   UNL     1      -6.483  -3.090  -8.907  1.00  0.00     0.134 A 
ATOM      7  C   UNL     1      -6.420  -2.326  -7.735  1.00  0.00     0.093 A 
ATOM      8  C   UNL     1      -6.207  -0.947  -7.785  1.00  0.00     0.123 A 
ATOM      9  C   UNL     1      -6.061  -0.313  -9.017  1.00  0.00     0.094 A 
ATOM     10  C   UNL     1      -6.155  -1.042 -10.204  1.00  0.00     0.146 A 
ATOM     11  O   UNL     1      -6.020  -0.398 -11.357  1.00  0.00    -0.452 OA
ENDROOT
BRANCH   1  12
ATOM     12  C   UNL     1      -5.918  -0.161 -13.754  1.00  0.00     0.021 A 
ATOM     13  C   UNL     1      -7.036   0.363 -14.424  1.00  0.00     0.016 A 
ATOM     14  C   UNL     1      -6.872   1.166 -15.556  1.00  0.00     0.047 A 
ATOM     15  C   UNL     1      -5.589   1.468 -16.025  1.00  0.00     0.115 A 
ATOM     16  C   UNL     1      -4.629   0.162 -14.219  1.00  0.00     0.016 A 
ATOM     17  C   UNL     1      -4.468   0.966 -15.352  1.00  0.00     0.047 A 
BRANCH  15  18
ATOM     18  O   UNL     1      -5.440   2.267 -17.155  1.00  0.00    -0.508 OA
ATOM     19  H   UNL     1      -4.934   3.145 -17.120  1.00  0.00     0.293 HD
ENDBRANCH  15  18
ENDBRANCH   1  12
BRANCH   2  20
ATOM     20  O   UNL     1      -6.615  -2.972 -13.855  1.00  0.00    -0.502 OA
ATOM     21  H   UNL     1      -6.104  -3.799 -14.138  1.00  0.00     0.293 HD
ENDBRANCH   2  20
BRANCH   6  22
ATOM     22  O   UNL     1      -6.604  -4.473  -8.745  1.00  0.00    -0.507 OA
ATOM     23  H   UNL     1      -6.314  -4.983  -7.924  1.00  0.00     0.293 HD
ENDBRANCH   6  22
BRANCH   8  24
ATOM     24  O   UNL     1      -6.130  -0.195  -6.613  1.00  0.00    -0.508 OA
ATOM     25  H   UNL     1      -5.239   0.011  -6.175  1.00  0.00     0.293 HD
ENDBRANCH   8  24
TORSDOF 5
ENDMDL
MODEL 8
REMARK VINA RESULT:    -5.009      2.095      3.269
REMARK INTER + INTRA:          -5.785
REMARK INTER:                  -5.495
REMARK INTRA:                  -0.290
REMARK UNBOUND:                 0.103
REMARK SMILES O=c1c(O)c(-c2ccc(O)cc2)oc2cc(O)cc(O)c12
REMARK SMILES IDX 5 1 3 2 2 3 1 4 21 5 19 6 18 7 16 8 15 9 14 10 13 11 6 12
REMARK SMILES IDX 7 13 8 14 9 15 12 16 11 17 10 18 4 20 20 22 17 24
REMARK H PARENT 10 19 4 21 20 23 17 25
REMARK Flexibility Score: inf
ROOT
ATOM      1  C   UNL     1       1.702   0.300  -7.497  1.00  0.00     0.180 A 
ATOM      2  C   UNL     1       0.978   1.370  -8.049  1.00  0.00     0.208 A 
ATOM      3  C   UNL     1      -0.422   1.282  -8.115  1.00  0.00     0.238 A 
ATOM      4  O   UNL     1      -1.069   2.266  -8.561  1.00  0.00    -0.285 OA
ATOM      5  C   UNL     1      -1.078   0.119  -7.645  1.00  0.00     0.111 A 
ATOM      6  C   UNL     1      -2.488  -0.095  -7.700  1.00  0.00     0.134 A 
ATOM      7  C   UNL     1      -3.039  -1.226  -7.086  1.00  0.00     0.093 A 
ATOM      8  C   UNL     1      -2.226  -2.183  -6.476  1.00  0.00     0.123 A 
ATOM      9  C   UNL     1      -0.843  -2.013  -6.469  1.00  0.00     0.094 A 
ATOM     10  C   UNL     1      -0.266  -0.877  -7.042  1.00  0.00     0.146 A 
ATOM     11  O   UNL     1       1.055  -0.749  -7.004  1.00  0.00    -0.452 OA
ENDROOT
BRANCH   1  12
ATOM     12  C   UNL     1       3.182   0.309  -7.415  1.00  0.00     0.021 A 
ATOM     13  C   UNL     1       3.937  -0.174  -8.497  1.00  0.00     0.016 A 
ATOM     14  C   UNL     1       5.335  -0.154  -8.450  1.00  0.00     0.047 A 
ATOM     15  C   UNL     1       5.994   0.361  -7.330  1.00  0.00     0.115 A 
ATOM     16  C   UNL     1       3.851   0.843  -6.299  1.00  0.00     0.016 A 
ATOM     17  C   UNL     1       5.249   0.862  -6.255  1.00  0.00     0.047 A 
BRANCH  15  18
ATOM     18  O   UNL     1       7.386   0.373  -7.297  1.00  0.00    -0.508 OA
ATOM     19  H   UNL     1       7.938   0.106  -8.104  1.00  0.00     0.293 HD
ENDBRANCH  15  18
ENDBRANCH   1  12
BRANCH   2  20
ATOM     20  O   UNL     1       1.643   2.518  -8.488  1.00  0.00    -0.502 OA
ATOM     21  H   UNL     1       1.415   2.979  -9.360  1.00  0.00     0.293 HD
ENDBRANCH   2  20
BRANCH   6  22
ATOM     22  O   UNL     1      -3.380   0.752  -8.364  1.00  0.00    -0.507 OA
ATOM     23  H   UNL     1      -4.259   1.072  -7.985  1.00  0.00     0.293 HD
ENDBRANCH   6  22
BRANCH   8  24
ATOM     24  O   UNL     1      -2.781  -3.315  -5.881  1.00  0.00    -0.508 OA
ATOM     25  H   UNL     1      -2.689  -4.233  -6.301  1.00  0.00     0.293 HD
ENDBRANCH   8  24
TORSDOF 5
ENDMDL
MODEL 9
REMARK VINA RESULT:    -4.960      6.494     10.135
REMARK INTER + INTRA:          -5.727
REMARK INTER:                  -5.430
REMARK INTRA:                  -0.296
REMARK UNBOUND:                 0.103
REMARK SMILES O=c1c(O)c(-c2ccc(O)cc2)oc2cc(O)cc(O)c12
REMARK SMILES IDX 5 1 3 2 2 3 1 4 21 5 19 6 18 7 16 8 15 9 14 10 13 11 6 12
REMARK SMILES IDX 7 13 8 14 9 15 12 16 11 17 10 18 4 20 20 22 17 24
REMARK H PARENT 10 19 4 21 20 23 17 25
REMARK Flexibility Score: inf
ROOT
ATOM      1  C   UNL     1       6.526   2.021 -11.712  1.00  0.00     0.180 A 
ATOM      2  C   UNL     1       7.187   3.224 -11.413  1.00  0.00     0.208 A 
ATOM      3  C   UNL     1       7.899   3.880 -12.430  1.00  0.00     0.238 A 
ATOM      4  O   UNL     1       8.444   4.985 -12.170  1.00  0.00    -0.285 OA
ATOM      5  C   UNL     1       7.956   3.316 -13.727  1.00  0.00     0.111 A 
ATOM      6  C   UNL     1       8.682   3.874 -14.823  1.00  0.00     0.134 A 
ATOM      7  C   UNL     1       8.561   3.301 -16.094  1.00  0.00     0.093 A 
ATOM      8  C   UNL     1       7.791   2.153 -16.297  1.00  0.00     0.123 A 
ATOM      9  C   UNL     1       7.127   1.567 -15.221  1.00  0.00     0.094 A 
ATOM     10  C   UNL     1       7.200   2.135 -13.948  1.00  0.00     0.146 A 
ATOM     11  O   UNL     1       6.543   1.551 -12.953  1.00  0.00    -0.452 OA
ENDROOT
BRANCH   1  12
ATOM     12  C   UNL     1       5.775   1.258 -10.687  1.00  0.00     0.021 A 
ATOM     13  C   UNL     1       4.384   1.422 -10.584  1.00  0.00     0.016 A 
ATOM     14  C   UNL     1       3.653   0.696  -9.639  1.00  0.00     0.047 A 
ATOM     15  C   UNL     1       4.299  -0.214  -8.797  1.00  0.00     0.115 A 
ATOM     16  C   UNL     1       6.418   0.327  -9.850  1.00  0.00     0.016 A 
ATOM     17  C   UNL     1       5.684  -0.399  -8.906  1.00  0.00     0.047 A 
BRANCH  15  18
ATOM     18  O   UNL     1       3.559  -0.929  -7.859  1.00  0.00    -0.508 OA
ATOM     19  H   UNL     1       2.748  -1.475  -8.129  1.00  0.00     0.293 HD
ENDBRANCH  15  18
ENDBRANCH   1  12
BRANCH   2  20
ATOM     20  O   UNL     1       7.100   3.775 -10.132  1.00  0.00    -0.502 OA
ATOM     21  H   UNL     1       6.335   4.376  -9.849  1.00  0.00     0.293 HD
ENDBRANCH   2  20
BRANCH   6  22
ATOM     22  O   UNL     1       9.550   4.964 -14.709  1.00  0.00    -0.507 OA
ATOM     23  H   UNL     1       9.285   5.927 -14.851  1.00  0.00     0.293 HD
ENDBRANCH   6  22
BRANCH   8  24
ATOM     24  O   UNL     1       7.688   1.579 -17.563  1.00  0.00    -0.508 OA
ATOM     25  H   UNL     1       7.670   2.148 -18.402  1.00  0.00     0.293 HD
ENDBRANCH   8  24
TORSDOF 5
ENDMDL
