MODEL 1
REMARK VINA RESULT:    -4.694      0.000      0.000
REMARK INTER + INTRA:          -8.190
REMARK INTER:                  -7.438
REMARK INTRA:                  -0.752
REMARK UNBOUND:                -0.752
REMARK SMILES CCCCCCCCCCCC(=O)[O-]
REMARK SMILES IDX 7 1 8 2 9 3 10 4 11 5 12 6 13 7 14 8 6 9 5 10 4 11 3 12 2 13
REMARK SMILES IDX 1 14
REMARK H PARENT
REMARK Flexibility Score: inf
ROOT
ATOM      1  C   UNL     1      -4.125  -0.867  28.037  1.00  0.00     0.000 C 
ENDROOT
BRANCH   1   2
ATOM      2  C   UNL     1      -3.169  -0.169  29.019  1.00  0.00     0.000 C 
BRANCH   2   3
ATOM      3  C   UNL     1      -1.836   0.244  28.367  1.00  0.00     0.000 C 
BRANCH   3   4
ATOM      4  C   UNL     1      -1.461  -0.533  27.088  1.00  0.00     0.006 C 
BRANCH   4   5
ATOM      5  C   UNL     1      -0.175  -1.367  27.201  1.00  0.00     0.053 C 
BRANCH   5   6
ATOM      6  C   UNL     1      -0.223  -2.317  28.359  1.00  0.00     0.041 C 
ATOM      7  O   UNL     1       0.715  -2.339  29.198  1.00  0.00    -0.550 OA
ATOM      8  O   UNL     1      -1.287  -3.201  28.491  1.00  0.00    -0.550 OA
ENDBRANCH   5   6
ENDBRANCH   4   5
ENDBRANCH   3   4
ENDBRANCH   2   3
ENDBRANCH   1   2
BRANCH   1   9
ATOM      9  C   UNL     1      -5.243  -1.641  28.753  1.00  0.00     0.000 C 
BRANCH   9  10
ATOM     10  C   UNL     1      -4.705  -2.753  29.666  1.00  0.00    -0.000 C 
BRANCH  10  11
ATOM     11  C   UNL     1      -5.634  -3.973  29.649  1.00  0.00    -0.000 C 
BRANCH  11  12
ATOM     12  C   UNL     1      -5.982  -4.382  28.212  1.00  0.00    -0.000 C 
BRANCH  12  13
ATOM     13  C   UNL     1      -5.304  -5.705  27.837  1.00  0.00    -0.003 C 
ATOM     14  C   UNL     1      -5.973  -6.885  28.536  1.00  0.00     0.004 C 
ENDBRANCH  12  13
ENDBRANCH  11  12
ENDBRANCH  10  11
ENDBRANCH   9  10
ENDBRANCH   1   9
TORSDOF 10
ENDMDL
MODEL 2
REMARK VINA RESULT:    -4.610      1.388      2.168
REMARK INTER + INTRA:          -8.057
REMARK INTER:                  -6.895
REMARK INTRA:                  -1.163
REMARK UNBOUND:                -0.752
REMARK SMILES CCCCCCCCCCCC(=O)[O-]
REMARK SMILES IDX 7 1 8 2 9 3 10 4 11 5 12 6 13 7 14 8 6 9 5 10 4 11 3 12 2 13
REMARK SMILES IDX 1 14
REMARK H PARENT
REMARK Flexibility Score: inf
ROOT
ATOM      1  C   UNL     1      -3.996  -0.897  27.949  1.00  0.00     0.000 C 
ENDROOT
BRANCH   1   2
ATOM      2  C   UNL     1      -2.981  -0.363  28.973  1.00  0.00     0.000 C 
BRANCH   2   3
ATOM      3  C   UNL     1      -1.679   0.140  28.321  1.00  0.00     0.000 C 
BRANCH   3   4
ATOM      4  C   UNL     1      -1.392  -0.419  26.912  1.00  0.00     0.006 C 
BRANCH   4   5
ATOM      5  C   UNL     1      -0.211  -1.400  26.843  1.00  0.00     0.053 C 
BRANCH   5   6
ATOM      6  C   UNL     1       0.924  -0.976  27.726  1.00  0.00     0.041 C 
ATOM      7  O   UNL     1       1.229  -1.662  28.736  1.00  0.00    -0.550 OA
ATOM      8  O   UNL     1       1.620   0.194  27.451  1.00  0.00    -0.550 OA
ENDBRANCH   5   6
ENDBRANCH   4   5
ENDBRANCH   3   4
ENDBRANCH   2   3
ENDBRANCH   1   2
BRANCH   1   9
ATOM      9  C   UNL     1      -5.349  -1.250  28.589  1.00  0.00     0.000 C 
BRANCH   9  10
ATOM     10  C   UNL     1      -5.315  -2.580  29.355  1.00  0.00    -0.000 C 
BRANCH  10  11
ATOM     11  C   UNL     1      -5.509  -3.766  28.402  1.00  0.00    -0.000 C 
BRANCH  11  12
ATOM     12  C   UNL     1      -4.241  -4.626  28.325  1.00  0.00    -0.000 C 
BRANCH  12  13
ATOM     13  C   UNL     1      -3.228  -4.208  29.396  1.00  0.00    -0.003 C 
ATOM     14  C   UNL     1      -1.849  -3.967  28.788  1.00  0.00     0.004 C 
ENDBRANCH  12  13
ENDBRANCH  11  12
ENDBRANCH  10  11
ENDBRANCH   9  10
ENDBRANCH   1   9
TORSDOF 10
ENDMDL
MODEL 3
REMARK VINA RESULT:    -4.569      1.333      2.028
REMARK INTER + INTRA:          -7.993
REMARK INTER:                  -7.112
REMARK INTRA:                  -0.881
REMARK UNBOUND:                -0.752
REMARK SMILES CCCCCCCCCCCC(=O)[O-]
REMARK SMILES IDX 7 1 8 2 9 3 10 4 11 5 12 6 13 7 14 8 6 9 5 10 4 11 3 12 2 13
REMARK SMILES IDX 1 14
REMARK H PARENT
REMARK Flexibility Score: inf
ROOT
ATOM      1  C   UNL     1      -4.412   1.251  29.736  1.00  0.00     0.000 C 
ENDROOT
BRANCH   1   2
ATOM      2  C   UNL     1      -2.991   0.683  29.586  1.00  0.00     0.000 C 
BRANCH   2   3
ATOM      3  C   UNL     1      -2.016   1.675  28.924  1.00  0.00     0.000 C 
BRANCH   3   4
ATOM      4  C   UNL     1      -1.070   1.063  27.870  1.00  0.00     0.006 C 
BRANCH   4   5
ATOM      5  C   UNL     1      -1.569  -0.252  27.250  1.00  0.00     0.053 C 
BRANCH   5   6
ATOM      6  C   UNL     1      -0.669  -1.404  27.577  1.00  0.00     0.041 C 
ATOM      7  O   UNL     1      -1.075  -2.332  28.323  1.00  0.00    -0.550 OA
ATOM      8  O   UNL     1       0.630  -1.434  27.084  1.00  0.00    -0.550 OA
ENDBRANCH   5   6
ENDBRANCH   4   5
ENDBRANCH   3   4
ENDBRANCH   2   3
ENDBRANCH   1   2
BRANCH   1   9
ATOM      9  C   UNL     1      -5.490   0.287  29.217  1.00  0.00     0.000 C 
BRANCH   9  10
ATOM     10  C   UNL     1      -4.899  -0.926  28.484  1.00  0.00    -0.000 C 
BRANCH  10  11
ATOM     11  C   UNL     1      -5.521  -2.232  28.994  1.00  0.00    -0.000 C 
BRANCH  11  12
ATOM     12  C   UNL     1      -4.460  -3.132  29.639  1.00  0.00    -0.000 C 
BRANCH  12  13
ATOM     13  C   UNL     1      -4.149  -4.340  28.748  1.00  0.00    -0.003 C 
ATOM     14  C   UNL     1      -5.424  -5.084  28.362  1.00  0.00     0.004 C 
ENDBRANCH  12  13
ENDBRANCH  11  12
ENDBRANCH  10  11
ENDBRANCH   9  10
ENDBRANCH   1   9
TORSDOF 10
ENDMDL
MODEL 4
REMARK VINA RESULT:    -4.545      1.812      5.604
REMARK INTER + INTRA:          -7.953
REMARK INTER:                  -7.093
REMARK INTRA:                  -0.860
REMARK UNBOUND:                -0.752
REMARK SMILES CCCCCCCCCCCC(=O)[O-]
REMARK SMILES IDX 7 1 8 2 9 3 10 4 11 5 12 6 13 7 14 8 6 9 5 10 4 11 3 12 2 13
REMARK SMILES IDX 1 14
REMARK H PARENT
REMARK Flexibility Score: inf
ROOT
ATOM      1  C   UNL     1      -2.889  -1.326  28.304  1.00  0.00     0.000 C 
ENDROOT
BRANCH   1   2
ATOM      2  C   UNL     1      -4.345  -1.026  27.911  1.00  0.00     0.000 C 
BRANCH   2   3
ATOM      3  C   UNL     1      -5.361  -1.500  28.966  1.00  0.00     0.000 C 
BRANCH   3   4
ATOM      4  C   UNL     1      -4.936  -2.742  29.777  1.00  0.00     0.006 C 
BRANCH   4   5
ATOM      5  C   UNL     1      -5.750  -4.010  29.477  1.00  0.00     0.053 C 
BRANCH   5   6
ATOM      6  C   UNL     1      -5.043  -4.917  28.517  1.00  0.00     0.041 C 
ATOM      7  O   UNL     1      -5.676  -5.832  27.928  1.00  0.00    -0.550 OA
ATOM      8  O   UNL     1      -3.679  -4.772  28.298  1.00  0.00    -0.550 OA
ENDBRANCH   5   6
ENDBRANCH   4   5
ENDBRANCH   3   4
ENDBRANCH   2   3
ENDBRANCH   1   2
BRANCH   1   9
ATOM      9  C   UNL     1      -1.935  -0.171  27.959  1.00  0.00     0.000 C 
BRANCH   9  10
ATOM     10  C   UNL     1      -1.068  -0.466  26.726  1.00  0.00    -0.000 C 
BRANCH  10  11
ATOM     11  C   UNL     1       0.124  -1.358  27.094  1.00  0.00    -0.000 C 
BRANCH  11  12
ATOM     12  C   UNL     1       0.838  -0.835  28.346  1.00  0.00    -0.000 C 
BRANCH  12  13
ATOM     13  C   UNL     1       1.234  -1.988  29.275  1.00  0.00    -0.003 C 
ATOM     14  C   UNL     1       0.265  -3.160  29.145  1.00  0.00     0.004 C 
ENDBRANCH  12  13
ENDBRANCH  11  12
ENDBRANCH  10  11
ENDBRANCH   9  10
ENDBRANCH   1   9
TORSDOF 10
ENDMDL
MODEL 5
REMARK VINA RESULT:    -4.519      2.660      3.402
REMARK INTER + INTRA:          -7.913
REMARK INTER:                  -6.977
REMARK INTRA:                  -0.936
REMARK UNBOUND:                -0.752
REMARK SMILES CCCCCCCCCCCC(=O)[O-]
REMARK SMILES IDX 7 1 8 2 9 3 10 4 11 5 12 6 13 7 14 8 6 9 5 10 4 11 3 12 2 13
REMARK SMILES IDX 1 14
REMARK H PARENT
REMARK Flexibility Score: inf
ROOT
ATOM      1  C   UNL     1      -2.850  -0.616  28.672  1.00  0.00     0.000 C 
ENDROOT
BRANCH   1   2
ATOM      2  C   UNL     1      -1.657  -1.265  27.951  1.00  0.00     0.000 C 
BRANCH   2   3
ATOM      3  C   UNL     1      -1.113  -0.404  26.796  1.00  0.00     0.000 C 
BRANCH   3   4
ATOM      4  C   UNL     1      -0.219   0.779  27.223  1.00  0.00     0.006 C 
BRANCH   4   5
ATOM      5  C   UNL     1      -0.861   2.163  27.042  1.00  0.00     0.053 C 
BRANCH   5   6
ATOM      6  C   UNL     1      -0.984   2.899  28.342  1.00  0.00     0.041 C 
ATOM      7  O   UNL     1      -2.054   2.839  29.002  1.00  0.00    -0.550 OA
ATOM      8  O   UNL     1       0.069   3.676  28.805  1.00  0.00    -0.550 OA
ENDBRANCH   5   6
ENDBRANCH   4   5
ENDBRANCH   3   4
ENDBRANCH   2   3
ENDBRANCH   1   2
BRANCH   1   9
ATOM      9  C   UNL     1      -4.183  -0.867  27.949  1.00  0.00     0.000 C 
BRANCH   9  10
ATOM     10  C   UNL     1      -5.349  -1.106  28.919  1.00  0.00    -0.000 C 
BRANCH  10  11
ATOM     11  C   UNL     1      -5.346  -2.549  29.436  1.00  0.00    -0.000 C 
BRANCH  11  12
ATOM     12  C   UNL     1      -5.623  -3.542  28.300  1.00  0.00    -0.000 C 
BRANCH  12  13
ATOM     13  C   UNL     1      -4.705  -4.765  28.402  1.00  0.00    -0.003 C 
ATOM     14  C   UNL     1      -3.323  -4.376  28.920  1.00  0.00     0.004 C 
ENDBRANCH  12  13
ENDBRANCH  11  12
ENDBRANCH  10  11
ENDBRANCH   9  10
ENDBRANCH   1   9
TORSDOF 10
ENDMDL
MODEL 6
REMARK VINA RESULT:    -4.500      2.141      6.028
REMARK INTER + INTRA:          -7.883
REMARK INTER:                  -6.794
REMARK INTRA:                  -1.089
REMARK UNBOUND:                -0.752
REMARK SMILES CCCCCCCCCCCC(=O)[O-]
REMARK SMILES IDX 7 1 8 2 9 3 10 4 11 5 12 6 13 7 14 8 6 9 5 10 4 11 3 12 2 13
REMARK SMILES IDX 1 14
REMARK H PARENT
REMARK Flexibility Score: inf
ROOT
ATOM      1  C   UNL     1      -2.561  -1.672  28.572  1.00  0.00     0.000 C 
ENDROOT
BRANCH   1   2
ATOM      2  C   UNL     1      -3.673  -0.871  27.874  1.00  0.00     0.000 C 
BRANCH   2   3
ATOM      3  C   UNL     1      -5.059  -1.090  28.510  1.00  0.00     0.000 C 
BRANCH   3   4
ATOM      4  C   UNL     1      -5.265  -2.464  29.179  1.00  0.00     0.006 C 
BRANCH   4   5
ATOM      5  C   UNL     1      -5.904  -3.528  28.272  1.00  0.00     0.053 C 
BRANCH   5   6
ATOM      6  C   UNL     1      -5.159  -4.827  28.321  1.00  0.00     0.041 C 
ATOM      7  O   UNL     1      -3.903  -4.840  28.234  1.00  0.00    -0.550 OA
ATOM      8  O   UNL     1      -5.854  -6.025  28.427  1.00  0.00    -0.550 OA
ENDBRANCH   5   6
ENDBRANCH   4   5
ENDBRANCH   3   4
ENDBRANCH   2   3
ENDBRANCH   1   2
BRANCH   1   9
ATOM      9  C   UNL     1      -1.167  -1.363  28.003  1.00  0.00     0.000 C 
BRANCH   9  10
ATOM     10  C   UNL     1      -1.209  -0.367  26.835  1.00  0.00    -0.000 C 
BRANCH  10  11
ATOM     11  C   UNL     1      -0.327   0.855  27.123  1.00  0.00    -0.000 C 
BRANCH  11  12
ATOM     12  C   UNL     1      -1.177   2.061  27.542  1.00  0.00    -0.000 C 
BRANCH  12  13
ATOM     13  C   UNL     1      -1.173   2.235  29.064  1.00  0.00    -0.003 C 
ATOM     14  C   UNL     1      -2.585   2.138  29.635  1.00  0.00     0.004 C 
ENDBRANCH  12  13
ENDBRANCH  11  12
ENDBRANCH  10  11
ENDBRANCH   9  10
ENDBRANCH   1   9
TORSDOF 10
ENDMDL
MODEL 7
REMARK VINA RESULT:    -4.463      2.912      3.489
REMARK INTER + INTRA:          -7.825
REMARK INTER:                  -7.326
REMARK INTRA:                  -0.499
REMARK UNBOUND:                -0.752
REMARK SMILES CCCCCCCCCCCC(=O)[O-]
REMARK SMILES IDX 7 1 8 2 9 3 10 4 11 5 12 6 13 7 14 8 6 9 5 10 4 11 3 12 2 13
REMARK SMILES IDX 1 14
REMARK H PARENT
REMARK Flexibility Score: inf
ROOT
ATOM      1  C   UNL     1      -2.899  -0.491  28.682  1.00  0.00     0.000 C 
ENDROOT
BRANCH   1   2
ATOM      2  C   UNL     1      -1.675  -1.207  28.087  1.00  0.00     0.000 C 
BRANCH   2   3
ATOM      3  C   UNL     1      -1.105  -0.491  26.848  1.00  0.00     0.000 C 
BRANCH   3   4
ATOM      4  C   UNL     1      -0.108   0.647  27.147  1.00  0.00     0.006 C 
BRANCH   4   5
ATOM      5  C   UNL     1      -0.679   2.062  26.962  1.00  0.00     0.053 C 
BRANCH   5   6
ATOM      6  C   UNL     1       0.279   2.964  26.245  1.00  0.00     0.041 C 
ATOM      7  O   UNL     1      -0.049   3.494  25.152  1.00  0.00    -0.550 OA
ATOM      8  O   UNL     1       1.546   3.191  26.768  1.00  0.00    -0.550 OA
ENDBRANCH   5   6
ENDBRANCH   4   5
ENDBRANCH   3   4
ENDBRANCH   2   3
ENDBRANCH   1   2
BRANCH   1   9
ATOM      9  C   UNL     1      -4.207  -0.869  27.970  1.00  0.00     0.000 C 
BRANCH   9  10
ATOM     10  C   UNL     1      -5.344  -1.199  28.949  1.00  0.00    -0.000 C 
BRANCH  10  11
ATOM     11  C   UNL     1      -5.214  -2.633  29.476  1.00  0.00    -0.000 C 
BRANCH  11  12
ATOM     12  C   UNL     1      -5.827  -3.639  28.493  1.00  0.00    -0.000 C 
BRANCH  12  13
ATOM     13  C   UNL     1      -4.960  -4.899  28.384  1.00  0.00    -0.003 C 
ATOM     14  C   UNL     1      -5.813  -6.132  28.097  1.00  0.00     0.004 C 
ENDBRANCH  12  13
ENDBRANCH  11  12
ENDBRANCH  10  11
ENDBRANCH   9  10
ENDBRANCH   1   9
TORSDOF 10
ENDMDL
MODEL 8
REMARK VINA RESULT:    -4.415      1.449      4.108
REMARK INTER + INTRA:          -7.748
REMARK INTER:                  -6.504
REMARK INTRA:                  -1.244
REMARK UNBOUND:                -0.752
REMARK SMILES CCCCCCCCCCCC(=O)[O-]
REMARK SMILES IDX 7 1 8 2 9 3 10 4 11 5 12 6 13 7 14 8 6 9 5 10 4 11 3 12 2 13
REMARK SMILES IDX 1 14
REMARK H PARENT
REMARK Flexibility Score: inf
ROOT
ATOM      1  C   UNL     1      -5.099  -3.995  28.575  1.00  0.00     0.000 C 
ENDROOT
BRANCH   1   2
ATOM      2  C   UNL     1      -3.740  -4.677  28.346  1.00  0.00     0.000 C 
BRANCH   2   3
ATOM      3  C   UNL     1      -2.636  -4.143  29.277  1.00  0.00     0.000 C 
BRANCH   3   4
ATOM      4  C   UNL     1      -1.417  -3.522  28.564  1.00  0.00     0.006 C 
BRANCH   4   5
ATOM      5  C   UNL     1      -0.144  -3.446  29.422  1.00  0.00     0.053 C 
BRANCH   5   6
ATOM      6  C   UNL     1       0.886  -2.542  28.818  1.00  0.00     0.041 C 
ATOM      7  O   UNL     1       1.807  -2.066  29.532  1.00  0.00    -0.550 OA
ATOM      8  O   UNL     1       0.809  -2.198  27.474  1.00  0.00    -0.550 OA
ENDBRANCH   5   6
ENDBRANCH   4   5
ENDBRANCH   3   4
ENDBRANCH   2   3
ENDBRANCH   1   2
BRANCH   1   9
ATOM      9  C   UNL     1      -5.022  -2.861  29.609  1.00  0.00     0.000 C 
BRANCH   9  10
ATOM     10  C   UNL     1      -5.387  -1.491  29.018  1.00  0.00    -0.000 C 
BRANCH  10  11
ATOM     11  C   UNL     1      -4.221  -0.917  28.204  1.00  0.00    -0.000 C 
BRANCH  11  12
ATOM     12  C   UNL     1      -3.339  -0.008  29.070  1.00  0.00    -0.000 C 
BRANCH  12  13
ATOM     13  C   UNL     1      -1.909   0.055  28.522  1.00  0.00    -0.003 C 
ATOM     14  C   UNL     1      -1.881  -0.213  27.020  1.00  0.00     0.004 C 
ENDBRANCH  12  13
ENDBRANCH  11  12
ENDBRANCH  10  11
ENDBRANCH   9  10
ENDBRANCH   1   9
TORSDOF 10
ENDMDL
MODEL 9
REMARK VINA RESULT:    -4.388      1.833      3.831
REMARK INTER + INTRA:          -7.706
REMARK INTER:                  -6.863
REMARK INTRA:                  -0.842
REMARK UNBOUND:                -0.752
REMARK SMILES CCCCCCCCCCCC(=O)[O-]
REMARK SMILES IDX 7 1 8 2 9 3 10 4 11 5 12 6 13 7 14 8 6 9 5 10 4 11 3 12 2 13
REMARK SMILES IDX 1 14
REMARK H PARENT
REMARK Flexibility Score: inf
ROOT
ATOM      1  C   UNL     1      -3.484  -4.505  28.276  1.00  0.00     0.000 C 
ENDROOT
BRANCH   1   2
ATOM      2  C   UNL     1      -2.355  -4.234  29.284  1.00  0.00     0.000 C 
BRANCH   2   3
ATOM      3  C   UNL     1      -1.220  -3.373  28.697  1.00  0.00     0.000 C 
BRANCH   3   4
ATOM      4  C   UNL     1      -1.592  -1.905  28.407  1.00  0.00     0.006 C 
BRANCH   4   5
ATOM      5  C   UNL     1      -0.623  -1.175  27.462  1.00  0.00     0.053 C 
BRANCH   5   6
ATOM      6  C   UNL     1       0.715  -0.946  28.097  1.00  0.00     0.041 C 
ATOM      7  O   UNL     1       0.789  -0.502  29.273  1.00  0.00    -0.550 OA
ATOM      8  O   UNL     1       1.878  -1.191  27.379  1.00  0.00    -0.550 OA
ENDBRANCH   5   6
ENDBRANCH   4   5
ENDBRANCH   3   4
ENDBRANCH   2   3
ENDBRANCH   1   2
BRANCH   1   9
ATOM      9  C   UNL     1      -4.874  -4.502  28.932  1.00  0.00     0.000 C 
BRANCH   9  10
ATOM     10  C   UNL     1      -5.693  -3.250  28.585  1.00  0.00    -0.000 C 
BRANCH  10  11
ATOM     11  C   UNL     1      -5.213  -2.039  29.395  1.00  0.00    -0.000 C 
BRANCH  11  12
ATOM     12  C   UNL     1      -5.151  -0.781  28.520  1.00  0.00    -0.000 C 
BRANCH  12  13
ATOM     13  C   UNL     1      -5.118   0.486  29.381  1.00  0.00    -0.003 C 
ATOM     14  C   UNL     1      -6.469   1.195  29.374  1.00  0.00     0.004 C 
ENDBRANCH  12  13
ENDBRANCH  11  12
ENDBRANCH  10  11
ENDBRANCH   9  10
ENDBRANCH   1   9
TORSDOF 10
ENDMDL
