MODEL 1
REMARK VINA RESULT:    -4.872      0.000      0.000
REMARK INTER + INTRA:          -9.347
REMARK INTER:                  -8.289
REMARK INTRA:                  -1.057
REMARK UNBOUND:                -1.057
REMARK SMILES CCCCCCCCCCCCCC(=O)[O-]
REMARK SMILES IDX 8 1 9 2 10 3 11 4 12 5 13 6 14 7 15 8 16 9 7 10 6 11 5 12
REMARK SMILES IDX 4 13 3 14 2 15 1 16
REMARK H PARENT
REMARK Flexibility Score: inf
ROOT
ATOM      1  C   UNL     1     -12.428 -12.789  15.025  1.00  0.00     0.000 C 
ENDROOT
BRANCH   1   2
ATOM      2  C   UNL     1     -11.175 -12.759  15.914  1.00  0.00     0.000 C 
BRANCH   2   3
ATOM      3  C   UNL     1     -10.016 -13.517  15.256  1.00  0.00     0.000 C 
BRANCH   3   4
ATOM      4  C   UNL     1      -9.398 -12.697  14.117  1.00  0.00     0.000 C 
BRANCH   4   5
ATOM      5  C   UNL     1      -9.251 -11.222  14.516  1.00  0.00     0.006 C 
BRANCH   5   6
ATOM      6  C   UNL     1      -8.060 -10.547  13.822  1.00  0.00     0.053 C 
BRANCH   6   7
ATOM      7  C   UNL     1      -6.772 -10.828  14.534  1.00  0.00     0.041 C 
ATOM      8  O   UNL     1      -5.691 -10.886  13.891  1.00  0.00    -0.550 OA
ATOM      9  O   UNL     1      -6.771 -11.055  15.904  1.00  0.00    -0.550 OA
ENDBRANCH   6   7
ENDBRANCH   5   6
ENDBRANCH   4   5
ENDBRANCH   3   4
ENDBRANCH   2   3
ENDBRANCH   1   2
BRANCH   1  10
ATOM     10  C   UNL     1     -12.940 -14.215  14.757  1.00  0.00     0.000 C 
BRANCH  10  11
ATOM     11  C   UNL     1     -13.880 -14.351  13.545  1.00  0.00    -0.000 C 
BRANCH  11  12
ATOM     12  C   UNL     1     -14.384 -12.998  13.022  1.00  0.00    -0.000 C 
BRANCH  12  13
ATOM     13  C   UNL     1     -15.917 -12.918  13.090  1.00  0.00    -0.000 C 
BRANCH  13  14
ATOM     14  C   UNL     1     -16.422 -12.541  14.499  1.00  0.00    -0.000 C 
BRANCH  14  15
ATOM     15  C   UNL     1     -16.777 -13.756  15.372  1.00  0.00    -0.003 C 
ATOM     16  C   UNL     1     -16.098 -13.730  16.740  1.00  0.00     0.004 C 
ENDBRANCH  14  15
ENDBRANCH  13  14
ENDBRANCH  12  13
ENDBRANCH  11  12
ENDBRANCH  10  11
ENDBRANCH   1  10
TORSDOF 12
ENDMDL
MODEL 2
REMARK VINA RESULT:    -4.845      0.885      1.560
REMARK INTER + INTRA:          -9.301
REMARK INTER:                  -8.231
REMARK INTRA:                  -1.070
REMARK UNBOUND:                -1.057
REMARK SMILES CCCCCCCCCCCCCC(=O)[O-]
REMARK SMILES IDX 8 1 9 2 10 3 11 4 12 5 13 6 14 7 15 8 16 9 7 10 6 11 5 12
REMARK SMILES IDX 4 13 3 14 2 15 1 16
REMARK H PARENT
REMARK Flexibility Score: inf
ROOT
ATOM      1  C   UNL     1     -12.651 -13.335  14.070  1.00  0.00     0.000 C 
ENDROOT
BRANCH   1   2
ATOM      2  C   UNL     1     -11.997 -13.227  15.455  1.00  0.00     0.000 C 
BRANCH   2   3
ATOM      3  C   UNL     1     -10.501 -13.558  15.383  1.00  0.00     0.000 C 
BRANCH   3   4
ATOM      4  C   UNL     1      -9.647 -12.305  15.611  1.00  0.00     0.000 C 
BRANCH   4   5
ATOM      5  C   UNL     1      -9.398 -11.561  14.292  1.00  0.00     0.006 C 
BRANCH   5   6
ATOM      6  C   UNL     1      -8.300 -10.496  14.423  1.00  0.00     0.053 C 
BRANCH   6   7
ATOM      7  C   UNL     1      -7.017 -11.083  14.925  1.00  0.00     0.041 C 
ATOM      8  O   UNL     1      -6.704 -10.977  16.140  1.00  0.00    -0.550 OA
ATOM      9  O   UNL     1      -6.152 -11.719  14.045  1.00  0.00    -0.550 OA
ENDBRANCH   6   7
ENDBRANCH   5   6
ENDBRANCH   4   5
ENDBRANCH   3   4
ENDBRANCH   2   3
ENDBRANCH   1   2
BRANCH   1  10
ATOM     10  C   UNL     1     -13.053 -11.968  13.487  1.00  0.00     0.000 C 
BRANCH  10  11
ATOM     11  C   UNL     1     -14.418 -11.940  12.775  1.00  0.00    -0.000 C 
BRANCH  11  12
ATOM     12  C   UNL     1     -15.350 -13.077  13.221  1.00  0.00    -0.000 C 
BRANCH  12  13
ATOM     13  C   UNL     1     -16.281 -12.614  14.352  1.00  0.00    -0.000 C 
BRANCH  13  14
ATOM     14  C   UNL     1     -16.739 -13.784  15.248  1.00  0.00    -0.000 C 
BRANCH  14  15
ATOM     15  C   UNL     1     -16.064 -13.802  16.630  1.00  0.00    -0.003 C 
ATOM     16  C   UNL     1     -15.200 -12.570  16.891  1.00  0.00     0.004 C 
ENDBRANCH  14  15
ENDBRANCH  13  14
ENDBRANCH  12  13
ENDBRANCH  11  12
ENDBRANCH  10  11
ENDBRANCH   1  10
TORSDOF 12
ENDMDL
MODEL 3
REMARK VINA RESULT:    -4.674      1.060      2.311
REMARK INTER + INTRA:          -9.010
REMARK INTER:                  -7.840
REMARK INTRA:                  -1.170
REMARK UNBOUND:                -1.057
REMARK SMILES CCCCCCCCCCCCCC(=O)[O-]
REMARK SMILES IDX 8 1 9 2 10 3 11 4 12 5 13 6 14 7 15 8 16 9 7 10 6 11 5 12
REMARK SMILES IDX 4 13 3 14 2 15 1 16
REMARK H PARENT
REMARK Flexibility Score: inf
ROOT
ATOM      1  C   UNL     1     -13.146 -12.115  14.612  1.00  0.00     0.000 C 
ENDROOT
BRANCH   1   2
ATOM      2  C   UNL     1     -11.747 -12.591  14.191  1.00  0.00     0.000 C 
BRANCH   2   3
ATOM      3  C   UNL     1     -11.140 -13.519  15.250  1.00  0.00     0.000 C 
BRANCH   3   4
ATOM      4  C   UNL     1      -9.674 -13.162  15.520  1.00  0.00     0.000 C 
BRANCH   4   5
ATOM      5  C   UNL     1      -9.229 -11.972  14.658  1.00  0.00     0.006 C 
BRANCH   5   6
ATOM      6  C   UNL     1      -7.948 -12.274  13.868  1.00  0.00     0.053 C 
BRANCH   6   7
ATOM      7  C   UNL     1      -6.770 -11.529  14.416  1.00  0.00     0.041 C 
ATOM      8  O   UNL     1      -6.866 -10.904  15.505  1.00  0.00    -0.550 OA
ATOM      9  O   UNL     1      -5.576 -11.501  13.709  1.00  0.00    -0.550 OA
ENDBRANCH   6   7
ENDBRANCH   5   6
ENDBRANCH   4   5
ENDBRANCH   3   4
ENDBRANCH   2   3
ENDBRANCH   1   2
BRANCH   1  10
ATOM     10  C   UNL     1     -13.666 -12.824  15.876  1.00  0.00     0.000 C 
BRANCH  10  11
ATOM     11  C   UNL     1     -15.037 -12.334  16.378  1.00  0.00    -0.000 C 
BRANCH  11  12
ATOM     12  C   UNL     1     -16.021 -13.481  16.649  1.00  0.00    -0.000 C 
BRANCH  12  13
ATOM     13  C   UNL     1     -16.575 -14.053  15.335  1.00  0.00    -0.000 C 
BRANCH  13  14
ATOM     14  C   UNL     1     -16.835 -12.954  14.283  1.00  0.00    -0.000 C 
BRANCH  14  15
ATOM     15  C   UNL     1     -16.307 -13.305  12.882  1.00  0.00    -0.003 C 
ATOM     16  C   UNL     1     -15.284 -14.439  12.894  1.00  0.00     0.004 C 
ENDBRANCH  14  15
ENDBRANCH  13  14
ENDBRANCH  12  13
ENDBRANCH  11  12
ENDBRANCH  10  11
ENDBRANCH   1  10
TORSDOF 12
ENDMDL
MODEL 4
REMARK VINA RESULT:    -4.643      3.974      7.807
REMARK INTER + INTRA:          -8.958
REMARK INTER:                  -7.942
REMARK INTRA:                  -1.016
REMARK UNBOUND:                -1.057
REMARK SMILES CCCCCCCCCCCCCC(=O)[O-]
REMARK SMILES IDX 8 1 9 2 10 3 11 4 12 5 13 6 14 7 15 8 16 9 7 10 6 11 5 12
REMARK SMILES IDX 4 13 3 14 2 15 1 16
REMARK H PARENT
REMARK Flexibility Score: inf
ROOT
ATOM      1  C   UNL     1     -11.325 -14.427  14.994  1.00  0.00     0.000 C 
ENDROOT
BRANCH   1   2
ATOM      2  C   UNL     1     -12.781 -13.937  14.995  1.00  0.00     0.000 C 
BRANCH   2   3
ATOM      3  C   UNL     1     -13.556 -14.513  13.803  1.00  0.00     0.000 C 
BRANCH   3   4
ATOM      4  C   UNL     1     -14.367 -13.422  13.094  1.00  0.00     0.000 C 
BRANCH   4   5
ATOM      5  C   UNL     1     -14.969 -12.437  14.105  1.00  0.00     0.006 C 
BRANCH   5   6
ATOM      6  C   UNL     1     -16.493 -12.579  14.219  1.00  0.00     0.053 C 
BRANCH   6   7
ATOM      7  C   UNL     1     -16.879 -13.803  14.993  1.00  0.00     0.041 C 
ATOM      8  O   UNL     1     -16.540 -13.924  16.199  1.00  0.00    -0.550 OA
ATOM      9  O   UNL     1     -17.587 -14.822  14.371  1.00  0.00    -0.550 OA
ENDBRANCH   6   7
ENDBRANCH   5   6
ENDBRANCH   4   5
ENDBRANCH   3   4
ENDBRANCH   2   3
ENDBRANCH   1   2
BRANCH   1  10
ATOM     10  C   UNL     1     -10.402 -13.565  14.114  1.00  0.00     0.000 C 
BRANCH  10  11
ATOM     11  C   UNL     1     -10.729 -12.061  14.105  1.00  0.00    -0.000 C 
BRANCH  11  12
ATOM     12  C   UNL     1      -9.562 -11.191  14.592  1.00  0.00    -0.000 C 
BRANCH  12  13
ATOM     13  C   UNL     1      -8.570 -12.017  15.425  1.00  0.00    -0.000 C 
BRANCH  13  14
ATOM     14  C   UNL     1      -7.205 -11.312  15.577  1.00  0.00    -0.000 C 
BRANCH  14  15
ATOM     15  C   UNL     1      -6.749 -10.570  14.309  1.00  0.00    -0.003 C 
ATOM     16  C   UNL     1      -5.592 -11.262  13.593  1.00  0.00     0.004 C 
ENDBRANCH  14  15
ENDBRANCH  13  14
ENDBRANCH  12  13
ENDBRANCH  11  12
ENDBRANCH  10  11
ENDBRANCH   1  10
TORSDOF 12
ENDMDL
MODEL 5
REMARK VINA RESULT:    -4.634      1.665      2.820
REMARK INTER + INTRA:          -8.941
REMARK INTER:                  -7.847
REMARK INTRA:                  -1.094
REMARK UNBOUND:                -1.057
REMARK SMILES CCCCCCCCCCCCCC(=O)[O-]
REMARK SMILES IDX 8 1 9 2 10 3 11 4 12 5 13 6 14 7 15 8 16 9 7 10 6 11 5 12
REMARK SMILES IDX 4 13 3 14 2 15 1 16
REMARK H PARENT
REMARK Flexibility Score: inf
ROOT
ATOM      1  C   UNL     1     -13.762 -14.176  13.846  1.00  0.00     0.000 C 
ENDROOT
BRANCH   1   2
ATOM      2  C   UNL     1     -12.520 -14.271  14.745  1.00  0.00     0.000 C 
BRANCH   2   3
ATOM      3  C   UNL     1     -11.599 -13.063  14.539  1.00  0.00     0.000 C 
BRANCH   3   4
ATOM      4  C   UNL     1     -10.794 -12.761  15.809  1.00  0.00     0.000 C 
BRANCH   4   5
ATOM      5  C   UNL     1      -9.329 -13.190  15.647  1.00  0.00     0.006 C 
BRANCH   5   6
ATOM      6  C   UNL     1      -8.387 -11.991  15.471  1.00  0.00     0.053 C 
BRANCH   6   7
ATOM      7  C   UNL     1      -8.374 -11.501  14.055  1.00  0.00     0.041 C 
ATOM      8  O   UNL     1      -8.671 -10.305  13.795  1.00  0.00    -0.550 OA
ATOM      9  O   UNL     1      -8.063 -12.374  13.022  1.00  0.00    -0.550 OA
ENDBRANCH   6   7
ENDBRANCH   5   6
ENDBRANCH   4   5
ENDBRANCH   3   4
ENDBRANCH   2   3
ENDBRANCH   1   2
BRANCH   1  10
ATOM     10  C   UNL     1     -14.359 -12.758  13.794  1.00  0.00     0.000 C 
BRANCH  10  11
ATOM     11  C   UNL     1     -15.231 -12.375  15.004  1.00  0.00    -0.000 C 
BRANCH  11  12
ATOM     12  C   UNL     1     -16.200 -13.490  15.422  1.00  0.00    -0.000 C 
BRANCH  12  13
ATOM     13  C   UNL     1     -16.112 -13.758  16.932  1.00  0.00    -0.000 C 
BRANCH  13  14
ATOM     14  C   UNL     1     -15.016 -12.911  17.614  1.00  0.00    -0.000 C 
BRANCH  14  15
ATOM     15  C   UNL     1     -15.551 -11.991  18.725  1.00  0.00    -0.003 C 
ATOM     16  C   UNL     1     -16.821 -12.524  19.384  1.00  0.00     0.004 C 
ENDBRANCH  14  15
ENDBRANCH  13  14
ENDBRANCH  12  13
ENDBRANCH  11  12
ENDBRANCH  10  11
ENDBRANCH   1  10
TORSDOF 12
ENDMDL
MODEL 6
REMARK VINA RESULT:    -4.605      1.339      2.050
REMARK INTER + INTRA:          -8.893
REMARK INTER:                  -8.006
REMARK INTRA:                  -0.887
REMARK UNBOUND:                -1.057
REMARK SMILES CCCCCCCCCCCCCC(=O)[O-]
REMARK SMILES IDX 8 1 9 2 10 3 11 4 12 5 13 6 14 7 15 8 16 9 7 10 6 11 5 12
REMARK SMILES IDX 4 13 3 14 2 15 1 16
REMARK H PARENT
REMARK Flexibility Score: inf
ROOT
ATOM      1  C   UNL     1     -11.630 -12.366  14.074  1.00  0.00     0.000 C 
ENDROOT
BRANCH   1   2
ATOM      2  C   UNL     1     -10.644 -13.396  14.647  1.00  0.00     0.000 C 
BRANCH   2   3
ATOM      3  C   UNL     1     -10.002 -12.882  15.941  1.00  0.00     0.000 C 
BRANCH   3   4
ATOM      4  C   UNL     1      -8.473 -12.953  15.864  1.00  0.00     0.000 C 
BRANCH   4   5
ATOM      5  C   UNL     1      -7.860 -11.549  15.767  1.00  0.00     0.006 C 
BRANCH   5   6
ATOM      6  C   UNL     1      -7.861 -11.012  14.329  1.00  0.00     0.053 C 
BRANCH   6   7
ATOM      7  C   UNL     1      -6.470 -10.802  13.815  1.00  0.00     0.041 C 
ATOM      8  O   UNL     1      -5.669 -11.770  13.740  1.00  0.00    -0.550 OA
ATOM      9  O   UNL     1      -6.051  -9.531  13.447  1.00  0.00    -0.550 OA
ENDBRANCH   6   7
ENDBRANCH   5   6
ENDBRANCH   4   5
ENDBRANCH   3   4
ENDBRANCH   2   3
ENDBRANCH   1   2
BRANCH   1  10
ATOM     10  C   UNL     1     -13.068 -12.905  13.970  1.00  0.00     0.000 C 
BRANCH  10  11
ATOM     11  C   UNL     1     -13.446 -13.961  15.025  1.00  0.00    -0.000 C 
BRANCH  11  12
ATOM     12  C   UNL     1     -14.249 -13.377  16.196  1.00  0.00    -0.000 C 
BRANCH  12  13
ATOM     13  C   UNL     1     -15.530 -12.692  15.698  1.00  0.00    -0.000 C 
BRANCH  13  14
ATOM     14  C   UNL     1     -16.567 -13.705  15.168  1.00  0.00    -0.000 C 
BRANCH  14  15
ATOM     15  C   UNL     1     -17.274 -13.247  13.881  1.00  0.00    -0.003 C 
ATOM     16  C   UNL     1     -17.412 -14.360  12.844  1.00  0.00     0.004 C 
ENDBRANCH  14  15
ENDBRANCH  13  14
ENDBRANCH  12  13
ENDBRANCH  11  12
ENDBRANCH  10  11
ENDBRANCH   1  10
TORSDOF 12
ENDMDL
MODEL 7
REMARK VINA RESULT:    -4.580      4.010      7.905
REMARK INTER + INTRA:          -8.849
REMARK INTER:                  -8.023
REMARK INTRA:                  -0.826
REMARK UNBOUND:                -1.057
REMARK SMILES CCCCCCCCCCCCCC(=O)[O-]
REMARK SMILES IDX 8 1 9 2 10 3 11 4 12 5 13 6 14 7 15 8 16 9 7 10 6 11 5 12
REMARK SMILES IDX 4 13 3 14 2 15 1 16
REMARK H PARENT
REMARK Flexibility Score: inf
ROOT
ATOM      1  C   UNL     1     -12.315 -13.789  14.827  1.00  0.00     0.000 C 
ENDROOT
BRANCH   1   2
ATOM      2  C   UNL     1     -12.982 -13.117  16.037  1.00  0.00     0.000 C 
BRANCH   2   3
ATOM      3  C   UNL     1     -14.205 -12.298  15.605  1.00  0.00     0.000 C 
BRANCH   3   4
ATOM      4  C   UNL     1     -15.440 -12.673  16.431  1.00  0.00     0.000 C 
BRANCH   4   5
ATOM      5  C   UNL     1     -16.226 -13.809  15.762  1.00  0.00     0.006 C 
BRANCH   5   6
ATOM      6  C   UNL     1     -16.990 -13.335  14.518  1.00  0.00     0.053 C 
BRANCH   6   7
ATOM      7  C   UNL     1     -16.669 -14.172  13.318  1.00  0.00     0.041 C 
ATOM      8  O   UNL     1     -17.594 -14.626  12.595  1.00  0.00    -0.550 OA
ATOM      9  O   UNL     1     -15.348 -14.477  13.017  1.00  0.00    -0.550 OA
ENDBRANCH   6   7
ENDBRANCH   5   6
ENDBRANCH   4   5
ENDBRANCH   3   4
ENDBRANCH   2   3
ENDBRANCH   1   2
BRANCH   1  10
ATOM     10  C   UNL     1     -10.779 -13.702  14.863  1.00  0.00     0.000 C 
BRANCH  10  11
ATOM     11  C   UNL     1     -10.207 -12.731  15.913  1.00  0.00    -0.000 C 
BRANCH  11  12
ATOM     12  C   UNL     1      -8.707 -12.460  15.724  1.00  0.00    -0.000 C 
BRANCH  12  13
ATOM     13  C   UNL     1      -8.476 -11.127  14.995  1.00  0.00    -0.000 C 
BRANCH  13  14
ATOM     14  C   UNL     1      -8.196 -11.324  13.490  1.00  0.00    -0.000 C 
BRANCH  14  15
ATOM     15  C   UNL     1      -6.892 -12.086  13.201  1.00  0.00    -0.003 C 
ATOM     16  C   UNL     1      -5.649 -11.364  13.717  1.00  0.00     0.004 C 
ENDBRANCH  14  15
ENDBRANCH  13  14
ENDBRANCH  12  13
ENDBRANCH  11  12
ENDBRANCH  10  11
ENDBRANCH   1  10
TORSDOF 12
ENDMDL
MODEL 8
REMARK VINA RESULT:    -4.577      3.250      7.230
REMARK INTER + INTRA:          -8.845
REMARK INTER:                  -7.940
REMARK INTRA:                  -0.905
REMARK UNBOUND:                -1.057
REMARK SMILES CCCCCCCCCCCCCC(=O)[O-]
REMARK SMILES IDX 8 1 9 2 10 3 11 4 12 5 13 6 14 7 15 8 16 9 7 10 6 11 5 12
REMARK SMILES IDX 4 13 3 14 2 15 1 16
REMARK H PARENT
REMARK Flexibility Score: inf
ROOT
ATOM      1  C   UNL     1     -10.644 -13.860  14.382  1.00  0.00     0.000 C 
ENDROOT
BRANCH   1   2
ATOM      2  C   UNL     1     -12.021 -14.434  14.748  1.00  0.00     0.000 C 
BRANCH   2   3
ATOM      3  C   UNL     1     -12.811 -13.452  15.622  1.00  0.00     0.000 C 
BRANCH   3   4
ATOM      4  C   UNL     1     -14.297 -13.453  15.245  1.00  0.00     0.000 C 
BRANCH   4   5
ATOM      5  C   UNL     1     -14.489 -13.790  13.760  1.00  0.00     0.006 C 
BRANCH   5   6
ATOM      6  C   UNL     1     -15.385 -12.770  13.043  1.00  0.00     0.053 C 
BRANCH   6   7
ATOM      7  C   UNL     1     -14.584 -11.826  12.199  1.00  0.00     0.041 C 
ATOM      8  O   UNL     1     -13.551 -11.279  12.666  1.00  0.00    -0.550 OA
ATOM      9  O   UNL     1     -14.998 -11.528  10.908  1.00  0.00    -0.550 OA
ENDBRANCH   6   7
ENDBRANCH   5   6
ENDBRANCH   4   5
ENDBRANCH   3   4
ENDBRANCH   2   3
ENDBRANCH   1   2
BRANCH   1  10
ATOM     10  C   UNL     1      -9.804 -13.480  15.615  1.00  0.00     0.000 C 
BRANCH  10  11
ATOM     11  C   UNL     1      -9.065 -12.133  15.509  1.00  0.00    -0.000 C 
BRANCH  11  12
ATOM     12  C   UNL     1      -9.369 -11.384  14.204  1.00  0.00    -0.000 C 
BRANCH  12  13
ATOM     13  C   UNL     1      -8.257 -11.608  13.168  1.00  0.00    -0.000 C 
BRANCH  13  14
ATOM     14  C   UNL     1      -7.039 -12.344  13.767  1.00  0.00    -0.000 C 
BRANCH  14  15
ATOM     15  C   UNL     1      -5.746 -11.512  13.748  1.00  0.00    -0.003 C 
ATOM     16  C   UNL     1      -6.003 -10.007  13.726  1.00  0.00     0.004 C 
ENDBRANCH  14  15
ENDBRANCH  13  14
ENDBRANCH  12  13
ENDBRANCH  11  12
ENDBRANCH  10  11
ENDBRANCH   1  10
TORSDOF 12
ENDMDL
MODEL 9
REMARK VINA RESULT:    -4.506      3.169      7.076
REMARK INTER + INTRA:          -8.724
REMARK INTER:                  -7.490
REMARK INTRA:                  -1.234
REMARK UNBOUND:                -1.057
REMARK SMILES CCCCCCCCCCCCCC(=O)[O-]
REMARK SMILES IDX 8 1 9 2 10 3 11 4 12 5 13 6 14 7 15 8 16 9 7 10 6 11 5 12
REMARK SMILES IDX 4 13 3 14 2 15 1 16
REMARK H PARENT
REMARK Flexibility Score: inf
ROOT
ATOM      1  C   UNL     1     -12.442 -11.958  13.949  1.00  0.00     0.000 C 
ENDROOT
BRANCH   1   2
ATOM      2  C   UNL     1     -13.779 -11.665  13.251  1.00  0.00     0.000 C 
BRANCH   2   3
ATOM      3  C   UNL     1     -14.691 -12.898  13.272  1.00  0.00     0.000 C 
BRANCH   3   4
ATOM      4  C   UNL     1     -15.851 -12.709  14.256  1.00  0.00     0.000 C 
BRANCH   4   5
ATOM      5  C   UNL     1     -15.951 -13.897  15.224  1.00  0.00     0.006 C 
BRANCH   5   6
ATOM      6  C   UNL     1     -16.386 -13.465  16.631  1.00  0.00     0.053 C 
BRANCH   6   7
ATOM      7  C   UNL     1     -15.236 -12.927  17.426  1.00  0.00     0.041 C 
ATOM      8  O   UNL     1     -15.443 -12.148  18.393  1.00  0.00    -0.550 OA
ATOM      9  O   UNL     1     -13.934 -13.262  17.079  1.00  0.00    -0.550 OA
ENDBRANCH   6   7
ENDBRANCH   5   6
ENDBRANCH   4   5
ENDBRANCH   3   4
ENDBRANCH   2   3
ENDBRANCH   1   2
BRANCH   1  10
ATOM     10  C   UNL     1     -12.109 -13.459  14.004  1.00  0.00     0.000 C 
BRANCH  10  11
ATOM     11  C   UNL     1     -11.041 -13.851  15.042  1.00  0.00    -0.000 C 
BRANCH  11  12
ATOM     12  C   UNL     1     -10.737 -12.727  16.042  1.00  0.00    -0.000 C 
BRANCH  12  13
ATOM     13  C   UNL     1      -9.236 -12.397  16.061  1.00  0.00    -0.000 C 
BRANCH  13  14
ATOM     14  C   UNL     1      -8.794 -11.612  14.808  1.00  0.00    -0.000 C 
BRANCH  14  15
ATOM     15  C   UNL     1      -7.626 -12.266  14.050  1.00  0.00    -0.003 C 
ATOM     16  C   UNL     1      -7.995 -12.688  12.630  1.00  0.00     0.004 C 
ENDBRANCH  14  15
ENDBRANCH  13  14
ENDBRANCH  12  13
ENDBRANCH  11  12
ENDBRANCH  10  11
ENDBRANCH   1  10
TORSDOF 12
ENDMDL
