MODEL 1
REMARK VINA RESULT:    -5.341      0.000      0.000
REMARK INTER + INTRA:          -6.594
REMARK INTER:                  -6.278
REMARK INTRA:                  -0.317
REMARK UNBOUND:                -0.317
REMARK SMILES O=c1cc(-c2ccc(O)c(O)c2)oc2cc(O)cc(O)c12
REMARK SMILES IDX 4 1 3 2 2 3 1 4 21 5 19 6 18 7 16 8 15 9 14 10 13 11 5 12
REMARK SMILES IDX 6 13 7 14 8 15 12 16 10 17 9 18 11 20 20 22 17 24
REMARK H PARENT 9 19 11 21 20 23 17 25
REMARK Flexibility Score: inf
ROOT
ATOM      1  C   UNL     1     -14.431 -22.528 175.530  1.00  0.00     0.138 A 
ATOM      2  C   UNL     1     -14.947 -23.792 175.210  1.00  0.00     0.100 A 
ATOM      3  C   UNL     1     -14.867 -24.827 176.142  1.00  0.00     0.197 A 
ATOM      4  O   UNL     1     -15.394 -25.932 175.850  1.00  0.00    -0.289 OA
ATOM      5  C   UNL     1     -14.237 -24.602 177.390  1.00  0.00     0.107 A 
ATOM      6  C   UNL     1     -14.062 -25.594 178.401  1.00  0.00     0.134 A 
ATOM      7  C   UNL     1     -13.528 -25.226 179.643  1.00  0.00     0.093 A 
ATOM      8  C   UNL     1     -13.109 -23.919 179.888  1.00  0.00     0.123 A 
ATOM      9  C   UNL     1     -13.227 -22.953 178.888  1.00  0.00     0.094 A 
ATOM     10  C   UNL     1     -13.786 -23.281 177.651  1.00  0.00     0.146 A 
ATOM     11  O   UNL     1     -13.894 -22.329 176.729  1.00  0.00    -0.456 OA
ENDROOT
BRANCH   1  12
ATOM     12  C   UNL     1     -14.488 -21.393 174.576  1.00  0.00     0.021 A 
ATOM     13  C   UNL     1     -14.896 -21.623 173.250  1.00  0.00     0.016 A 
ATOM     14  C   UNL     1     -14.965 -20.571 172.334  1.00  0.00     0.051 A 
ATOM     15  C   UNL     1     -14.637 -19.268 172.729  1.00  0.00     0.157 A 
ATOM     16  C   UNL     1     -14.172 -20.077 174.969  1.00  0.00     0.062 A 
ATOM     17  C   UNL     1     -14.243 -19.021 174.049  1.00  0.00     0.158 A 
BRANCH  15  18
ATOM     18  O   UNL     1     -14.703 -18.216 171.819  1.00  0.00    -0.504 OA
ATOM     19  H   UNL     1     -15.453 -17.534 171.852  1.00  0.00     0.293 HD
ENDBRANCH  15  18
BRANCH  17  20
ATOM     20  O   UNL     1     -13.928 -17.721 174.443  1.00  0.00    -0.504 OA
ATOM     21  H   UNL     1     -14.598 -16.966 174.365  1.00  0.00     0.293 HD
ENDBRANCH  17  20
ENDBRANCH   1  12
BRANCH   6  22
ATOM     22  O   UNL     1     -14.368 -26.947 178.230  1.00  0.00    -0.507 OA
ATOM     23  H   UNL     1     -15.258 -27.302 177.917  1.00  0.00     0.293 HD
ENDBRANCH   6  22
BRANCH   8  24
ATOM     24  O   UNL     1     -12.569 -23.592 181.131  1.00  0.00    -0.508 OA
ATOM     25  H   UNL     1     -12.729 -22.687 181.557  1.00  0.00     0.293 HD
ENDBRANCH   8  24
TORSDOF 5
ENDMDL
MODEL 2
REMARK VINA RESULT:    -5.269      2.487      7.185
REMARK INTER + INTRA:          -6.509
REMARK INTER:                  -6.225
REMARK INTRA:                  -0.284
REMARK UNBOUND:                -0.317
REMARK SMILES O=c1cc(-c2ccc(O)c(O)c2)oc2cc(O)cc(O)c12
REMARK SMILES IDX 4 1 3 2 2 3 1 4 21 5 19 6 18 7 16 8 15 9 14 10 13 11 5 12
REMARK SMILES IDX 6 13 7 14 8 15 12 16 10 17 9 18 11 20 20 22 17 24
REMARK H PARENT 9 19 11 21 20 23 17 25
REMARK Flexibility Score: inf
ROOT
ATOM      1  C   UNL     1     -12.979 -22.048 178.003  1.00  0.00     0.138 A 
ATOM      2  C   UNL     1     -11.731 -21.784 178.585  1.00  0.00     0.100 A 
ATOM      3  C   UNL     1     -11.053 -20.608 178.260  1.00  0.00     0.197 A 
ATOM      4  O   UNL     1      -9.965 -20.370 178.845  1.00  0.00    -0.289 OA
ATOM      5  C   UNL     1     -11.614 -19.708 177.323  1.00  0.00     0.107 A 
ATOM      6  C   UNL     1     -10.994 -18.499 176.886  1.00  0.00     0.134 A 
ATOM      7  C   UNL     1     -11.697 -17.629 176.044  1.00  0.00     0.093 A 
ATOM      8  C   UNL     1     -12.970 -17.951 175.575  1.00  0.00     0.123 A 
ATOM      9  C   UNL     1     -13.565 -19.156 175.954  1.00  0.00     0.094 A 
ATOM     10  C   UNL     1     -12.903 -20.029 176.820  1.00  0.00     0.146 A 
ATOM     11  O   UNL     1     -13.509 -21.160 177.168  1.00  0.00    -0.456 OA
ENDROOT
BRANCH   1  12
ATOM     12  C   UNL     1     -13.743 -23.283 178.311  1.00  0.00     0.021 A 
ATOM     13  C   UNL     1     -14.007 -23.617 179.651  1.00  0.00     0.016 A 
ATOM     14  C   UNL     1     -14.730 -24.770 179.967  1.00  0.00     0.051 A 
ATOM     15  C   UNL     1     -15.208 -25.604 178.950  1.00  0.00     0.157 A 
ATOM     16  C   UNL     1     -14.239 -24.120 177.292  1.00  0.00     0.062 A 
ATOM     17  C   UNL     1     -14.966 -25.277 177.610  1.00  0.00     0.158 A 
BRANCH  15  18
ATOM     18  O   UNL     1     -15.928 -26.755 179.261  1.00  0.00    -0.504 OA
ATOM     19  H   UNL     1     -16.561 -26.787 180.053  1.00  0.00     0.293 HD
ENDBRANCH  15  18
BRANCH  17  20
ATOM     20  O   UNL     1     -15.453 -26.104 176.599  1.00  0.00    -0.504 OA
ATOM     21  H   UNL     1     -14.920 -26.284 175.757  1.00  0.00     0.293 HD
ENDBRANCH  17  20
ENDBRANCH   1  12
BRANCH   6  22
ATOM     22  O   UNL     1      -9.692 -18.122 177.226  1.00  0.00    -0.507 OA
ATOM     23  H   UNL     1      -9.171 -17.381 176.781  1.00  0.00     0.293 HD
ENDBRANCH   6  22
BRANCH   8  24
ATOM     24  O   UNL     1     -13.634 -17.068 174.725  1.00  0.00    -0.508 OA
ATOM     25  H   UNL     1     -13.134 -16.358 174.203  1.00  0.00     0.293 HD
ENDBRANCH   8  24
TORSDOF 5
ENDMDL
MODEL 3
REMARK VINA RESULT:    -5.253      1.157      2.698
REMARK INTER + INTRA:          -6.491
REMARK INTER:                  -6.194
REMARK INTRA:                  -0.297
REMARK UNBOUND:                -0.317
REMARK SMILES O=c1cc(-c2ccc(O)c(O)c2)oc2cc(O)cc(O)c12
REMARK SMILES IDX 4 1 3 2 2 3 1 4 21 5 19 6 18 7 16 8 15 9 14 10 13 11 5 12
REMARK SMILES IDX 6 13 7 14 8 15 12 16 10 17 9 18 11 20 20 22 17 24
REMARK H PARENT 9 19 11 21 20 23 17 25
REMARK Flexibility Score: inf
ROOT
ATOM      1  C   UNL     1     -13.884 -21.496 175.793  1.00  0.00     0.138 A 
ATOM      2  C   UNL     1     -13.192 -21.008 176.911  1.00  0.00     0.100 A 
ATOM      3  C   UNL     1     -13.018 -21.828 178.027  1.00  0.00     0.197 A 
ATOM      4  O   UNL     1     -12.340 -21.384 178.989  1.00  0.00    -0.289 OA
ATOM      5  C   UNL     1     -13.568 -23.132 178.034  1.00  0.00     0.107 A 
ATOM      6  C   UNL     1     -13.488 -24.041 179.132  1.00  0.00     0.134 A 
ATOM      7  C   UNL     1     -13.969 -25.347 178.982  1.00  0.00     0.093 A 
ATOM      8  C   UNL     1     -14.580 -25.759 177.798  1.00  0.00     0.123 A 
ATOM      9  C   UNL     1     -14.711 -24.862 176.736  1.00  0.00     0.094 A 
ATOM     10  C   UNL     1     -14.211 -23.563 176.843  1.00  0.00     0.146 A 
ATOM     11  O   UNL     1     -14.343 -22.743 175.805  1.00  0.00    -0.456 OA
ENDROOT
BRANCH   1  12
ATOM     12  C   UNL     1     -14.099 -20.667 174.581  1.00  0.00     0.021 A 
ATOM     13  C   UNL     1     -14.749 -21.226 173.467  1.00  0.00     0.016 A 
ATOM     14  C   UNL     1     -14.971 -20.465 172.316  1.00  0.00     0.051 A 
ATOM     15  C   UNL     1     -14.554 -19.129 172.263  1.00  0.00     0.157 A 
ATOM     16  C   UNL     1     -13.695 -19.318 174.524  1.00  0.00     0.062 A 
ATOM     17  C   UNL     1     -13.919 -18.554 173.370  1.00  0.00     0.158 A 
BRANCH  15  18
ATOM     18  O   UNL     1     -14.772 -18.367 171.117  1.00  0.00    -0.504 OA
ATOM     19  H   UNL     1     -15.274 -17.487 171.154  1.00  0.00     0.293 HD
ENDBRANCH  15  18
BRANCH  17  20
ATOM     20  O   UNL     1     -13.515 -17.220 173.317  1.00  0.00    -0.504 OA
ATOM     21  H   UNL     1     -13.463 -16.716 172.440  1.00  0.00     0.293 HD
ENDBRANCH  17  20
ENDBRANCH   1  12
BRANCH   6  22
ATOM     22  O   UNL     1     -12.975 -23.705 180.388  1.00  0.00    -0.507 OA
ATOM     23  H   UNL     1     -12.499 -24.345 181.006  1.00  0.00     0.293 HD
ENDBRANCH   6  22
BRANCH   8  24
ATOM     24  O   UNL     1     -15.060 -27.063 177.689  1.00  0.00    -0.508 OA
ATOM     25  H   UNL     1     -14.435 -27.849 177.556  1.00  0.00     0.293 HD
ENDBRANCH   8  24
TORSDOF 5
ENDMDL
MODEL 4
REMARK VINA RESULT:    -5.245      2.902      4.143
REMARK INTER + INTRA:          -6.481
REMARK INTER:                  -6.166
REMARK INTRA:                  -0.315
REMARK UNBOUND:                -0.317
REMARK SMILES O=c1cc(-c2ccc(O)c(O)c2)oc2cc(O)cc(O)c12
REMARK SMILES IDX 4 1 3 2 2 3 1 4 21 5 19 6 18 7 16 8 15 9 14 10 13 11 5 12
REMARK SMILES IDX 6 13 7 14 8 15 12 16 10 17 9 18 11 20 20 22 17 24
REMARK H PARENT 9 19 11 21 20 23 17 25
REMARK Flexibility Score: inf
ROOT
ATOM      1  C   UNL     1     -12.536 -22.009 178.697  1.00  0.00     0.138 A 
ATOM      2  C   UNL     1     -11.482 -22.469 179.499  1.00  0.00     0.100 A 
ATOM      3  C   UNL     1     -11.633 -23.652 180.224  1.00  0.00     0.197 A 
ATOM      4  O   UNL     1     -10.648 -24.072 180.886  1.00  0.00    -0.289 OA
ATOM      5  C   UNL     1     -12.857 -24.360 180.169  1.00  0.00     0.107 A 
ATOM      6  C   UNL     1     -13.138 -25.555 180.897  1.00  0.00     0.134 A 
ATOM      7  C   UNL     1     -14.343 -26.232 180.674  1.00  0.00     0.093 A 
ATOM      8  C   UNL     1     -15.301 -25.727 179.796  1.00  0.00     0.123 A 
ATOM      9  C   UNL     1     -15.059 -24.530 179.118  1.00  0.00     0.094 A 
ATOM     10  C   UNL     1     -13.853 -23.850 179.294  1.00  0.00     0.146 A 
ATOM     11  O   UNL     1     -13.655 -22.721 178.621  1.00  0.00    -0.456 OA
ENDROOT
BRANCH   1  12
ATOM     12  C   UNL     1     -12.431 -20.757 177.907  1.00  0.00     0.021 A 
ATOM     13  C   UNL     1     -11.173 -20.154 177.730  1.00  0.00     0.016 A 
ATOM     14  C   UNL     1     -11.045 -18.979 176.984  1.00  0.00     0.051 A 
ATOM     15  C   UNL     1     -12.172 -18.392 176.396  1.00  0.00     0.157 A 
ATOM     16  C   UNL     1     -13.557 -20.167 177.300  1.00  0.00     0.062 A 
ATOM     17  C   UNL     1     -13.429 -18.988 176.551  1.00  0.00     0.158 A 
BRANCH  15  18
ATOM     18  O   UNL     1     -12.050 -17.220 175.653  1.00  0.00    -0.504 OA
ATOM     19  H   UNL     1     -11.408 -16.484 175.925  1.00  0.00     0.293 HD
ENDBRANCH  15  18
BRANCH  17  20
ATOM     20  O   UNL     1     -14.546 -18.406 175.954  1.00  0.00    -0.504 OA
ATOM     21  H   UNL     1     -15.452 -18.410 176.407  1.00  0.00     0.293 HD
ENDBRANCH  17  20
ENDBRANCH   1  12
BRANCH   6  22
ATOM     22  O   UNL     1     -12.286 -26.100 181.863  1.00  0.00    -0.507 OA
ATOM     23  H   UNL     1     -11.908 -27.035 181.837  1.00  0.00     0.293 HD
ENDBRANCH   6  22
BRANCH   8  24
ATOM     24  O   UNL     1     -16.496 -26.419 179.609  1.00  0.00    -0.508 OA
ATOM     25  H   UNL     1     -16.974 -26.869 180.381  1.00  0.00     0.293 HD
ENDBRANCH   8  24
TORSDOF 5
ENDMDL
MODEL 5
REMARK VINA RESULT:    -5.196      1.395      2.174
REMARK INTER + INTRA:          -6.423
REMARK INTER:                  -6.141
REMARK INTRA:                  -0.283
REMARK UNBOUND:                -0.317
REMARK SMILES O=c1cc(-c2ccc(O)c(O)c2)oc2cc(O)cc(O)c12
REMARK SMILES IDX 4 1 3 2 2 3 1 4 21 5 19 6 18 7 16 8 15 9 14 10 13 11 5 12
REMARK SMILES IDX 6 13 7 14 8 15 12 16 10 17 9 18 11 20 20 22 17 24
REMARK H PARENT 9 19 11 21 20 23 17 25
REMARK Flexibility Score: inf
ROOT
ATOM      1  C   UNL     1     -14.415 -22.573 174.791  1.00  0.00     0.138 A 
ATOM      2  C   UNL     1     -14.806 -23.572 173.888  1.00  0.00     0.100 A 
ATOM      3  C   UNL     1     -15.004 -24.876 174.344  1.00  0.00     0.197 A 
ATOM      4  O   UNL     1     -15.415 -25.736 173.523  1.00  0.00    -0.289 OA
ATOM      5  C   UNL     1     -14.778 -25.187 175.706  1.00  0.00     0.107 A 
ATOM      6  C   UNL     1     -14.908 -26.489 176.275  1.00  0.00     0.134 A 
ATOM      7  C   UNL     1     -14.772 -26.654 177.659  1.00  0.00     0.093 A 
ATOM      8  C   UNL     1     -14.451 -25.578 178.485  1.00  0.00     0.123 A 
ATOM      9  C   UNL     1     -14.269 -24.309 177.932  1.00  0.00     0.094 A 
ATOM     10  C   UNL     1     -14.431 -24.106 176.560  1.00  0.00     0.146 A 
ATOM     11  O   UNL     1     -14.262 -22.880 176.075  1.00  0.00    -0.456 OA
ENDROOT
BRANCH   1  12
ATOM     12  C   UNL     1     -14.190 -21.171 174.360  1.00  0.00     0.021 A 
ATOM     13  C   UNL     1     -13.150 -20.426 174.943  1.00  0.00     0.016 A 
ATOM     14  C   UNL     1     -12.912 -19.107 174.550  1.00  0.00     0.051 A 
ATOM     15  C   UNL     1     -13.704 -18.512 173.560  1.00  0.00     0.157 A 
ATOM     16  C   UNL     1     -14.974 -20.570 173.355  1.00  0.00     0.062 A 
ATOM     17  C   UNL     1     -14.734 -19.245 172.959  1.00  0.00     0.158 A 
BRANCH  15  18
ATOM     18  O   UNL     1     -13.471 -17.197 173.165  1.00  0.00    -0.504 OA
ATOM     19  H   UNL     1     -13.562 -16.910 172.197  1.00  0.00     0.293 HD
ENDBRANCH  15  18
BRANCH  17  20
ATOM     20  O   UNL     1     -15.513 -18.654 171.966  1.00  0.00    -0.504 OA
ATOM     21  H   UNL     1     -15.196 -17.835 171.461  1.00  0.00     0.293 HD
ENDBRANCH  17  20
ENDBRANCH   1  12
BRANCH   6  22
ATOM     22  O   UNL     1     -15.143 -27.648 175.528  1.00  0.00    -0.507 OA
ATOM     23  H   UNL     1     -15.449 -27.662 174.568  1.00  0.00     0.293 HD
ENDBRANCH   6  22
BRANCH   8  24
ATOM     24  O   UNL     1     -14.309 -25.782 179.856  1.00  0.00    -0.508 OA
ATOM     25  H   UNL     1     -13.468 -25.505 180.349  1.00  0.00     0.293 HD
ENDBRANCH   8  24
TORSDOF 5
ENDMDL
MODEL 6
REMARK VINA RESULT:    -5.165      1.936      7.420
REMARK INTER + INTRA:          -6.387
REMARK INTER:                  -6.082
REMARK INTRA:                  -0.305
REMARK UNBOUND:                -0.317
REMARK SMILES O=c1cc(-c2ccc(O)c(O)c2)oc2cc(O)cc(O)c12
REMARK SMILES IDX 4 1 3 2 2 3 1 4 21 5 19 6 18 7 16 8 15 9 14 10 13 11 5 12
REMARK SMILES IDX 6 13 7 14 8 15 12 16 10 17 9 18 11 20 20 22 17 24
REMARK H PARENT 9 19 11 21 20 23 17 25
REMARK Flexibility Score: inf
ROOT
ATOM      1  C   UNL     1     -13.398 -22.889 177.826  1.00  0.00     0.138 A 
ATOM      2  C   UNL     1     -12.541 -21.846 178.204  1.00  0.00     0.100 A 
ATOM      3  C   UNL     1     -12.290 -20.801 177.314  1.00  0.00     0.197 A 
ATOM      4  O   UNL     1     -11.566 -19.848 177.705  1.00  0.00    -0.289 OA
ATOM      5  C   UNL     1     -12.877 -20.818 176.026  1.00  0.00     0.107 A 
ATOM      6  C   UNL     1     -12.660 -19.828 175.021  1.00  0.00     0.134 A 
ATOM      7  C   UNL     1     -13.386 -19.888 173.825  1.00  0.00     0.093 A 
ATOM      8  C   UNL     1     -14.274 -20.934 173.573  1.00  0.00     0.123 A 
ATOM      9  C   UNL     1     -14.454 -21.937 174.527  1.00  0.00     0.094 A 
ATOM     10  C   UNL     1     -13.770 -21.886 175.743  1.00  0.00     0.146 A 
ATOM     11  O   UNL     1     -13.979 -22.853 176.631  1.00  0.00    -0.456 OA
ENDROOT
BRANCH   1  12
ATOM     12  C   UNL     1     -13.698 -24.025 178.733  1.00  0.00     0.021 A 
ATOM     13  C   UNL     1     -12.731 -24.440 179.665  1.00  0.00     0.016 A 
ATOM     14  C   UNL     1     -12.991 -25.502 180.535  1.00  0.00     0.051 A 
ATOM     15  C   UNL     1     -14.226 -26.162 180.494  1.00  0.00     0.157 A 
ATOM     16  C   UNL     1     -14.942 -24.685 178.706  1.00  0.00     0.062 A 
ATOM     17  C   UNL     1     -15.204 -25.751 179.580  1.00  0.00     0.158 A 
BRANCH  15  18
ATOM     18  O   UNL     1     -14.489 -27.222 181.358  1.00  0.00    -0.504 OA
ATOM     19  H   UNL     1     -13.744 -27.798 181.732  1.00  0.00     0.293 HD
ENDBRANCH  15  18
BRANCH  17  20
ATOM     20  O   UNL     1     -16.436 -26.403 179.549  1.00  0.00    -0.504 OA
ATOM     21  H   UNL     1     -17.195 -26.132 180.162  1.00  0.00     0.293 HD
ENDBRANCH  17  20
ENDBRANCH   1  12
BRANCH   6  22
ATOM     22  O   UNL     1     -11.733 -18.788 175.136  1.00  0.00    -0.507 OA
ATOM     23  H   UNL     1     -11.481 -18.155 174.392  1.00  0.00     0.293 HD
ENDBRANCH   6  22
BRANCH   8  24
ATOM     24  O   UNL     1     -14.968 -20.970 172.366  1.00  0.00    -0.508 OA
ATOM     25  H   UNL     1     -14.566 -20.602 171.511  1.00  0.00     0.293 HD
ENDBRANCH   8  24
TORSDOF 5
ENDMDL
MODEL 7
REMARK VINA RESULT:    -5.161      2.113      3.755
REMARK INTER + INTRA:          -6.382
REMARK INTER:                  -6.107
REMARK INTRA:                  -0.276
REMARK UNBOUND:                -0.317
REMARK SMILES O=c1cc(-c2ccc(O)c(O)c2)oc2cc(O)cc(O)c12
REMARK SMILES IDX 4 1 3 2 2 3 1 4 21 5 19 6 18 7 16 8 15 9 14 10 13 11 5 12
REMARK SMILES IDX 6 13 7 14 8 15 12 16 10 17 9 18 11 20 20 22 17 24
REMARK H PARENT 9 19 11 21 20 23 17 25
REMARK Flexibility Score: inf
ROOT
ATOM      1  C   UNL     1     -13.454 -21.926 177.608  1.00  0.00     0.138 A 
ATOM      2  C   UNL     1     -13.336 -22.274 178.962  1.00  0.00     0.100 A 
ATOM      3  C   UNL     1     -13.693 -23.558 179.378  1.00  0.00     0.197 A 
ATOM      4  O   UNL     1     -13.517 -23.860 180.586  1.00  0.00    -0.289 OA
ATOM      5  C   UNL     1     -14.202 -24.486 178.437  1.00  0.00     0.107 A 
ATOM      6  C   UNL     1     -14.636 -25.808 178.755  1.00  0.00     0.134 A 
ATOM      7  C   UNL     1     -15.012 -26.676 177.723  1.00  0.00     0.093 A 
ATOM      8  C   UNL     1     -15.027 -26.254 176.394  1.00  0.00     0.123 A 
ATOM      9  C   UNL     1     -14.655 -24.945 176.078  1.00  0.00     0.094 A 
ATOM     10  C   UNL     1     -14.243 -24.066 177.081  1.00  0.00     0.146 A 
ATOM     11  O   UNL     1     -13.883 -22.833 176.738  1.00  0.00    -0.456 OA
ENDROOT
BRANCH   1  12
ATOM     12  C   UNL     1     -13.090 -20.575 177.112  1.00  0.00     0.021 A 
ATOM     13  C   UNL     1     -11.764 -20.125 177.241  1.00  0.00     0.016 A 
ATOM     14  C   UNL     1     -11.394 -18.861 176.775  1.00  0.00     0.051 A 
ATOM     15  C   UNL     1     -12.340 -18.028 176.165  1.00  0.00     0.157 A 
ATOM     16  C   UNL     1     -14.033 -19.737 176.485  1.00  0.00     0.062 A 
ATOM     17  C   UNL     1     -13.661 -18.469 176.016  1.00  0.00     0.158 A 
BRANCH  15  18
ATOM     18  O   UNL     1     -11.976 -16.767 175.700  1.00  0.00    -0.504 OA
ATOM     19  H   UNL     1     -11.292 -16.199 176.188  1.00  0.00     0.293 HD
ENDBRANCH  15  18
BRANCH  17  20
ATOM     20  O   UNL     1     -14.598 -17.642 175.398  1.00  0.00    -0.504 OA
ATOM     21  H   UNL     1     -14.603 -16.640 175.549  1.00  0.00     0.293 HD
ENDBRANCH  17  20
ENDBRANCH   1  12
BRANCH   6  22
ATOM     22  O   UNL     1     -14.741 -26.304 180.057  1.00  0.00    -0.507 OA
ATOM     23  H   UNL     1     -14.437 -25.817 180.886  1.00  0.00     0.293 HD
ENDBRANCH   6  22
BRANCH   8  24
ATOM     24  O   UNL     1     -15.421 -27.141 175.395  1.00  0.00    -0.508 OA
ATOM     25  H   UNL     1     -15.291 -26.925 174.413  1.00  0.00     0.293 HD
ENDBRANCH   8  24
TORSDOF 5
ENDMDL
MODEL 8
REMARK VINA RESULT:    -5.140      1.807      3.257
REMARK INTER + INTRA:          -6.358
REMARK INTER:                  -6.092
REMARK INTRA:                  -0.266
REMARK UNBOUND:                -0.317
REMARK SMILES O=c1cc(-c2ccc(O)c(O)c2)oc2cc(O)cc(O)c12
REMARK SMILES IDX 4 1 3 2 2 3 1 4 21 5 19 6 18 7 16 8 15 9 14 10 13 11 5 12
REMARK SMILES IDX 6 13 7 14 8 15 12 16 10 17 9 18 11 20 20 22 17 24
REMARK H PARENT 9 19 11 21 20 23 17 25
REMARK Flexibility Score: inf
ROOT
ATOM      1  C   UNL     1     -13.134 -21.743 177.624  1.00  0.00     0.138 A 
ATOM      2  C   UNL     1     -11.973 -21.495 178.370  1.00  0.00     0.100 A 
ATOM      3  C   UNL     1     -11.636 -22.344 179.426  1.00  0.00     0.197 A 
ATOM      4  O   UNL     1     -10.557 -22.132 180.037  1.00  0.00    -0.289 OA
ATOM      5  C   UNL     1     -12.486 -23.428 179.755  1.00  0.00     0.107 A 
ATOM      6  C   UNL     1     -12.264 -24.333 180.836  1.00  0.00     0.134 A 
ATOM      7  C   UNL     1     -13.110 -25.438 180.994  1.00  0.00     0.093 A 
ATOM      8  C   UNL     1     -14.202 -25.636 180.150  1.00  0.00     0.123 A 
ATOM      9  C   UNL     1     -14.459 -24.727 179.122  1.00  0.00     0.094 A 
ATOM     10  C   UNL     1     -13.614 -23.634 178.918  1.00  0.00     0.146 A 
ATOM     11  O   UNL     1     -13.885 -22.799 177.920  1.00  0.00    -0.456 OA
ENDROOT
BRANCH   1  12
ATOM     12  C   UNL     1     -13.540 -20.872 176.493  1.00  0.00     0.021 A 
ATOM     13  C   UNL     1     -13.604 -21.409 175.195  1.00  0.00     0.016 A 
ATOM     14  C   UNL     1     -13.991 -20.612 174.114  1.00  0.00     0.051 A 
ATOM     15  C   UNL     1     -14.327 -19.268 174.313  1.00  0.00     0.157 A 
ATOM     16  C   UNL     1     -13.893 -19.522 176.687  1.00  0.00     0.062 A 
ATOM     17  C   UNL     1     -14.282 -18.723 175.602  1.00  0.00     0.158 A 
BRANCH  15  18
ATOM     18  O   UNL     1     -14.712 -18.470 173.238  1.00  0.00    -0.504 OA
ATOM     19  H   UNL     1     -14.642 -18.799 172.282  1.00  0.00     0.293 HD
ENDBRANCH  15  18
BRANCH  17  20
ATOM     20  O   UNL     1     -14.628 -17.387 175.798  1.00  0.00    -0.504 OA
ATOM     21  H   UNL     1     -15.251 -16.902 175.164  1.00  0.00     0.293 HD
ENDBRANCH  17  20
ENDBRANCH   1  12
BRANCH   6  22
ATOM     22  O   UNL     1     -11.253 -24.180 181.789  1.00  0.00    -0.507 OA
ATOM     23  H   UNL     1     -10.984 -23.303 182.208  1.00  0.00     0.293 HD
ENDBRANCH   6  22
BRANCH   8  24
ATOM     24  O   UNL     1     -15.032 -26.739 180.346  1.00  0.00    -0.508 OA
ATOM     25  H   UNL     1     -15.139 -27.454 179.637  1.00  0.00     0.293 HD
ENDBRANCH   8  24
TORSDOF 5
ENDMDL
MODEL 9
REMARK VINA RESULT:    -4.954      2.135      3.571
REMARK INTER + INTRA:          -6.139
REMARK INTER:                  -5.856
REMARK INTRA:                  -0.283
REMARK UNBOUND:                -0.317
REMARK SMILES O=c1cc(-c2ccc(O)c(O)c2)oc2cc(O)cc(O)c12
REMARK SMILES IDX 4 1 3 2 2 3 1 4 21 5 19 6 18 7 16 8 15 9 14 10 13 11 5 12
REMARK SMILES IDX 6 13 7 14 8 15 12 16 10 17 9 18 11 20 20 22 17 24
REMARK H PARENT 9 19 11 21 20 23 17 25
REMARK Flexibility Score: inf
ROOT
ATOM      1  C   UNL     1     -13.616 -23.526 178.608  1.00  0.00     0.138 A 
ATOM      2  C   UNL     1     -14.512 -24.586 178.412  1.00  0.00     0.100 A 
ATOM      3  C   UNL     1     -14.549 -25.638 179.328  1.00  0.00     0.197 A 
ATOM      4  O   UNL     1     -15.406 -26.543 179.159  1.00  0.00    -0.289 OA
ATOM      5  C   UNL     1     -13.659 -25.643 180.429  1.00  0.00     0.107 A 
ATOM      6  C   UNL     1     -13.579 -26.683 181.404  1.00  0.00     0.134 A 
ATOM      7  C   UNL     1     -12.741 -26.524 182.514  1.00  0.00     0.093 A 
ATOM      8  C   UNL     1     -11.938 -25.393 182.655  1.00  0.00     0.123 A 
ATOM      9  C   UNL     1     -11.969 -24.393 181.680  1.00  0.00     0.094 A 
ATOM     10  C   UNL     1     -12.819 -24.508 180.579  1.00  0.00     0.146 A 
ATOM     11  O   UNL     1     -12.829 -23.529 179.680  1.00  0.00    -0.456 OA
ENDROOT
BRANCH   1  12
ATOM     12  C   UNL     1     -13.534 -22.383 177.665  1.00  0.00     0.021 A 
ATOM     13  C   UNL     1     -13.312 -21.088 178.165  1.00  0.00     0.016 A 
ATOM     14  C   UNL     1     -13.223 -19.996 177.297  1.00  0.00     0.051 A 
ATOM     15  C   UNL     1     -13.347 -20.181 175.915  1.00  0.00     0.157 A 
ATOM     16  C   UNL     1     -13.644 -22.563 176.272  1.00  0.00     0.062 A 
ATOM     17  C   UNL     1     -13.554 -21.467 175.401  1.00  0.00     0.158 A 
BRANCH  15  18
ATOM     18  O   UNL     1     -13.261 -19.096 175.046  1.00  0.00    -0.504 OA
ATOM     19  H   UNL     1     -14.034 -18.836 174.444  1.00  0.00     0.293 HD
ENDBRANCH  15  18
BRANCH  17  20
ATOM     20  O   UNL     1     -13.666 -21.650 174.023  1.00  0.00    -0.504 OA
ATOM     21  H   UNL     1     -13.406 -20.922 173.369  1.00  0.00     0.293 HD
ENDBRANCH  17  20
ENDBRANCH   1  12
BRANCH   6  22
ATOM     22  O   UNL     1     -14.274 -27.892 181.315  1.00  0.00    -0.507 OA
ATOM     23  H   UNL     1     -13.930 -28.781 181.646  1.00  0.00     0.293 HD
ENDBRANCH   6  22
BRANCH   8  24
ATOM     24  O   UNL     1     -11.105 -25.275 183.766  1.00  0.00    -0.508 OA
ATOM     25  H   UNL     1     -10.575 -24.430 183.944  1.00  0.00     0.293 HD
ENDBRANCH   8  24
TORSDOF 5
ENDMDL
