MODEL 1
REMARK VINA RESULT:    -1.876      0.000      0.000
REMARK INTER + INTRA:          -3.243
REMARK INTER:                  -2.314
REMARK INTRA:                  -0.929
REMARK UNBOUND:                -0.929
REMARK SMILES C=CC(=C)CCC=C(C)C
REMARK SMILES IDX 5 1 6 2 7 3 9 4 8 5 10 6 3 7 4 8 2 9 1 10
REMARK H PARENT
REMARK Flexibility Score: inf
ROOT
ATOM      1  C   UNL     1     163.389 158.682 136.875  1.00  0.00     0.039 C 
ENDROOT
BRANCH   1   2
ATOM      2  C   UNL     1     162.646 159.840 137.550  1.00  0.00     0.032 C 
BRANCH   2   3
ATOM      3  C   UNL     1     161.325 159.374 138.112  1.00  0.00    -0.028 C 
ATOM      4  C   UNL     1     162.065 159.618 140.492  1.00  0.00     0.039 C 
ATOM      5  C   UNL     1     161.041 159.293 139.430  1.00  0.00    -0.080 C 
ATOM      6  C   UNL     1     159.661 158.848 139.841  1.00  0.00     0.039 C 
ENDBRANCH   2   3
ENDBRANCH   1   2
BRANCH   1   7
ATOM      7  C   UNL     1     164.191 157.895 137.888  1.00  0.00    -0.055 C 
ATOM      8  C   UNL     1     165.241 158.477 138.478  1.00  0.00     0.012 C 
BRANCH   7   9
ATOM      9  C   UNL     1     163.824 156.512 138.289  1.00  0.00    -0.005 C 
ATOM     10  C   UNL     1     163.184 156.208 139.418  1.00  0.00     0.009 C 
ENDBRANCH   7   9
ENDBRANCH   1   7
TORSDOF 4
ENDMDL
MODEL 2
REMARK VINA RESULT:    -1.869      1.775      2.763
REMARK INTER + INTRA:          -3.234
REMARK INTER:                  -2.356
REMARK INTRA:                  -0.878
REMARK UNBOUND:                -0.929
REMARK SMILES C=CC(=C)CCC=C(C)C
REMARK SMILES IDX 5 1 6 2 7 3 9 4 8 5 10 6 3 7 4 8 2 9 1 10
REMARK H PARENT
REMARK Flexibility Score: inf
ROOT
ATOM      1  C   UNL     1     164.037 156.649 138.271  1.00  0.00     0.039 C 
ENDROOT
BRANCH   1   2
ATOM      2  C   UNL     1     163.016 156.720 139.412  1.00  0.00     0.032 C 
BRANCH   2   3
ATOM      3  C   UNL     1     162.346 158.071 139.447  1.00  0.00    -0.028 C 
ATOM      4  C   UNL     1     163.676 158.861 141.417  1.00  0.00     0.039 C 
ATOM      5  C   UNL     1     162.649 159.052 140.325  1.00  0.00    -0.080 C 
ATOM      6  C   UNL     1     161.922 160.368 140.212  1.00  0.00     0.039 C 
ENDBRANCH   2   3
ENDBRANCH   1   2
BRANCH   1   7
ATOM      7  C   UNL     1     165.438 156.897 138.788  1.00  0.00    -0.055 C 
ATOM      8  C   UNL     1     166.130 155.875 139.303  1.00  0.00     0.012 C 
BRANCH   7   9
ATOM      9  C   UNL     1     166.092 158.229 138.701  1.00  0.00    -0.005 C 
ATOM     10  C   UNL     1     165.593 159.261 138.019  1.00  0.00     0.009 C 
ENDBRANCH   7   9
ENDBRANCH   1   7
TORSDOF 4
ENDMDL
MODEL 3
REMARK VINA RESULT:    -1.826     15.683     16.813
REMARK INTER + INTRA:          -3.181
REMARK INTER:                  -2.322
REMARK INTRA:                  -0.859
REMARK UNBOUND:                -0.929
REMARK SMILES C=CC(=C)CCC=C(C)C
REMARK SMILES IDX 5 1 6 2 7 3 9 4 8 5 10 6 3 7 4 8 2 9 1 10
REMARK H PARENT
REMARK Flexibility Score: inf
ROOT
ATOM      1  C   UNL     1     169.029 175.323 139.435  1.00  0.00     0.039 C 
ENDROOT
BRANCH   1   2
ATOM      2  C   UNL     1     167.965 175.625 138.374  1.00  0.00     0.032 C 
BRANCH   2   3
ATOM      3  C   UNL     1     166.634 175.921 139.020  1.00  0.00    -0.028 C 
ATOM      4  C   UNL     1     165.778 173.589 138.702  1.00  0.00     0.039 C 
ATOM      5  C   UNL     1     165.651 175.011 139.198  1.00  0.00    -0.080 C 
ATOM      6  C   UNL     1     164.389 175.444 139.898  1.00  0.00     0.039 C 
ENDBRANCH   2   3
ENDBRANCH   1   2
BRANCH   1   7
ATOM      7  C   UNL     1     169.230 173.830 139.582  1.00  0.00    -0.055 C 
ATOM      8  C   UNL     1     169.768 173.145 138.568  1.00  0.00     0.012 C 
BRANCH   7   9
ATOM      9  C   UNL     1     168.895 173.104 140.835  1.00  0.00    -0.005 C 
ATOM     10  C   UNL     1     167.960 173.500 141.699  1.00  0.00     0.009 C 
ENDBRANCH   7   9
ENDBRANCH   1   7
TORSDOF 4
ENDMDL
MODEL 4
REMARK VINA RESULT:    -1.761     15.906     17.122
REMARK INTER + INTRA:          -3.102
REMARK INTER:                  -2.338
REMARK INTRA:                  -0.764
REMARK UNBOUND:                -0.929
REMARK SMILES C=CC(=C)CCC=C(C)C
REMARK SMILES IDX 5 1 6 2 7 3 9 4 8 5 10 6 3 7 4 8 2 9 1 10
REMARK H PARENT
REMARK Flexibility Score: inf
ROOT
ATOM      1  C   UNL     1     166.653 176.125 138.722  1.00  0.00     0.039 C 
ENDROOT
BRANCH   1   2
ATOM      2  C   UNL     1     165.620 175.209 139.387  1.00  0.00     0.032 C 
BRANCH   2   3
ATOM      3  C   UNL     1     165.604 175.417 140.881  1.00  0.00    -0.028 C 
ATOM      4  C   UNL     1     166.851 173.296 141.353  1.00  0.00     0.039 C 
ATOM      5  C   UNL     1     166.175 174.580 141.776  1.00  0.00    -0.080 C 
ATOM      6  C   UNL     1     166.114 174.941 143.238  1.00  0.00     0.039 C 
ENDBRANCH   2   3
ENDBRANCH   1   2
BRANCH   1   7
ATOM      7  C   UNL     1     167.983 175.418 138.577  1.00  0.00    -0.055 C 
ATOM      8  C   UNL     1     168.993 175.765 139.381  1.00  0.00     0.012 C 
BRANCH   7   9
ATOM      9  C   UNL     1     168.193 174.315 137.602  1.00  0.00    -0.005 C 
ATOM     10  C   UNL     1     168.780 173.157 137.903  1.00  0.00     0.009 C 
ENDBRANCH   7   9
ENDBRANCH   1   7
TORSDOF 4
ENDMDL
MODEL 5
REMARK VINA RESULT:    -1.733      2.391      4.458
REMARK INTER + INTRA:          -3.067
REMARK INTER:                  -2.168
REMARK INTRA:                  -0.899
REMARK UNBOUND:                -0.929
REMARK SMILES C=CC(=C)CCC=C(C)C
REMARK SMILES IDX 5 1 6 2 7 3 9 4 8 5 10 6 3 7 4 8 2 9 1 10
REMARK H PARENT
REMARK Flexibility Score: inf
ROOT
ATOM      1  C   UNL     1     165.368 156.022 138.795  1.00  0.00     0.039 C 
ENDROOT
BRANCH   1   2
ATOM      2  C   UNL     1     165.862 156.185 140.237  1.00  0.00     0.032 C 
BRANCH   2   3
ATOM      3  C   UNL     1     166.488 157.543 140.438  1.00  0.00    -0.028 C 
ATOM      4  C   UNL     1     164.620 158.371 141.886  1.00  0.00     0.039 C 
ATOM      5  C   UNL     1     165.955 158.526 141.196  1.00  0.00    -0.080 C 
ATOM      6  C   UNL     1     166.718 159.818 141.337  1.00  0.00     0.039 C 
ENDBRANCH   2   3
ENDBRANCH   1   2
BRANCH   1   7
ATOM      7  C   UNL     1     164.012 156.669 138.615  1.00  0.00    -0.055 C 
ATOM      8  C   UNL     1     162.988 156.248 139.364  1.00  0.00     0.012 C 
BRANCH   7   9
ATOM      9  C   UNL     1     163.788 157.791 137.667  1.00  0.00    -0.005 C 
ATOM     10  C   UNL     1     164.417 158.965 137.739  1.00  0.00     0.009 C 
ENDBRANCH   7   9
ENDBRANCH   1   7
TORSDOF 4
ENDMDL
MODEL 6
REMARK VINA RESULT:    -1.729     15.380     16.856
REMARK INTER + INTRA:          -3.062
REMARK INTER:                  -2.128
REMARK INTRA:                  -0.934
REMARK UNBOUND:                -0.929
REMARK SMILES C=CC(=C)CCC=C(C)C
REMARK SMILES IDX 5 1 6 2 7 3 9 4 8 5 10 6 3 7 4 8 2 9 1 10
REMARK H PARENT
REMARK Flexibility Score: inf
ROOT
ATOM      1  C   UNL     1     166.644 176.125 138.749  1.00  0.00     0.039 C 
ENDROOT
BRANCH   1   2
ATOM      2  C   UNL     1     168.118 175.761 138.541  1.00  0.00     0.032 C 
BRANCH   2   3
ATOM      3  C   UNL     1     168.247 174.497 137.728  1.00  0.00    -0.028 C 
ATOM      4  C   UNL     1     169.197 173.176 139.633  1.00  0.00     0.039 C 
ATOM      5  C   UNL     1     168.706 173.321 138.211  1.00  0.00    -0.080 C 
ATOM      6  C   UNL     1     168.740 172.129 137.289  1.00  0.00     0.039 C 
ENDBRANCH   2   3
ENDBRANCH   1   2
BRANCH   1   7
ATOM      7  C   UNL     1     166.019 175.246 139.811  1.00  0.00    -0.055 C 
ATOM      8  C   UNL     1     166.395 175.400 141.084  1.00  0.00     0.012 C 
BRANCH   7   9
ATOM      9  C   UNL     1     164.964 174.248 139.494  1.00  0.00    -0.005 C 
ATOM     10  C   UNL     1     165.190 172.941 139.362  1.00  0.00     0.009 C 
ENDBRANCH   7   9
ENDBRANCH   1   7
TORSDOF 4
ENDMDL
MODEL 7
REMARK VINA RESULT:    -1.728      2.218      4.423
REMARK INTER + INTRA:          -3.060
REMARK INTER:                  -2.143
REMARK INTRA:                  -0.918
REMARK UNBOUND:                -0.929
REMARK SMILES C=CC(=C)CCC=C(C)C
REMARK SMILES IDX 5 1 6 2 7 3 9 4 8 5 10 6 3 7 4 8 2 9 1 10
REMARK H PARENT
REMARK Flexibility Score: inf
ROOT
ATOM      1  C   UNL     1     163.803 156.199 138.403  1.00  0.00     0.039 C 
ENDROOT
BRANCH   1   2
ATOM      2  C   UNL     1     165.272 155.984 138.783  1.00  0.00     0.032 C 
BRANCH   2   3
ATOM      3  C   UNL     1     165.427 155.879 140.280  1.00  0.00    -0.028 C 
ATOM      4  C   UNL     1     166.676 158.043 140.465  1.00  0.00     0.039 C 
ATOM      5  C   UNL     1     166.033 156.808 141.053  1.00  0.00    -0.080 C 
ATOM      6  C   UNL     1     166.075 156.586 142.543  1.00  0.00     0.039 C 
ENDBRANCH   2   3
ENDBRANCH   1   2
BRANCH   1   7
ATOM      7  C   UNL     1     163.438 157.666 138.477  1.00  0.00    -0.055 C 
ATOM      8  C   UNL     1     163.854 158.488 137.508  1.00  0.00     0.012 C 
BRANCH   7   9
ATOM      9  C   UNL     1     162.592 158.218 139.567  1.00  0.00    -0.005 C 
ATOM     10  C   UNL     1     163.055 158.986 140.554  1.00  0.00     0.009 C 
ENDBRANCH   7   9
ENDBRANCH   1   7
TORSDOF 4
ENDMDL
MODEL 8
REMARK VINA RESULT:    -1.714      1.414      4.261
REMARK INTER + INTRA:          -3.043
REMARK INTER:                  -2.136
REMARK INTRA:                  -0.907
REMARK UNBOUND:                -0.929
REMARK SMILES C=CC(=C)CCC=C(C)C
REMARK SMILES IDX 5 1 6 2 7 3 9 4 8 5 10 6 3 7 4 8 2 9 1 10
REMARK H PARENT
REMARK Flexibility Score: inf
ROOT
ATOM      1  C   UNL     1     163.386 159.775 140.164  1.00  0.00     0.039 C 
ENDROOT
BRANCH   1   2
ATOM      2  C   UNL     1     163.694 158.518 140.986  1.00  0.00     0.032 C 
BRANCH   2   3
ATOM      3  C   UNL     1     164.831 157.742 140.370  1.00  0.00    -0.028 C 
ATOM      4  C   UNL     1     163.325 155.992 139.398  1.00  0.00     0.039 C 
ATOM      5  C   UNL     1     164.680 156.619 139.633  1.00  0.00    -0.080 C 
ATOM      6  C   UNL     1     165.909 155.974 139.047  1.00  0.00     0.039 C 
ENDBRANCH   2   3
ENDBRANCH   1   2
BRANCH   1   7
ATOM      7  C   UNL     1     162.352 159.481 139.100  1.00  0.00    -0.055 C 
ATOM      8  C   UNL     1     161.132 159.081 139.475  1.00  0.00     0.012 C 
BRANCH   7   9
ATOM      9  C   UNL     1     162.628 159.667 137.652  1.00  0.00    -0.005 C 
ATOM     10  C   UNL     1     163.376 158.837 136.923  1.00  0.00     0.009 C 
ENDBRANCH   7   9
ENDBRANCH   1   7
TORSDOF 4
ENDMDL
MODEL 9
REMARK VINA RESULT:    -1.695      1.976      3.339
REMARK INTER + INTRA:          -3.020
REMARK INTER:                  -2.123
REMARK INTRA:                  -0.897
REMARK UNBOUND:                -0.929
REMARK SMILES C=CC(=C)CCC=C(C)C
REMARK SMILES IDX 5 1 6 2 7 3 9 4 8 5 10 6 3 7 4 8 2 9 1 10
REMARK H PARENT
REMARK Flexibility Score: inf
ROOT
ATOM      1  C   UNL     1     163.744 157.702 137.613  1.00  0.00     0.039 C 
ENDROOT
BRANCH   1   2
ATOM      2  C   UNL     1     163.460 159.023 138.336  1.00  0.00     0.032 C 
BRANCH   2   3
ATOM      3  C   UNL     1     164.735 159.624 138.873  1.00  0.00    -0.028 C 
ATOM      4  C   UNL     1     164.063 159.320 141.267  1.00  0.00     0.039 C 
ATOM      5  C   UNL     1     165.032 159.741 140.187  1.00  0.00    -0.080 C 
ATOM      6  C   UNL     1     166.366 160.326 140.572  1.00  0.00     0.039 C 
ENDBRANCH   2   3
ENDBRANCH   1   2
BRANCH   1   7
ATOM      7  C   UNL     1     164.064 156.605 138.604  1.00  0.00    -0.055 C 
ATOM      8  C   UNL     1     163.114 156.201 139.454  1.00  0.00     0.012 C 
BRANCH   7   9
ATOM      9  C   UNL     1     165.386 155.925 138.636  1.00  0.00    -0.005 C 
ATOM     10  C   UNL     1     166.466 156.423 139.238  1.00  0.00     0.009 C 
ENDBRANCH   7   9
ENDBRANCH   1   7
TORSDOF 4
ENDMDL
