MODEL 1
REMARK VINA RESULT:    13.262      0.000      0.000
REMARK INTER + INTRA:          22.137
REMARK INTER:                  22.566
REMARK INTRA:                  -0.429
REMARK UNBOUND:                -0.429
REMARK SMILES CCCCCCCCCCCCCC(=O)[O-]
REMARK SMILES IDX 8 1 9 2 10 3 11 4 12 5 13 6 14 7 15 8 16 9 7 10 6 11 5 12
REMARK SMILES IDX 4 13 3 14 2 15 1 16
REMARK H PARENT
REMARK Flexibility Score: inf
ROOT
ATOM      1  C   UNL     1      -6.110 -11.369  24.164  1.00  0.00     0.000 C 
ENDROOT
BRANCH   1   2
ATOM      2  C   UNL     1      -6.577 -12.531  25.059  1.00  0.00     0.000 C 
BRANCH   2   3
ATOM      3  C   UNL     1      -5.634 -13.745  25.004  1.00  0.00     0.000 C 
BRANCH   3   4
ATOM      4  C   UNL     1      -5.208 -14.226  26.399  1.00  0.00     0.000 C 
BRANCH   4   5
ATOM      5  C   UNL     1      -5.068 -15.754  26.480  1.00  0.00     0.006 C 
BRANCH   5   6
ATOM      6  C   UNL     1      -4.282 -16.297  25.284  1.00  0.00     0.053 C 
BRANCH   6   7
ATOM      7  C   UNL     1      -4.853 -17.603  24.831  1.00  0.00     0.041 C 
ATOM      8  O   UNL     1      -5.268 -18.440  25.676  1.00  0.00    -0.550 OA
ATOM      9  O   UNL     1      -4.880 -17.919  23.479  1.00  0.00    -0.550 OA
ENDBRANCH   6   7
ENDBRANCH   5   6
ENDBRANCH   4   5
ENDBRANCH   3   4
ENDBRANCH   2   3
ENDBRANCH   1   2
BRANCH   1  10
ATOM     10  C   UNL     1      -5.918 -10.024  24.891  1.00  0.00     0.000 C 
BRANCH  10  11
ATOM     11  C   UNL     1      -4.938  -9.085  24.168  1.00  0.00    -0.000 C 
BRANCH  11  12
ATOM     12  C   UNL     1      -3.730  -8.708  25.040  1.00  0.00    -0.000 C 
BRANCH  12  13
ATOM     13  C   UNL     1      -2.436  -8.547  24.225  1.00  0.00    -0.000 C 
BRANCH  13  14
ATOM     14  C   UNL     1      -1.217  -9.171  24.922  1.00  0.00    -0.000 C 
BRANCH  14  15
ATOM     15  C   UNL     1      -0.426  -8.150  25.753  1.00  0.00    -0.003 C 
ATOM     16  C   UNL     1       0.485  -8.848  26.759  1.00  0.00     0.004 C 
ENDBRANCH  14  15
ENDBRANCH  13  14
ENDBRANCH  12  13
ENDBRANCH  11  12
ENDBRANCH  10  11
ENDBRANCH   1  10
TORSDOF 12
ENDMDL
MODEL 2
REMARK VINA RESULT:    13.444      4.190      7.858
REMARK INTER + INTRA:          22.446
REMARK INTER:                  22.925
REMARK INTRA:                  -0.479
REMARK UNBOUND:                -0.429
REMARK SMILES CCCCCCCCCCCCCC(=O)[O-]
REMARK SMILES IDX 8 1 9 2 10 3 11 4 12 5 13 6 14 7 15 8 16 9 7 10 6 11 5 12
REMARK SMILES IDX 4 13 3 14 2 15 1 16
REMARK H PARENT
REMARK Flexibility Score: inf
ROOT
ATOM      1  C   UNL     1      -5.861 -10.521  23.986  1.00  0.00     0.000 C 
ENDROOT
BRANCH   1   2
ATOM      2  C   UNL     1      -5.722  -9.277  24.883  1.00  0.00     0.000 C 
BRANCH   2   3
ATOM      3  C   UNL     1      -4.269  -9.005  25.309  1.00  0.00     0.000 C 
BRANCH   3   4
ATOM      4  C   UNL     1      -3.351  -8.698  24.116  1.00  0.00     0.000 C 
BRANCH   4   5
ATOM      5  C   UNL     1      -2.030  -8.039  24.543  1.00  0.00     0.006 C 
BRANCH   5   6
ATOM      6  C   UNL     1      -1.114  -9.049  25.239  1.00  0.00     0.053 C 
BRANCH   6   7
ATOM      7  C   UNL     1      -0.052  -8.341  26.020  1.00  0.00     0.041 C 
ATOM      8  O   UNL     1       0.484  -8.902  27.013  1.00  0.00    -0.550 OA
ATOM      9  O   UNL     1       0.311  -7.044  25.683  1.00  0.00    -0.550 OA
ENDBRANCH   6   7
ENDBRANCH   5   6
ENDBRANCH   4   5
ENDBRANCH   3   4
ENDBRANCH   2   3
ENDBRANCH   1   2
BRANCH   1  10
ATOM     10  C   UNL     1      -6.653 -11.687  24.609  1.00  0.00     0.000 C 
BRANCH  10  11
ATOM     11  C   UNL     1      -5.908 -13.029  24.527  1.00  0.00    -0.000 C 
BRANCH  11  12
ATOM     12  C   UNL     1      -5.826 -13.742  25.887  1.00  0.00    -0.000 C 
BRANCH  12  13
ATOM     13  C   UNL     1      -4.637 -14.713  25.978  1.00  0.00    -0.000 C 
BRANCH  13  14
ATOM     14  C   UNL     1      -5.079 -16.169  26.189  1.00  0.00    -0.000 C 
BRANCH  14  15
ATOM     15  C   UNL     1      -4.788 -17.057  24.970  1.00  0.00    -0.003 C 
ATOM     16  C   UNL     1      -5.514 -18.395  25.078  1.00  0.00     0.004 C 
ENDBRANCH  14  15
ENDBRANCH  13  14
ENDBRANCH  12  13
ENDBRANCH  11  12
ENDBRANCH  10  11
ENDBRANCH   1  10
TORSDOF 12
ENDMDL
MODEL 3
REMARK VINA RESULT:    13.446      0.893      1.459
REMARK INTER + INTRA:          22.450
REMARK INTER:                  23.061
REMARK INTRA:                  -0.611
REMARK UNBOUND:                -0.429
REMARK SMILES CCCCCCCCCCCCCC(=O)[O-]
REMARK SMILES IDX 8 1 9 2 10 3 11 4 12 5 13 6 14 7 15 8 16 9 7 10 6 11 5 12
REMARK SMILES IDX 4 13 3 14 2 15 1 16
REMARK H PARENT
REMARK Flexibility Score: inf
ROOT
ATOM      1  C   UNL     1      -6.572 -12.495  24.037  1.00  0.00     0.000 C 
ENDROOT
BRANCH   1   2
ATOM      2  C   UNL     1      -6.260 -13.024  25.448  1.00  0.00     0.000 C 
BRANCH   2   3
ATOM      3  C   UNL     1      -5.186 -14.125  25.451  1.00  0.00     0.000 C 
BRANCH   3   4
ATOM      4  C   UNL     1      -5.219 -14.980  26.727  1.00  0.00     0.000 C 
BRANCH   4   5
ATOM      5  C   UNL     1      -5.004 -16.475  26.442  1.00  0.00     0.006 C 
BRANCH   5   6
ATOM      6  C   UNL     1      -4.355 -16.683  25.072  1.00  0.00     0.053 C 
BRANCH   6   7
ATOM      7  C   UNL     1      -5.017 -17.810  24.343  1.00  0.00     0.041 C 
ATOM      8  O   UNL     1      -5.457 -18.804  24.980  1.00  0.00    -0.550 OA
ATOM      9  O   UNL     1      -5.104 -17.786  22.957  1.00  0.00    -0.550 OA
ENDBRANCH   6   7
ENDBRANCH   5   6
ENDBRANCH   4   5
ENDBRANCH   3   4
ENDBRANCH   2   3
ENDBRANCH   1   2
BRANCH   1  10
ATOM     10  C   UNL     1      -6.083 -11.061  23.756  1.00  0.00     0.000 C 
BRANCH  10  11
ATOM     11  C   UNL     1      -6.021 -10.190  25.022  1.00  0.00    -0.000 C 
BRANCH  11  12
ATOM     12  C   UNL     1      -5.441  -8.793  24.748  1.00  0.00    -0.000 C 
BRANCH  12  13
ATOM     13  C   UNL     1      -3.925  -8.720  24.997  1.00  0.00    -0.000 C 
BRANCH  13  14
ATOM     14  C   UNL     1      -3.175  -7.999  23.866  1.00  0.00    -0.000 C 
BRANCH  14  15
ATOM     15  C   UNL     1      -1.699  -8.415  23.777  1.00  0.00    -0.003 C 
ATOM     16  C   UNL     1      -1.194  -8.938  25.119  1.00  0.00     0.004 C 
ENDBRANCH  14  15
ENDBRANCH  13  14
ENDBRANCH  12  13
ENDBRANCH  11  12
ENDBRANCH  10  11
ENDBRANCH   1  10
TORSDOF 12
ENDMDL
MODEL 4
REMARK VINA RESULT:    14.140      3.470      7.719
REMARK INTER + INTRA:          23.631
REMARK INTER:                  24.217
REMARK INTRA:                  -0.587
REMARK UNBOUND:                -0.429
REMARK SMILES CCCCCCCCCCCCCC(=O)[O-]
REMARK SMILES IDX 8 1 9 2 10 3 11 4 12 5 13 6 14 7 15 8 16 9 7 10 6 11 5 12
REMARK SMILES IDX 4 13 3 14 2 15 1 16
REMARK H PARENT
REMARK Flexibility Score: inf
ROOT
ATOM      1  C   UNL     1      -6.521 -12.717  24.169  1.00  0.00     0.000 C 
ENDROOT
BRANCH   1   2
ATOM      2  C   UNL     1      -6.106 -11.293  23.760  1.00  0.00     0.000 C 
BRANCH   2   3
ATOM      3  C   UNL     1      -6.098 -10.308  24.941  1.00  0.00     0.000 C 
BRANCH   3   4
ATOM      4  C   UNL     1      -5.444  -8.964  24.586  1.00  0.00     0.000 C 
BRANCH   4   5
ATOM      5  C   UNL     1      -4.063  -8.789  25.237  1.00  0.00     0.006 C 
BRANCH   5   6
ATOM      6  C   UNL     1      -3.034  -8.298  24.215  1.00  0.00     0.053 C 
BRANCH   6   7
ATOM      7  C   UNL     1      -1.707  -8.945  24.455  1.00  0.00     0.041 C 
ATOM      8  O   UNL     1      -0.871  -8.408  25.230  1.00  0.00    -0.550 OA
ATOM      9  O   UNL     1      -1.372 -10.114  23.785  1.00  0.00    -0.550 OA
ENDBRANCH   6   7
ENDBRANCH   5   6
ENDBRANCH   4   5
ENDBRANCH   3   4
ENDBRANCH   2   3
ENDBRANCH   1   2
BRANCH   1  10
ATOM     10  C   UNL     1      -6.134 -13.121  25.604  1.00  0.00     0.000 C 
BRANCH  10  11
ATOM     11  C   UNL     1      -4.920 -14.065  25.655  1.00  0.00    -0.000 C 
BRANCH  11  12
ATOM     12  C   UNL     1      -5.246 -15.410  26.324  1.00  0.00    -0.000 C 
BRANCH  12  13
ATOM     13  C   UNL     1      -4.486 -16.588  25.691  1.00  0.00    -0.000 C 
BRANCH  13  14
ATOM     14  C   UNL     1      -5.228 -17.924  25.851  1.00  0.00    -0.000 C 
BRANCH  14  15
ATOM     15  C   UNL     1      -5.634 -18.539  24.504  1.00  0.00    -0.003 C 
ATOM     16  C   UNL     1      -5.084 -17.722  23.338  1.00  0.00     0.004 C 
ENDBRANCH  14  15
ENDBRANCH  13  14
ENDBRANCH  12  13
ENDBRANCH  11  12
ENDBRANCH  10  11
ENDBRANCH   1  10
TORSDOF 12
ENDMDL
MODEL 5
REMARK VINA RESULT:    14.616      1.502      2.485
REMARK INTER + INTRA:          24.441
REMARK INTER:                  24.915
REMARK INTRA:                  -0.474
REMARK UNBOUND:                -0.429
REMARK SMILES CCCCCCCCCCCCCC(=O)[O-]
REMARK SMILES IDX 8 1 9 2 10 3 11 4 12 5 13 6 14 7 15 8 16 9 7 10 6 11 5 12
REMARK SMILES IDX 4 13 3 14 2 15 1 16
REMARK H PARENT
REMARK Flexibility Score: inf
ROOT
ATOM      1  C   UNL     1      -6.118 -11.106  24.243  1.00  0.00     0.000 C 
ENDROOT
BRANCH   1   2
ATOM      2  C   UNL     1      -6.652 -12.355  24.966  1.00  0.00     0.000 C 
BRANCH   2   3
ATOM      3  C   UNL     1      -5.783 -13.602  24.729  1.00  0.00     0.000 C 
BRANCH   3   4
ATOM      4  C   UNL     1      -5.400 -14.313  26.036  1.00  0.00     0.000 C 
BRANCH   4   5
ATOM      5  C   UNL     1      -4.401 -15.460  25.815  1.00  0.00     0.006 C 
BRANCH   5   6
ATOM      6  C   UNL     1      -5.035 -16.812  26.153  1.00  0.00     0.053 C 
BRANCH   6   7
ATOM      7  C   UNL     1      -4.998 -17.720  24.965  1.00  0.00     0.041 C 
ATOM      8  O   UNL     1      -5.581 -18.836  25.003  1.00  0.00    -0.550 OA
ATOM      9  O   UNL     1      -4.278 -17.357  23.835  1.00  0.00    -0.550 OA
ENDBRANCH   6   7
ENDBRANCH   5   6
ENDBRANCH   4   5
ENDBRANCH   3   4
ENDBRANCH   2   3
ENDBRANCH   1   2
BRANCH   1  10
ATOM     10  C   UNL     1      -5.941  -9.863  25.135  1.00  0.00     0.000 C 
BRANCH  10  11
ATOM     11  C   UNL     1      -5.148  -8.739  24.448  1.00  0.00    -0.000 C 
BRANCH  11  12
ATOM     12  C   UNL     1      -3.708  -8.627  24.975  1.00  0.00    -0.000 C 
BRANCH  12  13
ATOM     13  C   UNL     1      -2.693  -8.305  23.865  1.00  0.00    -0.000 C 
BRANCH  13  14
ATOM     14  C   UNL     1      -3.183  -7.197  22.920  1.00  0.00    -0.000 C 
BRANCH  14  15
ATOM     15  C   UNL     1      -2.474  -7.226  21.558  1.00  0.00    -0.003 C 
ATOM     16  C   UNL     1      -3.462  -6.992  20.418  1.00  0.00     0.004 C 
ENDBRANCH  14  15
ENDBRANCH  13  14
ENDBRANCH  12  13
ENDBRANCH  11  12
ENDBRANCH  10  11
ENDBRANCH   1  10
TORSDOF 12
ENDMDL
