MODEL 1
REMARK VINA RESULT:    -5.474      0.000      0.000
REMARK INTER + INTRA:         -11.181
REMARK INTER:                  -9.954
REMARK INTRA:                  -1.227
REMARK UNBOUND:                -1.227
REMARK SMILES CCCCCCCCCCCCCCCC(=O)[O-]
REMARK SMILES IDX 9 1 10 2 11 3 12 4 13 5 14 6 15 7 16 8 17 9 18 10 8 11 7 12
REMARK SMILES IDX 6 13 5 14 4 15 3 16 2 17 1 18
REMARK H PARENT
REMARK Flexibility Score: inf
ROOT
ATOM      1  C   UNL     1      22.269  13.564  10.080  1.00  0.00     0.000 C 
ENDROOT
BRANCH   1   2
ATOM      2  C   UNL     1      22.466  13.585   8.553  1.00  0.00     0.000 C 
BRANCH   2   3
ATOM      3  C   UNL     1      23.881  13.127   8.144  1.00  0.00     0.000 C 
BRANCH   3   4
ATOM      4  C   UNL     1      24.975  14.164   8.445  1.00  0.00     0.000 C 
BRANCH   4   5
ATOM      5  C   UNL     1      26.363  13.535   8.628  1.00  0.00     0.000 C 
BRANCH   5   6
ATOM      6  C   UNL     1      26.821  13.625  10.088  1.00  0.00     0.006 C 
BRANCH   6   7
ATOM      7  C   UNL     1      27.524  12.335  10.523  1.00  0.00     0.053 C 
BRANCH   7   8
ATOM      8  C   UNL     1      27.067  11.924  11.886  1.00  0.00     0.041 C 
ATOM      9  O   UNL     1      27.900  11.794  12.821  1.00  0.00    -0.550 OA
ATOM     10  O   UNL     1      25.726  11.639  12.113  1.00  0.00    -0.550 OA
ENDBRANCH   7   8
ENDBRANCH   6   7
ENDBRANCH   5   6
ENDBRANCH   4   5
ENDBRANCH   3   4
ENDBRANCH   2   3
ENDBRANCH   1   2
BRANCH   1  11
ATOM     11  C   UNL     1      22.580  12.188  10.694  1.00  0.00     0.000 C 
BRANCH  11  12
ATOM     12  C   UNL     1      21.343  11.274  10.729  1.00  0.00    -0.000 C 
BRANCH  12  13
ATOM     13  C   UNL     1      21.703   9.802  10.986  1.00  0.00    -0.000 C 
BRANCH  13  14
ATOM     14  C   UNL     1      22.644   9.623  12.188  1.00  0.00    -0.000 C 
BRANCH  14  15
ATOM     15  C   UNL     1      21.857   9.227  13.447  1.00  0.00    -0.000 C 
BRANCH  15  16
ATOM     16  C   UNL     1      20.901   8.044  13.209  1.00  0.00    -0.000 C 
BRANCH  16  17
ATOM     17  C   UNL     1      19.431   8.318  13.575  1.00  0.00    -0.003 C 
ATOM     18  C   UNL     1      19.117   9.806  13.716  1.00  0.00     0.004 C 
ENDBRANCH  16  17
ENDBRANCH  15  16
ENDBRANCH  14  15
ENDBRANCH  13  14
ENDBRANCH  12  13
ENDBRANCH  11  12
ENDBRANCH   1  11
TORSDOF 14
ENDMDL
MODEL 2
REMARK VINA RESULT:    -5.257      2.772      6.554
REMARK INTER + INTRA:         -10.787
REMARK INTER:                  -9.460
REMARK INTRA:                  -1.328
REMARK UNBOUND:                -1.227
REMARK SMILES CCCCCCCCCCCCCCCC(=O)[O-]
REMARK SMILES IDX 9 1 10 2 11 3 12 4 13 5 14 6 15 7 16 8 17 9 18 10 8 11 7 12
REMARK SMILES IDX 6 13 5 14 4 15 3 16 2 17 1 18
REMARK H PARENT
REMARK Flexibility Score: inf
ROOT
ATOM      1  C   UNL     1      22.266  13.661   9.970  1.00  0.00     0.000 C 
ENDROOT
BRANCH   1   2
ATOM      2  C   UNL     1      22.578  12.313  10.644  1.00  0.00     0.000 C 
BRANCH   2   3
ATOM      3  C   UNL     1      21.532  11.234  10.295  1.00  0.00     0.000 C 
BRANCH   3   4
ATOM      4  C   UNL     1      21.691   9.938  11.108  1.00  0.00     0.000 C 
BRANCH   4   5
ATOM      5  C   UNL     1      22.354  10.164  12.473  1.00  0.00     0.000 C 
BRANCH   5   6
ATOM      6  C   UNL     1      22.002   9.038  13.451  1.00  0.00     0.006 C 
BRANCH   6   7
ATOM      7  C   UNL     1      20.689   8.356  13.052  1.00  0.00     0.053 C 
BRANCH   7   8
ATOM      8  C   UNL     1      19.545   8.928  13.826  1.00  0.00     0.041 C 
ATOM      9  O   UNL     1      19.046  10.036  13.494  1.00  0.00    -0.550 OA
ATOM     10  O   UNL     1      19.059   8.261  14.944  1.00  0.00    -0.550 OA
ENDBRANCH   7   8
ENDBRANCH   6   7
ENDBRANCH   5   6
ENDBRANCH   4   5
ENDBRANCH   3   4
ENDBRANCH   2   3
ENDBRANCH   1   2
BRANCH   1  11
ATOM     11  C   UNL     1      22.886  13.777   8.568  1.00  0.00     0.000 C 
BRANCH  11  12
ATOM     12  C   UNL     1      24.354  13.315   8.541  1.00  0.00    -0.000 C 
BRANCH  12  13
ATOM     13  C   UNL     1      25.337  14.482   8.357  1.00  0.00    -0.000 C 
BRANCH  13  14
ATOM     14  C   UNL     1      26.661  14.266   9.106  1.00  0.00    -0.000 C 
BRANCH  14  15
ATOM     15  C   UNL     1      26.753  12.835   9.656  1.00  0.00    -0.000 C 
BRANCH  15  16
ATOM     16  C   UNL     1      26.868  12.788  11.191  1.00  0.00    -0.000 C 
BRANCH  16  17
ATOM     17  C   UNL     1      25.771  11.971  11.897  1.00  0.00    -0.003 C 
ATOM     18  C   UNL     1      25.988  11.859  13.405  1.00  0.00     0.004 C 
ENDBRANCH  16  17
ENDBRANCH  15  16
ENDBRANCH  14  15
ENDBRANCH  13  14
ENDBRANCH  12  13
ENDBRANCH  11  12
ENDBRANCH   1  11
TORSDOF 14
ENDMDL
MODEL 3
REMARK VINA RESULT:    -5.251      3.744      4.511
REMARK INTER + INTRA:         -10.776
REMARK INTER:                 -10.013
REMARK INTRA:                  -0.763
REMARK UNBOUND:                -1.227
REMARK SMILES CCCCCCCCCCCCCCCC(=O)[O-]
REMARK SMILES IDX 9 1 10 2 11 3 12 4 13 5 14 6 15 7 16 8 17 9 18 10 8 11 7 12
REMARK SMILES IDX 6 13 5 14 4 15 3 16 2 17 1 18
REMARK H PARENT
REMARK Flexibility Score: inf
ROOT
ATOM      1  C   UNL     1      23.018  14.113   8.875  1.00  0.00     0.000 C 
ENDROOT
BRANCH   1   2
ATOM      2  C   UNL     1      24.214  13.212   8.519  1.00  0.00     0.000 C 
BRANCH   2   3
ATOM      3  C   UNL     1      25.564  13.906   8.791  1.00  0.00     0.000 C 
BRANCH   3   4
ATOM      4  C   UNL     1      25.887  15.034   7.798  1.00  0.00     0.000 C 
BRANCH   4   5
ATOM      5  C   UNL     1      27.175  15.792   8.149  1.00  0.00     0.000 C 
BRANCH   5   6
ATOM      6  C   UNL     1      26.931  17.305   8.189  1.00  0.00     0.006 C 
BRANCH   6   7
ATOM      7  C   UNL     1      25.552  17.653   7.621  1.00  0.00     0.053 C 
BRANCH   7   8
ATOM      8  C   UNL     1      25.614  18.927   6.841  1.00  0.00     0.041 C 
ATOM      9  O   UNL     1      24.810  19.130   5.893  1.00  0.00    -0.550 OA
ATOM     10  O   UNL     1      26.591  19.873   7.130  1.00  0.00    -0.550 OA
ENDBRANCH   7   8
ENDBRANCH   6   7
ENDBRANCH   5   6
ENDBRANCH   4   5
ENDBRANCH   3   4
ENDBRANCH   2   3
ENDBRANCH   1   2
BRANCH   1  11
ATOM     11  C   UNL     1      22.143  13.518   9.991  1.00  0.00     0.000 C 
BRANCH  11  12
ATOM     12  C   UNL     1      22.532  12.067  10.324  1.00  0.00    -0.000 C 
BRANCH  12  13
ATOM     13  C   UNL     1      21.325  11.212  10.742  1.00  0.00    -0.000 C 
BRANCH  13  14
ATOM     14  C   UNL     1      21.716   9.773  11.113  1.00  0.00    -0.000 C 
BRANCH  14  15
ATOM     15  C   UNL     1      21.661   9.564  12.634  1.00  0.00    -0.000 C 
BRANCH  15  16
ATOM     16  C   UNL     1      21.084   8.193  13.030  1.00  0.00    -0.000 C 
BRANCH  16  17
ATOM     17  C   UNL     1      19.688   8.240  13.676  1.00  0.00    -0.003 C 
ATOM     18  C   UNL     1      19.099   9.649  13.724  1.00  0.00     0.004 C 
ENDBRANCH  16  17
ENDBRANCH  15  16
ENDBRANCH  14  15
ENDBRANCH  13  14
ENDBRANCH  12  13
ENDBRANCH  11  12
ENDBRANCH   1  11
TORSDOF 14
ENDMDL
MODEL 4
REMARK VINA RESULT:    -5.235      2.104      3.567
REMARK INTER + INTRA:         -10.746
REMARK INTER:                  -9.766
REMARK INTRA:                  -0.980
REMARK UNBOUND:                -1.227
REMARK SMILES CCCCCCCCCCCCCCCC(=O)[O-]
REMARK SMILES IDX 9 1 10 2 11 3 12 4 13 5 14 6 15 7 16 8 17 9 18 10 8 11 7 12
REMARK SMILES IDX 6 13 5 14 4 15 3 16 2 17 1 18
REMARK H PARENT
REMARK Flexibility Score: inf
ROOT
ATOM      1  C   UNL     1      25.117  12.374  11.722  1.00  0.00     0.000 C 
ENDROOT
BRANCH   1   2
ATOM      2  C   UNL     1      26.633  12.258  11.478  1.00  0.00     0.000 C 
BRANCH   2   3
ATOM      3  C   UNL     1      27.022  12.670  10.044  1.00  0.00     0.000 C 
BRANCH   3   4
ATOM      4  C   UNL     1      26.930  14.184   9.792  1.00  0.00     0.000 C 
BRANCH   4   5
ATOM      5  C   UNL     1      26.022  14.540   8.606  1.00  0.00     0.000 C 
BRANCH   5   6
ATOM      6  C   UNL     1      24.932  13.480   8.409  1.00  0.00     0.006 C 
BRANCH   6   7
ATOM      7  C   UNL     1      23.541  14.123   8.381  1.00  0.00     0.053 C 
BRANCH   7   8
ATOM      8  C   UNL     1      22.622  13.424   9.330  1.00  0.00     0.041 C 
ATOM      9  O   UNL     1      22.460  12.178   9.254  1.00  0.00    -0.550 OA
ATOM     10  O   UNL     1      21.906  14.156  10.271  1.00  0.00    -0.550 OA
ENDBRANCH   7   8
ENDBRANCH   6   7
ENDBRANCH   5   6
ENDBRANCH   4   5
ENDBRANCH   3   4
ENDBRANCH   2   3
ENDBRANCH   1   2
BRANCH   1  11
ATOM     11  C   UNL     1      24.717  11.959  13.148  1.00  0.00     0.000 C 
BRANCH  11  12
ATOM     12  C   UNL     1      24.879  10.447  13.381  1.00  0.00    -0.000 C 
BRANCH  12  13
ATOM     13  C   UNL     1      23.535   9.700  13.374  1.00  0.00    -0.000 C 
BRANCH  13  14
ATOM     14  C   UNL     1      22.487  10.375  12.476  1.00  0.00    -0.000 C 
BRANCH  14  15
ATOM     15  C   UNL     1      21.439   9.359  11.997  1.00  0.00    -0.000 C 
BRANCH  15  16
ATOM     16  C   UNL     1      21.187   8.232  13.015  1.00  0.00    -0.000 C 
BRANCH  16  17
ATOM     17  C   UNL     1      19.777   8.219  13.632  1.00  0.00    -0.003 C 
ATOM     18  C   UNL     1      19.144   9.608  13.703  1.00  0.00     0.004 C 
ENDBRANCH  16  17
ENDBRANCH  15  16
ENDBRANCH  14  15
ENDBRANCH  13  14
ENDBRANCH  12  13
ENDBRANCH  11  12
ENDBRANCH   1  11
TORSDOF 14
ENDMDL
MODEL 5
REMARK VINA RESULT:    -5.197      2.942      7.716
REMARK INTER + INTRA:         -10.677
REMARK INTER:                  -9.809
REMARK INTRA:                  -0.868
REMARK UNBOUND:                -1.227
REMARK SMILES CCCCCCCCCCCCCCCC(=O)[O-]
REMARK SMILES IDX 9 1 10 2 11 3 12 4 13 5 14 6 15 7 16 8 17 9 18 10 8 11 7 12
REMARK SMILES IDX 6 13 5 14 4 15 3 16 2 17 1 18
REMARK H PARENT
REMARK Flexibility Score: inf
ROOT
ATOM      1  C   UNL     1      22.464  13.315   9.544  1.00  0.00     0.000 C 
ENDROOT
BRANCH   1   2
ATOM      2  C   UNL     1      22.459  12.278  10.682  1.00  0.00     0.000 C 
BRANCH   2   3
ATOM      3  C   UNL     1      21.388  11.189  10.470  1.00  0.00     0.000 C 
BRANCH   3   4
ATOM      4  C   UNL     1      21.726   9.853  11.151  1.00  0.00     0.000 C 
BRANCH   4   5
ATOM      5  C   UNL     1      22.597  10.022  12.404  1.00  0.00     0.000 C 
BRANCH   5   6
ATOM      6  C   UNL     1      22.039   9.209  13.578  1.00  0.00     0.006 C 
BRANCH   6   7
ATOM      7  C   UNL     1      20.785   8.433  13.161  1.00  0.00     0.053 C 
BRANCH   7   8
ATOM      8  C   UNL     1      19.579   8.972  13.861  1.00  0.00     0.041 C 
ATOM      9  O   UNL     1      19.057  10.054  13.484  1.00  0.00    -0.550 OA
ATOM     10  O   UNL     1      19.058   8.302  14.962  1.00  0.00    -0.550 OA
ENDBRANCH   7   8
ENDBRANCH   6   7
ENDBRANCH   5   6
ENDBRANCH   4   5
ENDBRANCH   3   4
ENDBRANCH   2   3
ENDBRANCH   1   2
BRANCH   1  11
ATOM     11  C   UNL     1      23.251  12.836   8.313  1.00  0.00     0.000 C 
BRANCH  11  12
ATOM     12  C   UNL     1      24.548  13.636   8.104  1.00  0.00    -0.000 C 
BRANCH  12  13
ATOM     13  C   UNL     1      25.501  13.542   9.306  1.00  0.00    -0.000 C 
BRANCH  13  14
ATOM     14  C   UNL     1      26.981  13.558   8.893  1.00  0.00    -0.000 C 
BRANCH  14  15
ATOM     15  C   UNL     1      27.195  14.442   7.655  1.00  0.00    -0.000 C 
BRANCH  15  16
ATOM     16  C   UNL     1      27.527  15.903   8.012  1.00  0.00    -0.000 C 
BRANCH  16  17
ATOM     17  C   UNL     1      26.321  16.860   8.008  1.00  0.00    -0.003 C 
ATOM     18  C   UNL     1      26.688  18.285   8.417  1.00  0.00     0.004 C 
ENDBRANCH  16  17
ENDBRANCH  15  16
ENDBRANCH  14  15
ENDBRANCH  13  14
ENDBRANCH  12  13
ENDBRANCH  11  12
ENDBRANCH   1  11
TORSDOF 14
ENDMDL
MODEL 6
REMARK VINA RESULT:    -5.107      1.767      6.523
REMARK INTER + INTRA:         -10.514
REMARK INTER:                  -9.284
REMARK INTRA:                  -1.230
REMARK UNBOUND:                -1.227
REMARK SMILES CCCCCCCCCCCCCCCC(=O)[O-]
REMARK SMILES IDX 9 1 10 2 11 3 12 4 13 5 14 6 15 7 16 8 17 9 18 10 8 11 7 12
REMARK SMILES IDX 6 13 5 14 4 15 3 16 2 17 1 18
REMARK H PARENT
REMARK Flexibility Score: inf
ROOT
ATOM      1  C   UNL     1      21.757  11.929  10.526  1.00  0.00     0.000 C 
ENDROOT
BRANCH   1   2
ATOM      2  C   UNL     1      21.330  10.470  10.765  1.00  0.00     0.000 C 
BRANCH   2   3
ATOM      3  C   UNL     1      20.710  10.268  12.163  1.00  0.00     0.000 C 
BRANCH   3   4
ATOM      4  C   UNL     1      21.401   9.170  12.990  1.00  0.00     0.000 C 
BRANCH   4   5
ATOM      5  C   UNL     1      22.871   8.963  12.601  1.00  0.00     0.000 C 
BRANCH   5   6
ATOM      6  C   UNL     1      23.805   9.708  13.561  1.00  0.00     0.006 C 
BRANCH   6   7
ATOM      7  C   UNL     1      24.367  10.975  12.907  1.00  0.00     0.053 C 
BRANCH   7   8
ATOM      8  C   UNL     1      25.787  11.192  13.321  1.00  0.00     0.041 C 
ATOM      9  O   UNL     1      26.416  12.207  12.923  1.00  0.00    -0.550 OA
ATOM     10  O   UNL     1      26.433  10.248  14.111  1.00  0.00    -0.550 OA
ENDBRANCH   7   8
ENDBRANCH   6   7
ENDBRANCH   5   6
ENDBRANCH   4   5
ENDBRANCH   3   4
ENDBRANCH   2   3
ENDBRANCH   1   2
BRANCH   1  11
ATOM     11  C   UNL     1      22.500  12.114   9.192  1.00  0.00     0.000 C 
BRANCH  11  12
ATOM     12  C   UNL     1      23.032  13.547   9.017  1.00  0.00    -0.000 C 
BRANCH  12  13
ATOM     13  C   UNL     1      24.476  13.581   8.490  1.00  0.00    -0.000 C 
BRANCH  13  14
ATOM     14  C   UNL     1      25.517  13.340   9.594  1.00  0.00    -0.000 C 
BRANCH  14  15
ATOM     15  C   UNL     1      26.802  14.135   9.319  1.00  0.00    -0.000 C 
BRANCH  15  16
ATOM     16  C   UNL     1      26.683  15.066   8.099  1.00  0.00    -0.000 C 
BRANCH  16  17
ATOM     17  C   UNL     1      26.930  16.556   8.395  1.00  0.00    -0.003 C 
ATOM     18  C   UNL     1      25.969  17.480   7.649  1.00  0.00     0.004 C 
ENDBRANCH  16  17
ENDBRANCH  15  16
ENDBRANCH  14  15
ENDBRANCH  13  14
ENDBRANCH  12  13
ENDBRANCH  11  12
ENDBRANCH   1  11
TORSDOF 14
ENDMDL
MODEL 7
REMARK VINA RESULT:    -5.047      2.782      6.927
REMARK INTER + INTRA:         -10.404
REMARK INTER:                  -9.184
REMARK INTRA:                  -1.221
REMARK UNBOUND:                -1.227
REMARK SMILES CCCCCCCCCCCCCCCC(=O)[O-]
REMARK SMILES IDX 9 1 10 2 11 3 12 4 13 5 14 6 15 7 16 8 17 9 18 10 8 11 7 12
REMARK SMILES IDX 6 13 5 14 4 15 3 16 2 17 1 18
REMARK H PARENT
REMARK Flexibility Score: inf
ROOT
ATOM      1  C   UNL     1      25.929  12.252  11.293  1.00  0.00     0.000 C 
ENDROOT
BRANCH   1   2
ATOM      2  C   UNL     1      26.179  11.914  12.774  1.00  0.00     0.000 C 
BRANCH   2   3
ATOM      3  C   UNL     1      24.891  11.462  13.492  1.00  0.00     0.000 C 
BRANCH   3   4
ATOM      4  C   UNL     1      23.843  10.850  12.548  1.00  0.00     0.000 C 
BRANCH   4   5
ATOM      5  C   UNL     1      22.878   9.894  13.263  1.00  0.00     0.000 C 
BRANCH   5   6
ATOM      6  C   UNL     1      21.847   9.318  12.285  1.00  0.00     0.006 C 
BRANCH   6   7
ATOM      7  C   UNL     1      20.995   8.238  12.960  1.00  0.00     0.053 C 
BRANCH   7   8
ATOM      8  C   UNL     1      19.839   8.856  13.678  1.00  0.00     0.041 C 
ATOM      9  O   UNL     1      19.284   8.247  14.630  1.00  0.00    -0.550 OA
ATOM     10  O   UNL     1      19.344  10.088  13.266  1.00  0.00    -0.550 OA
ENDBRANCH   7   8
ENDBRANCH   6   7
ENDBRANCH   5   6
ENDBRANCH   4   5
ENDBRANCH   3   4
ENDBRANCH   2   3
ENDBRANCH   1   2
BRANCH   1  11
ATOM     11  C   UNL     1      27.207  12.707  10.568  1.00  0.00     0.000 C 
BRANCH  11  12
ATOM     12  C   UNL     1      27.028  14.069   9.876  1.00  0.00    -0.000 C 
BRANCH  12  13
ATOM     13  C   UNL     1      27.364  14.019   8.377  1.00  0.00    -0.000 C 
BRANCH  13  14
ATOM     14  C   UNL     1      26.133  14.244   7.485  1.00  0.00    -0.000 C 
BRANCH  14  15
ATOM     15  C   UNL     1      24.852  14.328   8.330  1.00  0.00    -0.000 C 
BRANCH  15  16
ATOM     16  C   UNL     1      23.945  13.094   8.167  1.00  0.00    -0.000 C 
BRANCH  16  17
ATOM     17  C   UNL     1      22.540  13.239   8.778  1.00  0.00    -0.003 C 
ATOM     18  C   UNL     1      22.568  13.607  10.260  1.00  0.00     0.004 C 
ENDBRANCH  16  17
ENDBRANCH  15  16
ENDBRANCH  14  15
ENDBRANCH  13  14
ENDBRANCH  12  13
ENDBRANCH  11  12
ENDBRANCH   1  11
TORSDOF 14
ENDMDL
MODEL 8
REMARK VINA RESULT:    -4.957      2.656      4.094
REMARK INTER + INTRA:         -10.241
REMARK INTER:                  -8.841
REMARK INTRA:                  -1.399
REMARK UNBOUND:                -1.227
REMARK SMILES CCCCCCCCCCCCCCCC(=O)[O-]
REMARK SMILES IDX 9 1 10 2 11 3 12 4 13 5 14 6 15 7 16 8 17 9 18 10 8 11 7 12
REMARK SMILES IDX 6 13 5 14 4 15 3 16 2 17 1 18
REMARK H PARENT
REMARK Flexibility Score: inf
ROOT
ATOM      1  C   UNL     1      22.197  12.121  10.343  1.00  0.00     0.000 C 
ENDROOT
BRANCH   1   2
ATOM      2  C   UNL     1      22.523  12.496   8.886  1.00  0.00     0.000 C 
BRANCH   2   3
ATOM      3  C   UNL     1      23.711  13.476   8.791  1.00  0.00     0.000 C 
BRANCH   3   4
ATOM      4  C   UNL     1      24.717  13.337   9.946  1.00  0.00     0.000 C 
BRANCH   4   5
ATOM      5  C   UNL     1      26.167  13.198   9.464  1.00  0.00     0.000 C 
BRANCH   5   6
ATOM      6  C   UNL     1      26.382  13.941   8.141  1.00  0.00     0.006 C 
BRANCH   6   7
ATOM      7  C   UNL     1      27.301  15.152   8.335  1.00  0.00     0.053 C 
BRANCH   7   8
ATOM      8  C   UNL     1      26.530  16.424   8.182  1.00  0.00     0.041 C 
ATOM      9  O   UNL     1      27.047  17.522   8.514  1.00  0.00    -0.550 OA
ATOM     10  O   UNL     1      25.221  16.391   7.715  1.00  0.00    -0.550 OA
ENDBRANCH   7   8
ENDBRANCH   6   7
ENDBRANCH   5   6
ENDBRANCH   4   5
ENDBRANCH   3   4
ENDBRANCH   2   3
ENDBRANCH   1   2
BRANCH   1  11
ATOM     11  C   UNL     1      21.549  10.732  10.463  1.00  0.00     0.000 C 
BRANCH  11  12
ATOM     12  C   UNL     1      20.865  10.525  11.825  1.00  0.00    -0.000 C 
BRANCH  12  13
ATOM     13  C   UNL     1      21.351   9.255  12.544  1.00  0.00    -0.000 C 
BRANCH  13  14
ATOM     14  C   UNL     1      22.871   9.056  12.434  1.00  0.00    -0.000 C 
BRANCH  14  15
ATOM     15  C   UNL     1      23.609   9.861  13.514  1.00  0.00    -0.000 C 
BRANCH  15  16
ATOM     16  C   UNL     1      24.470  10.997  12.931  1.00  0.00    -0.000 C 
BRANCH  16  17
ATOM     17  C   UNL     1      25.854  11.160  13.585  1.00  0.00    -0.003 C 
ATOM     18  C   UNL     1      26.910  11.696  12.620  1.00  0.00     0.004 C 
ENDBRANCH  16  17
ENDBRANCH  15  16
ENDBRANCH  14  15
ENDBRANCH  13  14
ENDBRANCH  12  13
ENDBRANCH  11  12
ENDBRANCH   1  11
TORSDOF 14
ENDMDL
MODEL 9
REMARK VINA RESULT:    -4.819      9.118     12.792
REMARK INTER + INTRA:          -9.990
REMARK INTER:                  -8.099
REMARK INTRA:                  -1.891
REMARK UNBOUND:                -1.227
REMARK SMILES CCCCCCCCCCCCCCCC(=O)[O-]
REMARK SMILES IDX 9 1 10 2 11 3 12 4 13 5 14 6 15 7 16 8 17 9 18 10 8 11 7 12
REMARK SMILES IDX 6 13 5 14 4 15 3 16 2 17 1 18
REMARK H PARENT
REMARK Flexibility Score: inf
ROOT
ATOM      1  C   UNL     1      26.191  25.422   5.926  1.00  0.00     0.000 C 
ENDROOT
BRANCH   1   2
ATOM      2  C   UNL     1      24.676  25.173   6.041  1.00  0.00     0.000 C 
BRANCH   2   3
ATOM      3  C   UNL     1      24.352  23.989   6.974  1.00  0.00     0.000 C 
BRANCH   3   4
ATOM      4  C   UNL     1      23.614  22.836   6.272  1.00  0.00     0.000 C 
BRANCH   4   5
ATOM      5  C   UNL     1      23.956  22.728   4.779  1.00  0.00     0.000 C 
BRANCH   5   6
ATOM      6  C   UNL     1      23.823  21.283   4.287  1.00  0.00     0.006 C 
BRANCH   6   7
ATOM      7  C   UNL     1      22.351  20.867   4.196  1.00  0.00     0.053 C 
BRANCH   7   8
ATOM      8  C   UNL     1      22.086  19.686   5.074  1.00  0.00     0.041 C 
ATOM      9  O   UNL     1      20.989  19.072   4.996  1.00  0.00    -0.550 OA
ATOM     10  O   UNL     1      23.032  19.291   6.011  1.00  0.00    -0.550 OA
ENDBRANCH   7   8
ENDBRANCH   6   7
ENDBRANCH   5   6
ENDBRANCH   4   5
ENDBRANCH   3   4
ENDBRANCH   2   3
ENDBRANCH   1   2
BRANCH   1  11
ATOM     11  C   UNL     1      26.802  24.765   4.677  1.00  0.00     0.000 C 
BRANCH  11  12
ATOM     12  C   UNL     1      27.807  23.656   5.035  1.00  0.00    -0.000 C 
BRANCH  12  13
ATOM     13  C   UNL     1      27.611  22.386   4.192  1.00  0.00    -0.000 C 
BRANCH  13  14
ATOM     14  C   UNL     1      27.684  21.100   5.030  1.00  0.00    -0.000 C 
BRANCH  14  15
ATOM     15  C   UNL     1      27.033  21.305   6.406  1.00  0.00    -0.000 C 
BRANCH  15  16
ATOM     16  C   UNL     1      27.372  20.181   7.403  1.00  0.00    -0.000 C 
BRANCH  16  17
ATOM     17  C   UNL     1      26.348  19.033   7.455  1.00  0.00    -0.003 C 
ATOM     18  C   UNL     1      26.603  18.057   8.603  1.00  0.00     0.004 C 
ENDBRANCH  16  17
ENDBRANCH  15  16
ENDBRANCH  14  15
ENDBRANCH  13  14
ENDBRANCH  12  13
ENDBRANCH  11  12
ENDBRANCH   1  11
TORSDOF 14
ENDMDL
