MODEL 1
REMARK VINA RESULT:    -6.437      0.000      0.000
REMARK INTER + INTRA:          -7.831
REMARK INTER:                  -7.566
REMARK INTRA:                  -0.264
REMARK UNBOUND:                -0.264
REMARK SMILES O=c1cc(-c2ccc(O)c(O)c2)oc2cc(O)cc(O)c12
REMARK SMILES IDX 4 1 3 2 2 3 1 4 21 5 19 6 18 7 16 8 15 9 14 10 13 11 5 12
REMARK SMILES IDX 6 13 7 14 8 15 12 16 10 17 9 18 11 20 20 22 17 24
REMARK H PARENT 9 19 11 21 20 23 17 25
REMARK Flexibility Score: inf
ROOT
ATOM      1  C   UNL     1      29.072 -22.588 -32.778  1.00  0.00     0.138 A 
ATOM      2  C   UNL     1      30.208 -23.405 -32.702  1.00  0.00     0.100 A 
ATOM      3  C   UNL     1      30.915 -23.495 -31.503  1.00  0.00     0.197 A 
ATOM      4  O   UNL     1      31.965 -24.188 -31.483  1.00  0.00    -0.289 OA
ATOM      5  C   UNL     1      30.463 -22.784 -30.365  1.00  0.00     0.107 A 
ATOM      6  C   UNL     1      31.082 -22.832 -29.079  1.00  0.00     0.134 A 
ATOM      7  C   UNL     1      30.614 -21.995 -28.058  1.00  0.00     0.093 A 
ATOM      8  C   UNL     1      29.513 -21.158 -28.259  1.00  0.00     0.123 A 
ATOM      9  C   UNL     1      28.871 -21.144 -29.494  1.00  0.00     0.094 A 
ATOM     10  C   UNL     1      29.334 -21.942 -30.544  1.00  0.00     0.146 A 
ATOM     11  O   UNL     1      28.701 -21.888 -31.711  1.00  0.00    -0.456 OA
ENDROOT
BRANCH   1  12
ATOM     12  C   UNL     1      28.282 -22.457 -34.029  1.00  0.00     0.021 A 
ATOM     13  C   UNL     1      26.952 -22.910 -34.114  1.00  0.00     0.016 A 
ATOM     14  C   UNL     1      26.229 -22.765 -35.301  1.00  0.00     0.051 A 
ATOM     15  C   UNL     1      26.816 -22.159 -36.418  1.00  0.00     0.157 A 
ATOM     16  C   UNL     1      28.860 -21.837 -35.151  1.00  0.00     0.062 A 
ATOM     17  C   UNL     1      28.138 -21.692 -36.341  1.00  0.00     0.158 A 
BRANCH  15  18
ATOM     18  O   UNL     1      26.092 -22.017 -37.601  1.00  0.00    -0.504 OA
ATOM     19  H   UNL     1      25.088 -21.879 -37.594  1.00  0.00     0.293 HD
ENDBRANCH  15  18
BRANCH  17  20
ATOM     20  O   UNL     1      28.751 -21.080 -37.435  1.00  0.00    -0.504 OA
ATOM     21  H   UNL     1      29.613 -21.432 -37.835  1.00  0.00     0.293 HD
ENDBRANCH  17  20
ENDBRANCH   1  12
BRANCH   6  22
ATOM     22  O   UNL     1      32.131 -23.693 -28.749  1.00  0.00    -0.507 OA
ATOM     23  H   UNL     1      32.979 -23.801 -29.282  1.00  0.00     0.293 HD
ENDBRANCH   6  22
BRANCH   8  24
ATOM     24  O   UNL     1      29.046 -20.340 -27.233  1.00  0.00    -0.508 OA
ATOM     25  H   UNL     1      29.075 -19.330 -27.305  1.00  0.00     0.293 HD
ENDBRANCH   8  24
TORSDOF 5
ENDMDL
MODEL 2
REMARK VINA RESULT:    -6.412      1.611      7.034
REMARK INTER + INTRA:          -7.801
REMARK INTER:                  -7.537
REMARK INTRA:                  -0.263
REMARK UNBOUND:                -0.264
REMARK SMILES O=c1cc(-c2ccc(O)c(O)c2)oc2cc(O)cc(O)c12
REMARK SMILES IDX 4 1 3 2 2 3 1 4 21 5 19 6 18 7 16 8 15 9 14 10 13 11 5 12
REMARK SMILES IDX 6 13 7 14 8 15 12 16 10 17 9 18 11 20 20 22 17 24
REMARK H PARENT 9 19 11 21 20 23 17 25
REMARK Flexibility Score: inf
ROOT
ATOM      1  C   UNL     1      29.171 -22.559 -32.596  1.00  0.00     0.138 A 
ATOM      2  C   UNL     1      28.556 -23.768 -32.947  1.00  0.00     0.100 A 
ATOM      3  C   UNL     1      28.239 -24.020 -34.282  1.00  0.00     0.197 A 
ATOM      4  O   UNL     1      27.632 -25.088 -34.558  1.00  0.00    -0.289 OA
ATOM      5  C   UNL     1      28.569 -23.066 -35.275  1.00  0.00     0.107 A 
ATOM      6  C   UNL     1      28.330 -23.233 -36.673  1.00  0.00     0.134 A 
ATOM      7  C   UNL     1      28.593 -22.172 -37.548  1.00  0.00     0.093 A 
ATOM      8  C   UNL     1      29.141 -20.973 -37.084  1.00  0.00     0.123 A 
ATOM      9  C   UNL     1      29.427 -20.821 -35.730  1.00  0.00     0.094 A 
ATOM     10  C   UNL     1      29.145 -21.848 -34.826  1.00  0.00     0.146 A 
ATOM     11  O   UNL     1      29.419 -21.657 -33.540  1.00  0.00    -0.456 OA
ENDROOT
BRANCH   1  12
ATOM     12  C   UNL     1      29.530 -22.241 -31.191  1.00  0.00     0.021 A 
ATOM     13  C   UNL     1      28.794 -21.312 -30.431  1.00  0.00     0.016 A 
ATOM     14  C   UNL     1      29.149 -21.040 -29.108  1.00  0.00     0.051 A 
ATOM     15  C   UNL     1      30.237 -21.693 -28.517  1.00  0.00     0.157 A 
ATOM     16  C   UNL     1      30.614 -22.903 -30.586  1.00  0.00     0.062 A 
ATOM     17  C   UNL     1      30.972 -22.631 -29.261  1.00  0.00     0.158 A 
BRANCH  15  18
ATOM     18  O   UNL     1      30.589 -21.419 -27.197  1.00  0.00    -0.504 OA
ATOM     19  H   UNL     1      31.330 -21.927 -26.728  1.00  0.00     0.293 HD
ENDBRANCH  15  18
BRANCH  17  20
ATOM     20  O   UNL     1      32.059 -23.303 -28.702  1.00  0.00    -0.504 OA
ATOM     21  H   UNL     1      32.495 -24.095 -29.158  1.00  0.00     0.293 HD
ENDBRANCH  17  20
ENDBRANCH   1  12
BRANCH   6  22
ATOM     22  O   UNL     1      27.865 -24.417 -37.250  1.00  0.00    -0.507 OA
ATOM     23  H   UNL     1      28.255 -24.850 -38.073  1.00  0.00     0.293 HD
ENDBRANCH   6  22
BRANCH   8  24
ATOM     24  O   UNL     1      29.412 -19.929 -37.965  1.00  0.00    -0.508 OA
ATOM     25  H   UNL     1      29.534 -20.090 -38.958  1.00  0.00     0.293 HD
ENDBRANCH   8  24
TORSDOF 5
ENDMDL
MODEL 3
REMARK VINA RESULT:    -6.398      1.856      2.544
REMARK INTER + INTRA:          -7.785
REMARK INTER:                  -7.509
REMARK INTRA:                  -0.276
REMARK UNBOUND:                -0.264
REMARK SMILES O=c1cc(-c2ccc(O)c(O)c2)oc2cc(O)cc(O)c12
REMARK SMILES IDX 4 1 3 2 2 3 1 4 21 5 19 6 18 7 16 8 15 9 14 10 13 11 5 12
REMARK SMILES IDX 6 13 7 14 8 15 12 16 10 17 9 18 11 20 20 22 17 24
REMARK H PARENT 9 19 11 21 20 23 17 25
REMARK Flexibility Score: inf
ROOT
ATOM      1  C   UNL     1      28.547 -22.526 -32.687  1.00  0.00     0.138 A 
ATOM      2  C   UNL     1      27.976 -23.778 -32.417  1.00  0.00     0.100 A 
ATOM      3  C   UNL     1      27.844 -24.207 -31.096  1.00  0.00     0.197 A 
ATOM      4  O   UNL     1      27.384 -25.360 -30.889  1.00  0.00    -0.289 OA
ATOM      5  C   UNL     1      28.258 -23.363 -30.038  1.00  0.00     0.107 A 
ATOM      6  C   UNL     1      28.134 -23.678 -28.651  1.00  0.00     0.134 A 
ATOM      7  C   UNL     1      28.685 -22.815 -27.696  1.00  0.00     0.093 A 
ATOM      8  C   UNL     1      29.301 -21.620 -28.075  1.00  0.00     0.123 A 
ATOM      9  C   UNL     1      29.379 -21.278 -29.423  1.00  0.00     0.094 A 
ATOM     10  C   UNL     1      28.870 -22.134 -30.402  1.00  0.00     0.146 A 
ATOM     11  O   UNL     1      28.978 -21.777 -31.677  1.00  0.00    -0.456 OA
ENDROOT
BRANCH   1  12
ATOM     12  C   UNL     1      28.710 -22.021 -34.073  1.00  0.00     0.021 A 
ATOM     13  C   UNL     1      29.916 -21.443 -34.512  1.00  0.00     0.016 A 
ATOM     14  C   UNL     1      30.045 -20.985 -35.826  1.00  0.00     0.051 A 
ATOM     15  C   UNL     1      28.979 -21.103 -36.725  1.00  0.00     0.157 A 
ATOM     16  C   UNL     1      27.649 -22.149 -34.987  1.00  0.00     0.062 A 
ATOM     17  C   UNL     1      27.775 -21.690 -36.302  1.00  0.00     0.158 A 
BRANCH  15  18
ATOM     18  O   UNL     1      29.111 -20.645 -38.035  1.00  0.00    -0.504 OA
ATOM     19  H   UNL     1      29.087 -21.280 -38.824  1.00  0.00     0.293 HD
ENDBRANCH  15  18
BRANCH  17  20
ATOM     20  O   UNL     1      26.695 -21.827 -37.175  1.00  0.00    -0.504 OA
ATOM     21  H   UNL     1      25.871 -21.242 -37.106  1.00  0.00     0.293 HD
ENDBRANCH  17  20
ENDBRANCH   1  12
BRANCH   6  22
ATOM     22  O   UNL     1      27.463 -24.802 -28.163  1.00  0.00    -0.507 OA
ATOM     23  H   UNL     1      27.786 -25.753 -28.256  1.00  0.00     0.293 HD
ENDBRANCH   6  22
BRANCH   8  24
ATOM     24  O   UNL     1      29.833 -20.760 -27.117  1.00  0.00    -0.508 OA
ATOM     25  H   UNL     1      30.244 -21.111 -26.259  1.00  0.00     0.293 HD
ENDBRANCH   8  24
TORSDOF 5
ENDMDL
MODEL 4
REMARK VINA RESULT:    -6.284      1.977      7.168
REMARK INTER + INTRA:          -7.651
REMARK INTER:                  -7.340
REMARK INTRA:                  -0.311
REMARK UNBOUND:                -0.264
REMARK SMILES O=c1cc(-c2ccc(O)c(O)c2)oc2cc(O)cc(O)c12
REMARK SMILES IDX 4 1 3 2 2 3 1 4 21 5 19 6 18 7 16 8 15 9 14 10 13 11 5 12
REMARK SMILES IDX 6 13 7 14 8 15 12 16 10 17 9 18 11 20 20 22 17 24
REMARK H PARENT 9 19 11 21 20 23 17 25
REMARK Flexibility Score: inf
ROOT
ATOM      1  C   UNL     1      28.476 -22.240 -32.300  1.00  0.00     0.138 A 
ATOM      2  C   UNL     1      29.394 -21.574 -33.124  1.00  0.00     0.100 A 
ATOM      3  C   UNL     1      29.190 -21.544 -34.503  1.00  0.00     0.197 A 
ATOM      4  O   UNL     1      30.064 -20.991 -35.221  1.00  0.00    -0.289 OA
ATOM      5  C   UNL     1      28.042 -22.159 -35.058  1.00  0.00     0.107 A 
ATOM      6  C   UNL     1      27.710 -22.156 -36.446  1.00  0.00     0.134 A 
ATOM      7  C   UNL     1      26.609 -22.897 -36.893  1.00  0.00     0.093 A 
ATOM      8  C   UNL     1      25.794 -23.591 -35.994  1.00  0.00     0.123 A 
ATOM      9  C   UNL     1      26.080 -23.555 -34.632  1.00  0.00     0.094 A 
ATOM     10  C   UNL     1      27.190 -22.853 -34.158  1.00  0.00     0.146 A 
ATOM     11  O   UNL     1      27.436 -22.857 -32.853  1.00  0.00    -0.456 OA
ENDROOT
BRANCH   1  12
ATOM     12  C   UNL     1      28.644 -22.302 -30.826  1.00  0.00     0.021 A 
ATOM     13  C   UNL     1      29.378 -21.327 -30.125  1.00  0.00     0.016 A 
ATOM     14  C   UNL     1      29.512 -21.405 -28.736  1.00  0.00     0.051 A 
ATOM     15  C   UNL     1      28.910 -22.450 -28.024  1.00  0.00     0.157 A 
ATOM     16  C   UNL     1      28.032 -23.341 -30.102  1.00  0.00     0.062 A 
ATOM     17  C   UNL     1      28.165 -23.422 -28.712  1.00  0.00     0.158 A 
BRANCH  15  18
ATOM     18  O   UNL     1      29.047 -22.525 -26.639  1.00  0.00    -0.504 OA
ATOM     19  H   UNL     1      29.598 -21.848 -26.123  1.00  0.00     0.293 HD
ENDBRANCH  15  18
BRANCH  17  20
ATOM     20  O   UNL     1      27.550 -24.473 -28.032  1.00  0.00    -0.504 OA
ATOM     21  H   UNL     1      27.561 -24.539 -27.022  1.00  0.00     0.293 HD
ENDBRANCH  17  20
ENDBRANCH   1  12
BRANCH   6  22
ATOM     22  O   UNL     1      28.407 -21.428 -37.414  1.00  0.00    -0.507 OA
ATOM     23  H   UNL     1      29.373 -21.574 -37.662  1.00  0.00     0.293 HD
ENDBRANCH   6  22
BRANCH   8  24
ATOM     24  O   UNL     1      24.693 -24.313 -36.446  1.00  0.00    -0.508 OA
ATOM     25  H   UNL     1      24.801 -25.155 -37.001  1.00  0.00     0.293 HD
ENDBRANCH   8  24
TORSDOF 5
ENDMDL
MODEL 5
REMARK VINA RESULT:    -6.231      1.948      7.178
REMARK INTER + INTRA:          -7.589
REMARK INTER:                  -7.300
REMARK INTRA:                  -0.289
REMARK UNBOUND:                -0.264
REMARK SMILES O=c1cc(-c2ccc(O)c(O)c2)oc2cc(O)cc(O)c12
REMARK SMILES IDX 4 1 3 2 2 3 1 4 21 5 19 6 18 7 16 8 15 9 14 10 13 11 5 12
REMARK SMILES IDX 6 13 7 14 8 15 12 16 10 17 9 18 11 20 20 22 17 24
REMARK H PARENT 9 19 11 21 20 23 17 25
REMARK Flexibility Score: inf
ROOT
ATOM      1  C   UNL     1      28.013 -22.572 -32.307  1.00  0.00     0.138 A 
ATOM      2  C   UNL     1      26.949 -23.316 -32.837  1.00  0.00     0.100 A 
ATOM      3  C   UNL     1      26.729 -23.323 -34.214  1.00  0.00     0.197 A 
ATOM      4  O   UNL     1      25.730 -23.950 -34.653  1.00  0.00    -0.289 OA
ATOM      5  C   UNL     1      27.599 -22.605 -35.069  1.00  0.00     0.107 A 
ATOM      6  C   UNL     1      27.496 -22.572 -36.492  1.00  0.00     0.134 A 
ATOM      7  C   UNL     1      28.344 -21.733 -37.226  1.00  0.00     0.093 A 
ATOM      8  C   UNL     1      29.329 -20.972 -36.593  1.00  0.00     0.123 A 
ATOM      9  C   UNL     1      29.472 -21.037 -35.210  1.00  0.00     0.094 A 
ATOM     10  C   UNL     1      28.621 -21.839 -34.445  1.00  0.00     0.146 A 
ATOM     11  O   UNL     1      28.781 -21.862 -33.127  1.00  0.00    -0.456 OA
ENDROOT
BRANCH   1  12
ATOM     12  C   UNL     1      28.292 -22.530 -30.850  1.00  0.00     0.021 A 
ATOM     13  C   UNL     1      28.959 -21.442 -30.255  1.00  0.00     0.016 A 
ATOM     14  C   UNL     1      29.199 -21.425 -28.879  1.00  0.00     0.051 A 
ATOM     15  C   UNL     1      28.773 -22.487 -28.072  1.00  0.00     0.157 A 
ATOM     16  C   UNL     1      27.855 -23.586 -30.030  1.00  0.00     0.062 A 
ATOM     17  C   UNL     1      28.096 -23.572 -28.652  1.00  0.00     0.158 A 
BRANCH  15  18
ATOM     18  O   UNL     1      29.016 -22.467 -26.700  1.00  0.00    -0.504 OA
ATOM     19  H   UNL     1      28.382 -22.008 -26.056  1.00  0.00     0.293 HD
ENDBRANCH  15  18
BRANCH  17  20
ATOM     20  O   UNL     1      27.655 -24.644 -27.876  1.00  0.00    -0.504 OA
ATOM     21  H   UNL     1      28.120 -25.543 -27.886  1.00  0.00     0.293 HD
ENDBRANCH  17  20
ENDBRANCH   1  12
BRANCH   6  22
ATOM     22  O   UNL     1      26.605 -23.357 -37.228  1.00  0.00    -0.507 OA
ATOM     23  H   UNL     1      26.394 -23.229 -38.206  1.00  0.00     0.293 HD
ENDBRANCH   6  22
BRANCH   8  24
ATOM     24  O   UNL     1      30.177 -20.151 -37.333  1.00  0.00    -0.508 OA
ATOM     25  H   UNL     1      30.670 -19.375 -36.906  1.00  0.00     0.293 HD
ENDBRANCH   8  24
TORSDOF 5
ENDMDL
MODEL 6
REMARK VINA RESULT:    -6.212      2.093      2.835
REMARK INTER + INTRA:          -7.566
REMARK INTER:                  -7.271
REMARK INTRA:                  -0.295
REMARK UNBOUND:                -0.264
REMARK SMILES O=c1cc(-c2ccc(O)c(O)c2)oc2cc(O)cc(O)c12
REMARK SMILES IDX 4 1 3 2 2 3 1 4 21 5 19 6 18 7 16 8 15 9 14 10 13 11 5 12
REMARK SMILES IDX 6 13 7 14 8 15 12 16 10 17 9 18 11 20 20 22 17 24
REMARK H PARENT 9 19 11 21 20 23 17 25
REMARK Flexibility Score: inf
ROOT
ATOM      1  C   UNL     1      28.571 -22.285 -33.346  1.00  0.00     0.138 A 
ATOM      2  C   UNL     1      28.882 -21.036 -32.790  1.00  0.00     0.100 A 
ATOM      3  C   UNL     1      28.902 -20.883 -31.404  1.00  0.00     0.197 A 
ATOM      4  O   UNL     1      29.125 -19.736 -30.935  1.00  0.00    -0.289 OA
ATOM      5  C   UNL     1      28.640 -21.996 -30.570  1.00  0.00     0.107 A 
ATOM      6  C   UNL     1      28.672 -21.967 -29.142  1.00  0.00     0.134 A 
ATOM      7  C   UNL     1      28.281 -23.102 -28.422  1.00  0.00     0.093 A 
ATOM      8  C   UNL     1      27.916 -24.282 -29.075  1.00  0.00     0.123 A 
ATOM      9  C   UNL     1      27.932 -24.336 -30.467  1.00  0.00     0.094 A 
ATOM     10  C   UNL     1      28.285 -23.211 -31.216  1.00  0.00     0.146 A 
ATOM     11  O   UNL     1      28.274 -23.299 -32.541  1.00  0.00    -0.456 OA
ENDROOT
BRANCH   1  12
ATOM     12  C   UNL     1      28.537 -22.503 -34.815  1.00  0.00     0.021 A 
ATOM     13  C   UNL     1      28.203 -23.752 -35.368  1.00  0.00     0.016 A 
ATOM     14  C   UNL     1      28.168 -23.926 -36.755  1.00  0.00     0.051 A 
ATOM     15  C   UNL     1      28.458 -22.856 -37.610  1.00  0.00     0.157 A 
ATOM     16  C   UNL     1      28.813 -21.430 -35.681  1.00  0.00     0.062 A 
ATOM     17  C   UNL     1      28.780 -21.601 -37.069  1.00  0.00     0.158 A 
BRANCH  15  18
ATOM     18  O   UNL     1      28.423 -23.034 -38.992  1.00  0.00    -0.504 OA
ATOM     19  H   UNL     1      28.161 -22.280 -39.617  1.00  0.00     0.293 HD
ENDBRANCH  15  18
BRANCH  17  20
ATOM     20  O   UNL     1      29.069 -20.514 -37.893  1.00  0.00    -0.504 OA
ATOM     21  H   UNL     1      29.374 -19.623 -37.521  1.00  0.00     0.293 HD
ENDBRANCH  17  20
ENDBRANCH   1  12
BRANCH   6  22
ATOM     22  O   UNL     1      29.102 -20.869 -28.393  1.00  0.00    -0.507 OA
ATOM     23  H   UNL     1      29.530 -20.924 -27.482  1.00  0.00     0.293 HD
ENDBRANCH   6  22
BRANCH   8  24
ATOM     24  O   UNL     1      27.542 -25.410 -28.349  1.00  0.00    -0.508 OA
ATOM     25  H   UNL     1      26.631 -25.840 -28.467  1.00  0.00     0.293 HD
ENDBRANCH   8  24
TORSDOF 5
ENDMDL
MODEL 7
REMARK VINA RESULT:    -6.053      2.161      7.233
REMARK INTER + INTRA:          -7.379
REMARK INTER:                  -7.097
REMARK INTRA:                  -0.283
REMARK UNBOUND:                -0.264
REMARK SMILES O=c1cc(-c2ccc(O)c(O)c2)oc2cc(O)cc(O)c12
REMARK SMILES IDX 4 1 3 2 2 3 1 4 21 5 19 6 18 7 16 8 15 9 14 10 13 11 5 12
REMARK SMILES IDX 6 13 7 14 8 15 12 16 10 17 9 18 11 20 20 22 17 24
REMARK H PARENT 9 19 11 21 20 23 17 25
REMARK Flexibility Score: inf
ROOT
ATOM      1  C   UNL     1      29.135 -21.869 -29.927  1.00  0.00     0.138 A 
ATOM      2  C   UNL     1      30.289 -21.426 -30.588  1.00  0.00     0.100 A 
ATOM      3  C   UNL     1      30.318 -21.395 -31.982  1.00  0.00     0.197 A 
ATOM      4  O   UNL     1      31.389 -21.051 -32.547  1.00  0.00    -0.289 OA
ATOM      5  C   UNL     1      29.173 -21.781 -32.718  1.00  0.00     0.107 A 
ATOM      6  C   UNL     1      29.074 -21.752 -34.142  1.00  0.00     0.134 A 
ATOM      7  C   UNL     1      27.930 -22.268 -34.764  1.00  0.00     0.093 A 
ATOM      8  C   UNL     1      26.859 -22.757 -34.013  1.00  0.00     0.123 A 
ATOM      9  C   UNL     1      26.924 -22.741 -32.622  1.00  0.00     0.094 A 
ATOM     10  C   UNL     1      28.065 -22.264 -31.971  1.00  0.00     0.146 A 
ATOM     11  O   UNL     1      28.093 -22.279 -30.643  1.00  0.00    -0.456 OA
ENDROOT
BRANCH   1  12
ATOM     12  C   UNL     1      29.050 -21.922 -28.445  1.00  0.00     0.021 A 
ATOM     13  C   UNL     1      29.258 -20.778 -27.653  1.00  0.00     0.016 A 
ATOM     14  C   UNL     1      29.162 -20.854 -26.260  1.00  0.00     0.051 A 
ATOM     15  C   UNL     1      28.849 -22.068 -25.637  1.00  0.00     0.157 A 
ATOM     16  C   UNL     1      28.722 -23.134 -27.813  1.00  0.00     0.062 A 
ATOM     17  C   UNL     1      28.627 -23.213 -26.419  1.00  0.00     0.158 A 
BRANCH  15  18
ATOM     18  O   UNL     1      28.755 -22.140 -24.249  1.00  0.00    -0.504 OA
ATOM     19  H   UNL     1      29.123 -22.931 -23.732  1.00  0.00     0.293 HD
ENDBRANCH  15  18
BRANCH  17  20
ATOM     20  O   UNL     1      28.309 -24.437 -25.830  1.00  0.00    -0.504 OA
ATOM     21  H   UNL     1      27.543 -25.010 -26.161  1.00  0.00     0.293 HD
ENDBRANCH  17  20
ENDBRANCH   1  12
BRANCH   6  22
ATOM     22  O   UNL     1      30.049 -21.208 -34.981  1.00  0.00    -0.507 OA
ATOM     23  H   UNL     1      30.638 -20.423 -34.749  1.00  0.00     0.293 HD
ENDBRANCH   6  22
BRANCH   8  24
ATOM     24  O   UNL     1      25.720 -23.255 -34.640  1.00  0.00    -0.508 OA
ATOM     25  H   UNL     1      24.793 -22.924 -34.398  1.00  0.00     0.293 HD
ENDBRANCH   8  24
TORSDOF 5
ENDMDL
MODEL 8
REMARK VINA RESULT:    -6.041      3.939      6.338
REMARK INTER + INTRA:          -7.365
REMARK INTER:                  -7.086
REMARK INTRA:                  -0.279
REMARK UNBOUND:                -0.264
REMARK SMILES O=c1cc(-c2ccc(O)c(O)c2)oc2cc(O)cc(O)c12
REMARK SMILES IDX 4 1 3 2 2 3 1 4 21 5 19 6 18 7 16 8 15 9 14 10 13 11 5 12
REMARK SMILES IDX 6 13 7 14 8 15 12 16 10 17 9 18 11 20 20 22 17 24
REMARK H PARENT 9 19 11 21 20 23 17 25
REMARK Flexibility Score: inf
ROOT
ATOM      1  C   UNL     1      26.784 -24.915 -35.717  1.00  0.00     0.138 A 
ATOM      2  C   UNL     1      27.511 -25.059 -34.527  1.00  0.00     0.100 A 
ATOM      3  C   UNL     1      28.485 -24.117 -34.194  1.00  0.00     0.197 A 
ATOM      4  O   UNL     1      29.163 -24.307 -33.151  1.00  0.00    -0.289 OA
ATOM      5  C   UNL     1      28.709 -23.008 -35.044  1.00  0.00     0.107 A 
ATOM      6  C   UNL     1      29.649 -21.964 -34.786  1.00  0.00     0.134 A 
ATOM      7  C   UNL     1      29.867 -20.979 -35.757  1.00  0.00     0.093 A 
ATOM      8  C   UNL     1      29.138 -20.966 -36.948  1.00  0.00     0.123 A 
ATOM      9  C   UNL     1      28.182 -21.950 -37.186  1.00  0.00     0.094 A 
ATOM     10  C   UNL     1      27.964 -22.966 -36.253  1.00  0.00     0.146 A 
ATOM     11  O   UNL     1      27.053 -23.894 -36.524  1.00  0.00    -0.456 OA
ENDROOT
BRANCH   1  12
ATOM     12  C   UNL     1      25.736 -25.887 -36.118  1.00  0.00     0.021 A 
ATOM     13  C   UNL     1      26.019 -27.257 -36.276  1.00  0.00     0.016 A 
ATOM     14  C   UNL     1      25.011 -28.151 -36.644  1.00  0.00     0.051 A 
ATOM     15  C   UNL     1      23.703 -27.697 -36.854  1.00  0.00     0.157 A 
ATOM     16  C   UNL     1      24.417 -25.441 -36.316  1.00  0.00     0.062 A 
ATOM     17  C   UNL     1      23.405 -26.334 -36.687  1.00  0.00     0.158 A 
BRANCH  15  18
ATOM     18  O   UNL     1      22.700 -28.592 -37.222  1.00  0.00    -0.504 OA
ATOM     19  H   UNL     1      22.346 -29.287 -36.575  1.00  0.00     0.293 HD
ENDBRANCH  15  18
BRANCH  17  20
ATOM     20  O   UNL     1      22.112 -25.850 -36.883  1.00  0.00    -0.504 OA
ATOM     21  H   UNL     1      21.927 -25.014 -37.424  1.00  0.00     0.293 HD
ENDBRANCH  17  20
ENDBRANCH   1  12
BRANCH   6  22
ATOM     22  O   UNL     1      30.366 -21.836 -33.594  1.00  0.00    -0.507 OA
ATOM     23  H   UNL     1      31.126 -21.191 -33.444  1.00  0.00     0.293 HD
ENDBRANCH   6  22
BRANCH   8  24
ATOM     24  O   UNL     1      29.352 -19.973 -37.901  1.00  0.00    -0.508 OA
ATOM     25  H   UNL     1      30.280 -19.614 -38.095  1.00  0.00     0.293 HD
ENDBRANCH   8  24
TORSDOF 5
ENDMDL
MODEL 9
REMARK VINA RESULT:    -5.928      2.432      3.244
REMARK INTER + INTRA:          -7.232
REMARK INTER:                  -6.938
REMARK INTRA:                  -0.293
REMARK UNBOUND:                -0.264
REMARK SMILES O=c1cc(-c2ccc(O)c(O)c2)oc2cc(O)cc(O)c12
REMARK SMILES IDX 4 1 3 2 2 3 1 4 21 5 19 6 18 7 16 8 15 9 14 10 13 11 5 12
REMARK SMILES IDX 6 13 7 14 8 15 12 16 10 17 9 18 11 20 20 22 17 24
REMARK H PARENT 9 19 11 21 20 23 17 25
REMARK Flexibility Score: inf
ROOT
ATOM      1  C   UNL     1      26.973 -23.232 -32.784  1.00  0.00     0.138 A 
ATOM      2  C   UNL     1      27.375 -21.892 -32.701  1.00  0.00     0.100 A 
ATOM      3  C   UNL     1      27.911 -21.405 -31.509  1.00  0.00     0.197 A 
ATOM      4  O   UNL     1      28.206 -20.183 -31.445  1.00  0.00    -0.289 OA
ATOM      5  C   UNL     1      28.074 -22.274 -30.404  1.00  0.00     0.107 A 
ATOM      6  C   UNL     1      28.647 -21.898 -29.152  1.00  0.00     0.134 A 
ATOM      7  C   UNL     1      28.650 -22.814 -28.092  1.00  0.00     0.093 A 
ATOM      8  C   UNL     1      28.156 -24.110 -28.258  1.00  0.00     0.123 A 
ATOM      9  C   UNL     1      27.644 -24.503 -29.492  1.00  0.00     0.094 A 
ATOM     10  C   UNL     1      27.595 -23.603 -30.559  1.00  0.00     0.146 A 
ATOM     11  O   UNL     1      27.086 -24.013 -31.715  1.00  0.00    -0.456 OA
ENDROOT
BRANCH   1  12
ATOM     12  C   UNL     1      26.397 -23.802 -34.029  1.00  0.00     0.021 A 
ATOM     13  C   UNL     1      25.745 -25.049 -34.037  1.00  0.00     0.016 A 
ATOM     14  C   UNL     1      25.203 -25.557 -35.221  1.00  0.00     0.051 A 
ATOM     15  C   UNL     1      25.295 -24.827 -36.413  1.00  0.00     0.157 A 
ATOM     16  C   UNL     1      26.473 -23.069 -35.226  1.00  0.00     0.062 A 
ATOM     17  C   UNL     1      25.932 -23.575 -36.413  1.00  0.00     0.158 A 
BRANCH  15  18
ATOM     18  O   UNL     1      24.754 -25.337 -37.592  1.00  0.00    -0.504 OA
ATOM     19  H   UNL     1      25.247 -26.027 -38.147  1.00  0.00     0.293 HD
ENDBRANCH  15  18
BRANCH  17  20
ATOM     20  O   UNL     1      26.037 -22.821 -37.582  1.00  0.00    -0.504 OA
ATOM     21  H   UNL     1      25.628 -23.125 -38.457  1.00  0.00     0.293 HD
ENDBRANCH  17  20
ENDBRANCH   1  12
BRANCH   6  22
ATOM     22  O   UNL     1      29.244 -20.659 -28.907  1.00  0.00    -0.507 OA
ATOM     23  H   UNL     1      28.849 -19.931 -28.332  1.00  0.00     0.293 HD
ENDBRANCH   6  22
BRANCH   8  24
ATOM     24  O   UNL     1      28.177 -25.018 -27.203  1.00  0.00    -0.508 OA
ATOM     25  H   UNL     1      28.894 -25.731 -27.130  1.00  0.00     0.293 HD
ENDBRANCH   8  24
TORSDOF 5
ENDMDL
