MODEL 1
REMARK VINA RESULT:    -3.441      0.000      0.000
REMARK INTER + INTRA:          -8.115
REMARK INTER:                  -5.855
REMARK INTRA:                  -2.261
REMARK UNBOUND:                -2.261
REMARK SMILES CCCCCCCCCCCCCC(=O)[O-]
REMARK SMILES IDX 8 1 9 2 10 3 11 4 12 5 13 6 14 7 15 8 16 9 7 10 6 11 5 12
REMARK SMILES IDX 4 13 3 14 2 15 1 16
REMARK H PARENT
REMARK Flexibility Score: inf
ROOT
ATOM      1  C   UNL     1       1.054   9.353  39.596  1.00  0.00     0.000 C 
ENDROOT
BRANCH   1   2
ATOM      2  C   UNL     1       0.945   8.211  40.622  1.00  0.00     0.000 C 
BRANCH   2   3
ATOM      3  C   UNL     1       1.050   6.820  39.977  1.00  0.00     0.000 C 
BRANCH   3   4
ATOM      4  C   UNL     1       1.548   6.882  38.522  1.00  0.00     0.000 C 
BRANCH   4   5
ATOM      5  C   UNL     1       0.549   6.264  37.531  1.00  0.00     0.006 C 
BRANCH   5   6
ATOM      6  C   UNL     1       0.461   7.047  36.214  1.00  0.00     0.053 C 
BRANCH   6   7
ATOM      7  C   UNL     1      -0.572   6.444  35.315  1.00  0.00     0.041 C 
ATOM      8  O   UNL     1      -1.764   6.849  35.358  1.00  0.00    -0.550 OA
ATOM      9  O   UNL     1      -0.230   5.400  34.466  1.00  0.00    -0.550 OA
ENDBRANCH   6   7
ENDBRANCH   5   6
ENDBRANCH   4   5
ENDBRANCH   3   4
ENDBRANCH   2   3
ENDBRANCH   1   2
BRANCH   1  10
ATOM     10  C   UNL     1      -0.265  10.125  39.427  1.00  0.00     0.000 C 
BRANCH  10  11
ATOM     11  C   UNL     1      -0.830  10.022  38.000  1.00  0.00    -0.000 C 
BRANCH  11  12
ATOM     12  C   UNL     1      -2.106   9.167  37.932  1.00  0.00    -0.000 C 
BRANCH  12  13
ATOM     13  C   UNL     1      -2.553   8.656  39.314  1.00  0.00    -0.000 C 
BRANCH  13  14
ATOM     14  C   UNL     1      -2.752   7.133  39.343  1.00  0.00    -0.000 C 
BRANCH  14  15
ATOM     15  C   UNL     1      -2.520   6.534  40.738  1.00  0.00    -0.003 C 
ATOM     16  C   UNL     1      -2.673   7.594  41.825  1.00  0.00     0.004 C 
ENDBRANCH  14  15
ENDBRANCH  13  14
ENDBRANCH  12  13
ENDBRANCH  11  12
ENDBRANCH  10  11
ENDBRANCH   1  10
TORSDOF 12
ENDMDL
MODEL 2
REMARK VINA RESULT:    -3.382      1.586      2.037
REMARK INTER + INTRA:          -8.016
REMARK INTER:                  -5.855
REMARK INTRA:                  -2.161
REMARK UNBOUND:                -2.261
REMARK SMILES CCCCCCCCCCCCCC(=O)[O-]
REMARK SMILES IDX 8 1 9 2 10 3 11 4 12 5 13 6 14 7 15 8 16 9 7 10 6 11 5 12
REMARK SMILES IDX 4 13 3 14 2 15 1 16
REMARK H PARENT
REMARK Flexibility Score: inf
ROOT
ATOM      1  C   UNL     1      -0.383   9.372  40.185  1.00  0.00     0.000 C 
ENDROOT
BRANCH   1   2
ATOM      2  C   UNL     1       1.016   8.759  39.993  1.00  0.00     0.000 C 
BRANCH   2   3
ATOM      3  C   UNL     1       1.029   7.236  40.193  1.00  0.00     0.000 C 
BRANCH   3   4
ATOM      4  C   UNL     1       1.774   6.499  39.067  1.00  0.00     0.000 C 
BRANCH   4   5
ATOM      5  C   UNL     1       1.842   7.319  37.770  1.00  0.00     0.006 C 
BRANCH   5   6
ATOM      6  C   UNL     1       0.701   6.986  36.799  1.00  0.00     0.053 C 
BRANCH   6   7
ATOM      7  C   UNL     1       0.615   8.020  35.720  1.00  0.00     0.041 C 
ATOM      8  O   UNL     1       0.902   9.221  35.969  1.00  0.00    -0.550 OA
ATOM      9  O   UNL     1       0.169   7.667  34.454  1.00  0.00    -0.550 OA
ENDBRANCH   6   7
ENDBRANCH   5   6
ENDBRANCH   4   5
ENDBRANCH   3   4
ENDBRANCH   2   3
ENDBRANCH   1   2
BRANCH   1  10
ATOM     10  C   UNL     1      -1.085   9.672  38.851  1.00  0.00     0.000 C 
BRANCH  10  11
ATOM     11  C   UNL     1      -2.199   8.660  38.530  1.00  0.00    -0.000 C 
BRANCH  11  12
ATOM     12  C   UNL     1      -2.894   8.128  39.794  1.00  0.00    -0.000 C 
BRANCH  12  13
ATOM     13  C   UNL     1      -3.077   6.600  39.773  1.00  0.00    -0.000 C 
BRANCH  13  14
ATOM     14  C   UNL     1      -2.321   5.931  38.615  1.00  0.00    -0.000 C 
BRANCH  14  15
ATOM     15  C   UNL     1      -1.498   4.717  39.071  1.00  0.00    -0.003 C 
ATOM     16  C   UNL     1      -1.693   4.447  40.560  1.00  0.00     0.004 C 
ENDBRANCH  14  15
ENDBRANCH  13  14
ENDBRANCH  12  13
ENDBRANCH  11  12
ENDBRANCH  10  11
ENDBRANCH   1  10
TORSDOF 12
ENDMDL
MODEL 3
REMARK VINA RESULT:    -3.362      1.459      3.590
REMARK INTER + INTRA:          -7.981
REMARK INTER:                  -6.021
REMARK INTRA:                  -1.960
REMARK UNBOUND:                -2.261
REMARK SMILES CCCCCCCCCCCCCC(=O)[O-]
REMARK SMILES IDX 8 1 9 2 10 3 11 4 12 5 13 6 14 7 15 8 16 9 7 10 6 11 5 12
REMARK SMILES IDX 4 13 3 14 2 15 1 16
REMARK H PARENT
REMARK Flexibility Score: inf
ROOT
ATOM      1  C   UNL     1      -2.981   8.261  39.744  1.00  0.00     0.000 C 
ENDROOT
BRANCH   1   2
ATOM      2  C   UNL     1      -1.753   8.621  38.889  1.00  0.00     0.000 C 
BRANCH   2   3
ATOM      3  C   UNL     1      -2.047   9.730  37.867  1.00  0.00     0.000 C 
BRANCH   3   4
ATOM      4  C   UNL     1      -1.577   9.364  36.448  1.00  0.00     0.000 C 
BRANCH   4   5
ATOM      5  C   UNL     1      -0.870   8.001  36.394  1.00  0.00     0.006 C 
BRANCH   5   6
ATOM      6  C   UNL     1      -1.609   6.986  35.510  1.00  0.00     0.053 C 
BRANCH   6   7
ATOM      7  C   UNL     1      -0.631   6.143  34.754  1.00  0.00     0.041 C 
ATOM      8  O   UNL     1      -0.020   6.618  33.761  1.00  0.00    -0.550 OA
ATOM      9  O   UNL     1      -0.432   4.817  35.116  1.00  0.00    -0.550 OA
ENDBRANCH   6   7
ENDBRANCH   5   6
ENDBRANCH   4   5
ENDBRANCH   3   4
ENDBRANCH   2   3
ENDBRANCH   1   2
BRANCH   1  10
ATOM     10  C   UNL     1      -3.029   6.768  40.110  1.00  0.00     0.000 C 
BRANCH  10  11
ATOM     11  C   UNL     1      -2.497   5.866  38.983  1.00  0.00    -0.000 C 
BRANCH  11  12
ATOM     12  C   UNL     1      -1.334   4.972  39.444  1.00  0.00    -0.000 C 
BRANCH  12  13
ATOM     13  C   UNL     1      -0.053   5.191  38.619  1.00  0.00    -0.000 C 
BRANCH  13  14
ATOM     14  C   UNL     1       0.942   6.134  39.314  1.00  0.00    -0.000 C 
BRANCH  14  15
ATOM     15  C   UNL     1       0.722   6.209  40.832  1.00  0.00    -0.003 C 
ATOM     16  C   UNL     1       0.856   7.642  41.337  1.00  0.00     0.004 C 
ENDBRANCH  14  15
ENDBRANCH  13  14
ENDBRANCH  12  13
ENDBRANCH  11  12
ENDBRANCH  10  11
ENDBRANCH   1  10
TORSDOF 12
ENDMDL
MODEL 4
REMARK VINA RESULT:    -3.359      1.532      3.206
REMARK INTER + INTRA:          -7.977
REMARK INTER:                  -5.628
REMARK INTRA:                  -2.349
REMARK UNBOUND:                -2.261
REMARK SMILES CCCCCCCCCCCCCC(=O)[O-]
REMARK SMILES IDX 8 1 9 2 10 3 11 4 12 5 13 6 14 7 15 8 16 9 7 10 6 11 5 12
REMARK SMILES IDX 4 13 3 14 2 15 1 16
REMARK H PARENT
REMARK Flexibility Score: inf
ROOT
ATOM      1  C   UNL     1      -2.995   8.230  39.752  1.00  0.00     0.000 C 
ENDROOT
BRANCH   1   2
ATOM      2  C   UNL     1      -2.706   6.960  40.571  1.00  0.00     0.000 C 
BRANCH   2   3
ATOM      3  C   UNL     1      -3.010   5.670  39.792  1.00  0.00     0.000 C 
BRANCH   3   4
ATOM      4  C   UNL     1      -1.794   4.730  39.711  1.00  0.00     0.000 C 
BRANCH   4   5
ATOM      5  C   UNL     1      -1.200   4.655  38.296  1.00  0.00     0.006 C 
BRANCH   5   6
ATOM      6  C   UNL     1      -2.178   5.141  37.217  1.00  0.00     0.053 C 
BRANCH   6   7
ATOM      7  C   UNL     1      -1.483   5.261  35.898  1.00  0.00     0.041 C 
ATOM      8  O   UNL     1      -0.810   4.297  35.446  1.00  0.00    -0.550 OA
ATOM      9  O   UNL     1      -1.537   6.455  35.191  1.00  0.00    -0.550 OA
ENDBRANCH   6   7
ENDBRANCH   5   6
ENDBRANCH   4   5
ENDBRANCH   3   4
ENDBRANCH   2   3
ENDBRANCH   1   2
BRANCH   1  10
ATOM     10  C   UNL     1      -1.714   8.982  39.354  1.00  0.00     0.000 C 
BRANCH  10  11
ATOM     11  C   UNL     1      -1.250   8.643  37.927  1.00  0.00    -0.000 C 
BRANCH  11  12
ATOM     12  C   UNL     1       0.171   8.058  37.893  1.00  0.00    -0.000 C 
BRANCH  12  13
ATOM     13  C   UNL     1       0.933   8.270  39.214  1.00  0.00    -0.000 C 
BRANCH  13  14
ATOM     14  C   UNL     1       1.328   6.946  39.886  1.00  0.00    -0.000 C 
BRANCH  14  15
ATOM     15  C   UNL     1       0.832   6.849  41.336  1.00  0.00    -0.003 C 
ATOM     16  C   UNL     1       0.831   8.218  42.011  1.00  0.00     0.004 C 
ENDBRANCH  14  15
ENDBRANCH  13  14
ENDBRANCH  12  13
ENDBRANCH  11  12
ENDBRANCH  10  11
ENDBRANCH   1  10
TORSDOF 12
ENDMDL
MODEL 5
REMARK VINA RESULT:    -3.331      1.525      3.038
REMARK INTER + INTRA:          -7.929
REMARK INTER:                  -5.635
REMARK INTRA:                  -2.294
REMARK UNBOUND:                -2.261
REMARK SMILES CCCCCCCCCCCCCC(=O)[O-]
REMARK SMILES IDX 8 1 9 2 10 3 11 4 12 5 13 6 14 7 15 8 16 9 7 10 6 11 5 12
REMARK SMILES IDX 4 13 3 14 2 15 1 16
REMARK H PARENT
REMARK Flexibility Score: inf
ROOT
ATOM      1  C   UNL     1       1.101   6.763  40.211  1.00  0.00     0.000 C 
ENDROOT
BRANCH   1   2
ATOM      2  C   UNL     1       0.975   8.047  39.372  1.00  0.00     0.000 C 
BRANCH   2   3
ATOM      3  C   UNL     1       0.178   9.148  40.088  1.00  0.00     0.000 C 
BRANCH   3   4
ATOM      4  C   UNL     1      -0.501  10.119  39.106  1.00  0.00     0.000 C 
BRANCH   4   5
ATOM      5  C   UNL     1      -1.567   9.430  38.238  1.00  0.00     0.006 C 
BRANCH   5   6
ATOM      6  C   UNL     1      -1.517   9.881  36.772  1.00  0.00     0.053 C 
BRANCH   6   7
ATOM      7  C   UNL     1      -0.572   9.021  35.993  1.00  0.00     0.041 C 
ATOM      8  O   UNL     1       0.630   9.368  35.852  1.00  0.00    -0.550 OA
ATOM      9  O   UNL     1      -1.031   7.863  35.381  1.00  0.00    -0.550 OA
ENDBRANCH   6   7
ENDBRANCH   5   6
ENDBRANCH   4   5
ENDBRANCH   3   4
ENDBRANCH   2   3
ENDBRANCH   1   2
BRANCH   1  10
ATOM     10  C   UNL     1       0.378   5.565  39.572  1.00  0.00     0.000 C 
BRANCH  10  11
ATOM     11  C   UNL     1      -0.190   5.893  38.181  1.00  0.00    -0.000 C 
BRANCH  11  12
ATOM     12  C   UNL     1      -1.713   5.695  38.106  1.00  0.00    -0.000 C 
BRANCH  12  13
ATOM     13  C   UNL     1      -2.367   5.581  39.494  1.00  0.00    -0.000 C 
BRANCH  13  14
ATOM     14  C   UNL     1      -3.370   6.712  39.769  1.00  0.00    -0.000 C 
BRANCH  14  15
ATOM     15  C   UNL     1      -2.987   7.557  40.993  1.00  0.00    -0.003 C 
ATOM     16  C   UNL     1      -2.191   6.735  42.001  1.00  0.00     0.004 C 
ENDBRANCH  14  15
ENDBRANCH  13  14
ENDBRANCH  12  13
ENDBRANCH  11  12
ENDBRANCH  10  11
ENDBRANCH   1  10
TORSDOF 12
ENDMDL
MODEL 6
REMARK VINA RESULT:    -3.307      1.400      3.406
REMARK INTER + INTRA:          -7.888
REMARK INTER:                  -5.762
REMARK INTRA:                  -2.126
REMARK UNBOUND:                -2.261
REMARK SMILES CCCCCCCCCCCCCC(=O)[O-]
REMARK SMILES IDX 8 1 9 2 10 3 11 4 12 5 13 6 14 7 15 8 16 9 7 10 6 11 5 12
REMARK SMILES IDX 4 13 3 14 2 15 1 16
REMARK H PARENT
REMARK Flexibility Score: inf
ROOT
ATOM      1  C   UNL     1      -2.678   6.329  40.242  1.00  0.00     0.000 C 
ENDROOT
BRANCH   1   2
ATOM      2  C   UNL     1      -2.676   5.760  38.812  1.00  0.00     0.000 C 
BRANCH   2   3
ATOM      3  C   UNL     1      -1.411   4.944  38.500  1.00  0.00     0.000 C 
BRANCH   3   4
ATOM      4  C   UNL     1      -0.821   5.275  37.118  1.00  0.00     0.000 C 
BRANCH   4   5
ATOM      5  C   UNL     1      -1.883   5.779  36.128  1.00  0.00     0.006 C 
BRANCH   5   6
ATOM      6  C   UNL     1      -1.489   7.104  35.462  1.00  0.00     0.053 C 
BRANCH   6   7
ATOM      7  C   UNL     1      -0.217   6.943  34.692  1.00  0.00     0.041 C 
ATOM      8  O   UNL     1      -0.164   6.152  33.714  1.00  0.00    -0.550 OA
ATOM      9  O   UNL     1       0.925   7.630  35.085  1.00  0.00    -0.550 OA
ENDBRANCH   6   7
ENDBRANCH   5   6
ENDBRANCH   4   5
ENDBRANCH   3   4
ENDBRANCH   2   3
ENDBRANCH   1   2
BRANCH   1  10
ATOM     10  C   UNL     1      -2.849   7.857  40.270  1.00  0.00     0.000 C 
BRANCH  10  11
ATOM     11  C   UNL     1      -2.460   8.519  38.938  1.00  0.00    -0.000 C 
BRANCH  11  12
ATOM     12  C   UNL     1      -1.170   9.348  39.047  1.00  0.00    -0.000 C 
BRANCH  12  13
ATOM     13  C   UNL     1       0.096   8.514  38.786  1.00  0.00    -0.000 C 
BRANCH  13  14
ATOM     14  C   UNL     1       0.839   8.147  40.080  1.00  0.00    -0.000 C 
BRANCH  14  15
ATOM     15  C   UNL     1       1.366   6.705  40.070  1.00  0.00    -0.003 C 
ATOM     16  C   UNL     1       2.237   6.446  38.844  1.00  0.00     0.004 C 
ENDBRANCH  14  15
ENDBRANCH  13  14
ENDBRANCH  12  13
ENDBRANCH  11  12
ENDBRANCH  10  11
ENDBRANCH   1  10
TORSDOF 12
ENDMDL
MODEL 7
REMARK VINA RESULT:    -3.306      1.340      2.915
REMARK INTER + INTRA:          -7.886
REMARK INTER:                  -5.696
REMARK INTRA:                  -2.190
REMARK UNBOUND:                -2.261
REMARK SMILES CCCCCCCCCCCCCC(=O)[O-]
REMARK SMILES IDX 8 1 9 2 10 3 11 4 12 5 13 6 14 7 15 8 16 9 7 10 6 11 5 12
REMARK SMILES IDX 4 13 3 14 2 15 1 16
REMARK H PARENT
REMARK Flexibility Score: inf
ROOT
ATOM      1  C   UNL     1      -0.210   9.781  39.386  1.00  0.00     0.000 C 
ENDROOT
BRANCH   1   2
ATOM      2  C   UNL     1      -1.660   9.377  39.064  1.00  0.00     0.000 C 
BRANCH   2   3
ATOM      3  C   UNL     1      -1.902   9.188  37.557  1.00  0.00     0.000 C 
BRANCH   3   4
ATOM      4  C   UNL     1      -0.670   9.556  36.711  1.00  0.00     0.000 C 
BRANCH   4   5
ATOM      5  C   UNL     1      -0.303   8.461  35.698  1.00  0.00     0.006 C 
BRANCH   5   6
ATOM      6  C   UNL     1      -1.384   7.378  35.580  1.00  0.00     0.053 C 
BRANCH   6   7
ATOM      7  C   UNL     1      -0.830   6.157  34.914  1.00  0.00     0.041 C 
ATOM      8  O   UNL     1      -0.189   6.260  33.835  1.00  0.00    -0.550 OA
ATOM      9  O   UNL     1      -1.064   4.902  35.459  1.00  0.00    -0.550 OA
ENDBRANCH   6   7
ENDBRANCH   5   6
ENDBRANCH   4   5
ENDBRANCH   3   4
ENDBRANCH   2   3
ENDBRANCH   1   2
BRANCH   1  10
ATOM     10  C   UNL     1       0.282   9.204  40.724  1.00  0.00     0.000 C 
BRANCH  10  11
ATOM     11  C   UNL     1       0.277   7.666  40.740  1.00  0.00    -0.000 C 
BRANCH  11  12
ATOM     12  C   UNL     1       1.105   7.062  39.594  1.00  0.00    -0.000 C 
BRANCH  12  13
ATOM     13  C   UNL     1       0.266   6.170  38.662  1.00  0.00    -0.000 C 
BRANCH  13  14
ATOM     14  C   UNL     1      -0.880   5.460  39.398  1.00  0.00    -0.000 C 
BRANCH  14  15
ATOM     15  C   UNL     1      -2.236   5.649  38.702  1.00  0.00    -0.003 C 
ATOM     16  C   UNL     1      -3.321   6.029  39.704  1.00  0.00     0.004 C 
ENDBRANCH  14  15
ENDBRANCH  13  14
ENDBRANCH  12  13
ENDBRANCH  11  12
ENDBRANCH  10  11
ENDBRANCH   1  10
TORSDOF 12
ENDMDL
MODEL 8
REMARK VINA RESULT:    -3.303      1.390      3.034
REMARK INTER + INTRA:          -7.880
REMARK INTER:                  -5.751
REMARK INTRA:                  -2.129
REMARK UNBOUND:                -2.261
REMARK SMILES CCCCCCCCCCCCCC(=O)[O-]
REMARK SMILES IDX 8 1 9 2 10 3 11 4 12 5 13 6 14 7 15 8 16 9 7 10 6 11 5 12
REMARK SMILES IDX 4 13 3 14 2 15 1 16
REMARK H PARENT
REMARK Flexibility Score: inf
ROOT
ATOM      1  C   UNL     1       0.794   8.033  39.906  1.00  0.00     0.000 C 
ENDROOT
BRANCH   1   2
ATOM      2  C   UNL     1       0.245   9.449  40.154  1.00  0.00     0.000 C 
BRANCH   2   3
ATOM      3  C   UNL     1      -0.257  10.125  38.868  1.00  0.00     0.000 C 
BRANCH   3   4
ATOM      4  C   UNL     1      -1.721   9.774  38.550  1.00  0.00     0.000 C 
BRANCH   4   5
ATOM      5  C   UNL     1      -1.875   9.054  37.201  1.00  0.00     0.006 C 
BRANCH   5   6
ATOM      6  C   UNL     1      -0.579   9.054  36.379  1.00  0.00     0.053 C 
BRANCH   6   7
ATOM      7  C   UNL     1      -0.287   7.680  35.866  1.00  0.00     0.041 C 
ATOM      8  O   UNL     1      -1.086   7.116  35.073  1.00  0.00    -0.550 OA
ATOM      9  O   UNL     1       0.844   7.001  36.301  1.00  0.00    -0.550 OA
ENDBRANCH   6   7
ENDBRANCH   5   6
ENDBRANCH   4   5
ENDBRANCH   3   4
ENDBRANCH   2   3
ENDBRANCH   1   2
BRANCH   1  10
ATOM     10  C   UNL     1       0.508   7.074  41.073  1.00  0.00     0.000 C 
BRANCH  10  11
ATOM     11  C   UNL     1      -0.567   7.615  42.031  1.00  0.00    -0.000 C 
BRANCH  11  12
ATOM     12  C   UNL     1      -1.864   6.791  41.985  1.00  0.00    -0.000 C 
BRANCH  12  13
ATOM     13  C   UNL     1      -3.000   7.513  41.239  1.00  0.00    -0.000 C 
BRANCH  13  14
ATOM     14  C   UNL     1      -3.305   6.878  39.873  1.00  0.00    -0.000 C 
BRANCH  14  15
ATOM     15  C   UNL     1      -2.628   5.510  39.694  1.00  0.00    -0.003 C 
ATOM     16  C   UNL     1      -1.791   5.473  38.419  1.00  0.00     0.004 C 
ENDBRANCH  14  15
ENDBRANCH  13  14
ENDBRANCH  12  13
ENDBRANCH  11  12
ENDBRANCH  10  11
ENDBRANCH   1  10
TORSDOF 12
ENDMDL
MODEL 9
REMARK VINA RESULT:    -3.266      1.743      4.165
REMARK INTER + INTRA:          -7.818
REMARK INTER:                  -5.949
REMARK INTRA:                  -1.869
REMARK UNBOUND:                -2.261
REMARK SMILES CCCCCCCCCCCCCC(=O)[O-]
REMARK SMILES IDX 8 1 9 2 10 3 11 4 12 5 13 6 14 7 15 8 16 9 7 10 6 11 5 12
REMARK SMILES IDX 4 13 3 14 2 15 1 16
REMARK H PARENT
REMARK Flexibility Score: inf
ROOT
ATOM      1  C   UNL     1      -2.785   6.882  39.928  1.00  0.00     0.000 C 
ENDROOT
BRANCH   1   2
ATOM      2  C   UNL     1      -2.997   8.378  39.635  1.00  0.00     0.000 C 
BRANCH   2   3
ATOM      3  C   UNL     1      -1.802   9.014  38.906  1.00  0.00     0.000 C 
BRANCH   3   4
ATOM      4  C   UNL     1      -2.215   9.726  37.606  1.00  0.00     0.000 C 
BRANCH   4   5
ATOM      5  C   UNL     1      -1.431   9.224  36.384  1.00  0.00     0.006 C 
BRANCH   5   6
ATOM      6  C   UNL     1      -0.655   7.931  36.669  1.00  0.00     0.053 C 
BRANCH   6   7
ATOM      7  C   UNL     1       0.818   8.172  36.563  1.00  0.00     0.041 C 
ATOM      8  O   UNL     1       1.610   7.203  36.425  1.00  0.00    -0.550 OA
ATOM      9  O   UNL     1       1.320   9.462  36.666  1.00  0.00    -0.550 OA
ENDBRANCH   6   7
ENDBRANCH   5   6
ENDBRANCH   4   5
ENDBRANCH   3   4
ENDBRANCH   2   3
ENDBRANCH   1   2
BRANCH   1  10
ATOM     10  C   UNL     1      -2.684   6.582  41.433  1.00  0.00     0.000 C 
BRANCH  10  11
ATOM     11  C   UNL     1      -2.760   7.854  42.294  1.00  0.00    -0.000 C 
BRANCH  11  12
ATOM     12  C   UNL     1      -1.480   8.089  43.112  1.00  0.00    -0.000 C 
BRANCH  12  13
ATOM     13  C   UNL     1      -0.374   8.783  42.298  1.00  0.00    -0.000 C 
BRANCH  13  14
ATOM     14  C   UNL     1       0.795   7.841  41.969  1.00  0.00    -0.000 C 
BRANCH  14  15
ATOM     15  C   UNL     1       1.113   7.799  40.466  1.00  0.00    -0.003 C 
ATOM     16  C   UNL     1       0.861   6.409  39.890  1.00  0.00     0.004 C 
ENDBRANCH  14  15
ENDBRANCH  13  14
ENDBRANCH  12  13
ENDBRANCH  11  12
ENDBRANCH  10  11
ENDBRANCH   1  10
TORSDOF 12
ENDMDL
