MODEL 1
REMARK VINA RESULT:    14.268      0.000      0.000
REMARK INTER + INTRA:          36.054
REMARK INTER:                  37.622
REMARK INTRA:                  -1.568
REMARK UNBOUND:                -1.568
REMARK SMILES CCCCCCCCCCCCCCCCCCCCCCCCCCCCCC(=O)[O-]
REMARK SMILES IDX 16 1 17 2 18 3 19 4 20 5 21 6 22 7 23 8 24 9 25 10 26 11
REMARK SMILES IDX 27 12 28 13 29 14 30 15 31 16 32 17 15 18 14 19 13 20 12 21
REMARK SMILES IDX 11 22 10 23 9 24 8 25 7 26 6 27 5 28 4 29 3 30 2 31 1 32
REMARK H PARENT
REMARK Flexibility Score: inf
ROOT
ATOM      1  C   UNL     1       7.300  42.164  13.310  1.00  0.00     0.000 C 
ENDROOT
BRANCH   1   2
ATOM      2  C   UNL     1       6.306  41.964  14.469  1.00  0.00     0.000 C 
BRANCH   2   3
ATOM      3  C   UNL     1       6.798  40.940  15.509  1.00  0.00     0.000 C 
BRANCH   3   4
ATOM      4  C   UNL     1       5.970  40.879  16.806  1.00  0.00     0.000 C 
BRANCH   4   5
ATOM      5  C   UNL     1       6.112  39.535  17.544  1.00  0.00     0.000 C 
BRANCH   5   6
ATOM      6  C   UNL     1       5.974  39.684  19.069  1.00  0.00     0.000 C 
BRANCH   6   7
ATOM      7  C   UNL     1       5.123  40.902  19.466  1.00  0.00     0.000 C 
BRANCH   7   8
ATOM      8  C   UNL     1       3.753  40.508  20.046  1.00  0.00     0.000 C 
BRANCH   8   9
ATOM      9  C   UNL     1       3.034  41.615  20.844  1.00  0.00     0.000 C 
BRANCH   9  10
ATOM     10  C   UNL     1       2.892  42.963  20.115  1.00  0.00     0.000 C 
BRANCH  10  11
ATOM     11  C   UNL     1       3.641  44.104  20.818  1.00  0.00     0.000 C 
BRANCH  11  12
ATOM     12  C   UNL     1       4.000  43.718  22.260  1.00  0.00     0.000 C 
BRANCH  12  13
ATOM     13  C   UNL     1       5.268  44.424  22.771  1.00  0.00     0.006 C 
BRANCH  13  14
ATOM     14  C   UNL     1       6.446  43.481  23.065  1.00  0.00     0.053 C 
BRANCH  14  15
ATOM     15  C   UNL     1       6.858  43.524  24.506  1.00  0.00     0.041 C 
ATOM     16  O   UNL     1       7.275  42.481  25.076  1.00  0.00    -0.550 OA
ATOM     17  O   UNL     1       6.748  44.706  25.227  1.00  0.00    -0.550 OA
ENDBRANCH  14  15
ENDBRANCH  13  14
ENDBRANCH  12  13
ENDBRANCH  11  12
ENDBRANCH  10  11
ENDBRANCH   9  10
ENDBRANCH   8   9
ENDBRANCH   7   8
ENDBRANCH   6   7
ENDBRANCH   5   6
ENDBRANCH   4   5
ENDBRANCH   3   4
ENDBRANCH   2   3
ENDBRANCH   1   2
BRANCH   1  18
ATOM     18  C   UNL     1       7.131  43.524  12.614  1.00  0.00     0.000 C 
BRANCH  18  19
ATOM     19  C   UNL     1       8.334  43.892  11.730  1.00  0.00     0.000 C 
BRANCH  19  20
ATOM     20  C   UNL     1       7.947  44.124  10.258  1.00  0.00     0.000 C 
BRANCH  20  21
ATOM     21  C   UNL     1       6.475  43.827   9.917  1.00  0.00     0.000 C 
BRANCH  21  22
ATOM     22  C   UNL     1       5.541  45.053   9.876  1.00  0.00     0.000 C 
BRANCH  22  23
ATOM     23  C   UNL     1       4.544  45.125  11.053  1.00  0.00     0.000 C 
BRANCH  23  24
ATOM     24  C   UNL     1       4.189  43.740  11.617  1.00  0.00    -0.000 C 
BRANCH  24  25
ATOM     25  C   UNL     1       3.303  42.954  10.640  1.00  0.00    -0.000 C 
BRANCH  25  26
ATOM     26  C   UNL     1       2.006  43.698  10.273  1.00  0.00    -0.000 C 
BRANCH  26  27
ATOM     27  C   UNL     1       0.736  43.180  10.976  1.00  0.00    -0.000 C 
BRANCH  27  28
ATOM     28  C   UNL     1       0.595  43.597  12.452  1.00  0.00    -0.000 C 
BRANCH  28  29
ATOM     29  C   UNL     1      -0.864  43.839  12.893  1.00  0.00    -0.000 C 
BRANCH  29  30
ATOM     30  C   UNL     1      -0.962  44.400  14.320  1.00  0.00    -0.000 C 
BRANCH  30  31
ATOM     31  C   UNL     1      -2.025  43.653  15.134  1.00  0.00    -0.003 C 
ATOM     32  C   UNL     1      -2.535  42.428  14.382  1.00  0.00     0.004 C 
ENDBRANCH  30  31
ENDBRANCH  29  30
ENDBRANCH  28  29
ENDBRANCH  27  28
ENDBRANCH  26  27
ENDBRANCH  25  26
ENDBRANCH  24  25
ENDBRANCH  23  24
ENDBRANCH  22  23
ENDBRANCH  21  22
ENDBRANCH  20  21
ENDBRANCH  19  20
ENDBRANCH  18  19
ENDBRANCH   1  18
TORSDOF 28
ENDMDL
MODEL 2
REMARK VINA RESULT:    15.252      4.437      9.365
REMARK INTER + INTRA:          38.650
REMARK INTER:                  39.701
REMARK INTRA:                  -1.051
REMARK UNBOUND:                -1.568
REMARK SMILES CCCCCCCCCCCCCCCCCCCCCCCCCCCCCC(=O)[O-]
REMARK SMILES IDX 16 1 17 2 18 3 19 4 20 5 21 6 22 7 23 8 24 9 25 10 26 11
REMARK SMILES IDX 27 12 28 13 29 14 30 15 31 16 32 17 15 18 14 19 13 20 12 21
REMARK SMILES IDX 11 22 10 23 9 24 8 25 7 26 6 27 5 28 4 29 3 30 2 31 1 32
REMARK H PARENT
REMARK Flexibility Score: inf
ROOT
ATOM      1  C   UNL     1       7.229  44.605  11.365  1.00  0.00     0.000 C 
ENDROOT
BRANCH   1   2
ATOM      2  C   UNL     1       6.678  44.795   9.940  1.00  0.00     0.000 C 
BRANCH   2   3
ATOM      3  C   UNL     1       5.160  45.055   9.915  1.00  0.00     0.000 C 
BRANCH   3   4
ATOM      4  C   UNL     1       4.284  43.789   9.876  1.00  0.00     0.000 C 
BRANCH   4   5
ATOM      5  C   UNL     1       3.600  43.494  11.224  1.00  0.00     0.000 C 
BRANCH   5   6
ATOM      6  C   UNL     1       2.067  43.583  11.138  1.00  0.00     0.000 C 
BRANCH   6   7
ATOM      7  C   UNL     1       1.460  44.397  12.295  1.00  0.00     0.000 C 
BRANCH   7   8
ATOM      8  C   UNL     1       0.231  43.716  12.922  1.00  0.00     0.000 C 
BRANCH   8   9
ATOM      9  C   UNL     1      -0.386  44.456  14.127  1.00  0.00     0.000 C 
BRANCH   9  10
ATOM     10  C   UNL     1      -1.870  44.147  14.396  1.00  0.00     0.000 C 
BRANCH  10  11
ATOM     11  C   UNL     1      -2.256  42.706  14.031  1.00  0.00     0.000 C 
BRANCH  11  12
ATOM     12  C   UNL     1      -2.423  41.847  15.291  1.00  0.00     0.000 C 
BRANCH  12  13
ATOM     13  C   UNL     1      -3.506  40.764  15.139  1.00  0.00     0.006 C 
BRANCH  13  14
ATOM     14  C   UNL     1      -4.925  41.311  14.916  1.00  0.00     0.053 C 
BRANCH  14  15
ATOM     15  C   UNL     1      -5.979  40.292  15.232  1.00  0.00     0.041 C 
ATOM     16  O   UNL     1      -7.103  40.659  15.666  1.00  0.00    -0.550 OA
ATOM     17  O   UNL     1      -5.708  38.939  15.079  1.00  0.00    -0.550 OA
ENDBRANCH  14  15
ENDBRANCH  13  14
ENDBRANCH  12  13
ENDBRANCH  11  12
ENDBRANCH  10  11
ENDBRANCH   9  10
ENDBRANCH   8   9
ENDBRANCH   7   8
ENDBRANCH   6   7
ENDBRANCH   5   6
ENDBRANCH   4   5
ENDBRANCH   3   4
ENDBRANCH   2   3
ENDBRANCH   1   2
BRANCH   1  18
ATOM     18  C   UNL     1       8.287  43.493  11.447  1.00  0.00     0.000 C 
BRANCH  18  19
ATOM     19  C   UNL     1       8.011  42.494  12.584  1.00  0.00     0.000 C 
BRANCH  19  20
ATOM     20  C   UNL     1       6.521  42.422  12.968  1.00  0.00     0.000 C 
BRANCH  20  21
ATOM     21  C   UNL     1       6.230  42.542  14.475  1.00  0.00     0.000 C 
BRANCH  21  22
ATOM     22  C   UNL     1       6.573  41.299  15.320  1.00  0.00     0.000 C 
BRANCH  22  23
ATOM     23  C   UNL     1       5.382  40.731  16.121  1.00  0.00     0.000 C 
BRANCH  23  24
ATOM     24  C   UNL     1       5.278  41.328  17.534  1.00  0.00    -0.000 C 
BRANCH  24  25
ATOM     25  C   UNL     1       5.089  40.227  18.588  1.00  0.00    -0.000 C 
BRANCH  25  26
ATOM     26  C   UNL     1       4.656  40.776  19.960  1.00  0.00    -0.000 C 
BRANCH  26  27
ATOM     27  C   UNL     1       3.279  40.292  20.452  1.00  0.00    -0.000 C 
BRANCH  27  28
ATOM     28  C   UNL     1       2.468  41.336  21.245  1.00  0.00    -0.000 C 
BRANCH  28  29
ATOM     29  C   UNL     1       1.946  42.504  20.381  1.00  0.00    -0.000 C 
BRANCH  29  30
ATOM     30  C   UNL     1       2.905  43.704  20.375  1.00  0.00    -0.000 C 
BRANCH  30  31
ATOM     31  C   UNL     1       4.177  43.397  21.173  1.00  0.00    -0.003 C 
ATOM     32  C   UNL     1       4.326  44.343  22.360  1.00  0.00     0.004 C 
ENDBRANCH  30  31
ENDBRANCH  29  30
ENDBRANCH  28  29
ENDBRANCH  27  28
ENDBRANCH  26  27
ENDBRANCH  25  26
ENDBRANCH  24  25
ENDBRANCH  23  24
ENDBRANCH  22  23
ENDBRANCH  21  22
ENDBRANCH  20  21
ENDBRANCH  19  20
ENDBRANCH  18  19
ENDBRANCH   1  18
TORSDOF 28
ENDMDL
MODEL 3
REMARK VINA RESULT:    15.315      4.270      8.943
REMARK INTER + INTRA:          38.817
REMARK INTER:                  40.016
REMARK INTRA:                  -1.199
REMARK UNBOUND:                -1.568
REMARK SMILES CCCCCCCCCCCCCCCCCCCCCCCCCCCCCC(=O)[O-]
REMARK SMILES IDX 16 1 17 2 18 3 19 4 20 5 21 6 22 7 23 8 24 9 25 10 26 11
REMARK SMILES IDX 27 12 28 13 29 14 30 15 31 16 32 17 15 18 14 19 13 20 12 21
REMARK SMILES IDX 11 22 10 23 9 24 8 25 7 26 6 27 5 28 4 29 3 30 2 31 1 32
REMARK H PARENT
REMARK Flexibility Score: inf
ROOT
ATOM      1  C   UNL     1       4.343  43.744  11.940  1.00  0.00     0.000 C 
ENDROOT
BRANCH   1   2
ATOM      2  C   UNL     1       4.421  42.962  10.617  1.00  0.00     0.000 C 
BRANCH   2   3
ATOM      3  C   UNL     1       3.072  42.901   9.876  1.00  0.00     0.000 C 
BRANCH   3   4
ATOM      4  C   UNL     1       1.892  42.377  10.715  1.00  0.00     0.000 C 
BRANCH   4   5
ATOM      5  C   UNL     1       0.823  43.453  10.982  1.00  0.00     0.000 C 
BRANCH   5   6
ATOM      6  C   UNL     1       1.026  44.161  12.333  1.00  0.00     0.000 C 
BRANCH   6   7
ATOM      7  C   UNL     1      -0.046  43.773  13.366  1.00  0.00     0.000 C 
BRANCH   7   8
ATOM      8  C   UNL     1      -1.224  44.763  13.404  1.00  0.00     0.000 C 
BRANCH   8   9
ATOM      9  C   UNL     1      -1.783  45.066  14.809  1.00  0.00     0.000 C 
BRANCH   9  10
ATOM     10  C   UNL     1      -2.544  43.907  15.476  1.00  0.00     0.000 C 
BRANCH  10  11
ATOM     11  C   UNL     1      -1.937  42.533  15.159  1.00  0.00     0.000 C 
BRANCH  11  12
ATOM     12  C   UNL     1      -2.703  41.844  14.020  1.00  0.00     0.000 C 
BRANCH  12  13
ATOM     13  C   UNL     1      -4.215  41.745  14.289  1.00  0.00     0.006 C 
BRANCH  13  14
ATOM     14  C   UNL     1      -4.773  40.313  14.260  1.00  0.00     0.053 C 
BRANCH  14  15
ATOM     15  C   UNL     1      -5.551  39.985  15.498  1.00  0.00     0.041 C 
ATOM     16  O   UNL     1      -5.095  39.158  16.332  1.00  0.00    -0.550 OA
ATOM     17  O   UNL     1      -6.794  40.566  15.715  1.00  0.00    -0.550 OA
ENDBRANCH  14  15
ENDBRANCH  13  14
ENDBRANCH  12  13
ENDBRANCH  11  12
ENDBRANCH  10  11
ENDBRANCH   9  10
ENDBRANCH   8   9
ENDBRANCH   7   8
ENDBRANCH   6   7
ENDBRANCH   5   6
ENDBRANCH   4   5
ENDBRANCH   3   4
ENDBRANCH   2   3
ENDBRANCH   1   2
BRANCH   1  18
ATOM     18  C   UNL     1       5.159  45.047  11.906  1.00  0.00     0.000 C 
BRANCH  18  19
ATOM     19  C   UNL     1       6.204  45.063  10.778  1.00  0.00     0.000 C 
BRANCH  19  20
ATOM     20  C   UNL     1       7.554  44.455  11.203  1.00  0.00     0.000 C 
BRANCH  20  21
ATOM     21  C   UNL     1       7.639  42.921  11.098  1.00  0.00     0.000 C 
BRANCH  21  22
ATOM     22  C   UNL     1       8.140  42.195  12.362  1.00  0.00     0.000 C 
BRANCH  22  23
ATOM     23  C   UNL     1       7.406  42.603  13.657  1.00  0.00     0.000 C 
BRANCH  23  24
ATOM     24  C   UNL     1       6.484  41.496  14.193  1.00  0.00    -0.000 C 
BRANCH  24  25
ATOM     25  C   UNL     1       5.381  42.078  15.088  1.00  0.00    -0.000 C 
BRANCH  25  26
ATOM     26  C   UNL     1       5.142  41.248  16.364  1.00  0.00    -0.000 C 
BRANCH  26  27
ATOM     27  C   UNL     1       6.415  40.875  17.147  1.00  0.00    -0.000 C 
BRANCH  27  28
ATOM     28  C   UNL     1       6.210  39.830  18.260  1.00  0.00    -0.000 C 
BRANCH  28  29
ATOM     29  C   UNL     1       4.884  39.997  19.032  1.00  0.00    -0.000 C 
BRANCH  29  30
ATOM     30  C   UNL     1       4.952  41.115  20.083  1.00  0.00    -0.000 C 
BRANCH  30  31
ATOM     31  C   UNL     1       3.736  42.043  19.978  1.00  0.00    -0.003 C 
ATOM     32  C   UNL     1       3.778  43.131  21.047  1.00  0.00     0.004 C 
ENDBRANCH  30  31
ENDBRANCH  29  30
ENDBRANCH  28  29
ENDBRANCH  27  28
ENDBRANCH  26  27
ENDBRANCH  25  26
ENDBRANCH  24  25
ENDBRANCH  23  24
ENDBRANCH  22  23
ENDBRANCH  21  22
ENDBRANCH  20  21
ENDBRANCH  19  20
ENDBRANCH  18  19
ENDBRANCH   1  18
TORSDOF 28
ENDMDL
MODEL 4
REMARK VINA RESULT:    16.162      4.128      8.840
REMARK INTER + INTRA:          41.050
REMARK INTER:                  42.443
REMARK INTRA:                  -1.393
REMARK UNBOUND:                -1.568
REMARK SMILES CCCCCCCCCCCCCCCCCCCCCCCCCCCCCC(=O)[O-]
REMARK SMILES IDX 16 1 17 2 18 3 19 4 20 5 21 6 22 7 23 8 24 9 25 10 26 11
REMARK SMILES IDX 27 12 28 13 29 14 30 15 31 16 32 17 15 18 14 19 13 20 12 21
REMARK SMILES IDX 11 22 10 23 9 24 8 25 7 26 6 27 5 28 4 29 3 30 2 31 1 32
REMARK H PARENT
REMARK Flexibility Score: inf
ROOT
ATOM      1  C   UNL     1       5.521  44.266  11.378  1.00  0.00     0.000 C 
ENDROOT
BRANCH   1   2
ATOM      2  C   UNL     1       4.319  45.063  10.839  1.00  0.00     0.000 C 
BRANCH   2   3
ATOM      3  C   UNL     1       2.970  44.372  11.115  1.00  0.00     0.000 C 
BRANCH   3   4
ATOM      4  C   UNL     1       2.935  42.865  10.801  1.00  0.00     0.000 C 
BRANCH   4   5
ATOM      5  C   UNL     1       1.590  42.410  10.204  1.00  0.00     0.000 C 
BRANCH   5   6
ATOM      6  C   UNL     1       0.388  43.109  10.862  1.00  0.00     0.000 C 
BRANCH   6   7
ATOM      7  C   UNL     1       0.528  43.203  12.391  1.00  0.00     0.000 C 
BRANCH   7   8
ATOM      8  C   UNL     1       0.267  44.623  12.926  1.00  0.00     0.000 C 
BRANCH   8   9
ATOM      9  C   UNL     1      -0.481  44.690  14.274  1.00  0.00     0.000 C 
BRANCH   9  10
ATOM     10  C   UNL     1      -1.977  45.039  14.176  1.00  0.00     0.000 C 
BRANCH  10  11
ATOM     11  C   UNL     1      -2.837  44.270  15.191  1.00  0.00     0.000 C 
BRANCH  11  12
ATOM     12  C   UNL     1      -2.154  42.960  15.607  1.00  0.00     0.000 C 
BRANCH  12  13
ATOM     13  C   UNL     1      -2.240  41.868  14.525  1.00  0.00     0.006 C 
BRANCH  13  14
ATOM     14  C   UNL     1      -3.623  41.732  13.868  1.00  0.00     0.053 C 
BRANCH  14  15
ATOM     15  C   UNL     1      -4.569  40.925  14.705  1.00  0.00     0.041 C 
ATOM     16  O   UNL     1      -5.813  41.044  14.546  1.00  0.00    -0.550 OA
ATOM     17  O   UNL     1      -4.078  40.069  15.682  1.00  0.00    -0.550 OA
ENDBRANCH  14  15
ENDBRANCH  13  14
ENDBRANCH  12  13
ENDBRANCH  11  12
ENDBRANCH  10  11
ENDBRANCH   9  10
ENDBRANCH   8   9
ENDBRANCH   7   8
ENDBRANCH   6   7
ENDBRANCH   5   6
ENDBRANCH   4   5
ENDBRANCH   3   4
ENDBRANCH   2   3
ENDBRANCH   1   2
BRANCH   1  18
ATOM     18  C   UNL     1       6.571  43.976  10.293  1.00  0.00     0.000 C 
BRANCH  18  19
ATOM     19  C   UNL     1       7.956  43.655  10.880  1.00  0.00     0.000 C 
BRANCH  19  20
ATOM     20  C   UNL     1       8.005  42.286  11.586  1.00  0.00     0.000 C 
BRANCH  20  21
ATOM     21  C   UNL     1       7.933  42.343  13.123  1.00  0.00     0.000 C 
BRANCH  21  22
ATOM     22  C   UNL     1       6.847  41.461  13.771  1.00  0.00     0.000 C 
BRANCH  22  23
ATOM     23  C   UNL     1       5.547  42.216  14.123  1.00  0.00     0.000 C 
BRANCH  23  24
ATOM     24  C   UNL     1       4.910  41.726  15.433  1.00  0.00    -0.000 C 
BRANCH  24  25
ATOM     25  C   UNL     1       5.870  40.808  16.206  1.00  0.00    -0.000 C 
BRANCH  25  26
ATOM     26  C   UNL     1       5.199  40.109  17.402  1.00  0.00    -0.000 C 
BRANCH  26  27
ATOM     27  C   UNL     1       5.957  40.231  18.738  1.00  0.00    -0.000 C 
BRANCH  27  28
ATOM     28  C   UNL     1       5.074  40.546  19.960  1.00  0.00    -0.000 C 
BRANCH  28  29
ATOM     29  C   UNL     1       4.797  42.052  20.156  1.00  0.00    -0.000 C 
BRANCH  29  30
ATOM     30  C   UNL     1       3.695  42.317  21.193  1.00  0.00    -0.000 C 
BRANCH  30  31
ATOM     31  C   UNL     1       2.422  41.532  20.857  1.00  0.00    -0.003 C 
ATOM     32  C   UNL     1       1.195  42.438  20.869  1.00  0.00     0.004 C 
ENDBRANCH  30  31
ENDBRANCH  29  30
ENDBRANCH  28  29
ENDBRANCH  27  28
ENDBRANCH  26  27
ENDBRANCH  25  26
ENDBRANCH  24  25
ENDBRANCH  23  24
ENDBRANCH  22  23
ENDBRANCH  21  22
ENDBRANCH  20  21
ENDBRANCH  19  20
ENDBRANCH  18  19
ENDBRANCH   1  18
TORSDOF 28
ENDMDL
MODEL 5
REMARK VINA RESULT:    16.892      6.618     10.128
REMARK INTER + INTRA:          42.973
REMARK INTER:                  43.376
REMARK INTRA:                  -0.402
REMARK UNBOUND:                -1.568
REMARK SMILES CCCCCCCCCCCCCCCCCCCCCCCCCCCCCC(=O)[O-]
REMARK SMILES IDX 16 1 17 2 18 3 19 4 20 5 21 6 22 7 23 8 24 9 25 10 26 11
REMARK SMILES IDX 27 12 28 13 29 14 30 15 31 16 32 17 15 18 14 19 13 20 12 21
REMARK SMILES IDX 11 22 10 23 9 24 8 25 7 26 6 27 5 28 4 29 3 30 2 31 1 32
REMARK H PARENT
REMARK Flexibility Score: inf
ROOT
ATOM      1  C   UNL     1       4.344  43.742  11.963  1.00  0.00     0.000 C 
ENDROOT
BRANCH   1   2
ATOM      2  C   UNL     1       4.413  43.009  10.611  1.00  0.00     0.000 C 
BRANCH   2   3
ATOM      3  C   UNL     1       3.060  42.982   9.875  1.00  0.00     0.000 C 
BRANCH   3   4
ATOM      4  C   UNL     1       1.880  42.437  10.700  1.00  0.00     0.000 C 
BRANCH   4   5
ATOM      5  C   UNL     1       0.833  43.517  11.031  1.00  0.00     0.000 C 
BRANCH   5   6
ATOM      6  C   UNL     1       1.063  44.157  12.411  1.00  0.00     0.000 C 
BRANCH   6   7
ATOM      7  C   UNL     1      -0.000  43.734  13.440  1.00  0.00     0.000 C 
BRANCH   7   8
ATOM      8  C   UNL     1      -1.151  44.749  13.558  1.00  0.00     0.000 C 
BRANCH   8   9
ATOM      9  C   UNL     1      -1.678  44.981  14.989  1.00  0.00     0.000 C 
BRANCH   9  10
ATOM     10  C   UNL     1      -2.460  43.805  15.599  1.00  0.00     0.000 C 
BRANCH  10  11
ATOM     11  C   UNL     1      -1.900  42.436  15.184  1.00  0.00     0.000 C 
BRANCH  11  12
ATOM     12  C   UNL     1      -2.690  41.856  14.002  1.00  0.00     0.000 C 
BRANCH  12  13
ATOM     13  C   UNL     1      -4.206  41.802  14.263  1.00  0.00     0.006 C 
BRANCH  13  14
ATOM     14  C   UNL     1      -4.821  40.397  14.152  1.00  0.00     0.053 C 
BRANCH  14  15
ATOM     15  C   UNL     1      -5.609  40.028  15.372  1.00  0.00     0.041 C 
ATOM     16  O   UNL     1      -5.184  39.135  16.153  1.00  0.00    -0.550 OA
ATOM     17  O   UNL     1      -6.827  40.644  15.628  1.00  0.00    -0.550 OA
ENDBRANCH  14  15
ENDBRANCH  13  14
ENDBRANCH  12  13
ENDBRANCH  11  12
ENDBRANCH  10  11
ENDBRANCH   9  10
ENDBRANCH   8   9
ENDBRANCH   7   8
ENDBRANCH   6   7
ENDBRANCH   5   6
ENDBRANCH   4   5
ENDBRANCH   3   4
ENDBRANCH   2   3
ENDBRANCH   1   2
BRANCH   1  18
ATOM     18  C   UNL     1       5.164  45.042  11.973  1.00  0.00     0.000 C 
BRANCH  18  19
ATOM     19  C   UNL     1       6.211  45.092  10.848  1.00  0.00     0.000 C 
BRANCH  19  20
ATOM     20  C   UNL     1       7.557  44.462  11.254  1.00  0.00     0.000 C 
BRANCH  20  21
ATOM     21  C   UNL     1       7.650  42.938  11.056  1.00  0.00     0.000 C 
BRANCH  21  22
ATOM     22  C   UNL     1       8.132  42.136  12.281  1.00  0.00     0.000 C 
BRANCH  22  23
ATOM     23  C   UNL     1       7.752  40.640  12.246  1.00  0.00     0.000 C 
BRANCH  23  24
ATOM     24  C   UNL     1       8.003  39.995  10.874  1.00  0.00    -0.000 C 
BRANCH  24  25
ATOM     25  C   UNL     1       7.150  38.731  10.692  1.00  0.00    -0.000 C 
BRANCH  25  26
ATOM     26  C   UNL     1       7.923  37.574  10.031  1.00  0.00    -0.000 C 
BRANCH  26  27
ATOM     27  C   UNL     1       7.410  36.164  10.379  1.00  0.00    -0.000 C 
BRANCH  27  28
ATOM     28  C   UNL     1       8.351  35.012   9.976  1.00  0.00    -0.000 C 
BRANCH  28  29
ATOM     29  C   UNL     1       7.826  33.614  10.366  1.00  0.00    -0.000 C 
BRANCH  29  30
ATOM     30  C   UNL     1       8.795  32.858  11.286  1.00  0.00    -0.000 C 
BRANCH  30  31
ATOM     31  C   UNL     1       8.058  32.261  12.490  1.00  0.00    -0.003 C 
ATOM     32  C   UNL     1       7.474  30.892  12.157  1.00  0.00     0.004 C 
ENDBRANCH  30  31
ENDBRANCH  29  30
ENDBRANCH  28  29
ENDBRANCH  27  28
ENDBRANCH  26  27
ENDBRANCH  25  26
ENDBRANCH  24  25
ENDBRANCH  23  24
ENDBRANCH  22  23
ENDBRANCH  21  22
ENDBRANCH  20  21
ENDBRANCH  19  20
ENDBRANCH  18  19
ENDBRANCH   1  18
TORSDOF 28
ENDMDL
