MODEL 1
REMARK VINA RESULT:    -5.061      0.000      0.000
REMARK INTER + INTRA:         -11.387
REMARK INTER:                  -9.499
REMARK INTRA:                  -1.889
REMARK UNBOUND:                -1.889
REMARK SMILES CCCCCCCCC=CCCCCCCCC(=O)[O-]
REMARK SMILES IDX 10 1 9 2 11 3 12 4 13 5 14 6 15 7 16 8 17 9 18 10 19 11
REMARK SMILES IDX 20 12 8 13 7 14 6 15 5 16 4 17 3 18 2 19 1 20
REMARK H PARENT
REMARK Flexibility Score: inf
ROOT
ATOM      1  C   UNL     1     113.993 120.345 127.423  1.00  0.00    -0.031 C 
ATOM      2  C   UNL     1     115.179 119.831 127.784  1.00  0.00    -0.031 C 
ENDROOT
BRANCH   1   3
ATOM      3  C   UNL     1     113.745 120.854 126.029  1.00  0.00     0.027 C 
BRANCH   3   4
ATOM      4  C   UNL     1     113.970 122.369 125.908  1.00  0.00     0.004 C 
BRANCH   4   5
ATOM      5  C   UNL     1     113.593 123.114 127.200  1.00  0.00     0.000 C 
BRANCH   5   6
ATOM      6  C   UNL     1     114.810 123.750 127.894  1.00  0.00     0.000 C 
BRANCH   6   7
ATOM      7  C   UNL     1     116.138 123.397 127.202  1.00  0.00     0.000 C 
BRANCH   7   8
ATOM      8  C   UNL     1     117.209 124.493 127.393  1.00  0.00     0.006 C 
BRANCH   8   9
ATOM      9  C   UNL     1     118.204 124.588 126.226  1.00  0.00     0.053 C 
BRANCH   9  10
ATOM     10  C   UNL     1     119.405 125.413 126.569  1.00  0.00     0.041 C 
ATOM     11  O   UNL     1     119.274 126.625 126.882  1.00  0.00    -0.550 OA
ATOM     12  O   UNL     1     120.668 124.836 126.567  1.00  0.00    -0.550 OA
ENDBRANCH   9  10
ENDBRANCH   8   9
ENDBRANCH   7   8
ENDBRANCH   6   7
ENDBRANCH   5   6
ENDBRANCH   4   5
ENDBRANCH   3   4
ENDBRANCH   1   3
BRANCH   2  13
ATOM     13  C   UNL     1     115.423 119.315 129.177  1.00  0.00     0.027 C 
BRANCH  13  14
ATOM     14  C   UNL     1     116.273 120.280 130.023  1.00  0.00     0.004 C 
BRANCH  14  15
ATOM     15  C   UNL     1     115.473 121.435 130.654  1.00  0.00     0.000 C 
BRANCH  15  16
ATOM     16  C   UNL     1     114.070 121.001 131.117  1.00  0.00     0.000 C 
BRANCH  16  17
ATOM     17  C   UNL     1     114.111 120.134 132.385  1.00  0.00    -0.000 C 
BRANCH  17  18
ATOM     18  C   UNL     1     114.810 120.840 133.559  1.00  0.00    -0.000 C 
BRANCH  18  19
ATOM     19  C   UNL     1     115.721 119.894 134.357  1.00  0.00    -0.003 C 
ATOM     20  C   UNL     1     117.205 120.157 134.108  1.00  0.00     0.004 C 
ENDBRANCH  18  19
ENDBRANCH  17  18
ENDBRANCH  16  17
ENDBRANCH  15  16
ENDBRANCH  14  15
ENDBRANCH  13  14
ENDBRANCH   2  13
TORSDOF 15
ENDMDL
MODEL 2
REMARK VINA RESULT:    -4.973      1.686      3.648
REMARK INTER + INTRA:         -11.223
REMARK INTER:                  -8.698
REMARK INTRA:                  -2.525
REMARK UNBOUND:                -1.889
REMARK SMILES CCCCCCCCC=CCCCCCCCC(=O)[O-]
REMARK SMILES IDX 10 1 9 2 11 3 12 4 13 5 14 6 15 7 16 8 17 9 18 10 19 11
REMARK SMILES IDX 20 12 8 13 7 14 6 15 5 16 4 17 3 18 2 19 1 20
REMARK H PARENT
REMARK Flexibility Score: inf
ROOT
ATOM      1  C   UNL     1     114.566 120.527 130.993  1.00  0.00    -0.031 C 
ATOM      2  C   UNL     1     113.990 120.119 132.135  1.00  0.00    -0.031 C 
ENDROOT
BRANCH   1   3
ATOM      3  C   UNL     1     114.471 119.717 129.729  1.00  0.00     0.027 C 
BRANCH   3   4
ATOM      4  C   UNL     1     114.343 120.595 128.476  1.00  0.00     0.004 C 
BRANCH   4   5
ATOM      5  C   UNL     1     113.930 122.036 128.819  1.00  0.00     0.000 C 
BRANCH   5   6
ATOM      6  C   UNL     1     114.383 123.052 127.757  1.00  0.00     0.000 C 
BRANCH   6   7
ATOM      7  C   UNL     1     115.814 122.788 127.256  1.00  0.00     0.000 C 
BRANCH   7   8
ATOM      8  C   UNL     1     116.724 124.026 127.399  1.00  0.00     0.006 C 
BRANCH   8   9
ATOM      9  C   UNL     1     116.159 125.098 128.344  1.00  0.00     0.053 C 
BRANCH   9  10
ATOM     10  C   UNL     1     116.362 126.484 127.817  1.00  0.00     0.041 C 
ATOM     11  O   UNL     1     115.372 127.206 127.531  1.00  0.00    -0.550 OA
ATOM     12  O   UNL     1     117.648 126.988 127.666  1.00  0.00    -0.550 OA
ENDBRANCH   9  10
ENDBRANCH   8   9
ENDBRANCH   7   8
ENDBRANCH   6   7
ENDBRANCH   5   6
ENDBRANCH   4   5
ENDBRANCH   3   4
ENDBRANCH   1   3
BRANCH   2  13
ATOM     13  C   UNL     1     114.080 120.934 133.397  1.00  0.00     0.027 C 
BRANCH  13  14
ATOM     14  C   UNL     1     115.532 121.148 133.860  1.00  0.00     0.004 C 
BRANCH  14  15
ATOM     15  C   UNL     1     116.247 119.859 134.304  1.00  0.00     0.000 C 
BRANCH  15  16
ATOM     16  C   UNL     1     117.665 119.736 133.719  1.00  0.00     0.000 C 
BRANCH  16  17
ATOM     17  C   UNL     1     118.035 120.926 132.818  1.00  0.00    -0.000 C 
BRANCH  17  18
ATOM     18  C   UNL     1     118.135 120.534 131.334  1.00  0.00    -0.000 C 
BRANCH  18  19
ATOM     19  C   UNL     1     118.026 121.745 130.397  1.00  0.00    -0.003 C 
ATOM     20  C   UNL     1     117.119 122.841 130.953  1.00  0.00     0.004 C 
ENDBRANCH  18  19
ENDBRANCH  17  18
ENDBRANCH  16  17
ENDBRANCH  15  16
ENDBRANCH  14  15
ENDBRANCH  13  14
ENDBRANCH   2  13
TORSDOF 15
ENDMDL
MODEL 3
REMARK VINA RESULT:    -4.968      3.130      5.106
REMARK INTER + INTRA:         -11.213
REMARK INTER:                  -8.316
REMARK INTRA:                  -2.897
REMARK UNBOUND:                -1.889
REMARK SMILES CCCCCCCCC=CCCCCCCCC(=O)[O-]
REMARK SMILES IDX 10 1 9 2 11 3 12 4 13 5 14 6 15 7 16 8 17 9 18 10 19 11
REMARK SMILES IDX 20 12 8 13 7 14 6 15 5 16 4 17 3 18 2 19 1 20
REMARK H PARENT
REMARK Flexibility Score: inf
ROOT
ATOM      1  C   UNL     1     114.660 122.352 131.141  1.00  0.00    -0.031 C 
ATOM      2  C   UNL     1     113.903 121.245 131.082  1.00  0.00    -0.031 C 
ENDROOT
BRANCH   1   3
ATOM      3  C   UNL     1     114.578 123.420 130.084  1.00  0.00     0.027 C 
BRANCH   3   4
ATOM      4  C   UNL     1     113.682 123.013 128.905  1.00  0.00     0.004 C 
BRANCH   4   5
ATOM      5  C   UNL     1     114.433 123.064 127.563  1.00  0.00     0.000 C 
BRANCH   5   6
ATOM      6  C   UNL     1     114.063 121.898 126.632  1.00  0.00     0.000 C 
BRANCH   6   7
ATOM      7  C   UNL     1     114.022 120.545 127.363  1.00  0.00     0.000 C 
BRANCH   7   8
ATOM      8  C   UNL     1     115.429 119.936 127.551  1.00  0.00     0.006 C 
BRANCH   8   9
ATOM      9  C   UNL     1     115.470 118.790 128.574  1.00  0.00     0.053 C 
BRANCH   9  10
ATOM     10  C   UNL     1     116.590 117.834 128.311  1.00  0.00     0.041 C 
ATOM     11  O   UNL     1     117.785 118.203 128.449  1.00  0.00    -0.550 OA
ATOM     12  O   UNL     1     116.314 116.525 127.938  1.00  0.00    -0.550 OA
ENDBRANCH   9  10
ENDBRANCH   8   9
ENDBRANCH   7   8
ENDBRANCH   6   7
ENDBRANCH   5   6
ENDBRANCH   4   5
ENDBRANCH   3   4
ENDBRANCH   1   3
BRANCH   2  13
ATOM     13  C   UNL     1     113.981 120.180 132.144  1.00  0.00     0.027 C 
BRANCH  13  14
ATOM     14  C   UNL     1     114.390 120.743 133.516  1.00  0.00     0.004 C 
BRANCH  14  15
ATOM     15  C   UNL     1     115.675 120.120 134.094  1.00  0.00     0.000 C 
BRANCH  15  16
ATOM     16  C   UNL     1     116.935 120.932 133.746  1.00  0.00     0.000 C 
BRANCH  16  17
ATOM     17  C   UNL     1     117.923 120.140 132.875  1.00  0.00    -0.000 C 
BRANCH  17  18
ATOM     18  C   UNL     1     117.653 120.314 131.371  1.00  0.00    -0.000 C 
BRANCH  18  19
ATOM     19  C   UNL     1     118.210 121.636 130.822  1.00  0.00    -0.003 C 
ATOM     20  C   UNL     1     117.884 121.844 129.344  1.00  0.00     0.004 C 
ENDBRANCH  18  19
ENDBRANCH  17  18
ENDBRANCH  16  17
ENDBRANCH  15  16
ENDBRANCH  14  15
ENDBRANCH  13  14
ENDBRANCH   2  13
TORSDOF 15
ENDMDL
MODEL 4
REMARK VINA RESULT:    -4.944      3.669      6.867
REMARK INTER + INTRA:         -11.168
REMARK INTER:                  -9.564
REMARK INTRA:                  -1.604
REMARK UNBOUND:                -1.889
REMARK SMILES CCCCCCCCC=CCCCCCCCC(=O)[O-]
REMARK SMILES IDX 10 1 9 2 11 3 12 4 13 5 14 6 15 7 16 8 17 9 18 10 19 11
REMARK SMILES IDX 20 12 8 13 7 14 6 15 5 16 4 17 3 18 2 19 1 20
REMARK H PARENT
REMARK Flexibility Score: inf
ROOT
ATOM      1  C   UNL     1     117.094 123.496 127.365  1.00  0.00    -0.031 C 
ATOM      2  C   UNL     1     117.746 124.218 126.441  1.00  0.00    -0.031 C 
ENDROOT
BRANCH   1   3
ATOM      3  C   UNL     1     115.626 123.697 127.630  1.00  0.00     0.027 C 
BRANCH   3   4
ATOM      4  C   UNL     1     114.771 122.531 127.111  1.00  0.00     0.004 C 
BRANCH   4   5
ATOM      5  C   UNL     1     114.037 121.801 128.248  1.00  0.00     0.000 C 
BRANCH   5   6
ATOM      6  C   UNL     1     114.329 120.291 128.269  1.00  0.00     0.000 C 
BRANCH   6   7
ATOM      7  C   UNL     1     114.670 119.773 129.677  1.00  0.00     0.000 C 
BRANCH   7   8
ATOM      8  C   UNL     1     114.298 120.784 130.782  1.00  0.00     0.006 C 
BRANCH   8   9
ATOM      9  C   UNL     1     113.763 120.125 132.063  1.00  0.00     0.053 C 
BRANCH   9  10
ATOM     10  C   UNL     1     114.632 120.400 133.250  1.00  0.00     0.041 C 
ATOM     11  O   UNL     1     115.786 119.904 133.320  1.00  0.00    -0.550 OA
ATOM     12  O   UNL     1     114.174 121.225 134.269  1.00  0.00    -0.550 OA
ENDBRANCH   9  10
ENDBRANCH   8   9
ENDBRANCH   7   8
ENDBRANCH   6   7
ENDBRANCH   5   6
ENDBRANCH   4   5
ENDBRANCH   3   4
ENDBRANCH   1   3
BRANCH   2  13
ATOM     13  C   UNL     1     119.213 124.013 126.172  1.00  0.00     0.027 C 
BRANCH  13  14
ATOM     14  C   UNL     1     120.089 125.108 126.805  1.00  0.00     0.004 C 
BRANCH  14  15
ATOM     15  C   UNL     1     119.387 126.472 126.947  1.00  0.00     0.000 C 
BRANCH  15  16
ATOM     16  C   UNL     1     119.038 126.811 128.407  1.00  0.00     0.000 C 
BRANCH  16  17
ATOM     17  C   UNL     1     119.572 125.763 129.397  1.00  0.00    -0.000 C 
BRANCH  17  18
ATOM     18  C   UNL     1     118.753 125.710 130.698  1.00  0.00    -0.000 C 
BRANCH  18  19
ATOM     19  C   UNL     1     117.352 126.316 130.536  1.00  0.00    -0.003 C 
ATOM     20  C   UNL     1     116.242 125.269 130.630  1.00  0.00     0.004 C 
ENDBRANCH  18  19
ENDBRANCH  17  18
ENDBRANCH  16  17
ENDBRANCH  15  16
ENDBRANCH  14  15
ENDBRANCH  13  14
ENDBRANCH   2  13
TORSDOF 15
ENDMDL
MODEL 5
REMARK VINA RESULT:    -4.896      3.545      6.859
REMARK INTER + INTRA:         -11.078
REMARK INTER:                  -8.954
REMARK INTRA:                  -2.125
REMARK UNBOUND:                -1.889
REMARK SMILES CCCCCCCCC=CCCCCCCCC(=O)[O-]
REMARK SMILES IDX 10 1 9 2 11 3 12 4 13 5 14 6 15 7 16 8 17 9 18 10 19 11
REMARK SMILES IDX 20 12 8 13 7 14 6 15 5 16 4 17 3 18 2 19 1 20
REMARK H PARENT
REMARK Flexibility Score: inf
ROOT
ATOM      1  C   UNL     1     114.943 123.589 128.292  1.00  0.00    -0.031 C 
ATOM      2  C   UNL     1     115.905 123.502 129.224  1.00  0.00    -0.031 C 
ENDROOT
BRANCH   1   3
ATOM      3  C   UNL     1     114.939 122.701 127.077  1.00  0.00     0.027 C 
BRANCH   3   4
ATOM      4  C   UNL     1     113.965 121.521 127.214  1.00  0.00     0.004 C 
BRANCH   4   5
ATOM      5  C   UNL     1     114.673 120.165 127.052  1.00  0.00     0.000 C 
BRANCH   5   6
ATOM      6  C   UNL     1     115.238 119.629 128.377  1.00  0.00     0.000 C 
BRANCH   6   7
ATOM      7  C   UNL     1     114.361 119.995 129.587  1.00  0.00     0.000 C 
BRANCH   7   8
ATOM      8  C   UNL     1     115.198 120.394 130.821  1.00  0.00     0.006 C 
BRANCH   8   9
ATOM      9  C   UNL     1     114.461 120.193 132.155  1.00  0.00     0.053 C 
BRANCH   9  10
ATOM     10  C   UNL     1     115.302 120.575 133.332  1.00  0.00     0.041 C 
ATOM     11  O   UNL     1     115.361 119.824 134.340  1.00  0.00    -0.550 OA
ATOM     12  O   UNL     1     116.040 121.751 133.306  1.00  0.00    -0.550 OA
ENDBRANCH   9  10
ENDBRANCH   8   9
ENDBRANCH   7   8
ENDBRANCH   6   7
ENDBRANCH   5   6
ENDBRANCH   4   5
ENDBRANCH   3   4
ENDBRANCH   1   3
BRANCH   2  13
ATOM     13  C   UNL     1     115.903 124.387 130.442  1.00  0.00     0.027 C 
BRANCH  13  14
ATOM     14  C   UNL     1     117.050 125.413 130.428  1.00  0.00     0.004 C 
BRANCH  14  15
ATOM     15  C   UNL     1     116.598 126.856 130.132  1.00  0.00     0.000 C 
BRANCH  15  16
ATOM     16  C   UNL     1     117.313 127.463 128.912  1.00  0.00     0.000 C 
BRANCH  16  17
ATOM     17  C   UNL     1     117.052 126.667 127.623  1.00  0.00    -0.000 C 
BRANCH  17  18
ATOM     18  C   UNL     1     118.334 126.043 127.046  1.00  0.00    -0.000 C 
BRANCH  18  19
ATOM     19  C   UNL     1     118.083 124.671 126.404  1.00  0.00    -0.003 C 
ATOM     20  C   UNL     1     119.373 123.984 125.957  1.00  0.00     0.004 C 
ENDBRANCH  18  19
ENDBRANCH  17  18
ENDBRANCH  16  17
ENDBRANCH  15  16
ENDBRANCH  14  15
ENDBRANCH  13  14
ENDBRANCH   2  13
TORSDOF 15
ENDMDL
MODEL 6
REMARK VINA RESULT:    -4.846      1.987      3.620
REMARK INTER + INTRA:         -10.983
REMARK INTER:                  -8.331
REMARK INTRA:                  -2.652
REMARK UNBOUND:                -1.889
REMARK SMILES CCCCCCCCC=CCCCCCCCC(=O)[O-]
REMARK SMILES IDX 10 1 9 2 11 3 12 4 13 5 14 6 15 7 16 8 17 9 18 10 19 11
REMARK SMILES IDX 20 12 8 13 7 14 6 15 5 16 4 17 3 18 2 19 1 20
REMARK H PARENT
REMARK Flexibility Score: inf
ROOT
ATOM      1  C   UNL     1     114.090 122.179 130.752  1.00  0.00    -0.031 C 
ATOM      2  C   UNL     1     114.022 120.841 130.841  1.00  0.00    -0.031 C 
ENDROOT
BRANCH   1   3
ATOM      3  C   UNL     1     114.259 122.873 129.427  1.00  0.00     0.027 C 
BRANCH   3   4
ATOM      4  C   UNL     1     115.503 123.772 129.389  1.00  0.00     0.004 C 
BRANCH   4   5
ATOM      5  C   UNL     1     115.798 124.410 130.758  1.00  0.00     0.000 C 
BRANCH   5   6
ATOM      6  C   UNL     1     116.407 125.816 130.638  1.00  0.00     0.000 C 
BRANCH   6   7
ATOM      7  C   UNL     1     117.903 125.786 130.278  1.00  0.00     0.000 C 
BRANCH   7   8
ATOM      8  C   UNL     1     118.287 126.888 129.267  1.00  0.00     0.006 C 
BRANCH   8   9
ATOM      9  C   UNL     1     117.565 126.760 127.916  1.00  0.00     0.053 C 
BRANCH   9  10
ATOM     10  C   UNL     1     118.317 125.903 126.948  1.00  0.00     0.041 C 
ATOM     11  O   UNL     1     119.498 126.194 126.627  1.00  0.00    -0.550 OA
ATOM     12  O   UNL     1     117.721 124.766 126.418  1.00  0.00    -0.550 OA
ENDBRANCH   9  10
ENDBRANCH   8   9
ENDBRANCH   7   8
ENDBRANCH   6   7
ENDBRANCH   5   6
ENDBRANCH   4   5
ENDBRANCH   3   4
ENDBRANCH   1   3
BRANCH   2  13
ATOM     13  C   UNL     1     113.847 120.148 132.165  1.00  0.00     0.027 C 
BRANCH  13  14
ATOM     14  C   UNL     1     114.490 120.924 133.328  1.00  0.00     0.004 C 
BRANCH  14  15
ATOM     15  C   UNL     1     115.611 120.156 134.053  1.00  0.00     0.000 C 
BRANCH  15  16
ATOM     16  C   UNL     1     116.920 120.115 133.244  1.00  0.00     0.000 C 
BRANCH  16  17
ATOM     17  C   UNL     1     117.339 121.502 132.732  1.00  0.00    -0.000 C 
BRANCH  17  18
ATOM     18  C   UNL     1     117.832 121.470 131.276  1.00  0.00    -0.000 C 
BRANCH  18  19
ATOM     19  C   UNL     1     117.610 120.103 130.610  1.00  0.00    -0.003 C 
ATOM     20  C   UNL     1     117.204 120.222 129.142  1.00  0.00     0.004 C 
ENDBRANCH  18  19
ENDBRANCH  17  18
ENDBRANCH  16  17
ENDBRANCH  15  16
ENDBRANCH  14  15
ENDBRANCH  13  14
ENDBRANCH   2  13
TORSDOF 15
ENDMDL
MODEL 7
REMARK VINA RESULT:    -4.843      2.050      2.737
REMARK INTER + INTRA:         -10.978
REMARK INTER:                  -8.960
REMARK INTRA:                  -2.018
REMARK UNBOUND:                -1.889
REMARK SMILES CCCCCCCCC=CCCCCCCCC(=O)[O-]
REMARK SMILES IDX 10 1 9 2 11 3 12 4 13 5 14 6 15 7 16 8 17 9 18 10 19 11
REMARK SMILES IDX 20 12 8 13 7 14 6 15 5 16 4 17 3 18 2 19 1 20
REMARK H PARENT
REMARK Flexibility Score: inf
ROOT
ATOM      1  C   UNL     1     113.997 120.382 127.978  1.00  0.00    -0.031 C 
ATOM      2  C   UNL     1     115.137 120.030 128.593  1.00  0.00    -0.031 C 
ENDROOT
BRANCH   1   3
ATOM      3  C   UNL     1     113.936 120.589 126.489  1.00  0.00     0.027 C 
BRANCH   3   4
ATOM      4  C   UNL     1     114.033 122.071 126.096  1.00  0.00     0.004 C 
BRANCH   4   5
ATOM      5  C   UNL     1     113.684 123.004 127.269  1.00  0.00     0.000 C 
BRANCH   5   6
ATOM      6  C   UNL     1     114.832 123.962 127.625  1.00  0.00     0.000 C 
BRANCH   6   7
ATOM      7  C   UNL     1     115.461 123.651 128.994  1.00  0.00     0.000 C 
BRANCH   7   8
ATOM      8  C   UNL     1     116.593 124.636 129.359  1.00  0.00     0.006 C 
BRANCH   8   9
ATOM      9  C   UNL     1     116.288 125.489 130.600  1.00  0.00     0.053 C 
BRANCH   9  10
ATOM     10  C   UNL     1     117.047 126.778 130.604  1.00  0.00     0.041 C 
ATOM     11  O   UNL     1     116.856 127.624 131.517  1.00  0.00    -0.550 OA
ATOM     12  O   UNL     1     117.984 127.036 129.612  1.00  0.00    -0.550 OA
ENDBRANCH   9  10
ENDBRANCH   8   9
ENDBRANCH   7   8
ENDBRANCH   6   7
ENDBRANCH   5   6
ENDBRANCH   4   5
ENDBRANCH   3   4
ENDBRANCH   1   3
BRANCH   2  13
ATOM     13  C   UNL     1     115.195 119.817 130.082  1.00  0.00     0.027 C 
BRANCH  13  14
ATOM     14  C   UNL     1     114.222 120.730 130.848  1.00  0.00     0.004 C 
BRANCH  14  15
ATOM     15  C   UNL     1     113.781 120.174 132.215  1.00  0.00     0.000 C 
BRANCH  15  16
ATOM     16  C   UNL     1     114.436 120.913 133.395  1.00  0.00     0.000 C 
BRANCH  16  17
ATOM     17  C   UNL     1     115.554 120.091 134.056  1.00  0.00    -0.000 C 
BRANCH  17  18
ATOM     18  C   UNL     1     116.915 120.808 134.017  1.00  0.00    -0.000 C 
BRANCH  18  19
ATOM     19  C   UNL     1     117.655 120.593 132.689  1.00  0.00    -0.003 C 
ATOM     20  C   UNL     1     117.704 121.857 131.831  1.00  0.00     0.004 C 
ENDBRANCH  18  19
ENDBRANCH  17  18
ENDBRANCH  16  17
ENDBRANCH  15  16
ENDBRANCH  14  15
ENDBRANCH  13  14
ENDBRANCH   2  13
TORSDOF 15
ENDMDL
MODEL 8
REMARK VINA RESULT:    -4.829      1.657      2.888
REMARK INTER + INTRA:         -10.952
REMARK INTER:                  -8.408
REMARK INTRA:                  -2.544
REMARK UNBOUND:                -1.889
REMARK SMILES CCCCCCCCC=CCCCCCCCC(=O)[O-]
REMARK SMILES IDX 10 1 9 2 11 3 12 4 13 5 14 6 15 7 16 8 17 9 18 10 19 11
REMARK SMILES IDX 20 12 8 13 7 14 6 15 5 16 4 17 3 18 2 19 1 20
REMARK H PARENT
REMARK Flexibility Score: inf
ROOT
ATOM      1  C   UNL     1     114.340 119.916 128.700  1.00  0.00    -0.031 C 
ATOM      2  C   UNL     1     114.964 120.274 129.833  1.00  0.00    -0.031 C 
ENDROOT
BRANCH   1   3
ATOM      3  C   UNL     1     114.978 120.114 127.352  1.00  0.00     0.027 C 
BRANCH   3   4
ATOM      4  C   UNL     1     113.961 120.521 126.275  1.00  0.00     0.004 C 
BRANCH   4   5
ATOM      5  C   UNL     1     114.031 122.023 125.951  1.00  0.00     0.000 C 
BRANCH   5   6
ATOM      6  C   UNL     1     113.124 122.868 126.862  1.00  0.00     0.000 C 
BRANCH   6   7
ATOM      7  C   UNL     1     113.894 123.522 128.023  1.00  0.00     0.000 C 
BRANCH   7   8
ATOM      8  C   UNL     1     115.337 123.906 127.629  1.00  0.00     0.006 C 
BRANCH   8   9
ATOM      9  C   UNL     1     116.403 123.341 128.581  1.00  0.00     0.053 C 
BRANCH   9  10
ATOM     10  C   UNL     1     117.582 122.783 127.847  1.00  0.00     0.041 C 
ATOM     11  O   UNL     1     118.037 121.649 128.148  1.00  0.00    -0.550 OA
ATOM     12  O   UNL     1     118.162 123.505 126.813  1.00  0.00    -0.550 OA
ENDBRANCH   9  10
ENDBRANCH   8   9
ENDBRANCH   7   8
ENDBRANCH   6   7
ENDBRANCH   5   6
ENDBRANCH   4   5
ENDBRANCH   3   4
ENDBRANCH   1   3
BRANCH   2  13
ATOM     13  C   UNL     1     114.328 120.068 131.182  1.00  0.00     0.027 C 
BRANCH  13  14
ATOM     14  C   UNL     1     114.378 121.333 132.057  1.00  0.00     0.004 C 
BRANCH  14  15
ATOM     15  C   UNL     1     114.446 121.049 133.570  1.00  0.00     0.000 C 
BRANCH  15  16
ATOM     16  C   UNL     1     115.493 119.979 133.925  1.00  0.00     0.000 C 
BRANCH  16  17
ATOM     17  C   UNL     1     116.868 120.587 134.248  1.00  0.00    -0.000 C 
BRANCH  17  18
ATOM     18  C   UNL     1     118.012 119.893 133.489  1.00  0.00    -0.000 C 
BRANCH  18  19
ATOM     19  C   UNL     1     118.012 120.227 131.990  1.00  0.00    -0.003 C 
ATOM     20  C   UNL     1     118.056 121.731 131.722  1.00  0.00     0.004 C 
ENDBRANCH  18  19
ENDBRANCH  17  18
ENDBRANCH  16  17
ENDBRANCH  15  16
ENDBRANCH  14  15
ENDBRANCH  13  14
ENDBRANCH   2  13
TORSDOF 15
ENDMDL
MODEL 9
REMARK VINA RESULT:    -4.807      1.880      3.569
REMARK INTER + INTRA:         -10.910
REMARK INTER:                  -8.037
REMARK INTRA:                  -2.874
REMARK UNBOUND:                -1.889
REMARK SMILES CCCCCCCCC=CCCCCCCCC(=O)[O-]
REMARK SMILES IDX 10 1 9 2 11 3 12 4 13 5 14 6 15 7 16 8 17 9 18 10 19 11
REMARK SMILES IDX 20 12 8 13 7 14 6 15 5 16 4 17 3 18 2 19 1 20
REMARK H PARENT
REMARK Flexibility Score: inf
ROOT
ATOM      1  C   UNL     1     116.954 119.896 129.886  1.00  0.00    -0.031 C 
ATOM      2  C   UNL     1     117.398 121.156 130.020  1.00  0.00    -0.031 C 
ENDROOT
BRANCH   1   3
ATOM      3  C   UNL     1     116.279 119.428 128.626  1.00  0.00     0.027 C 
BRANCH   3   4
ATOM      4  C   UNL     1     114.751 119.366 128.766  1.00  0.00     0.004 C 
BRANCH   4   5
ATOM      5  C   UNL     1     114.038 120.251 127.729  1.00  0.00     0.000 C 
BRANCH   5   6
ATOM      6  C   UNL     1     114.221 121.753 128.007  1.00  0.00     0.000 C 
BRANCH   6   7
ATOM      7  C   UNL     1     115.061 122.457 126.927  1.00  0.00     0.000 C 
BRANCH   7   8
ATOM      8  C   UNL     1     115.995 123.534 127.520  1.00  0.00     0.006 C 
BRANCH   8   9
ATOM      9  C   UNL     1     115.527 124.072 128.881  1.00  0.00     0.053 C 
BRANCH   9  10
ATOM     10  C   UNL     1     116.610 124.809 129.604  1.00  0.00     0.041 C 
ATOM     11  O   UNL     1     117.813 124.656 129.270  1.00  0.00    -0.550 OA
ATOM     12  O   UNL     1     116.287 125.685 130.632  1.00  0.00    -0.550 OA
ENDBRANCH   9  10
ENDBRANCH   8   9
ENDBRANCH   7   8
ENDBRANCH   6   7
ENDBRANCH   5   6
ENDBRANCH   4   5
ENDBRANCH   3   4
ENDBRANCH   1   3
BRANCH   2  13
ATOM     13  C   UNL     1     118.079 121.621 131.279  1.00  0.00     0.027 C 
BRANCH  13  14
ATOM     14  C   UNL     1     118.238 120.496 132.316  1.00  0.00     0.004 C 
BRANCH  14  15
ATOM     15  C   UNL     1     118.425 120.993 133.761  1.00  0.00     0.000 C 
BRANCH  15  16
ATOM     16  C   UNL     1     117.176 120.769 134.632  1.00  0.00     0.000 C 
BRANCH  16  17
ATOM     17  C   UNL     1     116.125 119.889 133.937  1.00  0.00    -0.000 C 
BRANCH  17  18
ATOM     18  C   UNL     1     114.756 120.581 133.828  1.00  0.00    -0.000 C 
BRANCH  18  19
ATOM     19  C   UNL     1     114.126 120.424 132.436  1.00  0.00    -0.003 C 
ATOM     20  C   UNL     1     114.184 121.711 131.615  1.00  0.00     0.004 C 
ENDBRANCH  18  19
ENDBRANCH  17  18
ENDBRANCH  16  17
ENDBRANCH  15  16
ENDBRANCH  14  15
ENDBRANCH  13  14
ENDBRANCH   2  13
TORSDOF 15
ENDMDL
