MODEL 1
REMARK VINA RESULT:    -4.643      0.000      0.000
REMARK INTER + INTRA:         -12.832
REMARK INTER:                 -10.614
REMARK INTRA:                  -2.218
REMARK UNBOUND:                -2.218
REMARK SMILES CCCCCCCCCCCCCCCCCCCCCCCC(=O)[O-]
REMARK SMILES IDX 13 1 14 2 15 3 16 4 17 5 18 6 19 7 20 8 21 9 22 10 23 11
REMARK SMILES IDX 24 12 25 13 26 14 12 15 11 16 10 17 9 18 8 19 7 20 6 21 5 22
REMARK SMILES IDX 4 23 3 24 2 25 1 26
REMARK H PARENT
REMARK Flexibility Score: inf
ROOT
ATOM      1  C   UNL     1     167.168 177.542 186.175  1.00  0.00     0.000 C 
ENDROOT
BRANCH   1   2
ATOM      2  C   UNL     1     167.438 177.853 187.661  1.00  0.00     0.000 C 
BRANCH   2   3
ATOM      3  C   UNL     1     168.895 178.227 188.000  1.00  0.00     0.000 C 
BRANCH   3   4
ATOM      4  C   UNL     1     169.874 177.041 188.074  1.00  0.00     0.000 C 
BRANCH   4   5
ATOM      5  C   UNL     1     171.272 177.386 187.534  1.00  0.00     0.000 C 
BRANCH   5   6
ATOM      6  C   UNL     1     171.221 178.336 186.327  1.00  0.00     0.000 C 
BRANCH   6   7
ATOM      7  C   UNL     1     171.540 179.792 186.702  1.00  0.00     0.000 C 
BRANCH   7   8
ATOM      8  C   UNL     1     172.617 179.850 187.797  1.00  0.00     0.000 C 
BRANCH   8   9
ATOM      9  C   UNL     1     174.045 179.921 187.231  1.00  0.00     0.000 C 
BRANCH   9  10
ATOM     10  C   UNL     1     175.099 179.103 188.003  1.00  0.00     0.006 C 
BRANCH  10  11
ATOM     11  C   UNL     1     175.324 177.685 187.447  1.00  0.00     0.053 C 
BRANCH  11  12
ATOM     12  C   UNL     1     176.507 177.611 186.529  1.00  0.00     0.041 C 
ATOM     13  O   UNL     1     177.658 177.396 186.993  1.00  0.00    -0.550 OA
ATOM     14  O   UNL     1     176.347 177.821 185.165  1.00  0.00    -0.550 OA
ENDBRANCH  11  12
ENDBRANCH  10  11
ENDBRANCH   9  10
ENDBRANCH   8   9
ENDBRANCH   7   8
ENDBRANCH   6   7
ENDBRANCH   5   6
ENDBRANCH   4   5
ENDBRANCH   3   4
ENDBRANCH   2   3
ENDBRANCH   1   2
BRANCH   1  15
ATOM     15  C   UNL     1     165.742 177.862 185.694  1.00  0.00     0.000 C 
BRANCH  15  16
ATOM     16  C   UNL     1     164.681 177.644 186.783  1.00  0.00     0.000 C 
BRANCH  16  17
ATOM     17  C   UNL     1     164.389 176.149 186.972  1.00  0.00     0.000 C 
BRANCH  17  18
ATOM     18  C   UNL     1     163.133 175.889 187.822  1.00  0.00    -0.000 C 
BRANCH  18  19
ATOM     19  C   UNL     1     162.407 177.157 188.314  1.00  0.00    -0.000 C 
BRANCH  19  20
ATOM     20  C   UNL     1     160.927 177.271 187.895  1.00  0.00    -0.000 C 
BRANCH  20  21
ATOM     21  C   UNL     1     160.643 178.292 186.780  1.00  0.00    -0.000 C 
BRANCH  21  22
ATOM     22  C   UNL     1     161.319 177.926 185.450  1.00  0.00    -0.000 C 
BRANCH  22  23
ATOM     23  C   UNL     1     160.273 177.692 184.350  1.00  0.00    -0.000 C 
BRANCH  23  24
ATOM     24  C   UNL     1     160.343 176.276 183.748  1.00  0.00    -0.000 C 
BRANCH  24  25
ATOM     25  C   UNL     1     161.410 175.359 184.373  1.00  0.00    -0.003 C 
ATOM     26  C   UNL     1     160.836 174.385 185.400  1.00  0.00     0.004 C 
ENDBRANCH  24  25
ENDBRANCH  23  24
ENDBRANCH  22  23
ENDBRANCH  21  22
ENDBRANCH  20  21
ENDBRANCH  19  20
ENDBRANCH  18  19
ENDBRANCH  17  18
ENDBRANCH  16  17
ENDBRANCH  15  16
ENDBRANCH   1  15
TORSDOF 22
ENDMDL
MODEL 2
REMARK VINA RESULT:    -4.628      1.217      2.308
REMARK INTER + INTRA:         -12.799
REMARK INTER:                 -10.472
REMARK INTRA:                  -2.327
REMARK UNBOUND:                -2.218
REMARK SMILES CCCCCCCCCCCCCCCCCCCCCCCC(=O)[O-]
REMARK SMILES IDX 13 1 14 2 15 3 16 4 17 5 18 6 19 7 20 8 21 9 22 10 23 11
REMARK SMILES IDX 24 12 25 13 26 14 12 15 11 16 10 17 9 18 8 19 7 20 6 21 5 22
REMARK SMILES IDX 4 23 3 24 2 25 1 26
REMARK H PARENT
REMARK Flexibility Score: inf
ROOT
ATOM      1  C   UNL     1     164.704 177.667 186.692  1.00  0.00     0.000 C 
ENDROOT
BRANCH   1   2
ATOM      2  C   UNL     1     166.162 177.943 187.111  1.00  0.00     0.000 C 
BRANCH   2   3
ATOM      3  C   UNL     1     167.068 176.697 187.196  1.00  0.00     0.000 C 
BRANCH   3   4
ATOM      4  C   UNL     1     168.328 176.863 188.065  1.00  0.00     0.000 C 
BRANCH   4   5
ATOM      5  C   UNL     1     168.814 178.321 188.140  1.00  0.00     0.000 C 
BRANCH   5   6
ATOM      6  C   UNL     1     169.843 178.656 187.049  1.00  0.00     0.000 C 
BRANCH   6   7
ATOM      7  C   UNL     1     170.836 179.746 187.482  1.00  0.00     0.000 C 
BRANCH   7   8
ATOM      8  C   UNL     1     172.129 179.667 186.656  1.00  0.00     0.000 C 
BRANCH   8   9
ATOM      9  C   UNL     1     173.399 179.752 187.520  1.00  0.00     0.000 C 
BRANCH   9  10
ATOM     10  C   UNL     1     174.080 178.401 187.820  1.00  0.00     0.006 C 
BRANCH  10  11
ATOM     11  C   UNL     1     175.616 178.474 187.885  1.00  0.00     0.053 C 
BRANCH  11  12
ATOM     12  C   UNL     1     176.273 177.695 186.785  1.00  0.00     0.041 C 
ATOM     13  O   UNL     1     177.518 177.508 186.795  1.00  0.00    -0.550 OA
ATOM     14  O   UNL     1     175.516 177.211 185.724  1.00  0.00    -0.550 OA
ENDBRANCH  11  12
ENDBRANCH  10  11
ENDBRANCH   9  10
ENDBRANCH   8   9
ENDBRANCH   7   8
ENDBRANCH   6   7
ENDBRANCH   5   6
ENDBRANCH   4   5
ENDBRANCH   3   4
ENDBRANCH   2   3
ENDBRANCH   1   2
BRANCH   1  15
ATOM     15  C   UNL     1     164.282 176.189 186.750  1.00  0.00     0.000 C 
BRANCH  15  16
ATOM     16  C   UNL     1     163.182 175.922 187.789  1.00  0.00     0.000 C 
BRANCH  16  17
ATOM     17  C   UNL     1     162.531 177.235 188.246  1.00  0.00     0.000 C 
BRANCH  17  18
ATOM     18  C   UNL     1     161.034 177.312 187.897  1.00  0.00    -0.000 C 
BRANCH  18  19
ATOM     19  C   UNL     1     160.677 178.318 186.784  1.00  0.00    -0.000 C 
BRANCH  19  20
ATOM     20  C   UNL     1     161.211 177.961 185.382  1.00  0.00    -0.000 C 
BRANCH  20  21
ATOM     21  C   UNL     1     160.144 177.487 184.380  1.00  0.00    -0.000 C 
BRANCH  21  22
ATOM     22  C   UNL     1     160.692 176.481 183.356  1.00  0.00    -0.000 C 
BRANCH  22  23
ATOM     23  C   UNL     1     161.776 175.594 183.987  1.00  0.00    -0.000 C 
BRANCH  23  24
ATOM     24  C   UNL     1     163.000 175.400 183.072  1.00  0.00    -0.000 C 
BRANCH  24  25
ATOM     25  C   UNL     1     163.373 176.628 182.222  1.00  0.00    -0.003 C 
ATOM     26  C   UNL     1     164.056 177.730 183.029  1.00  0.00     0.004 C 
ENDBRANCH  24  25
ENDBRANCH  23  24
ENDBRANCH  22  23
ENDBRANCH  21  22
ENDBRANCH  20  21
ENDBRANCH  19  20
ENDBRANCH  18  19
ENDBRANCH  17  18
ENDBRANCH  16  17
ENDBRANCH  15  16
ENDBRANCH   1  15
TORSDOF 22
ENDMDL
MODEL 3
REMARK VINA RESULT:    -4.608      6.552      9.283
REMARK INTER + INTRA:         -12.752
REMARK INTER:                  -8.653
REMARK INTRA:                  -4.099
REMARK UNBOUND:                -2.218
REMARK SMILES CCCCCCCCCCCCCCCCCCCCCCCC(=O)[O-]
REMARK SMILES IDX 13 1 14 2 15 3 16 4 17 5 18 6 19 7 20 8 21 9 22 10 23 11
REMARK SMILES IDX 24 12 25 13 26 14 12 15 11 16 10 17 9 18 8 19 7 20 6 21 5 22
REMARK SMILES IDX 4 23 3 24 2 25 1 26
REMARK H PARENT
REMARK Flexibility Score: inf
ROOT
ATOM      1  C   UNL     1     165.592 176.408 185.986  1.00  0.00     0.000 C 
ENDROOT
BRANCH   1   2
ATOM      2  C   UNL     1     164.356 176.853 185.178  1.00  0.00     0.000 C 
BRANCH   2   3
ATOM      3  C   UNL     1     163.797 178.243 185.547  1.00  0.00     0.000 C 
BRANCH   3   4
ATOM      4  C   UNL     1     163.893 178.611 187.039  1.00  0.00     0.000 C 
BRANCH   4   5
ATOM      5  C   UNL     1     162.850 177.880 187.903  1.00  0.00     0.000 C 
BRANCH   5   6
ATOM      6  C   UNL     1     161.428 177.995 187.333  1.00  0.00     0.000 C 
BRANCH   6   7
ATOM      7  C   UNL     1     160.680 176.652 187.323  1.00  0.00     0.000 C 
BRANCH   7   8
ATOM      8  C   UNL     1     160.633 176.063 185.905  1.00  0.00     0.000 C 
BRANCH   8   9
ATOM      9  C   UNL     1     160.535 177.140 184.811  1.00  0.00     0.000 C 
BRANCH   9  10
ATOM     10  C   UNL     1     160.396 176.604 183.372  1.00  0.00     0.006 C 
BRANCH  10  11
ATOM     11  C   UNL     1     161.732 176.205 182.719  1.00  0.00     0.053 C 
BRANCH  11  12
ATOM     12  C   UNL     1     162.252 177.259 181.789  1.00  0.00     0.041 C 
ATOM     13  O   UNL     1     162.525 178.410 182.222  1.00  0.00    -0.550 OA
ATOM     14  O   UNL     1     162.396 176.986 180.433  1.00  0.00    -0.550 OA
ENDBRANCH  11  12
ENDBRANCH  10  11
ENDBRANCH   9  10
ENDBRANCH   8   9
ENDBRANCH   7   8
ENDBRANCH   6   7
ENDBRANCH   5   6
ENDBRANCH   4   5
ENDBRANCH   3   4
ENDBRANCH   2   3
ENDBRANCH   1   2
BRANCH   1  15
ATOM     15  C   UNL     1     165.368 175.181 186.888  1.00  0.00     0.000 C 
BRANCH  15  16
ATOM     16  C   UNL     1     164.043 174.462 186.600  1.00  0.00     0.000 C 
BRANCH  16  17
ATOM     17  C   UNL     1     163.289 174.160 187.904  1.00  0.00     0.000 C 
BRANCH  17  18
ATOM     18  C   UNL     1     162.128 173.169 187.707  1.00  0.00    -0.000 C 
BRANCH  18  19
ATOM     19  C   UNL     1     162.282 171.831 188.459  1.00  0.00    -0.000 C 
BRANCH  19  20
ATOM     20  C   UNL     1     160.980 171.025 188.637  1.00  0.00    -0.000 C 
BRANCH  20  21
ATOM     21  C   UNL     1     160.665 170.037 187.500  1.00  0.00    -0.000 C 
BRANCH  21  22
ATOM     22  C   UNL     1     161.870 169.781 186.582  1.00  0.00    -0.000 C 
BRANCH  22  23
ATOM     23  C   UNL     1     161.467 169.899 185.104  1.00  0.00    -0.000 C 
BRANCH  23  24
ATOM     24  C   UNL     1     161.939 171.215 184.457  1.00  0.00    -0.000 C 
BRANCH  24  25
ATOM     25  C   UNL     1     160.818 172.079 183.854  1.00  0.00    -0.003 C 
ATOM     26  C   UNL     1     159.876 172.660 184.907  1.00  0.00     0.004 C 
ENDBRANCH  24  25
ENDBRANCH  23  24
ENDBRANCH  22  23
ENDBRANCH  21  22
ENDBRANCH  20  21
ENDBRANCH  19  20
ENDBRANCH  18  19
ENDBRANCH  17  18
ENDBRANCH  16  17
ENDBRANCH  15  16
ENDBRANCH   1  15
TORSDOF 22
ENDMDL
MODEL 4
REMARK VINA RESULT:    -4.562      7.551      9.316
REMARK INTER + INTRA:         -12.648
REMARK INTER:                  -8.458
REMARK INTRA:                  -4.190
REMARK UNBOUND:                -2.218
REMARK SMILES CCCCCCCCCCCCCCCCCCCCCCCC(=O)[O-]
REMARK SMILES IDX 13 1 14 2 15 3 16 4 17 5 18 6 19 7 20 8 21 9 22 10 23 11
REMARK SMILES IDX 24 12 25 13 26 14 12 15 11 16 10 17 9 18 8 19 7 20 6 21 5 22
REMARK SMILES IDX 4 23 3 24 2 25 1 26
REMARK H PARENT
REMARK Flexibility Score: inf
ROOT
ATOM      1  C   UNL     1     163.586 174.094 187.563  1.00  0.00     0.000 C 
ENDROOT
BRANCH   1   2
ATOM      2  C   UNL     1     164.196 175.432 187.096  1.00  0.00     0.000 C 
BRANCH   2   3
ATOM      3  C   UNL     1     163.397 176.691 187.491  1.00  0.00     0.000 C 
BRANCH   3   4
ATOM      4  C   UNL     1     161.929 176.437 187.883  1.00  0.00     0.000 C 
BRANCH   4   5
ATOM      5  C   UNL     1     161.075 177.716 187.858  1.00  0.00     0.000 C 
BRANCH   5   6
ATOM      6  C   UNL     1     160.732 178.168 186.430  1.00  0.00     0.000 C 
BRANCH   6   7
ATOM      7  C   UNL     1     160.657 176.998 185.437  1.00  0.00     0.000 C 
BRANCH   7   8
ATOM      8  C   UNL     1     161.101 177.441 184.034  1.00  0.00     0.000 C 
BRANCH   8   9
ATOM      9  C   UNL     1     162.615 177.698 183.937  1.00  0.00     0.000 C 
BRANCH   9  10
ATOM     10  C   UNL     1     163.208 177.599 182.517  1.00  0.00     0.006 C 
BRANCH  10  11
ATOM     11  C   UNL     1     162.199 177.147 181.446  1.00  0.00     0.053 C 
BRANCH  11  12
ATOM     12  C   UNL     1     161.727 178.283 180.588  1.00  0.00     0.041 C 
ATOM     13  O   UNL     1     161.392 179.378 181.112  1.00  0.00    -0.550 OA
ATOM     14  O   UNL     1     161.615 178.118 179.212  1.00  0.00    -0.550 OA
ENDBRANCH  11  12
ENDBRANCH  10  11
ENDBRANCH   9  10
ENDBRANCH   8   9
ENDBRANCH   7   8
ENDBRANCH   6   7
ENDBRANCH   5   6
ENDBRANCH   4   5
ENDBRANCH   3   4
ENDBRANCH   2   3
ENDBRANCH   1   2
BRANCH   1  15
ATOM     15  C   UNL     1     164.231 172.839 186.950  1.00  0.00     0.000 C 
BRANCH  15  16
ATOM     16  C   UNL     1     163.520 171.541 187.359  1.00  0.00     0.000 C 
BRANCH  16  17
ATOM     17  C   UNL     1     163.020 171.624 188.808  1.00  0.00     0.000 C 
BRANCH  17  18
ATOM     18  C   UNL     1     161.581 171.104 188.975  1.00  0.00    -0.000 C 
BRANCH  18  19
ATOM     19  C   UNL     1     160.605 171.525 187.858  1.00  0.00    -0.000 C 
BRANCH  19  20
ATOM     20  C   UNL     1     160.204 173.015 187.865  1.00  0.00    -0.000 C 
BRANCH  20  21
ATOM     21  C   UNL     1     159.939 173.624 186.477  1.00  0.00    -0.000 C 
BRANCH  21  22
ATOM     22  C   UNL     1     160.215 172.639 185.331  1.00  0.00    -0.000 C 
BRANCH  22  23
ATOM     23  C   UNL     1     160.782 173.371 184.104  1.00  0.00    -0.000 C 
BRANCH  23  24
ATOM     24  C   UNL     1     162.246 172.999 183.807  1.00  0.00    -0.000 C 
BRANCH  24  25
ATOM     25  C   UNL     1     163.216 174.192 183.734  1.00  0.00    -0.003 C 
ATOM     26  C   UNL     1     164.623 173.794 183.293  1.00  0.00     0.004 C 
ENDBRANCH  24  25
ENDBRANCH  23  24
ENDBRANCH  22  23
ENDBRANCH  21  22
ENDBRANCH  20  21
ENDBRANCH  19  20
ENDBRANCH  18  19
ENDBRANCH  17  18
ENDBRANCH  16  17
ENDBRANCH  15  16
ENDBRANCH   1  15
TORSDOF 22
ENDMDL
MODEL 5
REMARK VINA RESULT:    -4.535      1.418      2.708
REMARK INTER + INTRA:         -12.585
REMARK INTER:                  -9.873
REMARK INTRA:                  -2.712
REMARK UNBOUND:                -2.218
REMARK SMILES CCCCCCCCCCCCCCCCCCCCCCCC(=O)[O-]
REMARK SMILES IDX 13 1 14 2 15 3 16 4 17 5 18 6 19 7 20 8 21 9 22 10 23 11
REMARK SMILES IDX 24 12 25 13 26 14 12 15 11 16 10 17 9 18 8 19 7 20 6 21 5 22
REMARK SMILES IDX 4 23 3 24 2 25 1 26
REMARK H PARENT
REMARK Flexibility Score: inf
ROOT
ATOM      1  C   UNL     1     165.557 178.244 185.744  1.00  0.00     0.000 C 
ENDROOT
BRANCH   1   2
ATOM      2  C   UNL     1     166.854 177.419 185.861  1.00  0.00     0.000 C 
BRANCH   2   3
ATOM      3  C   UNL     1     166.961 176.540 187.124  1.00  0.00     0.000 C 
BRANCH   3   4
ATOM      4  C   UNL     1     168.215 176.781 187.984  1.00  0.00     0.000 C 
BRANCH   4   5
ATOM      5  C   UNL     1     168.692 178.243 187.947  1.00  0.00     0.000 C 
BRANCH   5   6
ATOM      6  C   UNL     1     170.189 178.366 187.623  1.00  0.00     0.000 C 
BRANCH   6   7
ATOM      7  C   UNL     1     170.574 179.763 187.112  1.00  0.00     0.000 C 
BRANCH   7   8
ATOM      8  C   UNL     1     172.056 179.808 186.707  1.00  0.00     0.000 C 
BRANCH   8   9
ATOM      9  C   UNL     1     172.984 179.175 187.757  1.00  0.00     0.000 C 
BRANCH   9  10
ATOM     10  C   UNL     1     174.481 179.509 187.597  1.00  0.00     0.006 C 
BRANCH  10  11
ATOM     11  C   UNL     1     175.415 178.295 187.751  1.00  0.00     0.053 C 
BRANCH  11  12
ATOM     12  C   UNL     1     176.332 178.125 186.576  1.00  0.00     0.041 C 
ATOM     13  O   UNL     1     176.012 178.586 185.449  1.00  0.00    -0.550 OA
ATOM     14  O   UNL     1     177.521 177.418 186.715  1.00  0.00    -0.550 OA
ENDBRANCH  11  12
ENDBRANCH  10  11
ENDBRANCH   9  10
ENDBRANCH   8   9
ENDBRANCH   7   8
ENDBRANCH   6   7
ENDBRANCH   5   6
ENDBRANCH   4   5
ENDBRANCH   3   4
ENDBRANCH   2   3
ENDBRANCH   1   2
BRANCH   1  15
ATOM     15  C   UNL     1     164.721 178.326 187.034  1.00  0.00     0.000 C 
BRANCH  15  16
ATOM     16  C   UNL     1     163.210 178.247 186.773  1.00  0.00     0.000 C 
BRANCH  16  17
ATOM     17  C   UNL     1     162.459 177.803 188.036  1.00  0.00     0.000 C 
BRANCH  17  18
ATOM     18  C   UNL     1     160.962 177.550 187.783  1.00  0.00    -0.000 C 
BRANCH  18  19
ATOM     19  C   UNL     1     160.654 176.372 186.836  1.00  0.00    -0.000 C 
BRANCH  19  20
ATOM     20  C   UNL     1     160.489 175.002 187.525  1.00  0.00    -0.000 C 
BRANCH  20  21
ATOM     21  C   UNL     1     161.441 173.902 187.023  1.00  0.00    -0.000 C 
BRANCH  21  22
ATOM     22  C   UNL     1     162.719 173.789 187.868  1.00  0.00    -0.000 C 
BRANCH  22  23
ATOM     23  C   UNL     1     163.875 174.566 187.220  1.00  0.00    -0.000 C 
BRANCH  23  24
ATOM     24  C   UNL     1     164.100 174.188 185.745  1.00  0.00    -0.000 C 
BRANCH  24  25
ATOM     25  C   UNL     1     163.718 175.281 184.730  1.00  0.00    -0.003 C 
ATOM     26  C   UNL     1     163.385 174.725 183.347  1.00  0.00     0.004 C 
ENDBRANCH  24  25
ENDBRANCH  23  24
ENDBRANCH  22  23
ENDBRANCH  21  22
ENDBRANCH  20  21
ENDBRANCH  19  20
ENDBRANCH  18  19
ENDBRANCH  17  18
ENDBRANCH  16  17
ENDBRANCH  15  16
ENDBRANCH   1  15
TORSDOF 22
ENDMDL
MODEL 6
REMARK VINA RESULT:    -4.450      5.377      8.428
REMARK INTER + INTRA:         -12.391
REMARK INTER:                  -8.288
REMARK INTRA:                  -4.103
REMARK UNBOUND:                -2.218
REMARK SMILES CCCCCCCCCCCCCCCCCCCCCCCC(=O)[O-]
REMARK SMILES IDX 13 1 14 2 15 3 16 4 17 5 18 6 19 7 20 8 21 9 22 10 23 11
REMARK SMILES IDX 24 12 25 13 26 14 12 15 11 16 10 17 9 18 8 19 7 20 6 21 5 22
REMARK SMILES IDX 4 23 3 24 2 25 1 26
REMARK H PARENT
REMARK Flexibility Score: inf
ROOT
ATOM      1  C   UNL     1     163.011 172.387 184.328  1.00  0.00     0.000 C 
ENDROOT
BRANCH   1   2
ATOM      2  C   UNL     1     162.697 172.661 185.812  1.00  0.00     0.000 C 
BRANCH   2   3
ATOM      3  C   UNL     1     161.351 172.099 186.313  1.00  0.00     0.000 C 
BRANCH   3   4
ATOM      4  C   UNL     1     160.558 173.035 187.244  1.00  0.00     0.000 C 
BRANCH   4   5
ATOM      5  C   UNL     1     161.276 174.370 187.501  1.00  0.00     0.000 C 
BRANCH   5   6
ATOM      6  C   UNL     1     160.305 175.559 187.574  1.00  0.00     0.000 C 
BRANCH   6   7
ATOM      7  C   UNL     1     161.013 176.888 187.877  1.00  0.00     0.000 C 
BRANCH   7   8
ATOM      8  C   UNL     1     162.499 176.815 187.495  1.00  0.00     0.000 C 
BRANCH   8   9
ATOM      9  C   UNL     1     163.148 178.201 187.342  1.00  0.00     0.000 C 
BRANCH   9  10
ATOM     10  C   UNL     1     163.840 178.457 185.987  1.00  0.00     0.006 C 
BRANCH  10  11
ATOM     11  C   UNL     1     164.752 177.307 185.521  1.00  0.00     0.053 C 
BRANCH  11  12
ATOM     12  C   UNL     1     166.139 177.415 186.078  1.00  0.00     0.041 C 
ATOM     13  O   UNL     1     166.494 176.688 187.044  1.00  0.00    -0.550 OA
ATOM     14  O   UNL     1     167.029 178.349 185.560  1.00  0.00    -0.550 OA
ENDBRANCH  11  12
ENDBRANCH  10  11
ENDBRANCH   9  10
ENDBRANCH   8   9
ENDBRANCH   7   8
ENDBRANCH   6   7
ENDBRANCH   5   6
ENDBRANCH   4   5
ENDBRANCH   3   4
ENDBRANCH   2   3
ENDBRANCH   1   2
BRANCH   1  15
ATOM     15  C   UNL     1     162.800 173.587 183.388  1.00  0.00     0.000 C 
BRANCH  15  16
ATOM     16  C   UNL     1     161.402 173.610 182.754  1.00  0.00     0.000 C 
BRANCH  16  17
ATOM     17  C   UNL     1     160.543 174.730 183.359  1.00  0.00     0.000 C 
BRANCH  17  18
ATOM     18  C   UNL     1     161.370 175.747 184.166  1.00  0.00    -0.000 C 
BRANCH  18  19
ATOM     19  C   UNL     1     161.042 177.225 183.877  1.00  0.00    -0.000 C 
BRANCH  19  20
ATOM     20  C   UNL     1     161.379 177.705 182.451  1.00  0.00    -0.000 C 
BRANCH  20  21
ATOM     21  C   UNL     1     162.822 177.423 181.992  1.00  0.00    -0.000 C 
BRANCH  21  22
ATOM     22  C   UNL     1     162.889 176.481 180.781  1.00  0.00    -0.000 C 
BRANCH  22  23
ATOM     23  C   UNL     1     161.516 176.365 180.101  1.00  0.00    -0.000 C 
BRANCH  23  24
ATOM     24  C   UNL     1     161.600 176.437 178.565  1.00  0.00    -0.000 C 
BRANCH  24  25
ATOM     25  C   UNL     1     161.541 177.859 177.979  1.00  0.00    -0.003 C 
ATOM     26  C   UNL     1     160.829 178.855 178.893  1.00  0.00     0.004 C 
ENDBRANCH  24  25
ENDBRANCH  23  24
ENDBRANCH  22  23
ENDBRANCH  21  22
ENDBRANCH  20  21
ENDBRANCH  19  20
ENDBRANCH  18  19
ENDBRANCH  17  18
ENDBRANCH  16  17
ENDBRANCH  15  16
ENDBRANCH   1  15
TORSDOF 22
ENDMDL
MODEL 7
REMARK VINA RESULT:    -4.440      4.516     11.092
REMARK INTER + INTRA:         -12.369
REMARK INTER:                  -9.550
REMARK INTRA:                  -2.818
REMARK UNBOUND:                -2.218
REMARK SMILES CCCCCCCCCCCCCCCCCCCCCCCC(=O)[O-]
REMARK SMILES IDX 13 1 14 2 15 3 16 4 17 5 18 6 19 7 20 8 21 9 22 10 23 11
REMARK SMILES IDX 24 12 25 13 26 14 12 15 11 16 10 17 9 18 8 19 7 20 6 21 5 22
REMARK SMILES IDX 4 23 3 24 2 25 1 26
REMARK H PARENT
REMARK Flexibility Score: inf
ROOT
ATOM      1  C   UNL     1     171.731 176.108 186.798  1.00  0.00     0.000 C 
ENDROOT
BRANCH   1   2
ATOM      2  C   UNL     1     170.895 176.737 187.931  1.00  0.00     0.000 C 
BRANCH   2   3
ATOM      3  C   UNL     1     169.770 177.684 187.468  1.00  0.00     0.000 C 
BRANCH   3   4
ATOM      4  C   UNL     1     168.469 177.605 188.289  1.00  0.00     0.000 C 
BRANCH   4   5
ATOM      5  C   UNL     1     167.320 176.928 187.522  1.00  0.00     0.000 C 
BRANCH   5   6
ATOM      6  C   UNL     1     166.286 177.936 186.998  1.00  0.00     0.000 C 
BRANCH   6   7
ATOM      7  C   UNL     1     164.951 177.277 186.619  1.00  0.00     0.000 C 
BRANCH   7   8
ATOM      8  C   UNL     1     163.785 178.263 186.794  1.00  0.00     0.000 C 
BRANCH   8   9
ATOM      9  C   UNL     1     162.821 177.859 187.922  1.00  0.00     0.000 C 
BRANCH   9  10
ATOM     10  C   UNL     1     161.343 177.722 187.505  1.00  0.00     0.006 C 
BRANCH  10  11
ATOM     11  C   UNL     1     160.827 176.271 187.495  1.00  0.00     0.053 C 
BRANCH  11  12
ATOM     12  C   UNL     1     161.075 175.584 186.186  1.00  0.00     0.041 C 
ATOM     13  O   UNL     1     160.165 175.525 185.317  1.00  0.00    -0.550 OA
ATOM     14  O   UNL     1     162.298 174.970 185.940  1.00  0.00    -0.550 OA
ENDBRANCH  11  12
ENDBRANCH  10  11
ENDBRANCH   9  10
ENDBRANCH   8   9
ENDBRANCH   7   8
ENDBRANCH   6   7
ENDBRANCH   5   6
ENDBRANCH   4   5
ENDBRANCH   3   4
ENDBRANCH   2   3
ENDBRANCH   1   2
BRANCH   1  15
ATOM     15  C   UNL     1     173.185 175.772 187.174  1.00  0.00     0.000 C 
BRANCH  15  16
ATOM     16  C   UNL     1     174.208 176.370 186.197  1.00  0.00     0.000 C 
BRANCH  16  17
ATOM     17  C   UNL     1     175.621 176.340 186.797  1.00  0.00     0.000 C 
BRANCH  17  18
ATOM     18  C   UNL     1     176.236 177.743 186.946  1.00  0.00    -0.000 C 
BRANCH  18  19
ATOM     19  C   UNL     1     175.600 178.618 188.044  1.00  0.00    -0.000 C 
BRANCH  19  20
ATOM     20  C   UNL     1     174.777 179.818 187.531  1.00  0.00    -0.000 C 
BRANCH  20  21
ATOM     21  C   UNL     1     173.257 179.703 187.743  1.00  0.00    -0.000 C 
BRANCH  21  22
ATOM     22  C   UNL     1     172.466 179.752 186.426  1.00  0.00    -0.000 C 
BRANCH  22  23
ATOM     23  C   UNL     1     173.414 179.730 185.217  1.00  0.00    -0.000 C 
BRANCH  23  24
ATOM     24  C   UNL     1     172.682 179.475 183.887  1.00  0.00    -0.000 C 
BRANCH  24  25
ATOM     25  C   UNL     1     171.989 178.104 183.781  1.00  0.00    -0.003 C 
ATOM     26  C   UNL     1     170.464 178.201 183.804  1.00  0.00     0.004 C 
ENDBRANCH  24  25
ENDBRANCH  23  24
ENDBRANCH  22  23
ENDBRANCH  21  22
ENDBRANCH  20  21
ENDBRANCH  19  20
ENDBRANCH  18  19
ENDBRANCH  17  18
ENDBRANCH  16  17
ENDBRANCH  15  16
ENDBRANCH   1  15
TORSDOF 22
ENDMDL
MODEL 8
REMARK VINA RESULT:    -4.417      6.721     10.239
REMARK INTER + INTRA:         -12.315
REMARK INTER:                  -7.923
REMARK INTRA:                  -4.392
REMARK UNBOUND:                -2.218
REMARK SMILES CCCCCCCCCCCCCCCCCCCCCCCC(=O)[O-]
REMARK SMILES IDX 13 1 14 2 15 3 16 4 17 5 18 6 19 7 20 8 21 9 22 10 23 11
REMARK SMILES IDX 24 12 25 13 26 14 12 15 11 16 10 17 9 18 8 19 7 20 6 21 5 22
REMARK SMILES IDX 4 23 3 24 2 25 1 26
REMARK H PARENT
REMARK Flexibility Score: inf
ROOT
ATOM      1  C   UNL     1     161.565 174.572 185.126  1.00  0.00     0.000 C 
ENDROOT
BRANCH   1   2
ATOM      2  C   UNL     1     160.382 174.132 186.011  1.00  0.00     0.000 C 
BRANCH   2   3
ATOM      3  C   UNL     1     160.762 173.677 187.435  1.00  0.00     0.000 C 
BRANCH   3   4
ATOM      4  C   UNL     1     162.219 173.208 187.605  1.00  0.00     0.000 C 
BRANCH   4   5
ATOM      5  C   UNL     1     162.327 171.828 188.275  1.00  0.00     0.000 C 
BRANCH   5   6
ATOM      6  C   UNL     1     161.046 170.993 188.118  1.00  0.00     0.000 C 
BRANCH   6   7
ATOM      7  C   UNL     1     161.204 169.846 187.108  1.00  0.00     0.000 C 
BRANCH   7   8
ATOM      8  C   UNL     1     160.625 170.239 185.740  1.00  0.00     0.000 C 
BRANCH   8   9
ATOM      9  C   UNL     1     161.688 170.789 184.774  1.00  0.00     0.000 C 
BRANCH   9  10
ATOM     10  C   UNL     1     161.138 171.391 183.465  1.00  0.00     0.006 C 
BRANCH  10  11
ATOM     11  C   UNL     1     162.204 171.602 182.375  1.00  0.00     0.053 C 
BRANCH  11  12
ATOM     12  C   UNL     1     162.114 172.957 181.740  1.00  0.00     0.041 C 
ATOM     13  O   UNL     1     161.073 173.301 181.121  1.00  0.00    -0.550 OA
ATOM     14  O   UNL     1     163.198 173.827 181.795  1.00  0.00    -0.550 OA
ENDBRANCH  11  12
ENDBRANCH  10  11
ENDBRANCH   9  10
ENDBRANCH   8   9
ENDBRANCH   7   8
ENDBRANCH   6   7
ENDBRANCH   5   6
ENDBRANCH   4   5
ENDBRANCH   3   4
ENDBRANCH   2   3
ENDBRANCH   1   2
BRANCH   1  15
ATOM     15  C   UNL     1     161.232 175.663 184.093  1.00  0.00     0.000 C 
BRANCH  15  16
ATOM     16  C   UNL     1     160.319 176.761 184.658  1.00  0.00     0.000 C 
BRANCH  16  17
ATOM     17  C   UNL     1     161.145 177.881 185.307  1.00  0.00     0.000 C 
BRANCH  17  18
ATOM     18  C   UNL     1     160.586 178.322 186.671  1.00  0.00    -0.000 C 
BRANCH  18  19
ATOM     19  C   UNL     1     160.997 177.431 187.860  1.00  0.00    -0.000 C 
BRANCH  19  20
ATOM     20  C   UNL     1     162.480 177.529 188.271  1.00  0.00    -0.000 C 
BRANCH  20  21
ATOM     21  C   UNL     1     163.396 176.449 187.667  1.00  0.00    -0.000 C 
BRANCH  21  22
ATOM     22  C   UNL     1     164.453 177.028 186.715  1.00  0.00    -0.000 C 
BRANCH  22  23
ATOM     23  C   UNL     1     165.261 175.906 186.046  1.00  0.00    -0.000 C 
BRANCH  23  24
ATOM     24  C   UNL     1     164.957 175.762 184.543  1.00  0.00    -0.000 C 
BRANCH  24  25
ATOM     25  C   UNL     1     165.295 176.999 183.692  1.00  0.00    -0.003 C 
ATOM     26  C   UNL     1     164.069 177.618 183.022  1.00  0.00     0.004 C 
ENDBRANCH  24  25
ENDBRANCH  23  24
ENDBRANCH  22  23
ENDBRANCH  21  22
ENDBRANCH  20  21
ENDBRANCH  19  20
ENDBRANCH  18  19
ENDBRANCH  17  18
ENDBRANCH  16  17
ENDBRANCH  15  16
ENDBRANCH   1  15
TORSDOF 22
ENDMDL
MODEL 9
REMARK VINA RESULT:    -4.397      6.949      9.367
REMARK INTER + INTRA:         -12.271
REMARK INTER:                  -8.120
REMARK INTRA:                  -4.150
REMARK UNBOUND:                -2.218
REMARK SMILES CCCCCCCCCCCCCCCCCCCCCCCC(=O)[O-]
REMARK SMILES IDX 13 1 14 2 15 3 16 4 17 5 18 6 19 7 20 8 21 9 22 10 23 11
REMARK SMILES IDX 24 12 25 13 26 14 12 15 11 16 10 17 9 18 8 19 7 20 6 21 5 22
REMARK SMILES IDX 4 23 3 24 2 25 1 26
REMARK H PARENT
REMARK Flexibility Score: inf
ROOT
ATOM      1  C   UNL     1     165.099 177.828 186.253  1.00  0.00     0.000 C 
ENDROOT
BRANCH   1   2
ATOM      2  C   UNL     1     165.496 177.499 184.800  1.00  0.00     0.000 C 
BRANCH   2   3
ATOM      3  C   UNL     1     164.323 177.420 183.801  1.00  0.00     0.000 C 
BRANCH   3   4
ATOM      4  C   UNL     1     164.038 176.015 183.238  1.00  0.00     0.000 C 
BRANCH   4   5
ATOM      5  C   UNL     1     164.538 174.890 184.160  1.00  0.00     0.000 C 
BRANCH   5   6
ATOM      6  C   UNL     1     163.438 174.360 185.094  1.00  0.00     0.000 C 
BRANCH   6   7
ATOM      7  C   UNL     1     163.913 173.188 185.967  1.00  0.00     0.000 C 
BRANCH   7   8
ATOM      8  C   UNL     1     163.326 173.289 187.383  1.00  0.00     0.000 C 
BRANCH   8   9
ATOM      9  C   UNL     1     161.928 173.928 187.410  1.00  0.00     0.000 C 
BRANCH   9  10
ATOM     10  C   UNL     1     160.751 172.940 187.283  1.00  0.00     0.006 C 
BRANCH  10  11
ATOM     11  C   UNL     1     160.196 172.805 185.854  1.00  0.00     0.053 C 
BRANCH  11  12
ATOM     12  C   UNL     1     160.607 171.521 185.198  1.00  0.00     0.041 C 
ATOM     13  O   UNL     1     161.260 171.539 184.121  1.00  0.00    -0.550 OA
ATOM     14  O   UNL     1     160.232 170.303 185.752  1.00  0.00    -0.550 OA
ENDBRANCH  11  12
ENDBRANCH  10  11
ENDBRANCH   9  10
ENDBRANCH   8   9
ENDBRANCH   7   8
ENDBRANCH   6   7
ENDBRANCH   5   6
ENDBRANCH   4   5
ENDBRANCH   3   4
ENDBRANCH   2   3
ENDBRANCH   1   2
BRANCH   1  15
ATOM     15  C   UNL     1     163.683 178.406 186.424  1.00  0.00     0.000 C 
BRANCH  15  16
ATOM     16  C   UNL     1     162.900 177.740 187.565  1.00  0.00     0.000 C 
BRANCH  16  17
ATOM     17  C   UNL     1     161.542 177.223 187.068  1.00  0.00     0.000 C 
BRANCH  17  18
ATOM     18  C   UNL     1     160.729 178.297 186.324  1.00  0.00    -0.000 C 
BRANCH  18  19
ATOM     19  C   UNL     1     160.246 177.888 184.918  1.00  0.00    -0.000 C 
BRANCH  19  20
ATOM     20  C   UNL     1     160.598 176.447 184.497  1.00  0.00    -0.000 C 
BRANCH  20  21
ATOM     21  C   UNL     1     160.129 176.048 183.086  1.00  0.00    -0.000 C 
BRANCH  21  22
ATOM     22  C   UNL     1     160.664 174.676 182.646  1.00  0.00    -0.000 C 
BRANCH  22  23
ATOM     23  C   UNL     1     161.084 174.700 181.169  1.00  0.00    -0.000 C 
BRANCH  23  24
ATOM     24  C   UNL     1     160.232 175.661 180.319  1.00  0.00    -0.000 C 
BRANCH  24  25
ATOM     25  C   UNL     1     161.033 176.714 179.533  1.00  0.00    -0.003 C 
ATOM     26  C   UNL     1     162.054 177.456 180.394  1.00  0.00     0.004 C 
ENDBRANCH  24  25
ENDBRANCH  23  24
ENDBRANCH  22  23
ENDBRANCH  21  22
ENDBRANCH  20  21
ENDBRANCH  19  20
ENDBRANCH  18  19
ENDBRANCH  17  18
ENDBRANCH  16  17
ENDBRANCH  15  16
ENDBRANCH   1  15
TORSDOF 22
ENDMDL
