MODEL 1
REMARK VINA RESULT:    -6.731      0.000      0.000
REMARK INTER + INTRA:         -10.911
REMARK INTER:                  -9.289
REMARK INTRA:                  -1.622
REMARK UNBOUND:                -1.622
REMARK SMILES CC[C@H](CC[C@@H](C)[C@@H]1CC[C@@H]2C3=CC[C@@H]4C[C@@H](O)CC[C@]4(C)[C@@H]3CC[C@]21C)C(C)C
REMARK SMILES IDX 5 1 4 2 3 3 2 4 1 5 28 6 29 7 30 8 6 9 7 10 8 11 9 12 26 13
REMARK SMILES IDX 10 14 11 15 25 16 27 17 12 18 24 19 23 20 13 21 21 22 14 23
REMARK SMILES IDX 15 24 20 25 22 26 16 27 19 28 17 29 18 30
REMARK H PARENT 18 31
REMARK Flexibility Score: inf
ROOT
ATOM      1  C   UNL     1     113.929 119.193 126.813  1.00  0.00     0.004 C 
ENDROOT
BRANCH   1   2
ATOM      2  C   UNL     1     114.458 117.849 127.390  1.00  0.00     0.004 C 
BRANCH   2   3
ATOM      3  C   UNL     1     115.964 117.869 127.784  1.00  0.00    -0.009 C 
BRANCH   3   4
ATOM      4  C   UNL     1     116.693 116.582 127.272  1.00  0.00     0.000 C 
ATOM      5  C   UNL     1     117.659 116.010 128.314  1.00  0.00     0.004 C 
ENDBRANCH   3   4
BRANCH   3   6
ATOM      6  C   UNL     1     116.696 119.159 127.264  1.00  0.00    -0.014 C 
ATOM      7  C   UNL     1     117.567 118.856 126.029  1.00  0.00     0.007 C 
ATOM      8  C   UNL     1     117.594 119.823 128.326  1.00  0.00     0.007 C 
ENDBRANCH   3   6
ENDBRANCH   2   3
ENDBRANCH   1   2
BRANCH   1   9
ATOM      9  C   UNL     1     113.352 119.064 125.367  1.00  0.00    -0.011 C 
ATOM     10  C   UNL     1     112.017 118.307 125.356  1.00  0.00     0.008 C 
BRANCH   9  11
ATOM     11  C   UNL     1     113.301 120.384 124.513  1.00  0.00    -0.002 C 
ATOM     12  C   UNL     1     112.147 120.427 123.473  1.00  0.00     0.005 C 
ATOM     13  C   UNL     1     114.560 120.920 123.753  1.00  0.00    -0.023 C 
ATOM     14  C   UNL     1     112.632 121.298 122.306  1.00  0.00     0.009 C 
ATOM     15  C   UNL     1     113.892 121.959 122.851  1.00  0.00     0.021 C 
ATOM     16  C   UNL     1     115.635 121.630 124.644  1.00  0.00     0.008 C 
ATOM     17  C   UNL     1     115.255 119.801 122.922  1.00  0.00     0.012 C 
ATOM     18  C   UNL     1     114.904 122.606 121.942  1.00  0.00    -0.067 C 
ATOM     19  C   UNL     1     116.120 123.042 124.182  1.00  0.00     0.009 C 
ATOM     20  C   UNL     1     115.935 123.462 122.664  1.00  0.00     0.021 C 
ATOM     21  C   UNL     1     114.818 122.570 120.598  1.00  0.00    -0.027 C 
ATOM     22  C   UNL     1     117.220 123.900 121.796  1.00  0.00    -0.023 C 
ATOM     23  C   UNL     1     115.807 123.292 119.733  1.00  0.00     0.031 C 
ATOM     24  C   UNL     1     117.214 123.253 120.356  1.00  0.00     0.002 C 
ATOM     25  C   UNL     1     118.609 123.622 122.455  1.00  0.00     0.010 C 
ATOM     26  C   UNL     1     117.172 125.450 121.621  1.00  0.00     0.012 C 
ATOM     27  C   UNL     1     117.769 121.799 120.293  1.00  0.00     0.036 C 
ATOM     28  C   UNL     1     118.992 122.140 122.460  1.00  0.00     0.032 C 
ATOM     29  C   UNL     1     119.102 121.616 121.028  1.00  0.00     0.114 C 
BRANCH  29  30
ATOM     30  O   UNL     1     120.129 122.291 120.342  1.00  0.00    -0.393 OA
ATOM     31  H   UNL     1     120.517 122.943 120.980  1.00  0.00     0.210 HD
ENDBRANCH  29  30
ENDBRANCH   9  11
ENDBRANCH   1   9
TORSDOF 7
ENDMDL
MODEL 2
REMARK VINA RESULT:    -6.694      3.543      7.095
REMARK INTER + INTRA:         -10.861
REMARK INTER:                  -8.896
REMARK INTRA:                  -1.965
REMARK UNBOUND:                -1.622
REMARK SMILES CC[C@H](CC[C@@H](C)[C@@H]1CC[C@@H]2C3=CC[C@@H]4C[C@@H](O)CC[C@]4(C)[C@@H]3CC[C@]21C)C(C)C
REMARK SMILES IDX 5 1 4 2 3 3 2 4 1 5 28 6 29 7 30 8 6 9 7 10 8 11 9 12 26 13
REMARK SMILES IDX 10 14 11 15 25 16 27 17 12 18 24 19 23 20 13 21 21 22 14 23
REMARK SMILES IDX 15 24 20 25 22 26 16 27 19 28 17 29 18 30
REMARK H PARENT 18 31
REMARK Flexibility Score: inf
ROOT
ATOM      1  C   UNL     1     120.817 120.049 119.009  1.00  0.00     0.004 C 
ENDROOT
BRANCH   1   2
ATOM      2  C   UNL     1     120.063 118.844 118.381  1.00  0.00     0.004 C 
BRANCH   2   3
ATOM      3  C   UNL     1     118.547 118.783 118.732  1.00  0.00    -0.009 C 
BRANCH   3   4
ATOM      4  C   UNL     1     117.674 118.734 117.434  1.00  0.00     0.000 C 
ATOM      5  C   UNL     1     118.076 119.812 116.424  1.00  0.00     0.004 C 
ENDBRANCH   3   4
BRANCH   3   6
ATOM      6  C   UNL     1     118.204 117.571 119.673  1.00  0.00    -0.014 C 
ATOM      7  C   UNL     1     118.504 116.222 118.989  1.00  0.00     0.007 C 
ATOM      8  C   UNL     1     116.734 117.552 120.134  1.00  0.00     0.007 C 
ENDBRANCH   3   6
ENDBRANCH   2   3
ENDBRANCH   1   2
BRANCH   1   9
ATOM      9  C   UNL     1     120.605 120.181 120.552  1.00  0.00    -0.011 C 
ATOM     10  C   UNL     1     121.891 119.860 121.327  1.00  0.00     0.008 C 
BRANCH   9  11
ATOM     11  C   UNL     1     119.914 121.500 121.054  1.00  0.00    -0.002 C 
ATOM     12  C   UNL     1     120.597 122.148 122.292  1.00  0.00     0.005 C 
ATOM     13  C   UNL     1     118.378 121.560 121.353  1.00  0.00    -0.023 C 
ATOM     14  C   UNL     1     119.498 122.881 123.072  1.00  0.00     0.009 C 
ATOM     15  C   UNL     1     118.317 122.888 122.111  1.00  0.00     0.021 C 
ATOM     16  C   UNL     1     117.448 121.643 120.096  1.00  0.00     0.008 C 
ATOM     17  C   UNL     1     117.915 120.370 122.244  1.00  0.00     0.012 C 
ATOM     18  C   UNL     1     116.913 123.169 122.581  1.00  0.00    -0.067 C 
ATOM     19  C   UNL     1     116.371 122.776 120.083  1.00  0.00     0.009 C 
ATOM     20  C   UNL     1     115.917 123.423 121.458  1.00  0.00     0.021 C 
ATOM     21  C   UNL     1     116.591 123.343 123.877  1.00  0.00    -0.027 C 
ATOM     22  C   UNL     1     114.361 123.398 121.876  1.00  0.00    -0.023 C 
ATOM     23  C   UNL     1     115.194 123.695 124.294  1.00  0.00     0.031 C 
ATOM     24  C   UNL     1     114.159 122.999 123.391  1.00  0.00     0.002 C 
ATOM     25  C   UNL     1     113.440 122.490 121.001  1.00  0.00     0.010 C 
ATOM     26  C   UNL     1     113.792 124.838 121.684  1.00  0.00     0.012 C 
ATOM     27  C   UNL     1     114.174 121.467 123.668  1.00  0.00     0.036 C 
ATOM     28  C   UNL     1     113.638 120.994 121.261  1.00  0.00     0.032 C 
ATOM     29  C   UNL     1     113.291 120.658 122.712  1.00  0.00     0.114 C 
BRANCH  29  30
ATOM     30  O   UNL     1     111.933 120.930 122.961  1.00  0.00    -0.393 OA
ATOM     31  H   UNL     1     111.809 121.905 122.831  1.00  0.00     0.210 HD
ENDBRANCH  29  30
ENDBRANCH   9  11
ENDBRANCH   1   9
TORSDOF 7
ENDMDL
MODEL 3
REMARK VINA RESULT:    -6.610      3.494      7.199
REMARK INTER + INTRA:         -10.745
REMARK INTER:                  -8.968
REMARK INTRA:                  -1.777
REMARK UNBOUND:                -1.622
REMARK SMILES CC[C@H](CC[C@@H](C)[C@@H]1CC[C@@H]2C3=CC[C@@H]4C[C@@H](O)CC[C@]4(C)[C@@H]3CC[C@]21C)C(C)C
REMARK SMILES IDX 5 1 4 2 3 3 2 4 1 5 28 6 29 7 30 8 6 9 7 10 8 11 9 12 26 13
REMARK SMILES IDX 10 14 11 15 25 16 27 17 12 18 24 19 23 20 13 21 21 22 14 23
REMARK SMILES IDX 15 24 20 25 22 26 16 27 19 28 17 29 18 30
REMARK H PARENT 18 31
REMARK Flexibility Score: inf
ROOT
ATOM      1  C   UNL     1     120.488 119.718 119.612  1.00  0.00     0.004 C 
ENDROOT
BRANCH   1   2
ATOM      2  C   UNL     1     119.626 118.426 119.527  1.00  0.00     0.004 C 
BRANCH   2   3
ATOM      3  C   UNL     1     118.953 118.195 118.143  1.00  0.00    -0.009 C 
BRANCH   3   4
ATOM      4  C   UNL     1     117.405 118.026 118.295  1.00  0.00     0.000 C 
ATOM      5  C   UNL     1     116.967 117.990 119.762  1.00  0.00     0.004 C 
ENDBRANCH   3   4
BRANCH   3   6
ATOM      6  C   UNL     1     119.283 119.345 117.123  1.00  0.00    -0.014 C 
ATOM      7  C   UNL     1     118.030 119.782 116.339  1.00  0.00     0.007 C 
ATOM      8  C   UNL     1     120.373 118.963 116.102  1.00  0.00     0.007 C 
ENDBRANCH   3   6
ENDBRANCH   2   3
ENDBRANCH   1   2
BRANCH   1   9
ATOM      9  C   UNL     1     120.714 120.219 121.075  1.00  0.00    -0.011 C 
ATOM     10  C   UNL     1     122.206 120.250 121.437  1.00  0.00     0.008 C 
BRANCH   9  11
ATOM     11  C   UNL     1     119.969 121.541 121.486  1.00  0.00    -0.002 C 
ATOM     12  C   UNL     1     120.562 122.246 122.738  1.00  0.00     0.005 C 
ATOM     13  C   UNL     1     118.417 121.580 121.688  1.00  0.00    -0.023 C 
ATOM     14  C   UNL     1     119.404 122.984 123.423  1.00  0.00     0.009 C 
ATOM     15  C   UNL     1     118.285 122.932 122.392  1.00  0.00     0.021 C 
ATOM     16  C   UNL     1     117.565 121.600 120.373  1.00  0.00     0.008 C 
ATOM     17  C   UNL     1     117.921 120.414 122.592  1.00  0.00     0.012 C 
ATOM     18  C   UNL     1     116.850 123.202 122.764  1.00  0.00    -0.067 C 
ATOM     19  C   UNL     1     116.470 122.709 120.254  1.00  0.00     0.009 C 
ATOM     20  C   UNL     1     115.921 123.396 121.574  1.00  0.00     0.021 C 
ATOM     21  C   UNL     1     116.445 123.415 124.031  1.00  0.00    -0.027 C 
ATOM     22  C   UNL     1     114.343 123.354 121.896  1.00  0.00    -0.023 C 
ATOM     23  C   UNL     1     115.019 123.753 124.348  1.00  0.00     0.031 C 
ATOM     24  C   UNL     1     114.055 123.005 123.409  1.00  0.00     0.002 C 
ATOM     25  C   UNL     1     113.494 122.397 121.000  1.00  0.00     0.010 C 
ATOM     26  C   UNL     1     113.761 124.775 121.617  1.00  0.00     0.012 C 
ATOM     27  C   UNL     1     114.080 121.485 123.743  1.00  0.00     0.036 C 
ATOM     28  C   UNL     1     113.703 120.916 121.326  1.00  0.00     0.032 C 
ATOM     29  C   UNL     1     113.272 120.624 122.764  1.00  0.00     0.114 C 
BRANCH  29  30
ATOM     30  O   UNL     1     111.897 120.878 122.920  1.00  0.00    -0.393 OA
ATOM     31  H   UNL     1     111.815 121.806 123.259  1.00  0.00     0.210 HD
ENDBRANCH  29  30
ENDBRANCH   9  11
ENDBRANCH   1   9
TORSDOF 7
ENDMDL
MODEL 4
REMARK VINA RESULT:    -6.509      1.433      2.403
REMARK INTER + INTRA:         -10.605
REMARK INTER:                  -8.969
REMARK INTRA:                  -1.636
REMARK UNBOUND:                -1.622
REMARK SMILES CC[C@H](CC[C@@H](C)[C@@H]1CC[C@@H]2C3=CC[C@@H]4C[C@@H](O)CC[C@]4(C)[C@@H]3CC[C@]21C)C(C)C
REMARK SMILES IDX 5 1 4 2 3 3 2 4 1 5 28 6 29 7 30 8 6 9 7 10 8 11 9 12 26 13
REMARK SMILES IDX 10 14 11 15 25 16 27 17 12 18 24 19 23 20 13 21 21 22 14 23
REMARK SMILES IDX 15 24 20 25 22 26 16 27 19 28 17 29 18 30
REMARK H PARENT 18 31
REMARK Flexibility Score: inf
ROOT
ATOM      1  C   UNL     1     113.608 118.778 127.041  1.00  0.00     0.004 C 
ENDROOT
BRANCH   1   2
ATOM      2  C   UNL     1     114.637 117.650 127.333  1.00  0.00     0.004 C 
BRANCH   2   3
ATOM      3  C   UNL     1     116.100 118.148 127.518  1.00  0.00    -0.009 C 
BRANCH   3   4
ATOM      4  C   UNL     1     116.229 119.042 128.797  1.00  0.00     0.000 C 
ATOM      5  C   UNL     1     117.437 119.980 128.729  1.00  0.00     0.004 C 
ENDBRANCH   3   4
BRANCH   3   6
ATOM      6  C   UNL     1     117.129 116.962 127.570  1.00  0.00    -0.014 C 
ATOM      7  C   UNL     1     118.231 117.122 126.504  1.00  0.00     0.007 C 
ATOM      8  C   UNL     1     116.479 115.578 127.377  1.00  0.00     0.007 C 
ENDBRANCH   3   6
ENDBRANCH   2   3
ENDBRANCH   1   2
BRANCH   1   9
ATOM      9  C   UNL     1     113.513 119.156 125.527  1.00  0.00    -0.011 C 
ATOM     10  C   UNL     1     112.059 119.157 125.036  1.00  0.00     0.008 C 
BRANCH   9  11
ATOM     11  C   UNL     1     114.301 120.439 125.075  1.00  0.00    -0.002 C 
ATOM     12  C   UNL     1     113.394 121.641 124.688  1.00  0.00     0.005 C 
ATOM     13  C   UNL     1     115.401 120.378 123.963  1.00  0.00    -0.023 C 
ATOM     14  C   UNL     1     114.159 122.452 123.633  1.00  0.00     0.009 C 
ATOM     15  C   UNL     1     115.566 121.874 123.684  1.00  0.00     0.021 C 
ATOM     16  C   UNL     1     116.780 119.784 124.409  1.00  0.00     0.008 C 
ATOM     17  C   UNL     1     114.907 119.612 122.701  1.00  0.00     0.012 C 
ATOM     18  C   UNL     1     116.559 122.103 122.574  1.00  0.00    -0.067 C 
ATOM     19  C   UNL     1     118.056 120.625 124.080  1.00  0.00     0.009 C 
ATOM     20  C   UNL     1     117.988 121.707 122.923  1.00  0.00     0.021 C 
ATOM     21  C   UNL     1     116.253 122.748 121.433  1.00  0.00    -0.027 C 
ATOM     22  C   UNL     1     119.016 121.616 121.685  1.00  0.00    -0.023 C 
ATOM     23  C   UNL     1     117.292 123.020 120.387  1.00  0.00     0.031 C 
ATOM     24  C   UNL     1     118.300 121.859 120.299  1.00  0.00     0.002 C 
ATOM     25  C   UNL     1     119.843 120.295 121.587  1.00  0.00     0.010 C 
ATOM     26  C   UNL     1     120.086 122.737 121.870  1.00  0.00     0.012 C 
ATOM     27  C   UNL     1     117.597 120.605 119.701  1.00  0.00     0.036 C 
ATOM     28  C   UNL     1     119.015 119.095 121.119  1.00  0.00     0.032 C 
ATOM     29  C   UNL     1     118.468 119.344 119.713  1.00  0.00     0.114 C 
BRANCH  29  30
ATOM     30  O   UNL     1     119.528 119.481 118.797  1.00  0.00    -0.393 OA
ATOM     31  H   UNL     1     119.174 119.990 118.024  1.00  0.00     0.210 HD
ENDBRANCH  29  30
ENDBRANCH   9  11
ENDBRANCH   1   9
TORSDOF 7
ENDMDL
MODEL 5
REMARK VINA RESULT:    -6.373      3.065      5.244
REMARK INTER + INTRA:         -10.417
REMARK INTER:                  -9.169
REMARK INTRA:                  -1.248
REMARK UNBOUND:                -1.622
REMARK SMILES CC[C@H](CC[C@@H](C)[C@@H]1CC[C@@H]2C3=CC[C@@H]4C[C@@H](O)CC[C@]4(C)[C@@H]3CC[C@]21C)C(C)C
REMARK SMILES IDX 5 1 4 2 3 3 2 4 1 5 28 6 29 7 30 8 6 9 7 10 8 11 9 12 26 13
REMARK SMILES IDX 10 14 11 15 25 16 27 17 12 18 24 19 23 20 13 21 21 22 14 23
REMARK SMILES IDX 15 24 20 25 22 26 16 27 19 28 17 29 18 30
REMARK H PARENT 18 31
REMARK Flexibility Score: inf
ROOT
ATOM      1  C   UNL     1     114.968 121.211 124.760  1.00  0.00     0.004 C 
ENDROOT
BRANCH   1   2
ATOM      2  C   UNL     1     114.453 119.748 124.647  1.00  0.00     0.004 C 
BRANCH   2   3
ATOM      3  C   UNL     1     113.272 119.408 125.602  1.00  0.00    -0.009 C 
BRANCH   3   4
ATOM      4  C   UNL     1     112.066 118.804 124.808  1.00  0.00     0.000 C 
ATOM      5  C   UNL     1     111.874 119.477 123.446  1.00  0.00     0.004 C 
ENDBRANCH   3   4
BRANCH   3   6
ATOM      6  C   UNL     1     113.707 118.440 126.762  1.00  0.00    -0.014 C 
ATOM      7  C   UNL     1     113.171 118.917 128.127  1.00  0.00     0.007 C 
ATOM      8  C   UNL     1     115.234 118.277 126.883  1.00  0.00     0.007 C 
ENDBRANCH   3   6
ENDBRANCH   2   3
ENDBRANCH   1   2
BRANCH   1   9
ATOM      9  C   UNL     1     114.813 122.029 123.438  1.00  0.00    -0.011 C 
ATOM     10  C   UNL     1     114.250 123.432 123.705  1.00  0.00     0.008 C 
BRANCH   9  11
ATOM     11  C   UNL     1     116.059 122.054 122.480  1.00  0.00    -0.002 C 
ATOM     12  C   UNL     1     116.043 123.212 121.442  1.00  0.00     0.005 C 
ATOM     13  C   UNL     1     116.501 120.786 121.675  1.00  0.00    -0.023 C 
ATOM     14  C   UNL     1     116.804 122.712 120.207  1.00  0.00     0.009 C 
ATOM     15  C   UNL     1     117.478 121.435 120.692  1.00  0.00     0.021 C 
ATOM     16  C   UNL     1     117.256 119.691 122.501  1.00  0.00     0.008 C 
ATOM     17  C   UNL     1     115.302 120.122 120.936  1.00  0.00     0.012 C 
ATOM     18  C   UNL     1     118.025 120.413 119.730  1.00  0.00    -0.067 C 
ATOM     19  C   UNL     1     118.615 119.177 121.923  1.00  0.00     0.009 C 
ATOM     20  C   UNL     1     118.913 119.359 120.376  1.00  0.00     0.021 C 
ATOM     21  C   UNL     1     117.881 120.507 118.394  1.00  0.00    -0.027 C 
ATOM     22  C   UNL     1     119.249 118.069 119.472  1.00  0.00    -0.023 C 
ATOM     23  C   UNL     1     118.506 119.505 117.469  1.00  0.00     0.031 C 
ATOM     24  C   UNL     1     118.485 118.096 118.090  1.00  0.00     0.002 C 
ATOM     25  C   UNL     1     118.993 116.683 120.147  1.00  0.00     0.010 C 
ATOM     26  C   UNL     1     120.780 118.082 119.170  1.00  0.00     0.012 C 
ATOM     27  C   UNL     1     117.019 117.575 118.145  1.00  0.00     0.036 C 
ATOM     28  C   UNL     1     117.508 116.335 120.273  1.00  0.00     0.032 C 
ATOM     29  C   UNL     1     116.866 116.243 118.888  1.00  0.00     0.114 C 
BRANCH  29  30
ATOM     30  O   UNL     1     117.459 115.204 118.147  1.00  0.00    -0.393 OA
ATOM     31  H   UNL     1     118.430 115.230 118.346  1.00  0.00     0.210 HD
ENDBRANCH  29  30
ENDBRANCH   9  11
ENDBRANCH   1   9
TORSDOF 7
ENDMDL
MODEL 6
REMARK VINA RESULT:    -6.284      7.954     12.872
REMARK INTER + INTRA:         -10.295
REMARK INTER:                  -8.388
REMARK INTRA:                  -1.907
REMARK UNBOUND:                -1.622
REMARK SMILES CC[C@H](CC[C@@H](C)[C@@H]1CC[C@@H]2C3=CC[C@@H]4C[C@@H](O)CC[C@]4(C)[C@@H]3CC[C@]21C)C(C)C
REMARK SMILES IDX 5 1 4 2 3 3 2 4 1 5 28 6 29 7 30 8 6 9 7 10 8 11 9 12 26 13
REMARK SMILES IDX 10 14 11 15 25 16 27 17 12 18 24 19 23 20 13 21 21 22 14 23
REMARK SMILES IDX 15 24 20 25 22 26 16 27 19 28 17 29 18 30
REMARK H PARENT 18 31
REMARK Flexibility Score: inf
ROOT
ATOM      1  C   UNL     1     124.694 121.458 112.505  1.00  0.00     0.004 C 
ENDROOT
BRANCH   1   2
ATOM      2  C   UNL     1     125.364 121.995 113.801  1.00  0.00     0.004 C 
BRANCH   2   3
ATOM      3  C   UNL     1     126.776 121.403 114.085  1.00  0.00    -0.009 C 
BRANCH   3   4
ATOM      4  C   UNL     1     127.368 121.981 115.414  1.00  0.00     0.000 C 
ATOM      5  C   UNL     1     127.728 123.464 115.291  1.00  0.00     0.004 C 
ENDBRANCH   3   4
BRANCH   3   6
ATOM      6  C   UNL     1     126.763 119.832 114.127  1.00  0.00    -0.014 C 
ATOM      7  C   UNL     1     126.849 119.304 115.573  1.00  0.00     0.007 C 
ATOM      8  C   UNL     1     127.907 119.189 113.318  1.00  0.00     0.007 C 
ENDBRANCH   3   6
ENDBRANCH   2   3
ENDBRANCH   1   2
BRANCH   1   9
ATOM      9  C   UNL     1     123.410 120.608 112.776  1.00  0.00    -0.011 C 
ATOM     10  C   UNL     1     122.674 120.267 111.473  1.00  0.00     0.008 C 
BRANCH   9  11
ATOM     11  C   UNL     1     123.583 119.358 113.713  1.00  0.00    -0.002 C 
ATOM     12  C   UNL     1     123.446 117.991 112.985  1.00  0.00     0.005 C 
ATOM     13  C   UNL     1     122.761 119.203 115.037  1.00  0.00    -0.023 C 
ATOM     14  C   UNL     1     122.901 116.992 114.015  1.00  0.00     0.009 C 
ATOM     15  C   UNL     1     123.038 117.730 115.340  1.00  0.00     0.021 C 
ATOM     16  C   UNL     1     123.250 120.077 116.241  1.00  0.00     0.008 C 
ATOM     17  C   UNL     1     121.243 119.465 114.809  1.00  0.00     0.012 C 
ATOM     18  C   UNL     1     122.294 117.290 116.574  1.00  0.00    -0.067 C 
ATOM     19  C   UNL     1     123.486 119.342 117.601  1.00  0.00     0.009 C 
ATOM     20  C   UNL     1     122.770 117.951 117.860  1.00  0.00     0.021 C 
ATOM     21  C   UNL     1     121.398 116.284 116.575  1.00  0.00    -0.027 C 
ATOM     22  C   UNL     1     121.807 117.776 119.140  1.00  0.00    -0.023 C 
ATOM     23  C   UNL     1     120.735 115.830 117.841  1.00  0.00     0.031 C 
ATOM     24  C   UNL     1     120.468 117.021 118.779  1.00  0.00     0.002 C 
ATOM     25  C   UNL     1     121.441 119.093 119.897  1.00  0.00     0.010 C 
ATOM     26  C   UNL     1     122.569 116.915 120.196  1.00  0.00     0.012 C 
ATOM     27  C   UNL     1     119.356 117.924 118.169  1.00  0.00     0.036 C 
ATOM     28  C   UNL     1     120.442 119.970 119.139  1.00  0.00     0.032 C 
ATOM     29  C   UNL     1     119.121 119.224 118.947  1.00  0.00     0.114 C 
BRANCH  29  30
ATOM     30  O   UNL     1     118.538 118.941 120.196  1.00  0.00    -0.393 OA
ATOM     31  H   UNL     1     117.556 119.005 120.074  1.00  0.00     0.210 HD
ENDBRANCH  29  30
ENDBRANCH   9  11
ENDBRANCH   1   9
TORSDOF 7
ENDMDL
MODEL 7
REMARK VINA RESULT:    -6.232      1.383      2.089
REMARK INTER + INTRA:         -10.222
REMARK INTER:                  -8.922
REMARK INTRA:                  -1.301
REMARK UNBOUND:                -1.622
REMARK SMILES CC[C@H](CC[C@@H](C)[C@@H]1CC[C@@H]2C3=CC[C@@H]4C[C@@H](O)CC[C@]4(C)[C@@H]3CC[C@]21C)C(C)C
REMARK SMILES IDX 5 1 4 2 3 3 2 4 1 5 28 6 29 7 30 8 6 9 7 10 8 11 9 12 26 13
REMARK SMILES IDX 10 14 11 15 25 16 27 17 12 18 24 19 23 20 13 21 21 22 14 23
REMARK SMILES IDX 15 24 20 25 22 26 16 27 19 28 17 29 18 30
REMARK H PARENT 18 31
REMARK Flexibility Score: inf
ROOT
ATOM      1  C   UNL     1     115.432 118.574 126.501  1.00  0.00     0.004 C 
ENDROOT
BRANCH   1   2
ATOM      2  C   UNL     1     116.063 119.123 127.812  1.00  0.00     0.004 C 
BRANCH   2   3
ATOM      3  C   UNL     1     117.505 119.685 127.644  1.00  0.00    -0.009 C 
BRANCH   3   4
ATOM      4  C   UNL     1     118.562 118.705 128.253  1.00  0.00     0.000 C 
ATOM      5  C   UNL     1     117.909 117.512 128.957  1.00  0.00     0.004 C 
ENDBRANCH   3   4
BRANCH   3   6
ATOM      6  C   UNL     1     117.848 120.000 126.142  1.00  0.00    -0.014 C 
ATOM      7  C   UNL     1     119.057 119.178 125.655  1.00  0.00     0.007 C 
ATOM      8  C   UNL     1     118.149 121.488 125.882  1.00  0.00     0.007 C 
ENDBRANCH   3   6
ENDBRANCH   2   3
ENDBRANCH   1   2
BRANCH   1   9
ATOM      9  C   UNL     1     113.870 118.572 126.516  1.00  0.00    -0.011 C 
ATOM     10  C   UNL     1     113.319 118.730 127.941  1.00  0.00     0.008 C 
BRANCH   9  11
ATOM     11  C   UNL     1     113.157 119.524 125.488  1.00  0.00    -0.002 C 
ATOM     12  C   UNL     1     112.116 118.815 124.576  1.00  0.00     0.005 C 
ATOM     13  C   UNL     1     113.973 120.457 124.532  1.00  0.00    -0.023 C 
ATOM     14  C   UNL     1     112.087 119.588 123.251  1.00  0.00     0.009 C 
ATOM     15  C   UNL     1     112.863 120.862 123.559  1.00  0.00     0.021 C 
ATOM     16  C   UNL     1     114.571 121.746 125.193  1.00  0.00     0.008 C 
ATOM     17  C   UNL     1     115.116 119.687 123.807  1.00  0.00     0.012 C 
ATOM     18  C   UNL     1     113.406 121.744 122.466  1.00  0.00    -0.067 C 
ATOM     19  C   UNL     1     114.284 123.107 124.480  1.00  0.00     0.009 C 
ATOM     20  C   UNL     1     113.890 123.106 122.944  1.00  0.00     0.021 C 
ATOM     21  C   UNL     1     113.327 121.431 121.158  1.00  0.00    -0.027 C 
ATOM     22  C   UNL     1     114.775 123.948 121.894  1.00  0.00    -0.023 C 
ATOM     23  C   UNL     1     113.814 122.374 120.099  1.00  0.00     0.031 C 
ATOM     24  C   UNL     1     115.066 123.133 120.573  1.00  0.00     0.002 C 
ATOM     25  C   UNL     1     116.130 124.501 122.440  1.00  0.00     0.010 C 
ATOM     26  C   UNL     1     113.963 125.221 121.498  1.00  0.00     0.012 C 
ATOM     27  C   UNL     1     116.267 122.147 120.668  1.00  0.00     0.036 C 
ATOM     28  C   UNL     1     117.197 123.418 122.624  1.00  0.00     0.032 C 
ATOM     29  C   UNL     1     117.529 122.767 121.281  1.00  0.00     0.114 C 
BRANCH  29  30
ATOM     30  O   UNL     1     118.074 123.720 120.401  1.00  0.00    -0.393 OA
ATOM     31  H   UNL     1     118.068 124.588 120.881  1.00  0.00     0.210 HD
ENDBRANCH  29  30
ENDBRANCH   9  11
ENDBRANCH   1   9
TORSDOF 7
ENDMDL
MODEL 8
REMARK VINA RESULT:    -6.156      2.563      5.165
REMARK INTER + INTRA:         -10.117
REMARK INTER:                  -8.716
REMARK INTRA:                  -1.401
REMARK UNBOUND:                -1.622
REMARK SMILES CC[C@H](CC[C@@H](C)[C@@H]1CC[C@@H]2C3=CC[C@@H]4C[C@@H](O)CC[C@]4(C)[C@@H]3CC[C@]21C)C(C)C
REMARK SMILES IDX 5 1 4 2 3 3 2 4 1 5 28 6 29 7 30 8 6 9 7 10 8 11 9 12 26 13
REMARK SMILES IDX 10 14 11 15 25 16 27 17 12 18 24 19 23 20 13 21 21 22 14 23
REMARK SMILES IDX 15 24 20 25 22 26 16 27 19 28 17 29 18 30
REMARK H PARENT 18 31
REMARK Flexibility Score: inf
ROOT
ATOM      1  C   UNL     1     114.799 122.593 124.327  1.00  0.00     0.004 C 
ENDROOT
BRANCH   1   2
ATOM      2  C   UNL     1     113.466 121.847 124.615  1.00  0.00     0.004 C 
BRANCH   2   3
ATOM      3  C   UNL     1     113.547 120.301 124.444  1.00  0.00    -0.009 C 
BRANCH   3   4
ATOM      4  C   UNL     1     114.207 119.633 125.696  1.00  0.00     0.000 C 
ATOM      5  C   UNL     1     115.711 119.414 125.510  1.00  0.00     0.004 C 
ENDBRANCH   3   4
BRANCH   3   6
ATOM      6  C   UNL     1     112.140 119.662 124.157  1.00  0.00    -0.014 C 
ATOM      7  C   UNL     1     111.924 118.377 124.981  1.00  0.00     0.007 C 
ATOM      8  C   UNL     1     111.916 119.316 122.672  1.00  0.00     0.007 C 
ENDBRANCH   3   6
ENDBRANCH   2   3
ENDBRANCH   1   2
BRANCH   1   9
ATOM      9  C   UNL     1     114.749 123.482 123.043  1.00  0.00    -0.011 C 
ATOM     10  C   UNL     1     114.438 124.947 123.383  1.00  0.00     0.008 C 
BRANCH   9  11
ATOM     11  C   UNL     1     115.955 123.340 122.045  1.00  0.00    -0.002 C 
ATOM     12  C   UNL     1     115.753 124.074 120.690  1.00  0.00     0.005 C 
ATOM     13  C   UNL     1     116.551 121.941 121.670  1.00  0.00    -0.023 C 
ATOM     14  C   UNL     1     116.546 123.289 119.636  1.00  0.00     0.009 C 
ATOM     15  C   UNL     1     117.403 122.340 120.464  1.00  0.00     0.021 C 
ATOM     16  C   UNL     1     117.471 121.286 122.755  1.00  0.00     0.008 C 
ATOM     17  C   UNL     1     115.438 120.926 121.274  1.00  0.00     0.012 C 
ATOM     18  C   UNL     1     118.063 121.132 119.853  1.00  0.00    -0.067 C 
ATOM     19  C   UNL     1     118.873 120.780 122.284  1.00  0.00     0.009 C 
ATOM     20  C   UNL     1     119.105 120.471 120.746  1.00  0.00     0.021 C 
ATOM     21  C   UNL     1     117.875 120.756 118.574  1.00  0.00    -0.027 C 
ATOM     22  C   UNL     1     119.595 119.005 120.292  1.00  0.00    -0.023 C 
ATOM     23  C   UNL     1     118.611 119.589 117.986  1.00  0.00     0.031 C 
ATOM     24  C   UNL     1     118.802 118.476 119.033  1.00  0.00     0.002 C 
ATOM     25  C   UNL     1     119.552 117.904 121.399  1.00  0.00     0.010 C 
ATOM     26  C   UNL     1     121.102 119.107 119.896  1.00  0.00     0.012 C 
ATOM     27  C   UNL     1     117.425 117.827 119.357  1.00  0.00     0.036 C 
ATOM     28  C   UNL     1     118.133 117.437 121.735  1.00  0.00     0.032 C 
ATOM     29  C   UNL     1     117.476 116.810 120.504  1.00  0.00     0.114 C 
BRANCH  29  30
ATOM     30  O   UNL     1     118.190 115.666 120.103  1.00  0.00    -0.393 OA
ATOM     31  H   UNL     1     119.097 115.971 119.845  1.00  0.00     0.210 HD
ENDBRANCH  29  30
ENDBRANCH   9  11
ENDBRANCH   1   9
TORSDOF 7
ENDMDL
MODEL 9
REMARK VINA RESULT:    -6.154      2.794      5.856
REMARK INTER + INTRA:         -10.115
REMARK INTER:                  -8.106
REMARK INTRA:                  -2.010
REMARK UNBOUND:                -1.622
REMARK SMILES CC[C@H](CC[C@@H](C)[C@@H]1CC[C@@H]2C3=CC[C@@H]4C[C@@H](O)CC[C@]4(C)[C@@H]3CC[C@]21C)C(C)C
REMARK SMILES IDX 5 1 4 2 3 3 2 4 1 5 28 6 29 7 30 8 6 9 7 10 8 11 9 12 26 13
REMARK SMILES IDX 10 14 11 15 25 16 27 17 12 18 24 19 23 20 13 21 21 22 14 23
REMARK SMILES IDX 15 24 20 25 22 26 16 27 19 28 17 29 18 30
REMARK H PARENT 18 31
REMARK Flexibility Score: inf
ROOT
ATOM      1  C   UNL     1     114.160 123.044 123.273  1.00  0.00     0.004 C 
ENDROOT
BRANCH   1   2
ATOM      2  C   UNL     1     113.945 122.078 124.471  1.00  0.00     0.004 C 
BRANCH   2   3
ATOM      3  C   UNL     1     113.050 120.845 124.149  1.00  0.00    -0.009 C 
BRANCH   3   4
ATOM      4  C   UNL     1     112.854 120.685 122.604  1.00  0.00     0.000 C 
ATOM      5  C   UNL     1     111.616 119.854 122.260  1.00  0.00     0.004 C 
ENDBRANCH   3   4
BRANCH   3   6
ATOM      6  C   UNL     1     113.620 119.519 124.771  1.00  0.00    -0.014 C 
ATOM      7  C   UNL     1     112.741 119.017 125.934  1.00  0.00     0.007 C 
ATOM      8  C   UNL     1     115.063 119.658 125.293  1.00  0.00     0.007 C 
ENDBRANCH   3   6
ENDBRANCH   2   3
ENDBRANCH   1   2
BRANCH   1   9
ATOM      9  C   UNL     1     115.662 123.229 122.884  1.00  0.00    -0.011 C 
ATOM     10  C   UNL     1     116.245 124.518 123.481  1.00  0.00     0.008 C 
BRANCH   9  11
ATOM     11  C   UNL     1     116.600 121.987 123.106  1.00  0.00    -0.002 C 
ATOM     12  C   UNL     1     117.827 122.268 124.018  1.00  0.00     0.005 C 
ATOM     13  C   UNL     1     117.163 121.158 121.902  1.00  0.00    -0.023 C 
ATOM     14  C   UNL     1     118.948 121.326 123.558  1.00  0.00     0.009 C 
ATOM     15  C   UNL     1     118.239 120.349 122.630  1.00  0.00     0.021 C 
ATOM     16  C   UNL     1     116.149 120.174 121.227  1.00  0.00     0.008 C 
ATOM     17  C   UNL     1     117.781 122.075 120.806  1.00  0.00     0.012 C 
ATOM     18  C   UNL     1     118.999 119.480 121.662  1.00  0.00    -0.067 C 
ATOM     19  C   UNL     1     116.616 118.695 121.036  1.00  0.00     0.009 C 
ATOM     20  C   UNL     1     118.168 118.370 121.033  1.00  0.00     0.021 C 
ATOM     21  C   UNL     1     120.331 119.566 121.484  1.00  0.00    -0.027 C 
ATOM     22  C   UNL     1     118.826 117.632 119.761  1.00  0.00    -0.023 C 
ATOM     23  C   UNL     1     121.058 118.631 120.564  1.00  0.00     0.031 C 
ATOM     24  C   UNL     1     120.196 118.290 119.335  1.00  0.00     0.002 C 
ATOM     25  C   UNL     1     117.917 117.525 118.495  1.00  0.00     0.010 C 
ATOM     26  C   UNL     1     119.114 116.152 120.164  1.00  0.00     0.012 C 
ATOM     27  C   UNL     1     120.061 119.549 118.430  1.00  0.00     0.036 C 
ATOM     28  C   UNL     1     117.742 118.856 117.760  1.00  0.00     0.032 C 
ATOM     29  C   UNL     1     119.093 119.364 117.255  1.00  0.00     0.114 C 
BRANCH  29  30
ATOM     30  O   UNL     1     119.634 118.460 116.322  1.00  0.00    -0.393 OA
ATOM     31  H   UNL     1     120.491 118.849 116.011  1.00  0.00     0.210 HD
ENDBRANCH  29  30
ENDBRANCH   9  11
ENDBRANCH   1   9
TORSDOF 7
ENDMDL
