MODEL 1
REMARK VINA RESULT:    -4.945      0.000      0.000
REMARK INTER + INTRA:         -17.061
REMARK INTER:                 -13.040
REMARK INTRA:                  -4.021
REMARK UNBOUND:                -4.021
REMARK SMILES CCCCCCCCCCCCCCCCCCCCCCCCCCCCCC(=O)[O-]
REMARK SMILES IDX 16 1 17 2 18 3 19 4 20 5 21 6 22 7 23 8 24 9 25 10 26 11
REMARK SMILES IDX 27 12 28 13 29 14 30 15 31 16 32 17 15 18 14 19 13 20 12 21
REMARK SMILES IDX 11 22 10 23 9 24 8 25 7 26 6 27 5 28 4 29 3 30 2 31 1 32
REMARK H PARENT
REMARK Flexibility Score: inf
ROOT
ATOM      1  C   UNL     1       3.870  -8.663   5.664  1.00  0.00     0.000 C 
ENDROOT
BRANCH   1   2
ATOM      2  C   UNL     1       3.792  -7.148   5.949  1.00  0.00     0.000 C 
BRANCH   2   3
ATOM      3  C   UNL     1       3.793  -6.768   7.441  1.00  0.00     0.000 C 
BRANCH   3   4
ATOM      4  C   UNL     1       3.453  -5.289   7.682  1.00  0.00     0.000 C 
BRANCH   4   5
ATOM      5  C   UNL     1       2.573  -4.690   6.569  1.00  0.00     0.000 C 
BRANCH   5   6
ATOM      6  C   UNL     1       1.125  -4.390   7.013  1.00  0.00     0.000 C 
BRANCH   6   7
ATOM      7  C   UNL     1       0.206  -5.614   6.845  1.00  0.00     0.000 C 
BRANCH   7   8
ATOM      8  C   UNL     1      -0.517  -6.005   8.151  1.00  0.00     0.000 C 
BRANCH   8   9
ATOM      9  C   UNL     1      -0.059  -7.349   8.746  1.00  0.00     0.000 C 
BRANCH   9  10
ATOM     10  C   UNL     1       0.793  -7.255  10.028  1.00  0.00     0.000 C 
BRANCH  10  11
ATOM     11  C   UNL     1       1.211  -5.825  10.430  1.00  0.00     0.000 C 
BRANCH  11  12
ATOM     12  C   UNL     1       1.157  -5.561  11.954  1.00  0.00     0.000 C 
BRANCH  12  13
ATOM     13  C   UNL     1       2.304  -6.231  12.733  1.00  0.00     0.006 C 
BRANCH  13  14
ATOM     14  C   UNL     1       3.555  -5.349  12.878  1.00  0.00     0.053 C 
BRANCH  14  15
ATOM     15  C   UNL     1       3.308  -4.165  13.765  1.00  0.00     0.041 C 
ATOM     16  O   UNL     1       2.897  -3.080  13.274  1.00  0.00    -0.550 OA
ATOM     17  O   UNL     1       3.554  -4.252  15.129  1.00  0.00    -0.550 OA
ENDBRANCH  14  15
ENDBRANCH  13  14
ENDBRANCH  12  13
ENDBRANCH  11  12
ENDBRANCH  10  11
ENDBRANCH   9  10
ENDBRANCH   8   9
ENDBRANCH   7   8
ENDBRANCH   6   7
ENDBRANCH   5   6
ENDBRANCH   4   5
ENDBRANCH   3   4
ENDBRANCH   2   3
ENDBRANCH   1   2
BRANCH   1  18
ATOM     18  C   UNL     1       3.070  -9.563   6.631  1.00  0.00     0.000 C 
BRANCH  18  19
ATOM     19  C   UNL     1       3.769 -10.869   7.049  1.00  0.00     0.000 C 
BRANCH  19  20
ATOM     20  C   UNL     1       5.292 -10.836   6.837  1.00  0.00     0.000 C 
BRANCH  20  21
ATOM     21  C   UNL     1       5.910 -12.243   6.766  1.00  0.00     0.000 C 
BRANCH  21  22
ATOM     22  C   UNL     1       4.927 -13.383   6.437  1.00  0.00     0.000 C 
BRANCH  22  23
ATOM     23  C   UNL     1       4.852 -13.741   4.939  1.00  0.00     0.000 C 
BRANCH  23  24
ATOM     24  C   UNL     1       3.511 -14.380   4.542  1.00  0.00    -0.000 C 
BRANCH  24  25
ATOM     25  C   UNL     1       2.809 -13.550   3.458  1.00  0.00    -0.000 C 
BRANCH  25  26
ATOM     26  C   UNL     1       2.551 -12.113   3.941  1.00  0.00    -0.000 C 
BRANCH  26  27
ATOM     27  C   UNL     1       3.268 -11.057   3.073  1.00  0.00    -0.000 C 
BRANCH  27  28
ATOM     28  C   UNL     1       3.070 -11.249   1.554  1.00  0.00    -0.000 C 
BRANCH  28  29
ATOM     29  C   UNL     1       4.351 -11.512   0.748  1.00  0.00    -0.000 C 
BRANCH  29  30
ATOM     30  C   UNL     1       4.314 -12.847  -0.016  1.00  0.00    -0.000 C 
BRANCH  30  31
ATOM     31  C   UNL     1       5.191 -13.925   0.642  1.00  0.00    -0.003 C 
ATOM     32  C   UNL     1       6.261 -13.336   1.565  1.00  0.00     0.004 C 
ENDBRANCH  30  31
ENDBRANCH  29  30
ENDBRANCH  28  29
ENDBRANCH  27  28
ENDBRANCH  26  27
ENDBRANCH  25  26
ENDBRANCH  24  25
ENDBRANCH  23  24
ENDBRANCH  22  23
ENDBRANCH  21  22
ENDBRANCH  20  21
ENDBRANCH  19  20
ENDBRANCH  18  19
ENDBRANCH   1  18
TORSDOF 28
ENDMDL
MODEL 2
REMARK VINA RESULT:    -4.939      1.208      3.074
REMARK INTER + INTRA:         -17.044
REMARK INTER:                 -13.553
REMARK INTRA:                  -3.490
REMARK UNBOUND:                -4.021
REMARK SMILES CCCCCCCCCCCCCCCCCCCCCCCCCCCCCC(=O)[O-]
REMARK SMILES IDX 16 1 17 2 18 3 19 4 20 5 21 6 22 7 23 8 24 9 25 10 26 11
REMARK SMILES IDX 27 12 28 13 29 14 30 15 31 16 32 17 15 18 14 19 13 20 12 21
REMARK SMILES IDX 11 22 10 23 9 24 8 25 7 26 6 27 5 28 4 29 3 30 2 31 1 32
REMARK H PARENT
REMARK Flexibility Score: inf
ROOT
ATOM      1  C   UNL     1       5.263 -10.984   7.111  1.00  0.00     0.000 C 
ENDROOT
BRANCH   1   2
ATOM      2  C   UNL     1       3.730 -10.849   7.004  1.00  0.00     0.000 C 
BRANCH   2   3
ATOM      3  C   UNL     1       3.229  -9.452   6.596  1.00  0.00     0.000 C 
BRANCH   3   4
ATOM      4  C   UNL     1       4.370  -8.488   6.236  1.00  0.00     0.000 C 
BRANCH   4   5
ATOM      5  C   UNL     1       3.872  -7.066   5.920  1.00  0.00     0.000 C 
BRANCH   5   6
ATOM      6  C   UNL     1       3.780  -6.147   7.159  1.00  0.00     0.000 C 
BRANCH   6   7
ATOM      7  C   UNL     1       2.612  -5.150   7.050  1.00  0.00     0.000 C 
BRANCH   7   8
ATOM      8  C   UNL     1       1.330  -5.789   6.478  1.00  0.00     0.000 C 
BRANCH   8   9
ATOM      9  C   UNL     1       0.257  -6.104   7.536  1.00  0.00     0.000 C 
BRANCH   9  10
ATOM     10  C   UNL     1       0.427  -7.443   8.281  1.00  0.00     0.000 C 
BRANCH  10  11
ATOM     11  C   UNL     1       0.570  -7.325   9.813  1.00  0.00     0.000 C 
BRANCH  11  12
ATOM     12  C   UNL     1       1.533  -6.202  10.268  1.00  0.00     0.000 C 
BRANCH  12  13
ATOM     13  C   UNL     1       1.460  -5.906  11.778  1.00  0.00     0.006 C 
BRANCH  13  14
ATOM     14  C   UNL     1       2.823  -5.946  12.485  1.00  0.00     0.053 C 
BRANCH  14  15
ATOM     15  C   UNL     1       2.907  -4.950  13.603  1.00  0.00     0.041 C 
ATOM     16  O   UNL     1       1.854  -4.495  14.126  1.00  0.00    -0.550 OA
ATOM     17  O   UNL     1       4.144  -4.506  14.051  1.00  0.00    -0.550 OA
ENDBRANCH  14  15
ENDBRANCH  13  14
ENDBRANCH  12  13
ENDBRANCH  11  12
ENDBRANCH  10  11
ENDBRANCH   9  10
ENDBRANCH   8   9
ENDBRANCH   7   8
ENDBRANCH   6   7
ENDBRANCH   5   6
ENDBRANCH   4   5
ENDBRANCH   3   4
ENDBRANCH   2   3
ENDBRANCH   1   2
BRANCH   1  18
ATOM     18  C   UNL     1       5.861 -12.275   6.508  1.00  0.00     0.000 C 
BRANCH  18  19
ATOM     19  C   UNL     1       4.861 -13.423   6.281  1.00  0.00     0.000 C 
BRANCH  19  20
ATOM     20  C   UNL     1       4.882 -13.971   4.845  1.00  0.00     0.000 C 
BRANCH  20  21
ATOM     21  C   UNL     1       3.488 -13.988   4.197  1.00  0.00     0.000 C 
BRANCH  21  22
ATOM     22  C   UNL     1       2.851 -12.604   3.960  1.00  0.00     0.000 C 
BRANCH  22  23
ATOM     23  C   UNL     1       3.806 -11.566   3.338  1.00  0.00     0.000 C 
BRANCH  23  24
ATOM     24  C   UNL     1       3.189 -10.827   2.139  1.00  0.00    -0.000 C 
BRANCH  24  25
ATOM     25  C   UNL     1       3.881 -11.234   0.831  1.00  0.00    -0.000 C 
BRANCH  25  26
ATOM     26  C   UNL     1       3.712 -12.738   0.560  1.00  0.00    -0.000 C 
BRANCH  26  27
ATOM     27  C   UNL     1       4.987 -13.383  -0.023  1.00  0.00    -0.000 C 
BRANCH  27  28
ATOM     28  C   UNL     1       6.280 -12.584   0.248  1.00  0.00    -0.000 C 
BRANCH  28  29
ATOM     29  C   UNL     1       7.223 -13.190   1.299  1.00  0.00    -0.000 C 
BRANCH  29  30
ATOM     30  C   UNL     1       8.641 -13.441   0.757  1.00  0.00    -0.000 C 
BRANCH  30  31
ATOM     31  C   UNL     1       8.686 -14.599  -0.254  1.00  0.00    -0.003 C 
ATOM     32  C   UNL     1       7.996 -15.864   0.263  1.00  0.00     0.004 C 
ENDBRANCH  30  31
ENDBRANCH  29  30
ENDBRANCH  28  29
ENDBRANCH  27  28
ENDBRANCH  26  27
ENDBRANCH  25  26
ENDBRANCH  24  25
ENDBRANCH  23  24
ENDBRANCH  22  23
ENDBRANCH  21  22
ENDBRANCH  20  21
ENDBRANCH  19  20
ENDBRANCH  18  19
ENDBRANCH   1  18
TORSDOF 28
ENDMDL
MODEL 3
REMARK VINA RESULT:    -4.846      5.058     10.317
REMARK INTER + INTRA:         -16.800
REMARK INTER:                 -12.252
REMARK INTRA:                  -4.548
REMARK UNBOUND:                -4.021
REMARK SMILES CCCCCCCCCCCCCCCCCCCCCCCCCCCCCC(=O)[O-]
REMARK SMILES IDX 16 1 17 2 18 3 19 4 20 5 21 6 22 7 23 8 24 9 25 10 26 11
REMARK SMILES IDX 27 12 28 13 29 14 30 15 31 16 32 17 15 18 14 19 13 20 12 21
REMARK SMILES IDX 11 22 10 23 9 24 8 25 7 26 6 27 5 28 4 29 3 30 2 31 1 32
REMARK H PARENT
REMARK Flexibility Score: inf
ROOT
ATOM      1  C   UNL     1       6.052 -12.443   6.764  1.00  0.00     0.000 C 
ENDROOT
BRANCH   1   2
ATOM      2  C   UNL     1       4.889 -13.392   6.407  1.00  0.00     0.000 C 
BRANCH   2   3
ATOM      3  C   UNL     1       4.696 -13.644   4.900  1.00  0.00     0.000 C 
BRANCH   3   4
ATOM      4  C   UNL     1       3.471 -14.519   4.592  1.00  0.00     0.000 C 
BRANCH   4   5
ATOM      5  C   UNL     1       2.811 -14.168   3.245  1.00  0.00     0.000 C 
BRANCH   5   6
ATOM      6  C   UNL     1       1.477 -13.402   3.386  1.00  0.00     0.000 C 
BRANCH   6   7
ATOM      7  C   UNL     1       0.985 -12.850   2.035  1.00  0.00     0.000 C 
BRANCH   7   8
ATOM      8  C   UNL     1       2.080 -12.860   0.949  1.00  0.00     0.000 C 
BRANCH   8   9
ATOM      9  C   UNL     1       2.615 -11.464   0.580  1.00  0.00     0.000 C 
BRANCH   9  10
ATOM     10  C   UNL     1       4.098 -11.208   0.914  1.00  0.00     0.000 C 
BRANCH  10  11
ATOM     11  C   UNL     1       4.973 -12.475   1.010  1.00  0.00     0.000 C 
BRANCH  11  12
ATOM     12  C   UNL     1       5.226 -13.167  -0.351  1.00  0.00     0.000 C 
BRANCH  12  13
ATOM     13  C   UNL     1       6.720 -13.337  -0.684  1.00  0.00     0.006 C 
BRANCH  13  14
ATOM     14  C   UNL     1       7.615 -13.525   0.551  1.00  0.00     0.053 C 
BRANCH  14  15
ATOM     15  C   UNL     1       8.596 -14.644   0.370  1.00  0.00     0.041 C 
ATOM     16  O   UNL     1       9.820 -14.394   0.205  1.00  0.00    -0.550 OA
ATOM     17  O   UNL     1       8.158 -15.962   0.358  1.00  0.00    -0.550 OA
ENDBRANCH  14  15
ENDBRANCH  13  14
ENDBRANCH  12  13
ENDBRANCH  11  12
ENDBRANCH  10  11
ENDBRANCH   9  10
ENDBRANCH   8   9
ENDBRANCH   7   8
ENDBRANCH   6   7
ENDBRANCH   5   6
ENDBRANCH   4   5
ENDBRANCH   3   4
ENDBRANCH   2   3
ENDBRANCH   1   2
BRANCH   1  18
ATOM     18  C   UNL     1       5.636 -11.037   7.251  1.00  0.00     0.000 C 
BRANCH  18  19
ATOM     19  C   UNL     1       4.161 -10.666   7.018  1.00  0.00     0.000 C 
BRANCH  19  20
ATOM     20  C   UNL     1       3.943  -9.163   6.781  1.00  0.00     0.000 C 
BRANCH  20  21
ATOM     21  C   UNL     1       3.844  -8.807   5.289  1.00  0.00     0.000 C 
BRANCH  21  22
ATOM     22  C   UNL     1       3.407  -9.957   4.361  1.00  0.00     0.000 C 
BRANCH  22  23
ATOM     23  C   UNL     1       2.028  -9.750   3.701  1.00  0.00     0.000 C 
BRANCH  23  24
ATOM     24  C   UNL     1       0.875  -9.731   4.718  1.00  0.00    -0.000 C 
BRANCH  24  25
ATOM     25  C   UNL     1       0.254  -8.330   4.813  1.00  0.00    -0.000 C 
BRANCH  25  26
ATOM     26  C   UNL     1      -0.406  -8.110   6.185  1.00  0.00    -0.000 C 
BRANCH  26  27
ATOM     27  C   UNL     1       0.214  -8.991   7.290  1.00  0.00    -0.000 C 
BRANCH  27  28
ATOM     28  C   UNL     1       0.905  -8.197   8.418  1.00  0.00    -0.000 C 
BRANCH  28  29
ATOM     29  C   UNL     1       0.754  -6.669   8.339  1.00  0.00    -0.000 C 
BRANCH  29  30
ATOM     30  C   UNL     1       1.943  -5.917   8.962  1.00  0.00    -0.000 C 
BRANCH  30  31
ATOM     31  C   UNL     1       3.125  -5.779   7.988  1.00  0.00    -0.003 C 
ATOM     32  C   UNL     1       2.711  -5.205   6.631  1.00  0.00     0.004 C 
ENDBRANCH  30  31
ENDBRANCH  29  30
ENDBRANCH  28  29
ENDBRANCH  27  28
ENDBRANCH  26  27
ENDBRANCH  25  26
ENDBRANCH  24  25
ENDBRANCH  23  24
ENDBRANCH  22  23
ENDBRANCH  21  22
ENDBRANCH  20  21
ENDBRANCH  19  20
ENDBRANCH  18  19
ENDBRANCH   1  18
TORSDOF 28
ENDMDL
MODEL 4
REMARK VINA RESULT:    -4.838      4.960     10.266
REMARK INTER + INTRA:         -16.779
REMARK INTER:                 -12.830
REMARK INTRA:                  -3.949
REMARK UNBOUND:                -4.021
REMARK SMILES CCCCCCCCCCCCCCCCCCCCCCCCCCCCCC(=O)[O-]
REMARK SMILES IDX 16 1 17 2 18 3 19 4 20 5 21 6 22 7 23 8 24 9 25 10 26 11
REMARK SMILES IDX 27 12 28 13 29 14 30 15 31 16 32 17 15 18 14 19 13 20 12 21
REMARK SMILES IDX 11 22 10 23 9 24 8 25 7 26 6 27 5 28 4 29 3 30 2 31 1 32
REMARK H PARENT
REMARK Flexibility Score: inf
ROOT
ATOM      1  C   UNL     1       5.532 -11.138   7.292  1.00  0.00     0.000 C 
ENDROOT
BRANCH   1   2
ATOM      2  C   UNL     1       6.010 -12.481   6.702  1.00  0.00     0.000 C 
BRANCH   2   3
ATOM      3  C   UNL     1       4.884 -13.430   6.252  1.00  0.00     0.000 C 
BRANCH   3   4
ATOM      4  C   UNL     1       4.756 -13.523   4.723  1.00  0.00     0.000 C 
BRANCH   4   5
ATOM      5  C   UNL     1       3.880 -14.705   4.269  1.00  0.00     0.000 C 
BRANCH   5   6
ATOM      6  C   UNL     1       2.412 -14.320   3.985  1.00  0.00     0.000 C 
BRANCH   6   7
ATOM      7  C   UNL     1       2.000 -14.646   2.537  1.00  0.00     0.000 C 
BRANCH   7   8
ATOM      8  C   UNL     1       1.963 -13.399   1.631  1.00  0.00     0.000 C 
BRANCH   8   9
ATOM      9  C   UNL     1       2.201 -12.072   2.375  1.00  0.00     0.000 C 
BRANCH   9  10
ATOM     10  C   UNL     1       3.476 -11.303   1.975  1.00  0.00     0.000 C 
BRANCH  10  11
ATOM     11  C   UNL     1       4.194 -11.838   0.718  1.00  0.00     0.000 C 
BRANCH  11  12
ATOM     12  C   UNL     1       5.386 -12.774   1.028  1.00  0.00     0.000 C 
BRANCH  12  13
ATOM     13  C   UNL     1       6.648 -12.454   0.204  1.00  0.00     0.006 C 
BRANCH  13  14
ATOM     14  C   UNL     1       7.956 -12.914   0.867  1.00  0.00     0.053 C 
BRANCH  14  15
ATOM     15  C   UNL     1       8.421 -14.237   0.334  1.00  0.00     0.041 C 
ATOM     16  O   UNL     1       7.594 -15.167   0.136  1.00  0.00    -0.550 OA
ATOM     17  O   UNL     1       9.769 -14.451   0.078  1.00  0.00    -0.550 OA
ENDBRANCH  14  15
ENDBRANCH  13  14
ENDBRANCH  12  13
ENDBRANCH  11  12
ENDBRANCH  10  11
ENDBRANCH   9  10
ENDBRANCH   8   9
ENDBRANCH   7   8
ENDBRANCH   6   7
ENDBRANCH   5   6
ENDBRANCH   4   5
ENDBRANCH   3   4
ENDBRANCH   2   3
ENDBRANCH   1   2
BRANCH   1  18
ATOM     18  C   UNL     1       4.135 -10.669   6.830  1.00  0.00     0.000 C 
BRANCH  18  19
ATOM     19  C   UNL     1       4.129  -9.514   5.813  1.00  0.00     0.000 C 
BRANCH  19  20
ATOM     20  C   UNL     1       4.533  -8.163   6.426  1.00  0.00     0.000 C 
BRANCH  20  21
ATOM     21  C   UNL     1       3.592  -7.020   6.014  1.00  0.00     0.000 C 
BRANCH  21  22
ATOM     22  C   UNL     1       3.419  -5.895   7.054  1.00  0.00     0.000 C 
BRANCH  22  23
ATOM     23  C   UNL     1       2.174  -5.014   6.832  1.00  0.00     0.000 C 
BRANCH  23  24
ATOM     24  C   UNL     1       1.144  -5.135   7.967  1.00  0.00    -0.000 C 
BRANCH  24  25
ATOM     25  C   UNL     1       1.759  -5.830   9.190  1.00  0.00    -0.000 C 
BRANCH  25  26
ATOM     26  C   UNL     1       0.745  -6.774   9.858  1.00  0.00    -0.000 C 
BRANCH  26  27
ATOM     27  C   UNL     1       0.562  -8.094   9.078  1.00  0.00    -0.000 C 
BRANCH  27  28
ATOM     28  C   UNL     1      -0.827  -8.254   8.424  1.00  0.00    -0.000 C 
BRANCH  28  29
ATOM     29  C   UNL     1      -0.830  -8.316   6.888  1.00  0.00    -0.000 C 
BRANCH  29  30
ATOM     30  C   UNL     1       0.542  -8.691   6.301  1.00  0.00    -0.000 C 
BRANCH  30  31
ATOM     31  C   UNL     1       0.421  -9.545   5.027  1.00  0.00    -0.003 C 
ATOM     32  C   UNL     1       0.986  -8.845   3.789  1.00  0.00     0.004 C 
ENDBRANCH  30  31
ENDBRANCH  29  30
ENDBRANCH  28  29
ENDBRANCH  27  28
ENDBRANCH  26  27
ENDBRANCH  25  26
ENDBRANCH  24  25
ENDBRANCH  23  24
ENDBRANCH  22  23
ENDBRANCH  21  22
ENDBRANCH  20  21
ENDBRANCH  19  20
ENDBRANCH  18  19
ENDBRANCH   1  18
TORSDOF 28
ENDMDL
MODEL 5
REMARK VINA RESULT:    -4.819      4.681      9.743
REMARK INTER + INTRA:         -16.729
REMARK INTER:                 -11.565
REMARK INTRA:                  -5.164
REMARK UNBOUND:                -4.021
REMARK SMILES CCCCCCCCCCCCCCCCCCCCCCCCCCCCCC(=O)[O-]
REMARK SMILES IDX 16 1 17 2 18 3 19 4 20 5 21 6 22 7 23 8 24 9 25 10 26 11
REMARK SMILES IDX 27 12 28 13 29 14 30 15 31 16 32 17 15 18 14 19 13 20 12 21
REMARK SMILES IDX 11 22 10 23 9 24 8 25 7 26 6 27 5 28 4 29 3 30 2 31 1 32
REMARK H PARENT
REMARK Flexibility Score: inf
ROOT
ATOM      1  C   UNL     1       6.005 -12.364   6.554  1.00  0.00     0.000 C 
ENDROOT
BRANCH   1   2
ATOM      2  C   UNL     1       4.913 -13.447   6.425  1.00  0.00     0.000 C 
BRANCH   2   3
ATOM      3  C   UNL     1       4.676 -13.962   4.994  1.00  0.00     0.000 C 
BRANCH   3   4
ATOM      4  C   UNL     1       3.397 -13.395   4.358  1.00  0.00     0.000 C 
BRANCH   4   5
ATOM      5  C   UNL     1       2.270 -14.438   4.251  1.00  0.00     0.000 C 
BRANCH   5   6
ATOM      6  C   UNL     1       2.223 -15.169   2.891  1.00  0.00     0.000 C 
BRANCH   6   7
ATOM      7  C   UNL     1       1.157 -14.572   1.953  1.00  0.00     0.000 C 
BRANCH   7   8
ATOM      8  C   UNL     1       0.232 -13.562   2.663  1.00  0.00     0.000 C 
BRANCH   8   9
ATOM      9  C   UNL     1       0.139 -12.194   1.964  1.00  0.00     0.000 C 
BRANCH   9  10
ATOM     10  C   UNL     1       0.682 -12.144   0.522  1.00  0.00     0.000 C 
BRANCH  10  11
ATOM     11  C   UNL     1       1.998 -11.358   0.347  1.00  0.00     0.000 C 
BRANCH  11  12
ATOM     12  C   UNL     1       3.239 -12.254   0.128  1.00  0.00     0.000 C 
BRANCH  12  13
ATOM     13  C   UNL     1       4.367 -12.000   1.147  1.00  0.00     0.006 C 
BRANCH  13  14
ATOM     14  C   UNL     1       5.381 -13.150   1.251  1.00  0.00     0.053 C 
BRANCH  14  15
ATOM     15  C   UNL     1       6.711 -12.781   0.665  1.00  0.00     0.041 C 
ATOM     16  O   UNL     1       6.780 -11.941  -0.272  1.00  0.00    -0.550 OA
ATOM     17  O   UNL     1       7.872 -13.381   1.135  1.00  0.00    -0.550 OA
ENDBRANCH  14  15
ENDBRANCH  13  14
ENDBRANCH  12  13
ENDBRANCH  11  12
ENDBRANCH  10  11
ENDBRANCH   9  10
ENDBRANCH   8   9
ENDBRANCH   7   8
ENDBRANCH   6   7
ENDBRANCH   5   6
ENDBRANCH   4   5
ENDBRANCH   3   4
ENDBRANCH   2   3
ENDBRANCH   1   2
BRANCH   1  18
ATOM     18  C   UNL     1       5.596 -11.098   7.340  1.00  0.00     0.000 C 
BRANCH  18  19
ATOM     19  C   UNL     1       4.301 -10.416   6.867  1.00  0.00     0.000 C 
BRANCH  19  20
ATOM     20  C   UNL     1       4.492  -8.932   6.514  1.00  0.00     0.000 C 
BRANCH  20  21
ATOM     21  C   UNL     1       3.858  -8.558   5.164  1.00  0.00     0.000 C 
BRANCH  21  22
ATOM     22  C   UNL     1       3.158  -9.711   4.418  1.00  0.00     0.000 C 
BRANCH  22  23
ATOM     23  C   UNL     1       2.162  -9.253   3.335  1.00  0.00     0.000 C 
BRANCH  23  24
ATOM     24  C   UNL     1       0.723  -9.126   3.860  1.00  0.00    -0.000 C 
BRANCH  24  25
ATOM     25  C   UNL     1       0.442 -10.174   4.945  1.00  0.00    -0.000 C 
BRANCH  25  26
ATOM     26  C   UNL     1      -0.256  -9.540   6.160  1.00  0.00    -0.000 C 
BRANCH  26  27
ATOM     27  C   UNL     1       0.372  -8.191   6.569  1.00  0.00    -0.000 C 
BRANCH  27  28
ATOM     28  C   UNL     1       1.220  -8.253   7.857  1.00  0.00    -0.000 C 
BRANCH  28  29
ATOM     29  C   UNL     1       0.853  -7.227   8.941  1.00  0.00    -0.000 C 
BRANCH  29  30
ATOM     30  C   UNL     1       1.368  -5.812   8.625  1.00  0.00    -0.000 C 
BRANCH  30  31
ATOM     31  C   UNL     1       2.871  -5.793   8.303  1.00  0.00    -0.003 C 
ATOM     32  C   UNL     1       3.172  -5.232   6.911  1.00  0.00     0.004 C 
ENDBRANCH  30  31
ENDBRANCH  29  30
ENDBRANCH  28  29
ENDBRANCH  27  28
ENDBRANCH  26  27
ENDBRANCH  25  26
ENDBRANCH  24  25
ENDBRANCH  23  24
ENDBRANCH  22  23
ENDBRANCH  21  22
ENDBRANCH  20  21
ENDBRANCH  19  20
ENDBRANCH  18  19
ENDBRANCH   1  18
TORSDOF 28
ENDMDL
MODEL 6
REMARK VINA RESULT:    -4.727      2.441      4.665
REMARK INTER + INTRA:         -16.487
REMARK INTER:                 -11.057
REMARK INTRA:                  -5.430
REMARK UNBOUND:                -4.021
REMARK SMILES CCCCCCCCCCCCCCCCCCCCCCCCCCCCCC(=O)[O-]
REMARK SMILES IDX 16 1 17 2 18 3 19 4 20 5 21 6 22 7 23 8 24 9 25 10 26 11
REMARK SMILES IDX 27 12 28 13 29 14 30 15 31 16 32 17 15 18 14 19 13 20 12 21
REMARK SMILES IDX 11 22 10 23 9 24 8 25 7 26 6 27 5 28 4 29 3 30 2 31 1 32
REMARK H PARENT
REMARK Flexibility Score: inf
ROOT
ATOM      1  C   UNL     1       5.239 -13.247   4.904  1.00  0.00     0.000 C 
ENDROOT
BRANCH   1   2
ATOM      2  C   UNL     1       5.260 -13.123   6.442  1.00  0.00     0.000 C 
BRANCH   2   3
ATOM      3  C   UNL     1       5.413 -11.687   6.975  1.00  0.00     0.000 C 
BRANCH   3   4
ATOM      4  C   UNL     1       4.107 -10.880   6.906  1.00  0.00     0.000 C 
BRANCH   4   5
ATOM      5  C   UNL     1       4.338  -9.399   6.555  1.00  0.00     0.000 C 
BRANCH   5   6
ATOM      6  C   UNL     1       3.138  -8.485   6.888  1.00  0.00     0.000 C 
BRANCH   6   7
ATOM      7  C   UNL     1       2.305  -8.149   5.637  1.00  0.00     0.000 C 
BRANCH   7   8
ATOM      8  C   UNL     1       0.788  -8.296   5.871  1.00  0.00     0.000 C 
BRANCH   8   9
ATOM      9  C   UNL     1       0.398  -9.508   6.738  1.00  0.00     0.000 C 
BRANCH   9  10
ATOM     10  C   UNL     1      -0.471  -9.194   7.971  1.00  0.00     0.000 C 
BRANCH  10  11
ATOM     11  C   UNL     1      -0.425  -7.727   8.446  1.00  0.00     0.000 C 
BRANCH  11  12
ATOM     12  C   UNL     1       0.696  -7.435   9.472  1.00  0.00     0.000 C 
BRANCH  12  13
ATOM     13  C   UNL     1       1.296  -6.022   9.340  1.00  0.00     0.006 C 
BRANCH  13  14
ATOM     14  C   UNL     1       0.865  -5.282   8.063  1.00  0.00     0.053 C 
BRANCH  14  15
ATOM     15  C   UNL     1       2.042  -4.792   7.274  1.00  0.00     0.041 C 
ATOM     16  O   UNL     1       3.213  -5.094   7.628  1.00  0.00    -0.550 OA
ATOM     17  O   UNL     1       1.849  -3.985   6.160  1.00  0.00    -0.550 OA
ENDBRANCH  14  15
ENDBRANCH  13  14
ENDBRANCH  12  13
ENDBRANCH  11  12
ENDBRANCH  10  11
ENDBRANCH   9  10
ENDBRANCH   8   9
ENDBRANCH   7   8
ENDBRANCH   6   7
ENDBRANCH   5   6
ENDBRANCH   4   5
ENDBRANCH   3   4
ENDBRANCH   2   3
ENDBRANCH   1   2
BRANCH   1  18
ATOM     18  C   UNL     1       4.511 -14.490   4.347  1.00  0.00     0.000 C 
BRANCH  18  19
ATOM     19  C   UNL     1       2.991 -14.526   4.581  1.00  0.00     0.000 C 
BRANCH  19  20
ATOM     20  C   UNL     1       2.248 -15.457   3.608  1.00  0.00     0.000 C 
BRANCH  20  21
ATOM     21  C   UNL     1       0.866 -15.882   4.132  1.00  0.00     0.000 C 
BRANCH  21  22
ATOM     22  C   UNL     1      -0.281 -14.891   3.853  1.00  0.00     0.000 C 
BRANCH  22  23
ATOM     23  C   UNL     1      -0.324 -14.364   2.404  1.00  0.00     0.000 C 
BRANCH  23  24
ATOM     24  C   UNL     1      -0.602 -12.854   2.324  1.00  0.00    -0.000 C 
BRANCH  24  25
ATOM     25  C   UNL     1      -0.186 -12.152   3.624  1.00  0.00    -0.000 C 
BRANCH  25  26
ATOM     26  C   UNL     1       0.812 -11.015   3.345  1.00  0.00    -0.000 C 
BRANCH  26  27
ATOM     27  C   UNL     1       2.253 -11.376   3.762  1.00  0.00    -0.000 C 
BRANCH  27  28
ATOM     28  C   UNL     1       3.345 -10.594   3.001  1.00  0.00    -0.000 C 
BRANCH  28  29
ATOM     29  C   UNL     1       3.502 -10.955   1.515  1.00  0.00    -0.000 C 
BRANCH  29  30
ATOM     30  C   UNL     1       3.399 -12.468   1.252  1.00  0.00    -0.000 C 
BRANCH  30  31
ATOM     31  C   UNL     1       4.777 -13.140   1.140  1.00  0.00    -0.003 C 
ATOM     32  C   UNL     1       5.784 -12.299   0.352  1.00  0.00     0.004 C 
ENDBRANCH  30  31
ENDBRANCH  29  30
ENDBRANCH  28  29
ENDBRANCH  27  28
ENDBRANCH  26  27
ENDBRANCH  25  26
ENDBRANCH  24  25
ENDBRANCH  23  24
ENDBRANCH  22  23
ENDBRANCH  21  22
ENDBRANCH  20  21
ENDBRANCH  19  20
ENDBRANCH  18  19
ENDBRANCH   1  18
TORSDOF 28
ENDMDL
MODEL 7
REMARK VINA RESULT:    -4.719      5.971      9.403
REMARK INTER + INTRA:         -16.465
REMARK INTER:                 -10.798
REMARK INTRA:                  -5.667
REMARK UNBOUND:                -4.021
REMARK SMILES CCCCCCCCCCCCCCCCCCCCCCCCCCCCCC(=O)[O-]
REMARK SMILES IDX 16 1 17 2 18 3 19 4 20 5 21 6 22 7 23 8 24 9 25 10 26 11
REMARK SMILES IDX 27 12 28 13 29 14 30 15 31 16 32 17 15 18 14 19 13 20 12 21
REMARK SMILES IDX 11 22 10 23 9 24 8 25 7 26 6 27 5 28 4 29 3 30 2 31 1 32
REMARK H PARENT
REMARK Flexibility Score: inf
ROOT
ATOM      1  C   UNL     1       2.103 -10.888   3.659  1.00  0.00     0.000 C 
ENDROOT
BRANCH   1   2
ATOM      2  C   UNL     1       3.310 -10.909   2.699  1.00  0.00     0.000 C 
BRANCH   2   3
ATOM      3  C   UNL     1       3.068 -10.232   1.338  1.00  0.00     0.000 C 
BRANCH   3   4
ATOM      4  C   UNL     1       1.766  -9.417   1.298  1.00  0.00     0.000 C 
BRANCH   4   5
ATOM      5  C   UNL     1       0.965  -9.634   0.001  1.00  0.00     0.000 C 
BRANCH   5   6
ATOM      6  C   UNL     1      -0.323 -10.465   0.196  1.00  0.00     0.000 C 
BRANCH   6   7
ATOM      7  C   UNL     1      -0.174 -11.895  -0.356  1.00  0.00     0.000 C 
BRANCH   7   8
ATOM      8  C   UNL     1       0.267 -12.909   0.719  1.00  0.00     0.000 C 
BRANCH   8   9
ATOM      9  C   UNL     1       1.710 -13.420   0.550  1.00  0.00     0.000 C 
BRANCH   9  10
ATOM     10  C   UNL     1       2.190 -13.592  -0.905  1.00  0.00     0.000 C 
BRANCH  10  11
ATOM     11  C   UNL     1       3.720 -13.686  -1.081  1.00  0.00     0.000 C 
BRANCH  11  12
ATOM     12  C   UNL     1       4.476 -14.088   0.207  1.00  0.00     0.000 C 
BRANCH  12  13
ATOM     13  C   UNL     1       5.485 -13.025   0.683  1.00  0.00     0.006 C 
BRANCH  13  14
ATOM     14  C   UNL     1       6.780 -12.985  -0.144  1.00  0.00     0.053 C 
BRANCH  14  15
ATOM     15  C   UNL     1       7.767 -14.021   0.306  1.00  0.00     0.041 C 
ATOM     16  O   UNL     1       8.782 -13.682   0.971  1.00  0.00    -0.550 OA
ATOM     17  O   UNL     1       7.579 -15.356  -0.029  1.00  0.00    -0.550 OA
ENDBRANCH  14  15
ENDBRANCH  13  14
ENDBRANCH  12  13
ENDBRANCH  11  12
ENDBRANCH  10  11
ENDBRANCH   9  10
ENDBRANCH   8   9
ENDBRANCH   7   8
ENDBRANCH   6   7
ENDBRANCH   5   6
ENDBRANCH   4   5
ENDBRANCH   3   4
ENDBRANCH   2   3
ENDBRANCH   1   2
BRANCH   1  18
ATOM     18  C   UNL     1       2.366 -10.256   5.044  1.00  0.00     0.000 C 
BRANCH  18  19
ATOM     19  C   UNL     1       3.586  -9.322   5.123  1.00  0.00     0.000 C 
BRANCH  19  20
ATOM     20  C   UNL     1       4.380  -9.469   6.431  1.00  0.00     0.000 C 
BRANCH  20  21
ATOM     21  C   UNL     1       4.280 -10.882   7.029  1.00  0.00     0.000 C 
BRANCH  21  22
ATOM     22  C   UNL     1       5.615 -11.639   7.170  1.00  0.00     0.000 C 
BRANCH  22  23
ATOM     23  C   UNL     1       5.592 -13.074   6.608  1.00  0.00     0.000 C 
BRANCH  23  24
ATOM     24  C   UNL     1       4.368 -13.349   5.718  1.00  0.00    -0.000 C 
BRANCH  24  25
ATOM     25  C   UNL     1       4.798 -13.923   4.361  1.00  0.00    -0.000 C 
BRANCH  25  26
ATOM     26  C   UNL     1       3.580 -14.406   3.554  1.00  0.00    -0.000 C 
BRANCH  26  27
ATOM     27  C   UNL     1       2.474 -15.002   4.450  1.00  0.00    -0.000 C 
BRANCH  27  28
ATOM     28  C   UNL     1       1.039 -14.706   3.964  1.00  0.00    -0.000 C 
BRANCH  28  29
ATOM     29  C   UNL     1       0.108 -15.925   3.868  1.00  0.00    -0.000 C 
BRANCH  29  30
ATOM     30  C   UNL     1       0.699 -17.064   3.019  1.00  0.00    -0.000 C 
BRANCH  30  31
ATOM     31  C   UNL     1       0.394 -16.899   1.521  1.00  0.00    -0.003 C 
ATOM     32  C   UNL     1       1.651 -16.957   0.650  1.00  0.00     0.004 C 
ENDBRANCH  30  31
ENDBRANCH  29  30
ENDBRANCH  28  29
ENDBRANCH  27  28
ENDBRANCH  26  27
ENDBRANCH  25  26
ENDBRANCH  24  25
ENDBRANCH  23  24
ENDBRANCH  22  23
ENDBRANCH  21  22
ENDBRANCH  20  21
ENDBRANCH  19  20
ENDBRANCH  18  19
ENDBRANCH   1  18
TORSDOF 28
ENDMDL
MODEL 8
REMARK VINA RESULT:    -4.711      4.625      8.067
REMARK INTER + INTRA:         -16.443
REMARK INTER:                 -10.948
REMARK INTRA:                  -5.494
REMARK UNBOUND:                -4.021
REMARK SMILES CCCCCCCCCCCCCCCCCCCCCCCCCCCCCC(=O)[O-]
REMARK SMILES IDX 16 1 17 2 18 3 19 4 20 5 21 6 22 7 23 8 24 9 25 10 26 11
REMARK SMILES IDX 27 12 28 13 29 14 30 15 31 16 32 17 15 18 14 19 13 20 12 21
REMARK SMILES IDX 11 22 10 23 9 24 8 25 7 26 6 27 5 28 4 29 3 30 2 31 1 32
REMARK H PARENT
REMARK Flexibility Score: inf
ROOT
ATOM      1  C   UNL     1       1.655  -5.542   7.904  1.00  0.00     0.000 C 
ENDROOT
BRANCH   1   2
ATOM      2  C   UNL     1       0.603  -6.217   8.809  1.00  0.00     0.000 C 
BRANCH   2   3
ATOM      3  C   UNL     1       0.804  -7.729   9.021  1.00  0.00     0.000 C 
BRANCH   3   4
ATOM      4  C   UNL     1      -0.253  -8.580   8.300  1.00  0.00     0.000 C 
BRANCH   4   5
ATOM      5  C   UNL     1       0.295  -9.269   7.037  1.00  0.00     0.000 C 
BRANCH   5   6
ATOM      6  C   UNL     1       0.183  -8.408   5.759  1.00  0.00     0.000 C 
BRANCH   6   7
ATOM      7  C   UNL     1       0.773  -9.124   4.530  1.00  0.00     0.000 C 
BRANCH   7   8
ATOM      8  C   UNL     1       1.242 -10.560   4.840  1.00  0.00     0.000 C 
BRANCH   8   9
ATOM      9  C   UNL     1       2.008 -11.236   3.688  1.00  0.00     0.000 C 
BRANCH   9  10
ATOM     10  C   UNL     1       3.277 -10.502   3.211  1.00  0.00     0.000 C 
BRANCH  10  11
ATOM     11  C   UNL     1       3.725 -10.839   1.774  1.00  0.00     0.000 C 
BRANCH  11  12
ATOM     12  C   UNL     1       3.150 -12.170   1.233  1.00  0.00     0.000 C 
BRANCH  12  13
ATOM     13  C   UNL     1       4.139 -12.952   0.349  1.00  0.00     0.006 C 
BRANCH  13  14
ATOM     14  C   UNL     1       5.503 -12.263   0.184  1.00  0.00     0.053 C 
BRANCH  14  15
ATOM     15  C   UNL     1       6.629 -13.115   0.689  1.00  0.00     0.041 C 
ATOM     16  O   UNL     1       6.434 -14.332   0.950  1.00  0.00    -0.550 OA
ATOM     17  O   UNL     1       7.886 -12.561   0.895  1.00  0.00    -0.550 OA
ENDBRANCH  14  15
ENDBRANCH  13  14
ENDBRANCH  12  13
ENDBRANCH  11  12
ENDBRANCH  10  11
ENDBRANCH   9  10
ENDBRANCH   8   9
ENDBRANCH   7   8
ENDBRANCH   6   7
ENDBRANCH   5   6
ENDBRANCH   4   5
ENDBRANCH   3   4
ENDBRANCH   2   3
ENDBRANCH   1   2
BRANCH   1  18
ATOM     18  C   UNL     1       2.922  -6.379   7.618  1.00  0.00     0.000 C 
BRANCH  18  19
ATOM     19  C   UNL     1       3.370  -6.419   6.147  1.00  0.00     0.000 C 
BRANCH  19  20
ATOM     20  C   UNL     1       4.043  -7.743   5.753  1.00  0.00     0.000 C 
BRANCH  20  21
ATOM     21  C   UNL     1       3.840  -8.847   6.804  1.00  0.00     0.000 C 
BRANCH  21  22
ATOM     22  C   UNL     1       4.944  -9.921   6.859  1.00  0.00     0.000 C 
BRANCH  22  23
ATOM     23  C   UNL     1       4.418 -11.370   6.884  1.00  0.00     0.000 C 
BRANCH  23  24
ATOM     24  C   UNL     1       5.403 -12.376   6.266  1.00  0.00    -0.000 C 
BRANCH  24  25
ATOM     25  C   UNL     1       4.665 -13.624   5.762  1.00  0.00    -0.000 C 
BRANCH  25  26
ATOM     26  C   UNL     1       4.896 -13.833   4.256  1.00  0.00    -0.000 C 
BRANCH  26  27
ATOM     27  C   UNL     1       3.826 -14.741   3.612  1.00  0.00    -0.000 C 
BRANCH  27  28
ATOM     28  C   UNL     1       2.471 -14.742   4.350  1.00  0.00    -0.000 C 
BRANCH  28  29
ATOM     29  C   UNL     1       1.652 -16.037   4.227  1.00  0.00    -0.000 C 
BRANCH  29  30
ATOM     30  C   UNL     1       1.330 -16.405   2.769  1.00  0.00    -0.000 C 
BRANCH  30  31
ATOM     31  C   UNL     1       0.437 -15.358   2.082  1.00  0.00    -0.003 C 
ATOM     32  C   UNL     1       0.857 -15.078   0.637  1.00  0.00     0.004 C 
ENDBRANCH  30  31
ENDBRANCH  29  30
ENDBRANCH  28  29
ENDBRANCH  27  28
ENDBRANCH  26  27
ENDBRANCH  25  26
ENDBRANCH  24  25
ENDBRANCH  23  24
ENDBRANCH  22  23
ENDBRANCH  21  22
ENDBRANCH  20  21
ENDBRANCH  19  20
ENDBRANCH  18  19
ENDBRANCH   1  18
TORSDOF 28
ENDMDL
MODEL 9
REMARK VINA RESULT:    -4.678      3.917      9.932
REMARK INTER + INTRA:         -16.357
REMARK INTER:                 -11.803
REMARK INTRA:                  -4.554
REMARK UNBOUND:                -4.021
REMARK SMILES CCCCCCCCCCCCCCCCCCCCCCCCCCCCCC(=O)[O-]
REMARK SMILES IDX 16 1 17 2 18 3 19 4 20 5 21 6 22 7 23 8 24 9 25 10 26 11
REMARK SMILES IDX 27 12 28 13 29 14 30 15 31 16 32 17 15 18 14 19 13 20 12 21
REMARK SMILES IDX 11 22 10 23 9 24 8 25 7 26 6 27 5 28 4 29 3 30 2 31 1 32
REMARK H PARENT
REMARK Flexibility Score: inf
ROOT
ATOM      1  C   UNL     1       3.799  -6.806   7.308  1.00  0.00     0.000 C 
ENDROOT
BRANCH   1   2
ATOM      2  C   UNL     1       3.760  -7.195   5.816  1.00  0.00     0.000 C 
BRANCH   2   3
ATOM      3  C   UNL     1       3.811  -8.709   5.538  1.00  0.00     0.000 C 
BRANCH   3   4
ATOM      4  C   UNL     1       4.319  -9.521   6.739  1.00  0.00     0.000 C 
BRANCH   4   5
ATOM      5  C   UNL     1       4.029 -11.028   6.607  1.00  0.00     0.000 C 
BRANCH   5   6
ATOM      6  C   UNL     1       5.270 -11.922   6.822  1.00  0.00     0.000 C 
BRANCH   6   7
ATOM      7  C   UNL     1       5.003 -13.384   6.417  1.00  0.00     0.000 C 
BRANCH   7   8
ATOM      8  C   UNL     1       4.910 -13.575   4.889  1.00  0.00     0.000 C 
BRANCH   8   9
ATOM      9  C   UNL     1       3.704 -14.416   4.431  1.00  0.00     0.000 C 
BRANCH   9  10
ATOM     10  C   UNL     1       2.830 -13.783   3.330  1.00  0.00     0.000 C 
BRANCH  10  11
ATOM     11  C   UNL     1       1.769 -12.782   3.833  1.00  0.00     0.000 C 
BRANCH  11  12
ATOM     12  C   UNL     1       2.056 -11.314   3.439  1.00  0.00     0.000 C 
BRANCH  12  13
ATOM     13  C   UNL     1       0.952 -10.333   3.878  1.00  0.00     0.006 C 
BRANCH  13  14
ATOM     14  C   UNL     1       0.982  -8.989   3.133  1.00  0.00     0.053 C 
BRANCH  14  15
ATOM     15  C   UNL     1       0.520  -9.123   1.713  1.00  0.00     0.041 C 
ATOM     16  O   UNL     1      -0.711  -9.153   1.447  1.00  0.00    -0.550 OA
ATOM     17  O   UNL     1       1.447  -9.238   0.685  1.00  0.00    -0.550 OA
ENDBRANCH  14  15
ENDBRANCH  13  14
ENDBRANCH  12  13
ENDBRANCH  11  12
ENDBRANCH  10  11
ENDBRANCH   9  10
ENDBRANCH   8   9
ENDBRANCH   7   8
ENDBRANCH   6   7
ENDBRANCH   5   6
ENDBRANCH   4   5
ENDBRANCH   3   4
ENDBRANCH   2   3
ENDBRANCH   1   2
BRANCH   1  18
ATOM     18  C   UNL     1       3.178  -5.435   7.654  1.00  0.00     0.000 C 
BRANCH  18  19
ATOM     19  C   UNL     1       2.330  -4.794   6.542  1.00  0.00     0.000 C 
BRANCH  19  20
ATOM     20  C   UNL     1       0.937  -4.353   7.019  1.00  0.00     0.000 C 
BRANCH  20  21
ATOM     21  C   UNL     1      -0.199  -5.103   6.305  1.00  0.00     0.000 C 
BRANCH  21  22
ATOM     22  C   UNL     1       0.177  -6.484   5.731  1.00  0.00     0.000 C 
BRANCH  22  23
ATOM     23  C   UNL     1      -0.712  -7.641   6.232  1.00  0.00     0.000 C 
BRANCH  23  24
ATOM     24  C   UNL     1      -0.780  -7.723   7.765  1.00  0.00    -0.000 C 
BRANCH  24  25
ATOM     25  C   UNL     1       0.573  -8.147   8.351  1.00  0.00    -0.000 C 
BRANCH  25  26
ATOM     26  C   UNL     1       0.706  -7.701   9.817  1.00  0.00    -0.000 C 
BRANCH  26  27
ATOM     27  C   UNL     1       0.317  -6.222  10.025  1.00  0.00    -0.000 C 
BRANCH  27  28
ATOM     28  C   UNL     1       1.262  -5.447  10.968  1.00  0.00    -0.000 C 
BRANCH  28  29
ATOM     29  C   UNL     1       1.749  -6.224  12.201  1.00  0.00    -0.000 C 
BRANCH  29  30
ATOM     30  C   UNL     1       3.178  -5.841  12.624  1.00  0.00    -0.000 C 
BRANCH  30  31
ATOM     31  C   UNL     1       3.209  -4.592  13.522  1.00  0.00    -0.003 C 
ATOM     32  C   UNL     1       1.893  -4.368  14.270  1.00  0.00     0.004 C 
ENDBRANCH  30  31
ENDBRANCH  29  30
ENDBRANCH  28  29
ENDBRANCH  27  28
ENDBRANCH  26  27
ENDBRANCH  25  26
ENDBRANCH  24  25
ENDBRANCH  23  24
ENDBRANCH  22  23
ENDBRANCH  21  22
ENDBRANCH  20  21
ENDBRANCH  19  20
ENDBRANCH  18  19
ENDBRANCH   1  18
TORSDOF 28
ENDMDL
