MODEL 1
REMARK VINA RESULT:    -8.032      0.000      0.000
REMARK INTER + INTRA:          -8.690
REMARK INTER:                  -8.736
REMARK INTRA:                   0.045
REMARK UNBOUND:                 0.045
REMARK SMILES C[C@@H]1[C@H](C)CC[C@]2(C(=O)[O-])CC[C@@]3(C)C(=CC[C@@H]4[C@@]5(C)CC[C@@H](O)C(C)(C)[C@H]5CC[C@@]43C)[C@H]12
REMARK SMILES IDX 7 1 6 2 11 3 33 4 5 5 12 6 15 7 2 8 3 9 13 10 16 11 1 12
REMARK SMILES IDX 4 13 14 14 31 15 17 16 18 17 30 18 32 19 19 20 29 21 28 22
REMARK SMILES IDX 21 23 20 24 25 25 22 26 23 27 26 28 27 29 8 30 9 31 10 32
REMARK SMILES IDX 24 33
REMARK H PARENT 24 34
REMARK Flexibility Score: inf
ROOT
ATOM      1  C   UNL     1      38.849  12.069  66.672  1.00  0.00     0.017 C 
ATOM      2  C   UNL     1      39.606  12.760  65.503  1.00  0.00     0.014 C 
ATOM      3  C   UNL     1      38.771  10.532  66.418  1.00  0.00     0.014 C 
ATOM      4  C   UNL     1      37.429  12.735  66.796  1.00  0.00     0.030 C 
ATOM      5  C   UNL     1      39.863  14.251  65.779  1.00  0.00     0.004 C 
ATOM      6  C   UNL     1      37.684  10.068  65.432  1.00  0.00     0.013 C 
ATOM      7  C   UNL     1      36.459  12.149  65.734  1.00  0.00    -0.063 C 
ATOM      8  C   UNL     1      37.564  14.299  66.963  1.00  0.00    -0.003 C 
ATOM      9  C   UNL     1      38.568  15.054  66.017  1.00  0.00    -0.011 C 
ATOM     10  C   UNL     1      36.252  10.629  65.733  1.00  0.00    -0.006 C 
ATOM     11  C   UNL     1      36.063  12.880  64.690  1.00  0.00    -0.027 C 
ATOM     12  C   UNL     1      36.235  15.036  67.230  1.00  0.00     0.008 C 
ATOM     13  C   UNL     1      38.027  15.604  64.686  1.00  0.00     0.008 C 
ATOM     14  C   UNL     1      35.788  10.203  67.170  1.00  0.00     0.017 C 
ATOM     15  C   UNL     1      35.168  10.098  64.641  1.00  0.00    -0.020 C 
ATOM     16  C   UNL     1      35.360  12.377  63.484  1.00  0.00     0.032 C 
ATOM     17  C   UNL     1      35.341  10.833  63.253  1.00  0.00     0.006 C 
ATOM     18  C   UNL     1      33.709  10.383  65.101  1.00  0.00     0.008 C 
ATOM     19  C   UNL     1      35.361   8.547  64.504  1.00  0.00     0.012 C 
ATOM     20  C   UNL     1      34.267  10.487  62.095  1.00  0.00    -0.025 C 
ATOM     21  C   UNL     1      32.629  10.006  64.072  1.00  0.00     0.005 C 
ATOM     22  C   UNL     1      32.783  10.623  62.647  1.00  0.00     0.003 C 
ATOM     23  C   UNL     1      34.487   9.068  61.477  1.00  0.00     0.010 C 
ATOM     24  C   UNL     1      34.529  11.500  60.925  1.00  0.00     0.012 C 
ATOM     25  C   UNL     1      31.646  10.102  61.650  1.00  0.00    -0.006 C 
ATOM     26  C   UNL     1      33.418   8.644  60.453  1.00  0.00     0.033 C 
ATOM     27  C   UNL     1      31.997   8.705  61.040  1.00  0.00     0.120 C 
ATOM     28  C   UNL     1      31.398  11.125  60.498  1.00  0.00     0.014 C 
ATOM     29  C   UNL     1      30.268   9.992  62.370  1.00  0.00     0.014 C 
ENDROOT
BRANCH   1  30
ATOM     30  C   UNL     1      39.645  12.218  67.969  1.00  0.00     0.048 C 
ATOM     31  O   UNL     1      40.811  11.749  68.057  1.00  0.00    -0.550 OA
ATOM     32  O   UNL     1      39.053  12.749  69.111  1.00  0.00    -0.550 OA
ENDBRANCH   1  30
BRANCH  27  33
ATOM     33  O   UNL     1      31.855   7.690  62.005  1.00  0.00    -0.393 OA
ATOM     34  H   UNL     1      31.865   6.822  61.522  1.00  0.00     0.210 HD
ENDBRANCH  27  33
TORSDOF 2
ENDMDL
MODEL 2
REMARK VINA RESULT:    -7.489      3.815      6.275
REMARK INTER + INTRA:          -8.100
REMARK INTER:                  -8.112
REMARK INTRA:                   0.013
REMARK UNBOUND:                 0.045
REMARK SMILES C[C@@H]1[C@H](C)CC[C@]2(C(=O)[O-])CC[C@@]3(C)C(=CC[C@@H]4[C@@]5(C)CC[C@@H](O)C(C)(C)[C@H]5CC[C@@]43C)[C@H]12
REMARK SMILES IDX 7 1 6 2 11 3 33 4 5 5 12 6 15 7 2 8 3 9 13 10 16 11 1 12
REMARK SMILES IDX 4 13 14 14 31 15 17 16 18 17 30 18 32 19 19 20 29 21 28 22
REMARK SMILES IDX 21 23 20 24 25 25 22 26 23 27 26 28 27 29 8 30 9 31 10 32
REMARK SMILES IDX 24 33
REMARK H PARENT 24 34
REMARK Flexibility Score: inf
ROOT
ATOM      1  C   UNL     1      31.533  10.871  65.038  1.00  0.00     0.017 C 
ATOM      2  C   UNL     1      32.171  10.011  66.165  1.00  0.00     0.014 C 
ATOM      3  C   UNL     1      30.961   9.942  63.922  1.00  0.00     0.014 C 
ATOM      4  C   UNL     1      32.629  11.861  64.498  1.00  0.00     0.030 C 
ATOM      5  C   UNL     1      32.600  10.862  67.372  1.00  0.00     0.004 C 
ATOM      6  C   UNL     1      31.988   9.384  62.922  1.00  0.00     0.013 C 
ATOM      7  C   UNL     1      33.573  11.137  63.500  1.00  0.00    -0.063 C 
ATOM      8  C   UNL     1      33.235  12.714  65.681  1.00  0.00    -0.003 C 
ATOM      9  C   UNL     1      33.620  11.959  67.006  1.00  0.00    -0.011 C 
ATOM     10  C   UNL     1      32.926  10.463  62.283  1.00  0.00    -0.006 C 
ATOM     11  C   UNL     1      34.833  10.852  63.833  1.00  0.00    -0.027 C 
ATOM     12  C   UNL     1      34.224  13.813  65.242  1.00  0.00     0.008 C 
ATOM     13  C   UNL     1      35.056  11.421  67.135  1.00  0.00     0.008 C 
ATOM     14  C   UNL     1      32.080  11.545  61.524  1.00  0.00     0.017 C 
ATOM     15  C   UNL     1      33.985   9.788  61.247  1.00  0.00    -0.020 C 
ATOM     16  C   UNL     1      35.752   9.951  63.095  1.00  0.00     0.032 C 
ATOM     17  C   UNL     1      35.128   9.013  62.014  1.00  0.00     0.006 C 
ATOM     18  C   UNL     1      34.699  10.864  60.380  1.00  0.00     0.008 C 
ATOM     19  C   UNL     1      33.172   8.835  60.302  1.00  0.00     0.012 C 
ATOM     20  C   UNL     1      36.315   8.375  61.122  1.00  0.00    -0.025 C 
ATOM     21  C   UNL     1      35.794  10.313  59.450  1.00  0.00     0.005 C 
ATOM     22  C   UNL     1      36.912   9.458  60.124  1.00  0.00     0.003 C 
ATOM     23  C   UNL     1      35.857   7.106  60.332  1.00  0.00     0.010 C 
ATOM     24  C   UNL     1      37.410   7.871  62.128  1.00  0.00     0.012 C 
ATOM     25  C   UNL     1      37.947   8.882  59.049  1.00  0.00    -0.006 C 
ATOM     26  C   UNL     1      36.917   6.530  59.376  1.00  0.00     0.033 C 
ATOM     27  C   UNL     1      37.416   7.578  58.366  1.00  0.00     0.120 C 
ATOM     28  C   UNL     1      39.335   8.600  59.701  1.00  0.00     0.014 C 
ATOM     29  C   UNL     1      38.251   9.931  57.936  1.00  0.00     0.014 C 
ENDROOT
BRANCH   1  30
ATOM     30  C   UNL     1      30.322  11.630  65.583  1.00  0.00     0.048 C 
ATOM     31  O   UNL     1      29.389  11.008  66.161  1.00  0.00    -0.550 OA
ATOM     32  O   UNL     1      30.162  12.989  65.336  1.00  0.00    -0.550 OA
ENDBRANCH   1  30
BRANCH  27  33
ATOM     33  O   UNL     1      36.380   7.875  57.461  1.00  0.00    -0.393 OA
ATOM     34  H   UNL     1      36.464   8.835  57.223  1.00  0.00     0.210 HD
ENDBRANCH  27  33
TORSDOF 2
ENDMDL
MODEL 3
REMARK VINA RESULT:    -7.376      3.457      4.493
REMARK INTER + INTRA:          -7.977
REMARK INTER:                  -8.000
REMARK INTRA:                   0.023
REMARK UNBOUND:                 0.045
REMARK SMILES C[C@@H]1[C@H](C)CC[C@]2(C(=O)[O-])CC[C@@]3(C)C(=CC[C@@H]4[C@@]5(C)CC[C@@H](O)C(C)(C)[C@H]5CC[C@@]43C)[C@H]12
REMARK SMILES IDX 7 1 6 2 11 3 33 4 5 5 12 6 15 7 2 8 3 9 13 10 16 11 1 12
REMARK SMILES IDX 4 13 14 14 31 15 17 16 18 17 30 18 32 19 19 20 29 21 28 22
REMARK SMILES IDX 21 23 20 24 25 25 22 26 23 27 26 28 27 29 8 30 9 31 10 32
REMARK SMILES IDX 24 33
REMARK H PARENT 24 34
REMARK Flexibility Score: inf
ROOT
ATOM      1  C   UNL     1      37.705  12.839  66.335  1.00  0.00     0.017 C 
ATOM      2  C   UNL     1      37.750  12.198  64.920  1.00  0.00     0.014 C 
ATOM      3  C   UNL     1      37.241  11.780  67.383  1.00  0.00     0.014 C 
ATOM      4  C   UNL     1      36.752  14.089  66.275  1.00  0.00     0.030 C 
ATOM      5  C   UNL     1      38.362  13.143  63.873  1.00  0.00     0.004 C 
ATOM      6  C   UNL     1      35.726  11.519  67.448  1.00  0.00     0.013 C 
ATOM      7  C   UNL     1      35.267  13.645  66.358  1.00  0.00    -0.063 C 
ATOM      8  C   UNL     1      37.216  15.085  65.141  1.00  0.00    -0.003 C 
ATOM      9  C   UNL     1      37.598  14.476  63.742  1.00  0.00    -0.011 C 
ATOM     10  C   UNL     1      34.849  12.810  67.575  1.00  0.00    -0.006 C 
ATOM     11  C   UNL     1      34.468  13.721  65.291  1.00  0.00    -0.027 C 
ATOM     12  C   UNL     1      36.430  16.411  65.086  1.00  0.00     0.008 C 
ATOM     13  C   UNL     1      36.487  14.355  62.683  1.00  0.00     0.008 C 
ATOM     14  C   UNL     1      35.237  13.611  68.867  1.00  0.00     0.017 C 
ATOM     15  C   UNL     1      33.264  12.444  67.627  1.00  0.00    -0.020 C 
ATOM     16  C   UNL     1      33.127  13.102  65.155  1.00  0.00     0.032 C 
ATOM     17  C   UNL     1      32.722  12.021  66.205  1.00  0.00     0.006 C 
ATOM     18  C   UNL     1      32.410  13.669  68.067  1.00  0.00     0.008 C 
ATOM     19  C   UNL     1      33.082  11.298  68.683  1.00  0.00     0.012 C 
ATOM     20  C   UNL     1      31.138  11.728  66.075  1.00  0.00    -0.025 C 
ATOM     21  C   UNL     1      30.890  13.433  68.037  1.00  0.00     0.005 C 
ATOM     22  C   UNL     1      30.292  12.925  66.688  1.00  0.00     0.003 C 
ATOM     23  C   UNL     1      30.721  10.375  66.740  1.00  0.00     0.010 C 
ATOM     24  C   UNL     1      30.839  11.552  64.544  1.00  0.00     0.012 C 
ATOM     25  C   UNL     1      28.721  12.648  66.803  1.00  0.00    -0.006 C 
ATOM     26  C   UNL     1      29.205  10.106  66.747  1.00  0.00     0.033 C 
ATOM     27  C   UNL     1      28.418  11.243  67.422  1.00  0.00     0.120 C 
ATOM     28  C   UNL     1      28.028  12.765  65.411  1.00  0.00     0.014 C 
ATOM     29  C   UNL     1      28.017  13.731  67.676  1.00  0.00     0.014 C 
ENDROOT
BRANCH   1  30
ATOM     30  C   UNL     1      39.116  13.239  66.771  1.00  0.00     0.048 C 
ATOM     31  O   UNL     1      40.037  12.380  66.810  1.00  0.00    -0.550 OA
ATOM     32  O   UNL     1      39.375  14.516  67.259  1.00  0.00    -0.550 OA
ENDBRANCH   1  30
BRANCH  27  33
ATOM     33  O   UNL     1      28.693  11.236  68.802  1.00  0.00    -0.393 OA
ATOM     34  H   UNL     1      28.447  10.337  69.146  1.00  0.00     0.210 HD
ENDBRANCH  27  33
TORSDOF 2
ENDMDL
MODEL 4
REMARK VINA RESULT:    -7.363      5.659      8.789
REMARK INTER + INTRA:          -7.963
REMARK INTER:                  -7.954
REMARK INTRA:                  -0.009
REMARK UNBOUND:                 0.045
REMARK SMILES C[C@@H]1[C@H](C)CC[C@]2(C(=O)[O-])CC[C@@]3(C)C(=CC[C@@H]4[C@@]5(C)CC[C@@H](O)C(C)(C)[C@H]5CC[C@@]43C)[C@H]12
REMARK SMILES IDX 7 1 6 2 11 3 33 4 5 5 12 6 15 7 2 8 3 9 13 10 16 11 1 12
REMARK SMILES IDX 4 13 14 14 31 15 17 16 18 17 30 18 32 19 19 20 29 21 28 22
REMARK SMILES IDX 21 23 20 24 25 25 22 26 23 27 26 28 27 29 8 30 9 31 10 32
REMARK SMILES IDX 24 33
REMARK H PARENT 24 34
REMARK Flexibility Score: inf
ROOT
ATOM      1  C   UNL     1      37.832   8.379  59.643  1.00  0.00     0.017 C 
ATOM      2  C   UNL     1      38.443   8.869  60.985  1.00  0.00     0.014 C 
ATOM      3  C   UNL     1      38.829   8.653  58.475  1.00  0.00     0.014 C 
ATOM      4  C   UNL     1      36.449   9.102  59.442  1.00  0.00     0.030 C 
ATOM      5  C   UNL     1      37.581   8.473  62.196  1.00  0.00     0.004 C 
ATOM      6  C   UNL     1      38.856  10.096  57.941  1.00  0.00     0.013 C 
ATOM      7  C   UNL     1      36.662  10.539  58.895  1.00  0.00    -0.063 C 
ATOM      8  C   UNL     1      35.513   8.863  60.691  1.00  0.00    -0.003 C 
ATOM      9  C   UNL     1      36.144   9.028  62.122  1.00  0.00    -0.011 C 
ATOM     10  C   UNL     1      37.448  10.684  57.586  1.00  0.00    -0.006 C 
ATOM     11  C   UNL     1      36.442  11.605  59.666  1.00  0.00    -0.027 C 
ATOM     12  C   UNL     1      34.081   9.416  60.538  1.00  0.00     0.008 C 
ATOM     13  C   UNL     1      36.071  10.415  62.784  1.00  0.00     0.008 C 
ATOM     14  C   UNL     1      36.744   9.800  56.497  1.00  0.00     0.017 C 
ATOM     15  C   UNL     1      37.567  12.213  57.039  1.00  0.00    -0.020 C 
ATOM     16  C   UNL     1      36.844  13.002  59.367  1.00  0.00     0.032 C 
ATOM     17  C   UNL     1      37.873  13.224  58.214  1.00  0.00     0.006 C 
ATOM     18  C   UNL     1      36.236  12.692  56.392  1.00  0.00     0.008 C 
ATOM     19  C   UNL     1      38.694  12.234  55.948  1.00  0.00     0.012 C 
ATOM     20  C   UNL     1      37.917  14.796  57.843  1.00  0.00    -0.025 C 
ATOM     21  C   UNL     1      36.235  14.165  55.947  1.00  0.00     0.005 C 
ATOM     22  C   UNL     1      36.617  15.219  57.033  1.00  0.00     0.003 C 
ATOM     23  C   UNL     1      39.203  15.190  57.045  1.00  0.00     0.010 C 
ATOM     24  C   UNL     1      38.012  15.575  59.203  1.00  0.00     0.012 C 
ATOM     25  C   UNL     1      36.652  16.702  56.433  1.00  0.00    -0.006 C 
ATOM     26  C   UNL     1      39.236  16.652  56.566  1.00  0.00     0.033 C 
ATOM     27  C   UNL     1      38.006  17.010  55.713  1.00  0.00     0.120 C 
ATOM     28  C   UNL     1      36.401  17.764  57.548  1.00  0.00     0.014 C 
ATOM     29  C   UNL     1      35.492  16.929  55.417  1.00  0.00     0.014 C 
ENDROOT
BRANCH   1  30
ATOM     30  C   UNL     1      37.662   6.859  59.672  1.00  0.00     0.048 C 
ATOM     31  O   UNL     1      38.555   6.129  60.181  1.00  0.00    -0.550 OA
ATOM     32  O   UNL     1      36.594   6.249  59.023  1.00  0.00    -0.550 OA
ENDBRANCH   1  30
BRANCH  27  33
ATOM     33  O   UNL     1      38.084  16.329  54.484  1.00  0.00    -0.393 OA
ATOM     34  H   UNL     1      39.044  16.292  54.229  1.00  0.00     0.210 HD
ENDBRANCH  27  33
TORSDOF 2
ENDMDL
MODEL 5
REMARK VINA RESULT:    -7.160      5.279      8.208
REMARK INTER + INTRA:          -7.742
REMARK INTER:                  -7.730
REMARK INTRA:                  -0.011
REMARK UNBOUND:                 0.045
REMARK SMILES C[C@@H]1[C@H](C)CC[C@]2(C(=O)[O-])CC[C@@]3(C)C(=CC[C@@H]4[C@@]5(C)CC[C@@H](O)C(C)(C)[C@H]5CC[C@@]43C)[C@H]12
REMARK SMILES IDX 7 1 6 2 11 3 33 4 5 5 12 6 15 7 2 8 3 9 13 10 16 11 1 12
REMARK SMILES IDX 4 13 14 14 31 15 17 16 18 17 30 18 32 19 19 20 29 21 28 22
REMARK SMILES IDX 21 23 20 24 25 25 22 26 23 27 26 28 27 29 8 30 9 31 10 32
REMARK SMILES IDX 24 33
REMARK H PARENT 24 34
REMARK Flexibility Score: inf
ROOT
ATOM      1  C   UNL     1      35.360  12.065  63.126  1.00  0.00     0.017 C 
ATOM      2  C   UNL     1      34.159  11.667  62.224  1.00  0.00     0.014 C 
ATOM      3  C   UNL     1      35.330  13.600  63.403  1.00  0.00     0.014 C 
ATOM      4  C   UNL     1      36.683  11.605  62.411  1.00  0.00     0.030 C 
ATOM      5  C   UNL     1      34.038  10.143  62.057  1.00  0.00     0.004 C 
ATOM      6  C   UNL     1      35.873  14.496  62.276  1.00  0.00     0.013 C 
ATOM      7  C   UNL     1      37.088  12.623  61.310  1.00  0.00    -0.063 C 
ATOM      8  C   UNL     1      36.624  10.063  62.076  1.00  0.00    -0.003 C 
ATOM      9  C   UNL     1      35.299   9.501  61.443  1.00  0.00    -0.011 C 
ATOM     10  C   UNL     1      37.285  14.082  61.740  1.00  0.00    -0.006 C 
ATOM     11  C   UNL     1      36.976  12.315  60.017  1.00  0.00    -0.027 C 
ATOM     12  C   UNL     1      37.928   9.480  61.495  1.00  0.00     0.008 C 
ATOM     13  C   UNL     1      35.191   9.472  59.908  1.00  0.00     0.008 C 
ATOM     14  C   UNL     1      38.340  14.107  62.901  1.00  0.00     0.017 C 
ATOM     15  C   UNL     1      37.778  15.074  60.547  1.00  0.00    -0.020 C 
ATOM     16  C   UNL     1      37.077  13.260  58.878  1.00  0.00     0.032 C 
ATOM     17  C   UNL     1      37.004  14.786  59.200  1.00  0.00     0.006 C 
ATOM     18  C   UNL     1      39.288  14.874  60.228  1.00  0.00     0.008 C 
ATOM     19  C   UNL     1      37.557  16.547  61.040  1.00  0.00     0.012 C 
ATOM     20  C   UNL     1      37.458  15.622  57.893  1.00  0.00    -0.025 C 
ATOM     21  C   UNL     1      39.804  15.701  59.037  1.00  0.00     0.005 C 
ATOM     22  C   UNL     1      39.031  15.538  57.691  1.00  0.00     0.003 C 
ATOM     23  C   UNL     1      36.998  17.116  57.947  1.00  0.00     0.010 C 
ATOM     24  C   UNL     1      36.697  14.993  56.673  1.00  0.00     0.012 C 
ATOM     25  C   UNL     1      39.614  16.499  56.553  1.00  0.00    -0.006 C 
ATOM     26  C   UNL     1      37.507  17.984  56.782  1.00  0.00     0.033 C 
ATOM     27  C   UNL     1      39.041  17.950  56.662  1.00  0.00     0.120 C 
ATOM     28  C   UNL     1      39.320  15.928  55.132  1.00  0.00     0.014 C 
ATOM     29  C   UNL     1      41.170  16.579  56.620  1.00  0.00     0.014 C 
ENDROOT
BRANCH   1  30
ATOM     30  C   UNL     1      35.219  11.411  64.502  1.00  0.00     0.048 C 
ATOM     31  O   UNL     1      34.104  11.401  65.090  1.00  0.00    -0.550 OA
ATOM     32  O   UNL     1      36.336  10.939  65.184  1.00  0.00    -0.550 OA
ENDBRANCH   1  30
BRANCH  27  33
ATOM     33  O   UNL     1      39.603  18.628  57.759  1.00  0.00    -0.393 OA
ATOM     34  H   UNL     1      40.583  18.677  57.604  1.00  0.00     0.210 HD
ENDBRANCH  27  33
TORSDOF 2
ENDMDL
MODEL 6
REMARK VINA RESULT:    -7.151      6.368      9.104
REMARK INTER + INTRA:          -7.733
REMARK INTER:                  -7.723
REMARK INTRA:                  -0.010
REMARK UNBOUND:                 0.045
REMARK SMILES C[C@@H]1[C@H](C)CC[C@]2(C(=O)[O-])CC[C@@]3(C)C(=CC[C@@H]4[C@@]5(C)CC[C@@H](O)C(C)(C)[C@H]5CC[C@@]43C)[C@H]12
REMARK SMILES IDX 7 1 6 2 11 3 33 4 5 5 12 6 15 7 2 8 3 9 13 10 16 11 1 12
REMARK SMILES IDX 4 13 14 14 31 15 17 16 18 17 30 18 32 19 19 20 29 21 28 22
REMARK SMILES IDX 21 23 20 24 25 25 22 26 23 27 26 28 27 29 8 30 9 31 10 32
REMARK SMILES IDX 24 33
REMARK H PARENT 24 34
REMARK Flexibility Score: inf
ROOT
ATOM      1  C   UNL     1      37.141  15.680  56.103  1.00  0.00     0.017 C 
ATOM      2  C   UNL     1      36.572  16.333  57.394  1.00  0.00     0.014 C 
ATOM      3  C   UNL     1      36.124  14.636  55.545  1.00  0.00     0.014 C 
ATOM      4  C   UNL     1      38.534  15.040  56.452  1.00  0.00     0.030 C 
ATOM      5  C   UNL     1      37.452  17.490  57.895  1.00  0.00     0.004 C 
ATOM      6  C   UNL     1      36.118  13.265  56.243  1.00  0.00     0.013 C 
ATOM      7  C   UNL     1      38.343  13.663  57.143  1.00  0.00    -0.063 C 
ATOM      8  C   UNL     1      39.494  16.118  57.093  1.00  0.00    -0.003 C 
ATOM      9  C   UNL     1      38.900  17.058  58.206  1.00  0.00    -0.011 C 
ATOM     10  C   UNL     1      37.530  12.604  56.388  1.00  0.00    -0.006 C 
ATOM     11  C   UNL     1      38.605  13.505  58.442  1.00  0.00    -0.027 C 
ATOM     12  C   UNL     1      40.934  15.628  57.348  1.00  0.00     0.008 C 
ATOM     13  C   UNL     1      39.020  16.603  59.671  1.00  0.00     0.008 C 
ATOM     14  C   UNL     1      38.188  12.403  54.977  1.00  0.00     0.017 C 
ATOM     15  C   UNL     1      37.434  11.165  57.142  1.00  0.00    -0.020 C 
ATOM     16  C   UNL     1      38.229  12.338  59.277  1.00  0.00     0.032 C 
ATOM     17  C   UNL     1      37.179  11.341  58.692  1.00  0.00     0.006 C 
ATOM     18  C   UNL     1      38.761  10.363  57.012  1.00  0.00     0.008 C 
ATOM     19  C   UNL     1      36.283  10.350  56.455  1.00  0.00     0.012 C 
ATOM     20  C   UNL     1      37.164  10.002  59.596  1.00  0.00    -0.025 C 
ATOM     21  C   UNL     1      38.786   9.036  57.791  1.00  0.00     0.005 C 
ATOM     22  C   UNL     1      38.454   9.119  59.314  1.00  0.00     0.003 C 
ATOM     23  C   UNL     1      35.868   9.151  59.386  1.00  0.00     0.010 C 
ATOM     24  C   UNL     1      37.118  10.473  61.093  1.00  0.00     0.012 C 
ATOM     25  C   UNL     1      38.440   7.672  59.997  1.00  0.00    -0.006 C 
ATOM     26  C   UNL     1      35.859   7.806  60.135  1.00  0.00     0.033 C 
ATOM     27  C   UNL     1      37.076   6.936  59.779  1.00  0.00     0.120 C 
ATOM     28  C   UNL     1      38.741   7.770  61.524  1.00  0.00     0.014 C 
ATOM     29  C   UNL     1      39.581   6.770  59.436  1.00  0.00     0.014 C 
ENDROOT
BRANCH   1  30
ATOM     30  C   UNL     1      37.275  16.732  55.001  1.00  0.00     0.048 C 
ATOM     31  O   UNL     1      36.334  17.539  54.774  1.00  0.00    -0.550 OA
ATOM     32  O   UNL     1      38.373  16.732  54.147  1.00  0.00    -0.550 OA
ENDBRANCH   1  30
BRANCH  27  33
ATOM     33  O   UNL     1      36.954   6.496  58.448  1.00  0.00    -0.393 OA
ATOM     34  H   UNL     1      37.102   7.284  57.863  1.00  0.00     0.210 HD
ENDBRANCH  27  33
TORSDOF 2
ENDMDL
MODEL 7
REMARK VINA RESULT:    -7.077      6.488      9.790
REMARK INTER + INTRA:          -7.652
REMARK INTER:                  -7.644
REMARK INTRA:                  -0.008
REMARK UNBOUND:                 0.045
REMARK SMILES C[C@@H]1[C@H](C)CC[C@]2(C(=O)[O-])CC[C@@]3(C)C(=CC[C@@H]4[C@@]5(C)CC[C@@H](O)C(C)(C)[C@H]5CC[C@@]43C)[C@H]12
REMARK SMILES IDX 7 1 6 2 11 3 33 4 5 5 12 6 15 7 2 8 3 9 13 10 16 11 1 12
REMARK SMILES IDX 4 13 14 14 31 15 17 16 18 17 30 18 32 19 19 20 29 21 28 22
REMARK SMILES IDX 21 23 20 24 25 25 22 26 23 27 26 28 27 29 8 30 9 31 10 32
REMARK SMILES IDX 24 33
REMARK H PARENT 24 34
REMARK Flexibility Score: inf
ROOT
ATOM      1  C   UNL     1      37.166   9.693  59.844  1.00  0.00     0.017 C 
ATOM      2  C   UNL     1      36.234   9.403  58.635  1.00  0.00     0.014 C 
ATOM      3  C   UNL     1      36.653  10.946  60.620  1.00  0.00     0.014 C 
ATOM      4  C   UNL     1      38.630   9.876  59.299  1.00  0.00     0.030 C 
ATOM      5  C   UNL     1      36.588   8.082  57.931  1.00  0.00     0.004 C 
ATOM      6  C   UNL     1      37.015  12.310  60.007  1.00  0.00     0.013 C 
ATOM      7  C   UNL     1      38.823  11.306  58.724  1.00  0.00    -0.063 C 
ATOM      8  C   UNL     1      39.066   8.619  58.449  1.00  0.00    -0.003 C 
ATOM      9  C   UNL     1      38.038   8.049  57.404  1.00  0.00    -0.011 C 
ATOM     10  C   UNL     1      38.533  12.485  59.661  1.00  0.00    -0.006 C 
ATOM     11  C   UNL     1      38.937  11.506  57.410  1.00  0.00    -0.027 C 
ATOM     12  C   UNL     1      40.535   8.635  57.981  1.00  0.00     0.008 C 
ATOM     13  C   UNL     1      38.097   8.593  55.966  1.00  0.00     0.008 C 
ATOM     14  C   UNL     1      39.412  12.308  60.949  1.00  0.00     0.017 C 
ATOM     15  C   UNL     1      38.826  13.948  59.011  1.00  0.00    -0.020 C 
ATOM     16  C   UNL     1      38.865  12.814  56.714  1.00  0.00     0.032 C 
ATOM     17  C   UNL     1      38.310  14.031  57.519  1.00  0.00     0.006 C 
ATOM     18  C   UNL     1      40.351  14.254  58.958  1.00  0.00     0.008 C 
ATOM     19  C   UNL     1      38.129  15.016  59.925  1.00  0.00     0.012 C 
ATOM     20  C   UNL     1      38.623  15.390  56.703  1.00  0.00    -0.025 C 
ATOM     21  C   UNL     1      40.714  15.574  58.257  1.00  0.00     0.005 C 
ATOM     22  C   UNL     1      40.163  15.768  56.810  1.00  0.00     0.003 C 
ATOM     23  C   UNL     1      37.737  16.590  57.173  1.00  0.00     0.010 C 
ATOM     24  C   UNL     1      38.209  15.122  55.212  1.00  0.00     0.012 C 
ATOM     25  C   UNL     1      40.545  17.204  56.217  1.00  0.00    -0.006 C 
ATOM     26  C   UNL     1      38.079  17.936  56.509  1.00  0.00     0.033 C 
ATOM     27  C   UNL     1      39.558  18.317  56.700  1.00  0.00     0.120 C 
ATOM     28  C   UNL     1      40.576  17.176  54.658  1.00  0.00     0.014 C 
ATOM     29  C   UNL     1      41.991  17.618  56.624  1.00  0.00     0.014 C 
ENDROOT
BRANCH   1  30
ATOM     30  C   UNL     1      37.089   8.544  60.850  1.00  0.00     0.048 C 
ATOM     31  O   UNL     1      35.977   8.025  61.139  1.00  0.00    -0.550 OA
ATOM     32  O   UNL     1      38.216   8.142  61.560  1.00  0.00    -0.550 OA
ENDBRANCH   1  30
BRANCH  27  33
ATOM     33  O   UNL     1      39.781  18.629  58.054  1.00  0.00    -0.393 OA
ATOM     34  H   UNL     1      38.901  18.591  58.513  1.00  0.00     0.210 HD
ENDBRANCH  27  33
TORSDOF 2
ENDMDL
MODEL 8
REMARK VINA RESULT:    -7.039      3.610      7.662
REMARK INTER + INTRA:          -7.611
REMARK INTER:                  -7.606
REMARK INTRA:                  -0.004
REMARK UNBOUND:                 0.045
REMARK SMILES C[C@@H]1[C@H](C)CC[C@]2(C(=O)[O-])CC[C@@]3(C)C(=CC[C@@H]4[C@@]5(C)CC[C@@H](O)C(C)(C)[C@H]5CC[C@@]43C)[C@H]12
REMARK SMILES IDX 7 1 6 2 11 3 33 4 5 5 12 6 15 7 2 8 3 9 13 10 16 11 1 12
REMARK SMILES IDX 4 13 14 14 31 15 17 16 18 17 30 18 32 19 19 20 29 21 28 22
REMARK SMILES IDX 21 23 20 24 25 25 22 26 23 27 26 28 27 29 8 30 9 31 10 32
REMARK SMILES IDX 24 33
REMARK H PARENT 24 34
REMARK Flexibility Score: inf
ROOT
ATOM      1  C   UNL     1      37.949   8.521  59.369  1.00  0.00     0.017 C 
ATOM      2  C   UNL     1      39.490   8.719  59.362  1.00  0.00     0.014 C 
ATOM      3  C   UNL     1      37.244   9.830  58.896  1.00  0.00     0.014 C 
ATOM      4  C   UNL     1      37.517   8.090  60.819  1.00  0.00     0.030 C 
ATOM      5  C   UNL     1      40.246   7.412  59.655  1.00  0.00     0.004 C 
ATOM      6  C   UNL     1      37.110  10.940  59.954  1.00  0.00     0.013 C 
ATOM      7  C   UNL     1      37.427   9.330  61.750  1.00  0.00    -0.063 C 
ATOM      8  C   UNL     1      38.324   6.813  61.280  1.00  0.00    -0.003 C 
ATOM      9  C   UNL     1      39.874   6.791  61.017  1.00  0.00    -0.011 C 
ATOM     10  C   UNL     1      36.497  10.469  61.316  1.00  0.00    -0.006 C 
ATOM     11  C   UNL     1      38.330   9.531  62.712  1.00  0.00    -0.027 C 
ATOM     12  C   UNL     1      37.880   6.226  62.636  1.00  0.00     0.008 C 
ATOM     13  C   UNL     1      40.799   7.333  62.122  1.00  0.00     0.008 C 
ATOM     14  C   UNL     1      35.065   9.867  61.093  1.00  0.00     0.017 C 
ATOM     15  C   UNL     1      36.401  11.700  62.377  1.00  0.00    -0.020 C 
ATOM     16  C   UNL     1      38.515  10.779  63.493  1.00  0.00     0.032 C 
ATOM     17  C   UNL     1      37.821  12.072  62.960  1.00  0.00     0.006 C 
ATOM     18  C   UNL     1      35.515  11.329  63.602  1.00  0.00     0.008 C 
ATOM     19  C   UNL     1      35.745  12.913  61.630  1.00  0.00     0.012 C 
ATOM     20  C   UNL     1      37.875  13.209  64.107  1.00  0.00    -0.025 C 
ATOM     21  C   UNL     1      35.463  12.403  64.702  1.00  0.00     0.005 C 
ATOM     22  C   UNL     1      36.835  12.888  65.265  1.00  0.00     0.003 C 
ATOM     23  C   UNL     1      37.628  14.646  63.541  1.00  0.00     0.010 C 
ATOM     24  C   UNL     1      39.346  13.222  64.657  1.00  0.00     0.012 C 
ATOM     25  C   UNL     1      36.654  14.054  66.346  1.00  0.00    -0.006 C 
ATOM     26  C   UNL     1      37.552  15.750  64.610  1.00  0.00     0.033 C 
ATOM     27  C   UNL     1      36.478  15.455  65.672  1.00  0.00     0.120 C 
ATOM     28  C   UNL     1      37.861  14.097  67.332  1.00  0.00     0.014 C 
ATOM     29  C   UNL     1      35.419  13.791  67.261  1.00  0.00     0.014 C 
ENDROOT
BRANCH   1  30
ATOM     30  C   UNL     1      37.555   7.462  58.337  1.00  0.00     0.048 C 
ATOM     31  O   UNL     1      38.130   7.421  57.216  1.00  0.00    -0.550 OA
ATOM     32  O   UNL     1      36.471   6.619  58.561  1.00  0.00    -0.550 OA
ENDBRANCH   1  30
BRANCH  27  33
ATOM     33  O   UNL     1      35.205  15.570  65.084  1.00  0.00    -0.393 OA
ATOM     34  H   UNL     1      34.930  14.660  64.798  1.00  0.00     0.210 HD
ENDBRANCH  27  33
TORSDOF 2
ENDMDL
MODEL 9
REMARK VINA RESULT:    -6.939      5.545      8.832
REMARK INTER + INTRA:          -7.502
REMARK INTER:                  -7.494
REMARK INTRA:                  -0.008
REMARK UNBOUND:                 0.045
REMARK SMILES C[C@@H]1[C@H](C)CC[C@]2(C(=O)[O-])CC[C@@]3(C)C(=CC[C@@H]4[C@@]5(C)CC[C@@H](O)C(C)(C)[C@H]5CC[C@@]43C)[C@H]12
REMARK SMILES IDX 7 1 6 2 11 3 33 4 5 5 12 6 15 7 2 8 3 9 13 10 16 11 1 12
REMARK SMILES IDX 4 13 14 14 31 15 17 16 18 17 30 18 32 19 19 20 29 21 28 22
REMARK SMILES IDX 21 23 20 24 25 25 22 26 23 27 26 28 27 29 8 30 9 31 10 32
REMARK SMILES IDX 24 33
REMARK H PARENT 24 34
REMARK Flexibility Score: inf
ROOT
ATOM      1  C   UNL     1      38.873  15.087  56.692  1.00  0.00     0.017 C 
ATOM      2  C   UNL     1      39.802  13.857  56.495  1.00  0.00     0.014 C 
ATOM      3  C   UNL     1      39.497  16.060  57.740  1.00  0.00     0.014 C 
ATOM      4  C   UNL     1      37.453  14.565  57.122  1.00  0.00     0.030 C 
ATOM      5  C   UNL     1      39.325  12.946  55.351  1.00  0.00     0.004 C 
ATOM      6  C   UNL     1      39.303  15.671  59.216  1.00  0.00     0.013 C 
ATOM      7  C   UNL     1      37.434  14.225  58.637  1.00  0.00    -0.063 C 
ATOM      8  C   UNL     1      36.907  13.519  56.072  1.00  0.00    -0.003 C 
ATOM      9  C   UNL     1      37.896  12.406  55.563  1.00  0.00    -0.011 C 
ATOM     10  C   UNL     1      37.824  15.342  59.613  1.00  0.00    -0.006 C 
ATOM     11  C   UNL     1      37.379  12.959  59.055  1.00  0.00    -0.027 C 
ATOM     12  C   UNL     1      35.462  13.045  56.327  1.00  0.00     0.008 C 
ATOM     13  C   UNL     1      37.936  11.074  56.332  1.00  0.00     0.008 C 
ATOM     14  C   UNL     1      36.895  16.576  59.333  1.00  0.00     0.017 C 
ATOM     15  C   UNL     1      37.710  14.933  61.184  1.00  0.00    -0.020 C 
ATOM     16  C   UNL     1      37.611  12.483  60.441  1.00  0.00     0.032 C 
ATOM     17  C   UNL     1      38.273  13.480  61.444  1.00  0.00     0.006 C 
ATOM     18  C   UNL     1      36.230  14.914  61.663  1.00  0.00     0.008 C 
ATOM     19  C   UNL     1      38.494  16.014  62.008  1.00  0.00     0.012 C 
ATOM     20  C   UNL     1      38.133  12.889  62.942  1.00  0.00    -0.025 C 
ATOM     21  C   UNL     1      36.032  14.432  63.110  1.00  0.00     0.005 C 
ATOM     22  C   UNL     1      36.641  13.040  63.468  1.00  0.00     0.003 C 
ATOM     23  C   UNL     1      39.131  13.556  63.945  1.00  0.00     0.010 C 
ATOM     24  C   UNL     1      38.556  11.379  62.869  1.00  0.00     0.012 C 
ATOM     25  C   UNL     1      36.435  12.682  65.013  1.00  0.00    -0.006 C 
ATOM     26  C   UNL     1      38.956  13.113  65.409  1.00  0.00     0.033 C 
ATOM     27  C   UNL     1      37.523  13.348  65.918  1.00  0.00     0.120 C 
ATOM     28  C   UNL     1      36.444  11.139  65.237  1.00  0.00     0.014 C 
ATOM     29  C   UNL     1      35.031  13.136  65.517  1.00  0.00     0.014 C 
ENDROOT
BRANCH   1  30
ATOM     30  C   UNL     1      38.796  15.896  55.396  1.00  0.00     0.048 C 
ATOM     31  O   UNL     1      39.841  16.131  54.730  1.00  0.00    -0.550 OA
ATOM     32  O   UNL     1      37.605  16.496  55.001  1.00  0.00    -0.550 OA
ENDBRANCH   1  30
BRANCH  27  33
ATOM     33  O   UNL     1      37.298  14.732  66.034  1.00  0.00    -0.393 OA
ATOM     34  H   UNL     1      36.786  15.015  65.231  1.00  0.00     0.210 HD
ENDBRANCH  27  33
TORSDOF 2
ENDMDL
