MODEL 1
REMARK VINA RESULT:    -5.724      0.000      0.000
REMARK INTER + INTRA:         -14.447
REMARK INTER:                 -13.085
REMARK INTRA:                  -1.362
REMARK UNBOUND:                -1.362
REMARK SMILES CCCCCCCCCCCCCCCCCCCCCCCC(=O)[O-]
REMARK SMILES IDX 13 1 14 2 15 3 16 4 17 5 18 6 19 7 20 8 21 9 22 10 23 11
REMARK SMILES IDX 24 12 25 13 26 14 12 15 11 16 10 17 9 18 8 19 7 20 6 21 5 22
REMARK SMILES IDX 4 23 3 24 2 25 1 26
REMARK H PARENT
REMARK Flexibility Score: inf
ROOT
ATOM      1  C   UNL     1      27.855  41.105  32.323  1.00  0.00     0.000 C 
ENDROOT
BRANCH   1   2
ATOM      2  C   UNL     1      28.171  39.607  32.202  1.00  0.00     0.000 C 
BRANCH   2   3
ATOM      3  C   UNL     1      27.756  38.851  33.473  1.00  0.00     0.000 C 
BRANCH   3   4
ATOM      4  C   UNL     1      27.539  37.346  33.228  1.00  0.00     0.000 C 
BRANCH   4   5
ATOM      5  C   UNL     1      27.126  36.975  31.789  1.00  0.00     0.000 C 
BRANCH   5   6
ATOM      6  C   UNL     1      28.180  36.184  30.994  1.00  0.00     0.000 C 
BRANCH   6   7
ATOM      7  C   UNL     1      28.614  34.893  31.703  1.00  0.00     0.000 C 
BRANCH   7   8
ATOM      8  C   UNL     1      27.487  33.849  31.686  1.00  0.00     0.000 C 
BRANCH   8   9
ATOM      9  C   UNL     1      27.021  33.501  30.264  1.00  0.00     0.000 C 
BRANCH   9  10
ATOM     10  C   UNL     1      25.564  33.919  29.998  1.00  0.00     0.006 C 
BRANCH  10  11
ATOM     11  C   UNL     1      24.637  32.710  29.819  1.00  0.00     0.053 C 
BRANCH  11  12
ATOM     12  C   UNL     1      24.523  32.305  28.382  1.00  0.00     0.041 C 
ATOM     13  O   UNL     1      23.494  32.604  27.720  1.00  0.00    -0.550 OA
ATOM     14  O   UNL     1      25.540  31.571  27.781  1.00  0.00    -0.550 OA
ENDBRANCH  11  12
ENDBRANCH  10  11
ENDBRANCH   9  10
ENDBRANCH   8   9
ENDBRANCH   7   8
ENDBRANCH   6   7
ENDBRANCH   5   6
ENDBRANCH   4   5
ENDBRANCH   3   4
ENDBRANCH   2   3
ENDBRANCH   1   2
BRANCH   1  15
ATOM     15  C   UNL     1      27.253  41.480  33.689  1.00  0.00     0.000 C 
BRANCH  15  16
ATOM     16  C   UNL     1      27.926  42.677  34.390  1.00  0.00     0.000 C 
BRANCH  16  17
ATOM     17  C   UNL     1      27.020  43.465  35.357  1.00  0.00     0.000 C 
BRANCH  17  18
ATOM     18  C   UNL     1      25.606  42.886  35.541  1.00  0.00    -0.000 C 
BRANCH  18  19
ATOM     19  C   UNL     1      24.541  43.903  35.997  1.00  0.00    -0.000 C 
BRANCH  19  20
ATOM     20  C   UNL     1      23.128  43.617  35.444  1.00  0.00    -0.000 C 
BRANCH  20  21
ATOM     21  C   UNL     1      22.365  44.905  35.089  1.00  0.00    -0.000 C 
BRANCH  21  22
ATOM     22  C   UNL     1      20.927  44.914  35.632  1.00  0.00    -0.000 C 
BRANCH  22  23
ATOM     23  C   UNL     1      19.926  45.538  34.644  1.00  0.00    -0.000 C 
BRANCH  23  24
ATOM     24  C   UNL     1      20.338  46.951  34.202  1.00  0.00    -0.000 C 
BRANCH  24  25
ATOM     25  C   UNL     1      20.328  47.121  32.674  1.00  0.00    -0.003 C 
ATOM     26  C   UNL     1      20.418  45.769  31.972  1.00  0.00     0.004 C 
ENDBRANCH  24  25
ENDBRANCH  23  24
ENDBRANCH  22  23
ENDBRANCH  21  22
ENDBRANCH  20  21
ENDBRANCH  19  20
ENDBRANCH  18  19
ENDBRANCH  17  18
ENDBRANCH  16  17
ENDBRANCH  15  16
ENDBRANCH   1  15
TORSDOF 22
ENDMDL
MODEL 2
REMARK VINA RESULT:    -5.574      4.435     11.614
REMARK INTER + INTRA:         -14.105
REMARK INTER:                 -12.740
REMARK INTRA:                  -1.365
REMARK UNBOUND:                -1.362
REMARK SMILES CCCCCCCCCCCCCCCCCCCCCCCC(=O)[O-]
REMARK SMILES IDX 13 1 14 2 15 3 16 4 17 5 18 6 19 7 20 8 21 9 22 10 23 11
REMARK SMILES IDX 24 12 25 13 26 14 12 15 11 16 10 17 9 18 8 19 7 20 6 21 5 22
REMARK SMILES IDX 4 23 3 24 2 25 1 26
REMARK H PARENT
REMARK Flexibility Score: inf
ROOT
ATOM      1  C   UNL     1      26.229  42.338  35.104  1.00  0.00     0.000 C 
ENDROOT
BRANCH   1   2
ATOM      2  C   UNL     1      25.963  43.767  35.604  1.00  0.00     0.000 C 
BRANCH   2   3
ATOM      3  C   UNL     1      24.590  43.867  36.284  1.00  0.00     0.000 C 
BRANCH   3   4
ATOM      4  C   UNL     1      23.427  43.923  35.276  1.00  0.00     0.000 C 
BRANCH   4   5
ATOM      5  C   UNL     1      22.115  44.517  35.828  1.00  0.00     0.000 C 
BRANCH   5   6
ATOM      6  C   UNL     1      22.213  45.974  36.313  1.00  0.00     0.000 C 
BRANCH   6   7
ATOM      7  C   UNL     1      22.095  46.991  35.168  1.00  0.00     0.000 C 
BRANCH   7   8
ATOM      8  C   UNL     1      20.643  47.101  34.676  1.00  0.00     0.000 C 
BRANCH   8   9
ATOM      9  C   UNL     1      20.520  46.953  33.151  1.00  0.00     0.000 C 
BRANCH   9  10
ATOM     10  C   UNL     1      19.864  45.625  32.735  1.00  0.00     0.006 C 
BRANCH  10  11
ATOM     11  C   UNL     1      18.948  45.063  33.830  1.00  0.00     0.053 C 
BRANCH  11  12
ATOM     12  C   UNL     1      17.500  45.261  33.499  1.00  0.00     0.041 C 
ATOM     13  O   UNL     1      16.993  44.679  32.504  1.00  0.00    -0.550 OA
ATOM     14  O   UNL     1      16.719  46.111  34.273  1.00  0.00    -0.550 OA
ENDBRANCH  11  12
ENDBRANCH  10  11
ENDBRANCH   9  10
ENDBRANCH   8   9
ENDBRANCH   7   8
ENDBRANCH   6   7
ENDBRANCH   5   6
ENDBRANCH   4   5
ENDBRANCH   3   4
ENDBRANCH   2   3
ENDBRANCH   1   2
BRANCH   1  15
ATOM     15  C   UNL     1      27.652  42.157  34.548  1.00  0.00     0.000 C 
BRANCH  15  16
ATOM     16  C   UNL     1      27.725  41.830  33.043  1.00  0.00     0.000 C 
BRANCH  16  17
ATOM     17  C   UNL     1      27.807  40.328  32.701  1.00  0.00     0.000 C 
BRANCH  17  18
ATOM     18  C   UNL     1      27.736  39.381  33.912  1.00  0.00    -0.000 C 
BRANCH  18  19
ATOM     19  C   UNL     1      27.728  37.880  33.563  1.00  0.00    -0.000 C 
BRANCH  19  20
ATOM     20  C   UNL     1      27.092  37.562  32.191  1.00  0.00    -0.000 C 
BRANCH  20  21
ATOM     21  C   UNL     1      27.742  36.344  31.512  1.00  0.00    -0.000 C 
BRANCH  21  22
ATOM     22  C   UNL     1      26.752  35.542  30.653  1.00  0.00    -0.000 C 
BRANCH  22  23
ATOM     23  C   UNL     1      27.334  34.200  30.174  1.00  0.00    -0.000 C 
BRANCH  23  24
ATOM     24  C   UNL     1      26.263  33.105  30.052  1.00  0.00    -0.000 C 
BRANCH  24  25
ATOM     25  C   UNL     1      24.861  33.673  29.782  1.00  0.00    -0.003 C 
ATOM     26  C   UNL     1      23.885  32.565  29.398  1.00  0.00     0.004 C 
ENDBRANCH  24  25
ENDBRANCH  23  24
ENDBRANCH  22  23
ENDBRANCH  21  22
ENDBRANCH  20  21
ENDBRANCH  19  20
ENDBRANCH  18  19
ENDBRANCH  17  18
ENDBRANCH  16  17
ENDBRANCH  15  16
ENDBRANCH   1  15
TORSDOF 22
ENDMDL
MODEL 3
REMARK VINA RESULT:    -5.564      4.193     11.373
REMARK INTER + INTRA:         -14.081
REMARK INTER:                 -12.850
REMARK INTRA:                  -1.231
REMARK UNBOUND:                -1.362
REMARK SMILES CCCCCCCCCCCCCCCCCCCCCCCC(=O)[O-]
REMARK SMILES IDX 13 1 14 2 15 3 16 4 17 5 18 6 19 7 20 8 21 9 22 10 23 11
REMARK SMILES IDX 24 12 25 13 26 14 12 15 11 16 10 17 9 18 8 19 7 20 6 21 5 22
REMARK SMILES IDX 4 23 3 24 2 25 1 26
REMARK H PARENT
REMARK Flexibility Score: inf
ROOT
ATOM      1  C   UNL     1      27.153  42.069  34.569  1.00  0.00     0.000 C 
ENDROOT
BRANCH   1   2
ATOM      2  C   UNL     1      27.159  43.360  35.403  1.00  0.00     0.000 C 
BRANCH   2   3
ATOM      3  C   UNL     1      25.875  43.486  36.236  1.00  0.00     0.000 C 
BRANCH   3   4
ATOM      4  C   UNL     1      24.709  42.660  35.662  1.00  0.00     0.000 C 
BRANCH   4   5
ATOM      5  C   UNL     1      23.505  43.489  35.169  1.00  0.00     0.000 C 
BRANCH   5   6
ATOM      6  C   UNL     1      23.136  44.691  36.056  1.00  0.00     0.000 C 
BRANCH   6   7
ATOM      7  C   UNL     1      21.845  45.389  35.604  1.00  0.00     0.000 C 
BRANCH   7   8
ATOM      8  C   UNL     1      20.657  44.980  36.490  1.00  0.00     0.000 C 
BRANCH   8   9
ATOM      9  C   UNL     1      19.362  44.776  35.689  1.00  0.00     0.000 C 
BRANCH   9  10
ATOM     10  C   UNL     1      19.142  45.869  34.628  1.00  0.00     0.006 C 
BRANCH  10  11
ATOM     11  C   UNL     1      19.138  45.302  33.203  1.00  0.00     0.053 C 
BRANCH  11  12
ATOM     12  C   UNL     1      20.167  45.962  32.338  1.00  0.00     0.041 C 
ATOM     13  O   UNL     1      20.378  47.200  32.439  1.00  0.00    -0.550 OA
ATOM     14  O   UNL     1      20.873  45.216  31.402  1.00  0.00    -0.550 OA
ENDBRANCH  11  12
ENDBRANCH  10  11
ENDBRANCH   9  10
ENDBRANCH   8   9
ENDBRANCH   7   8
ENDBRANCH   6   7
ENDBRANCH   5   6
ENDBRANCH   4   5
ENDBRANCH   3   4
ENDBRANCH   2   3
ENDBRANCH   1   2
BRANCH   1  15
ATOM     15  C   UNL     1      27.846  42.237  33.205  1.00  0.00     0.000 C 
BRANCH  15  16
ATOM     16  C   UNL     1      27.834  40.981  32.312  1.00  0.00     0.000 C 
BRANCH  16  17
ATOM     17  C   UNL     1      27.765  39.638  33.068  1.00  0.00     0.000 C 
BRANCH  17  18
ATOM     18  C   UNL     1      27.861  38.386  32.178  1.00  0.00    -0.000 C 
BRANCH  18  19
ATOM     19  C   UNL     1      26.850  37.272  32.513  1.00  0.00    -0.000 C 
BRANCH  19  20
ATOM     20  C   UNL     1      27.414  36.176  33.444  1.00  0.00    -0.000 C 
BRANCH  20  21
ATOM     21  C   UNL     1      28.399  35.242  32.720  1.00  0.00    -0.000 C 
BRANCH  21  22
ATOM     22  C   UNL     1      27.738  33.946  32.227  1.00  0.00    -0.000 C 
BRANCH  22  23
ATOM     23  C   UNL     1      27.106  34.097  30.832  1.00  0.00    -0.000 C 
BRANCH  23  24
ATOM     24  C   UNL     1      28.087  33.748  29.701  1.00  0.00    -0.000 C 
BRANCH  24  25
ATOM     25  C   UNL     1      29.236  34.762  29.579  1.00  0.00    -0.003 C 
ATOM     26  C   UNL     1      28.887  35.869  28.588  1.00  0.00     0.004 C 
ENDBRANCH  24  25
ENDBRANCH  23  24
ENDBRANCH  22  23
ENDBRANCH  21  22
ENDBRANCH  20  21
ENDBRANCH  19  20
ENDBRANCH  18  19
ENDBRANCH  17  18
ENDBRANCH  16  17
ENDBRANCH  15  16
ENDBRANCH   1  15
TORSDOF 22
ENDMDL
MODEL 4
REMARK VINA RESULT:    -5.541      2.374      5.742
REMARK INTER + INTRA:         -14.030
REMARK INTER:                 -11.800
REMARK INTRA:                  -2.229
REMARK UNBOUND:                -1.362
REMARK SMILES CCCCCCCCCCCCCCCCCCCCCCCC(=O)[O-]
REMARK SMILES IDX 13 1 14 2 15 3 16 4 17 5 18 6 19 7 20 8 21 9 22 10 23 11
REMARK SMILES IDX 24 12 25 13 26 14 12 15 11 16 10 17 9 18 8 19 7 20 6 21 5 22
REMARK SMILES IDX 4 23 3 24 2 25 1 26
REMARK H PARENT
REMARK Flexibility Score: inf
ROOT
ATOM      1  C   UNL     1      23.182  43.902  35.350  1.00  0.00     0.000 C 
ENDROOT
BRANCH   1   2
ATOM      2  C   UNL     1      24.454  43.880  36.211  1.00  0.00     0.000 C 
BRANCH   2   3
ATOM      3  C   UNL     1      25.518  42.955  35.602  1.00  0.00     0.000 C 
BRANCH   3   4
ATOM      4  C   UNL     1      26.858  43.670  35.352  1.00  0.00     0.000 C 
BRANCH   4   5
ATOM      5  C   UNL     1      27.855  42.894  34.467  1.00  0.00     0.000 C 
BRANCH   5   6
ATOM      6  C   UNL     1      27.300  41.602  33.841  1.00  0.00     0.000 C 
BRANCH   6   7
ATOM      7  C   UNL     1      27.909  41.300  32.464  1.00  0.00     0.000 C 
BRANCH   7   8
ATOM      8  C   UNL     1      27.999  39.785  32.221  1.00  0.00     0.000 C 
BRANCH   8   9
ATOM      9  C   UNL     1      27.752  38.964  33.496  1.00  0.00     0.000 C 
BRANCH   9  10
ATOM     10  C   UNL     1      27.560  37.464  33.207  1.00  0.00     0.006 C 
BRANCH  10  11
ATOM     11  C   UNL     1      27.598  37.153  31.705  1.00  0.00     0.053 C 
BRANCH  11  12
ATOM     12  C   UNL     1      27.818  35.695  31.444  1.00  0.00     0.041 C 
ATOM     13  O   UNL     1      27.336  35.157  30.412  1.00  0.00    -0.550 OA
ATOM     14  O   UNL     1      28.529  34.923  32.356  1.00  0.00    -0.550 OA
ENDBRANCH  11  12
ENDBRANCH  10  11
ENDBRANCH   9  10
ENDBRANCH   8   9
ENDBRANCH   7   8
ENDBRANCH   6   7
ENDBRANCH   5   6
ENDBRANCH   4   5
ENDBRANCH   3   4
ENDBRANCH   2   3
ENDBRANCH   1   2
BRANCH   1  15
ATOM     15  C   UNL     1      22.032  44.688  36.005  1.00  0.00     0.000 C 
BRANCH  15  16
ATOM     16  C   UNL     1      22.391  46.124  36.438  1.00  0.00     0.000 C 
BRANCH  16  17
ATOM     17  C   UNL     1      22.040  47.225  35.417  1.00  0.00     0.000 C 
BRANCH  17  18
ATOM     18  C   UNL     1      20.735  46.993  34.634  1.00  0.00    -0.000 C 
BRANCH  18  19
ATOM     19  C   UNL     1      19.743  48.172  34.662  1.00  0.00    -0.000 C 
BRANCH  19  20
ATOM     20  C   UNL     1      18.428  47.862  35.412  1.00  0.00    -0.000 C 
BRANCH  20  21
ATOM     21  C   UNL     1      18.644  46.919  36.609  1.00  0.00    -0.000 C 
BRANCH  21  22
ATOM     22  C   UNL     1      17.666  45.735  36.617  1.00  0.00    -0.000 C 
BRANCH  22  23
ATOM     23  C   UNL     1      18.304  44.434  36.098  1.00  0.00    -0.000 C 
BRANCH  23  24
ATOM     24  C   UNL     1      18.087  44.234  34.590  1.00  0.00    -0.000 C 
BRANCH  24  25
ATOM     25  C   UNL     1      16.709  44.723  34.118  1.00  0.00    -0.003 C 
ATOM     26  C   UNL     1      16.839  45.660  32.921  1.00  0.00     0.004 C 
ENDBRANCH  24  25
ENDBRANCH  23  24
ENDBRANCH  22  23
ENDBRANCH  21  22
ENDBRANCH  20  21
ENDBRANCH  19  20
ENDBRANCH  18  19
ENDBRANCH  17  18
ENDBRANCH  16  17
ENDBRANCH  15  16
ENDBRANCH   1  15
TORSDOF 22
ENDMDL
MODEL 5
REMARK VINA RESULT:    -5.522      2.632      6.412
REMARK INTER + INTRA:         -13.986
REMARK INTER:                 -12.024
REMARK INTRA:                  -1.962
REMARK UNBOUND:                -1.362
REMARK SMILES CCCCCCCCCCCCCCCCCCCCCCCC(=O)[O-]
REMARK SMILES IDX 13 1 14 2 15 3 16 4 17 5 18 6 19 7 20 8 21 9 22 10 23 11
REMARK SMILES IDX 24 12 25 13 26 14 12 15 11 16 10 17 9 18 8 19 7 20 6 21 5 22
REMARK SMILES IDX 4 23 3 24 2 25 1 26
REMARK H PARENT
REMARK Flexibility Score: inf
ROOT
ATOM      1  C   UNL     1      23.199  44.664  36.034  1.00  0.00     0.000 C 
ENDROOT
BRANCH   1   2
ATOM      2  C   UNL     1      23.363  43.427  35.139  1.00  0.00     0.000 C 
BRANCH   2   3
ATOM      3  C   UNL     1      24.614  42.625  35.530  1.00  0.00     0.000 C 
BRANCH   3   4
ATOM      4  C   UNL     1      25.724  43.507  36.130  1.00  0.00     0.000 C 
BRANCH   4   5
ATOM      5  C   UNL     1      26.872  43.857  35.161  1.00  0.00     0.000 C 
BRANCH   5   6
ATOM      6  C   UNL     1      27.935  42.758  34.987  1.00  0.00     0.000 C 
BRANCH   6   7
ATOM      7  C   UNL     1      27.792  41.997  33.661  1.00  0.00     0.000 C 
BRANCH   7   8
ATOM      8  C   UNL     1      27.123  40.631  33.878  1.00  0.00     0.000 C 
BRANCH   8   9
ATOM      9  C   UNL     1      28.140  39.487  34.017  1.00  0.00     0.000 C 
BRANCH   9  10
ATOM     10  C   UNL     1      27.500  38.100  33.834  1.00  0.00     0.006 C 
BRANCH  10  11
ATOM     11  C   UNL     1      27.302  37.742  32.356  1.00  0.00     0.053 C 
BRANCH  11  12
ATOM     12  C   UNL     1      27.110  36.270  32.160  1.00  0.00     0.041 C 
ATOM     13  O   UNL     1      26.442  35.843  31.181  1.00  0.00    -0.550 OA
ATOM     14  O   UNL     1      27.644  35.370  33.075  1.00  0.00    -0.550 OA
ENDBRANCH  11  12
ENDBRANCH  10  11
ENDBRANCH   9  10
ENDBRANCH   8   9
ENDBRANCH   7   8
ENDBRANCH   6   7
ENDBRANCH   5   6
ENDBRANCH   4   5
ENDBRANCH   3   4
ENDBRANCH   2   3
ENDBRANCH   1   2
BRANCH   1  15
ATOM     15  C   UNL     1      21.724  45.008  36.311  1.00  0.00     0.000 C 
BRANCH  15  16
ATOM     16  C   UNL     1      21.344  46.483  36.070  1.00  0.00     0.000 C 
BRANCH  16  17
ATOM     17  C   UNL     1      21.738  47.044  34.689  1.00  0.00     0.000 C 
BRANCH  17  18
ATOM     18  C   UNL     1      20.561  47.294  33.729  1.00  0.00    -0.000 C 
BRANCH  18  19
ATOM     19  C   UNL     1      20.032  46.038  33.008  1.00  0.00    -0.000 C 
BRANCH  19  20
ATOM     20  C   UNL     1      18.496  46.011  32.847  1.00  0.00    -0.000 C 
BRANCH  20  21
ATOM     21  C   UNL     1      17.855  44.797  33.539  1.00  0.00    -0.000 C 
BRANCH  21  22
ATOM     22  C   UNL     1      18.495  44.479  34.899  1.00  0.00    -0.000 C 
BRANCH  22  23
ATOM     23  C   UNL     1      17.458  44.374  36.032  1.00  0.00    -0.000 C 
BRANCH  23  24
ATOM     24  C   UNL     1      17.890  45.133  37.297  1.00  0.00    -0.000 C 
BRANCH  24  25
ATOM     25  C   UNL     1      18.712  44.263  38.259  1.00  0.00    -0.003 C 
ATOM     26  C   UNL     1      17.806  43.522  39.239  1.00  0.00     0.004 C 
ENDBRANCH  24  25
ENDBRANCH  23  24
ENDBRANCH  22  23
ENDBRANCH  21  22
ENDBRANCH  20  21
ENDBRANCH  19  20
ENDBRANCH  18  19
ENDBRANCH  17  18
ENDBRANCH  16  17
ENDBRANCH  15  16
ENDBRANCH   1  15
TORSDOF 22
ENDMDL
MODEL 6
REMARK VINA RESULT:    -5.489      3.810      7.167
REMARK INTER + INTRA:         -13.910
REMARK INTER:                 -12.651
REMARK INTRA:                  -1.259
REMARK UNBOUND:                -1.362
REMARK SMILES CCCCCCCCCCCCCCCCCCCCCCCC(=O)[O-]
REMARK SMILES IDX 13 1 14 2 15 3 16 4 17 5 18 6 19 7 20 8 21 9 22 10 23 11
REMARK SMILES IDX 24 12 25 13 26 14 12 15 11 16 10 17 9 18 8 19 7 20 6 21 5 22
REMARK SMILES IDX 4 23 3 24 2 25 1 26
REMARK H PARENT
REMARK Flexibility Score: inf
ROOT
ATOM      1  C   UNL     1      23.099  44.471  35.804  1.00  0.00     0.000 C 
ENDROOT
BRANCH   1   2
ATOM      2  C   UNL     1      23.604  43.219  35.072  1.00  0.00     0.000 C 
BRANCH   2   3
ATOM      3  C   UNL     1      24.777  42.574  35.825  1.00  0.00     0.000 C 
BRANCH   3   4
ATOM      4  C   UNL     1      25.867  43.591  36.213  1.00  0.00     0.000 C 
BRANCH   4   5
ATOM      5  C   UNL     1      26.885  43.910  35.099  1.00  0.00     0.000 C 
BRANCH   5   6
ATOM      6  C   UNL     1      27.987  42.854  34.901  1.00  0.00     0.000 C 
BRANCH   6   7
ATOM      7  C   UNL     1      27.812  42.048  33.606  1.00  0.00     0.000 C 
BRANCH   7   8
ATOM      8  C   UNL     1      27.111  40.708  33.880  1.00  0.00     0.000 C 
BRANCH   8   9
ATOM      9  C   UNL     1      28.090  39.525  33.925  1.00  0.00     0.000 C 
BRANCH   9  10
ATOM     10  C   UNL     1      27.393  38.170  33.709  1.00  0.00     0.006 C 
BRANCH  10  11
ATOM     11  C   UNL     1      27.202  37.846  32.222  1.00  0.00     0.053 C 
BRANCH  11  12
ATOM     12  C   UNL     1      27.240  36.370  31.966  1.00  0.00     0.041 C 
ATOM     13  O   UNL     1      28.035  35.636  32.610  1.00  0.00    -0.550 OA
ATOM     14  O   UNL     1      26.417  35.811  30.994  1.00  0.00    -0.550 OA
ENDBRANCH  11  12
ENDBRANCH  10  11
ENDBRANCH   9  10
ENDBRANCH   8   9
ENDBRANCH   7   8
ENDBRANCH   6   7
ENDBRANCH   5   6
ENDBRANCH   4   5
ENDBRANCH   3   4
ENDBRANCH   2   3
ENDBRANCH   1   2
BRANCH   1  15
ATOM     15  C   UNL     1      21.984  45.202  35.035  1.00  0.00     0.000 C 
BRANCH  15  16
ATOM     16  C   UNL     1      20.550  44.859  35.487  1.00  0.00     0.000 C 
BRANCH  16  17
ATOM     17  C   UNL     1      19.444  45.757  34.898  1.00  0.00     0.000 C 
BRANCH  17  18
ATOM     18  C   UNL     1      18.184  45.011  34.424  1.00  0.00    -0.000 C 
BRANCH  18  19
ATOM     19  C   UNL     1      17.847  45.188  32.930  1.00  0.00    -0.000 C 
BRANCH  19  20
ATOM     20  C   UNL     1      16.343  45.047  32.609  1.00  0.00    -0.000 C 
BRANCH  20  21
ATOM     21  C   UNL     1      15.781  46.279  31.879  1.00  0.00    -0.000 C 
BRANCH  21  22
ATOM     22  C   UNL     1      14.733  45.915  30.816  1.00  0.00    -0.000 C 
BRANCH  22  23
ATOM     23  C   UNL     1      13.502  45.211  31.414  1.00  0.00    -0.000 C 
BRANCH  23  24
ATOM     24  C   UNL     1      13.036  44.018  30.565  1.00  0.00    -0.000 C 
BRANCH  24  25
ATOM     25  C   UNL     1      13.599  42.678  31.065  1.00  0.00    -0.003 C 
ATOM     26  C   UNL     1      14.883  42.313  30.326  1.00  0.00     0.004 C 
ENDBRANCH  24  25
ENDBRANCH  23  24
ENDBRANCH  22  23
ENDBRANCH  21  22
ENDBRANCH  20  21
ENDBRANCH  19  20
ENDBRANCH  18  19
ENDBRANCH  17  18
ENDBRANCH  16  17
ENDBRANCH  15  16
ENDBRANCH   1  15
TORSDOF 22
ENDMDL
MODEL 7
REMARK VINA RESULT:    -5.470      2.413      4.690
REMARK INTER + INTRA:         -13.867
REMARK INTER:                 -12.645
REMARK INTRA:                  -1.221
REMARK UNBOUND:                -1.362
REMARK SMILES CCCCCCCCCCCCCCCCCCCCCCCC(=O)[O-]
REMARK SMILES IDX 13 1 14 2 15 3 16 4 17 5 18 6 19 7 20 8 21 9 22 10 23 11
REMARK SMILES IDX 24 12 25 13 26 14 12 15 11 16 10 17 9 18 8 19 7 20 6 21 5 22
REMARK SMILES IDX 4 23 3 24 2 25 1 26
REMARK H PARENT
REMARK Flexibility Score: inf
ROOT
ATOM      1  C   UNL     1      25.521  42.890  35.506  1.00  0.00     0.000 C 
ENDROOT
BRANCH   1   2
ATOM      2  C   UNL     1      26.866  43.600  35.290  1.00  0.00     0.000 C 
BRANCH   2   3
ATOM      3  C   UNL     1      27.900  42.649  34.669  1.00  0.00     0.000 C 
BRANCH   3   4
ATOM      4  C   UNL     1      27.254  41.430  33.986  1.00  0.00     0.000 C 
BRANCH   4   5
ATOM      5  C   UNL     1      27.890  41.024  32.641  1.00  0.00     0.000 C 
BRANCH   5   6
ATOM      6  C   UNL     1      27.892  39.513  32.351  1.00  0.00     0.000 C 
BRANCH   6   7
ATOM      7  C   UNL     1      27.476  38.674  33.569  1.00  0.00     0.000 C 
BRANCH   7   8
ATOM      8  C   UNL     1      27.530  37.172  33.248  1.00  0.00     0.000 C 
BRANCH   8   9
ATOM      9  C   UNL     1      27.011  36.847  31.838  1.00  0.00     0.000 C 
BRANCH   9  10
ATOM     10  C   UNL     1      27.979  35.955  31.041  1.00  0.00     0.006 C 
BRANCH  10  11
ATOM     11  C   UNL     1      28.624  34.873  31.916  1.00  0.00     0.053 C 
BRANCH  11  12
ATOM     12  C   UNL     1      27.869  33.580  31.848  1.00  0.00     0.041 C 
ATOM     13  O   UNL     1      28.045  32.698  32.730  1.00  0.00    -0.550 OA
ATOM     14  O   UNL     1      26.994  33.339  30.796  1.00  0.00    -0.550 OA
ENDBRANCH  11  12
ENDBRANCH  10  11
ENDBRANCH   9  10
ENDBRANCH   8   9
ENDBRANCH   7   8
ENDBRANCH   6   7
ENDBRANCH   5   6
ENDBRANCH   4   5
ENDBRANCH   3   4
ENDBRANCH   2   3
ENDBRANCH   1   2
BRANCH   1  15
ATOM     15  C   UNL     1      24.482  43.780  36.210  1.00  0.00     0.000 C 
BRANCH  15  16
ATOM     16  C   UNL     1      23.140  43.925  35.466  1.00  0.00     0.000 C 
BRANCH  16  17
ATOM     17  C   UNL     1      22.142  44.916  36.099  1.00  0.00     0.000 C 
BRANCH  17  18
ATOM     18  C   UNL     1      20.916  45.248  35.230  1.00  0.00    -0.000 C 
BRANCH  18  19
ATOM     19  C   UNL     1      21.097  46.450  34.282  1.00  0.00    -0.000 C 
BRANCH  19  20
ATOM     20  C   UNL     1      19.869  47.384  34.218  1.00  0.00    -0.000 C 
BRANCH  20  21
ATOM     21  C   UNL     1      18.543  46.623  34.394  1.00  0.00    -0.000 C 
BRANCH  21  22
ATOM     22  C   UNL     1      17.988  46.078  33.070  1.00  0.00    -0.000 C 
BRANCH  22  23
ATOM     23  C   UNL     1      17.332  44.694  33.227  1.00  0.00    -0.000 C 
BRANCH  23  24
ATOM     24  C   UNL     1      16.208  44.457  32.207  1.00  0.00    -0.000 C 
BRANCH  24  25
ATOM     25  C   UNL     1      14.859  45.031  32.667  1.00  0.00    -0.003 C 
ATOM     26  C   UNL     1      14.373  44.340  33.938  1.00  0.00     0.004 C 
ENDBRANCH  24  25
ENDBRANCH  23  24
ENDBRANCH  22  23
ENDBRANCH  21  22
ENDBRANCH  20  21
ENDBRANCH  19  20
ENDBRANCH  18  19
ENDBRANCH  17  18
ENDBRANCH  16  17
ENDBRANCH  15  16
ENDBRANCH   1  15
TORSDOF 22
ENDMDL
MODEL 8
REMARK VINA RESULT:    -5.441      3.296      6.774
REMARK INTER + INTRA:         -13.801
REMARK INTER:                 -12.468
REMARK INTRA:                  -1.333
REMARK UNBOUND:                -1.362
REMARK SMILES CCCCCCCCCCCCCCCCCCCCCCCC(=O)[O-]
REMARK SMILES IDX 13 1 14 2 15 3 16 4 17 5 18 6 19 7 20 8 21 9 22 10 23 11
REMARK SMILES IDX 24 12 25 13 26 14 12 15 11 16 10 17 9 18 8 19 7 20 6 21 5 22
REMARK SMILES IDX 4 23 3 24 2 25 1 26
REMARK H PARENT
REMARK Flexibility Score: inf
ROOT
ATOM      1  C   UNL     1      22.015  44.725  35.651  1.00  0.00     0.000 C 
ENDROOT
BRANCH   1   2
ATOM      2  C   UNL     1      23.088  43.729  35.185  1.00  0.00     0.000 C 
BRANCH   2   3
ATOM      3  C   UNL     1      24.383  43.893  35.994  1.00  0.00     0.000 C 
BRANCH   3   4
ATOM      4  C   UNL     1      25.509  42.958  35.515  1.00  0.00     0.000 C 
BRANCH   4   5
ATOM      5  C   UNL     1      26.885  43.632  35.341  1.00  0.00     0.000 C 
BRANCH   5   6
ATOM      6  C   UNL     1      27.870  42.876  34.432  1.00  0.00     0.000 C 
BRANCH   6   7
ATOM      7  C   UNL     1      27.288  41.563  33.888  1.00  0.00     0.000 C 
BRANCH   7   8
ATOM      8  C   UNL     1      27.855  41.243  32.496  1.00  0.00     0.000 C 
BRANCH   8   9
ATOM      9  C   UNL     1      27.951  39.734  32.226  1.00  0.00     0.000 C 
BRANCH   9  10
ATOM     10  C   UNL     1      28.266  38.923  33.495  1.00  0.00     0.006 C 
BRANCH  10  11
ATOM     11  C   UNL     1      27.164  37.909  33.826  1.00  0.00     0.053 C 
BRANCH  11  12
ATOM     12  C   UNL     1      27.520  36.530  33.363  1.00  0.00     0.041 C 
ATOM     13  O   UNL     1      27.885  36.336  32.174  1.00  0.00    -0.550 OA
ATOM     14  O   UNL     1      27.420  35.454  34.239  1.00  0.00    -0.550 OA
ENDBRANCH  11  12
ENDBRANCH  10  11
ENDBRANCH   9  10
ENDBRANCH   8   9
ENDBRANCH   7   8
ENDBRANCH   6   7
ENDBRANCH   5   6
ENDBRANCH   4   5
ENDBRANCH   3   4
ENDBRANCH   2   3
ENDBRANCH   1   2
BRANCH   1  15
ATOM     15  C   UNL     1      22.555  45.753  36.662  1.00  0.00     0.000 C 
BRANCH  15  16
ATOM     16  C   UNL     1      21.939  47.162  36.548  1.00  0.00     0.000 C 
BRANCH  16  17
ATOM     17  C   UNL     1      21.724  47.670  35.108  1.00  0.00     0.000 C 
BRANCH  17  18
ATOM     18  C   UNL     1      20.297  48.155  34.796  1.00  0.00    -0.000 C 
BRANCH  18  19
ATOM     19  C   UNL     1      19.194  47.097  34.989  1.00  0.00    -0.000 C 
BRANCH  19  20
ATOM     20  C   UNL     1      18.667  46.497  33.666  1.00  0.00    -0.000 C 
BRANCH  20  21
ATOM     21  C   UNL     1      17.324  45.768  33.847  1.00  0.00    -0.000 C 
BRANCH  21  22
ATOM     22  C   UNL     1      17.181  44.547  32.925  1.00  0.00    -0.000 C 
BRANCH  22  23
ATOM     23  C   UNL     1      15.888  44.582  32.092  1.00  0.00    -0.000 C 
BRANCH  23  24
ATOM     24  C   UNL     1      15.536  45.999  31.610  1.00  0.00    -0.000 C 
BRANCH  24  25
ATOM     25  C   UNL     1      14.431  46.005  30.543  1.00  0.00    -0.003 C 
ATOM     26  C   UNL     1      13.679  44.677  30.524  1.00  0.00     0.004 C 
ENDBRANCH  24  25
ENDBRANCH  23  24
ENDBRANCH  22  23
ENDBRANCH  21  22
ENDBRANCH  20  21
ENDBRANCH  19  20
ENDBRANCH  18  19
ENDBRANCH  17  18
ENDBRANCH  16  17
ENDBRANCH  15  16
ENDBRANCH   1  15
TORSDOF 22
ENDMDL
MODEL 9
REMARK VINA RESULT:    -5.415      1.784      4.331
REMARK INTER + INTRA:         -13.741
REMARK INTER:                 -12.127
REMARK INTRA:                  -1.614
REMARK UNBOUND:                -1.362
REMARK SMILES CCCCCCCCCCCCCCCCCCCCCCCC(=O)[O-]
REMARK SMILES IDX 13 1 14 2 15 3 16 4 17 5 18 6 19 7 20 8 21 9 22 10 23 11
REMARK SMILES IDX 24 12 25 13 26 14 12 15 11 16 10 17 9 18 8 19 7 20 6 21 5 22
REMARK SMILES IDX 4 23 3 24 2 25 1 26
REMARK H PARENT
REMARK Flexibility Score: inf
ROOT
ATOM      1  C   UNL     1      24.184  42.340  35.254  1.00  0.00     0.000 C 
ENDROOT
BRANCH   1   2
ATOM      2  C   UNL     1      25.428  41.564  34.796  1.00  0.00     0.000 C 
BRANCH   2   3
ATOM      3  C   UNL     1      26.714  42.334  35.131  1.00  0.00     0.000 C 
BRANCH   3   4
ATOM      4  C   UNL     1      27.720  42.352  33.965  1.00  0.00     0.000 C 
BRANCH   4   5
ATOM      5  C   UNL     1      27.590  41.176  32.976  1.00  0.00     0.000 C 
BRANCH   5   6
ATOM      6  C   UNL     1      27.987  39.801  33.543  1.00  0.00     0.000 C 
BRANCH   6   7
ATOM      7  C   UNL     1      27.621  38.643  32.605  1.00  0.00     0.000 C 
BRANCH   7   8
ATOM      8  C   UNL     1      27.458  37.330  33.387  1.00  0.00     0.000 C 
BRANCH   8   9
ATOM      9  C   UNL     1      27.246  36.115  32.470  1.00  0.00     0.000 C 
BRANCH   9  10
ATOM     10  C   UNL     1      28.040  36.219  31.156  1.00  0.00     0.006 C 
BRANCH  10  11
ATOM     11  C   UNL     1      27.446  35.341  30.048  1.00  0.00     0.053 C 
BRANCH  11  12
ATOM     12  C   UNL     1      27.057  33.987  30.559  1.00  0.00     0.041 C 
ATOM     13  O   UNL     1      25.880  33.567  30.403  1.00  0.00    -0.550 OA
ATOM     14  O   UNL     1      27.987  33.204  31.232  1.00  0.00    -0.550 OA
ENDBRANCH  11  12
ENDBRANCH  10  11
ENDBRANCH   9  10
ENDBRANCH   8   9
ENDBRANCH   7   8
ENDBRANCH   6   7
ENDBRANCH   5   6
ENDBRANCH   4   5
ENDBRANCH   3   4
ENDBRANCH   2   3
ENDBRANCH   1   2
BRANCH   1  15
ATOM     15  C   UNL     1      24.515  43.762  35.743  1.00  0.00     0.000 C 
BRANCH  15  16
ATOM     16  C   UNL     1      23.301  44.584  36.220  1.00  0.00     0.000 C 
BRANCH  16  17
ATOM     17  C   UNL     1      22.199  44.800  35.164  1.00  0.00     0.000 C 
BRANCH  17  18
ATOM     18  C   UNL     1      21.060  45.740  35.596  1.00  0.00    -0.000 C 
BRANCH  18  19
ATOM     19  C   UNL     1      21.242  47.215  35.187  1.00  0.00    -0.000 C 
BRANCH  19  20
ATOM     20  C   UNL     1      20.086  47.771  34.327  1.00  0.00    -0.000 C 
BRANCH  20  21
ATOM     21  C   UNL     1      19.828  46.922  33.070  1.00  0.00    -0.000 C 
BRANCH  21  22
ATOM     22  C   UNL     1      18.430  47.149  32.474  1.00  0.00    -0.000 C 
BRANCH  22  23
ATOM     23  C   UNL     1      17.434  46.043  32.863  1.00  0.00    -0.000 C 
BRANCH  23  24
ATOM     24  C   UNL     1      18.133  44.734  33.262  1.00  0.00    -0.000 C 
BRANCH  24  25
ATOM     25  C   UNL     1      17.755  44.266  34.676  1.00  0.00    -0.003 C 
ATOM     26  C   UNL     1      17.266  45.434  35.528  1.00  0.00     0.004 C 
ENDBRANCH  24  25
ENDBRANCH  23  24
ENDBRANCH  22  23
ENDBRANCH  21  22
ENDBRANCH  20  21
ENDBRANCH  19  20
ENDBRANCH  18  19
ENDBRANCH  17  18
ENDBRANCH  16  17
ENDBRANCH  15  16
ENDBRANCH   1  15
TORSDOF 22
ENDMDL
