MODEL 1
REMARK VINA RESULT:    -4.687      0.000      0.000
REMARK INTER + INTRA:         -11.378
REMARK INTER:                  -9.070
REMARK INTRA:                  -2.307
REMARK UNBOUND:                -2.307
REMARK SMILES CCCCCCCCCCCCCCCCCC(=O)[O-]
REMARK SMILES IDX 10 1 11 2 12 3 13 4 14 5 15 6 16 7 17 8 18 9 19 10 20 11
REMARK SMILES IDX 9 12 8 13 7 14 6 15 5 16 4 17 3 18 2 19 1 20
REMARK H PARENT
REMARK Flexibility Score: inf
ROOT
ATOM      1  C   UNL     1      42.913  21.949  10.400  1.00  0.00     0.000 C 
ENDROOT
BRANCH   1   2
ATOM      2  C   UNL     1      41.795  22.262   9.389  1.00  0.00     0.000 C 
BRANCH   2   3
ATOM      3  C   UNL     1      40.875  21.057   9.136  1.00  0.00     0.000 C 
BRANCH   3   4
ATOM      4  C   UNL     1      41.488  20.038   8.162  1.00  0.00     0.000 C 
BRANCH   4   5
ATOM      5  C   UNL     1      41.440  18.620   8.750  1.00  0.00     0.000 C 
BRANCH   5   6
ATOM      6  C   UNL     1      41.631  18.597  10.278  1.00  0.00     0.000 C 
BRANCH   6   7
ATOM      7  C   UNL     1      40.515  17.882  11.067  1.00  0.00     0.006 C 
BRANCH   7   8
ATOM      8  C   UNL     1      39.485  18.823  11.711  1.00  0.00     0.053 C 
BRANCH   8   9
ATOM      9  C   UNL     1      38.136  18.702  11.072  1.00  0.00     0.041 C 
ATOM     10  O   UNL     1      38.034  18.628   9.819  1.00  0.00    -0.550 OA
ATOM     11  O   UNL     1      36.990  18.708  11.856  1.00  0.00    -0.550 OA
ENDBRANCH   8   9
ENDBRANCH   7   8
ENDBRANCH   6   7
ENDBRANCH   5   6
ENDBRANCH   4   5
ENDBRANCH   3   4
ENDBRANCH   2   3
ENDBRANCH   1   2
BRANCH   1  12
ATOM     12  C   UNL     1      42.800  22.776  11.693  1.00  0.00     0.000 C 
BRANCH  12  13
ATOM     13  C   UNL     1      43.205  22.038  12.982  1.00  0.00    -0.000 C 
BRANCH  13  14
ATOM     14  C   UNL     1      42.201  20.946  13.388  1.00  0.00    -0.000 C 
BRANCH  14  15
ATOM     15  C   UNL     1      42.830  19.541  13.394  1.00  0.00    -0.000 C 
BRANCH  15  16
ATOM     16  C   UNL     1      44.224  19.520  12.744  1.00  0.00    -0.000 C 
BRANCH  16  17
ATOM     17  C   UNL     1      44.530  18.184  12.047  1.00  0.00    -0.000 C 
BRANCH  17  18
ATOM     18  C   UNL     1      44.064  16.967  12.860  1.00  0.00    -0.000 C 
BRANCH  18  19
ATOM     19  C   UNL     1      44.018  15.710  11.986  1.00  0.00    -0.003 C 
ATOM     20  C   UNL     1      45.067  14.692  12.427  1.00  0.00     0.004 C 
ENDBRANCH  18  19
ENDBRANCH  17  18
ENDBRANCH  16  17
ENDBRANCH  15  16
ENDBRANCH  14  15
ENDBRANCH  13  14
ENDBRANCH  12  13
ENDBRANCH   1  12
TORSDOF 16
ENDMDL
MODEL 2
REMARK VINA RESULT:    -4.667      2.656      5.302
REMARK INTER + INTRA:         -11.339
REMARK INTER:                  -9.020
REMARK INTRA:                  -2.319
REMARK UNBOUND:                -2.307
REMARK SMILES CCCCCCCCCCCCCCCCCC(=O)[O-]
REMARK SMILES IDX 10 1 11 2 12 3 13 4 14 5 15 6 16 7 17 8 18 9 19 10 20 11
REMARK SMILES IDX 9 12 8 13 7 14 6 15 5 16 4 17 3 18 2 19 1 20
REMARK H PARENT
REMARK Flexibility Score: inf
ROOT
ATOM      1  C   UNL     1      43.115  22.135  10.332  1.00  0.00     0.000 C 
ENDROOT
BRANCH   1   2
ATOM      2  C   UNL     1      42.426  23.117  11.296  1.00  0.00     0.000 C 
BRANCH   2   3
ATOM      3  C   UNL     1      42.892  22.940  12.749  1.00  0.00     0.000 C 
BRANCH   3   4
ATOM      4  C   UNL     1      43.240  21.481  13.087  1.00  0.00     0.000 C 
BRANCH   4   5
ATOM      5  C   UNL     1      42.165  20.856  13.988  1.00  0.00     0.000 C 
BRANCH   5   6
ATOM      6  C   UNL     1      41.452  19.661  13.329  1.00  0.00     0.000 C 
BRANCH   6   7
ATOM      7  C   UNL     1      42.252  18.954  12.216  1.00  0.00     0.006 C 
BRANCH   7   8
ATOM      8  C   UNL     1      42.377  17.432  12.387  1.00  0.00     0.053 C 
BRANCH   8   9
ATOM      9  C   UNL     1      43.795  16.966  12.262  1.00  0.00     0.041 C 
ATOM     10  O   UNL     1      44.731  17.805  12.178  1.00  0.00    -0.550 OA
ATOM     11  O   UNL     1      44.080  15.609  12.202  1.00  0.00    -0.550 OA
ENDBRANCH   8   9
ENDBRANCH   7   8
ENDBRANCH   6   7
ENDBRANCH   5   6
ENDBRANCH   4   5
ENDBRANCH   3   4
ENDBRANCH   2   3
ENDBRANCH   1   2
BRANCH   1  12
ATOM     12  C   UNL     1      42.752  22.388   8.857  1.00  0.00     0.000 C 
BRANCH  12  13
ATOM     13  C   UNL     1      43.687  21.728   7.827  1.00  0.00    -0.000 C 
BRANCH  13  14
ATOM     14  C   UNL     1      42.964  20.719   6.920  1.00  0.00    -0.000 C 
BRANCH  14  15
ATOM     15  C   UNL     1      41.632  20.236   7.521  1.00  0.00    -0.000 C 
BRANCH  15  16
ATOM     16  C   UNL     1      41.798  18.962   8.367  1.00  0.00    -0.000 C 
BRANCH  16  17
ATOM     17  C   UNL     1      40.625  18.741   9.337  1.00  0.00    -0.000 C 
BRANCH  17  18
ATOM     18  C   UNL     1      39.952  20.053   9.766  1.00  0.00    -0.000 C 
BRANCH  18  19
ATOM     19  C   UNL     1      38.716  19.778  10.629  1.00  0.00    -0.003 C 
ATOM     20  C   UNL     1      38.701  18.333  11.125  1.00  0.00     0.004 C 
ENDBRANCH  18  19
ENDBRANCH  17  18
ENDBRANCH  16  17
ENDBRANCH  15  16
ENDBRANCH  14  15
ENDBRANCH  13  14
ENDBRANCH  12  13
ENDBRANCH   1  12
TORSDOF 16
ENDMDL
MODEL 3
REMARK VINA RESULT:    -4.622      3.460      4.832
REMARK INTER + INTRA:         -11.252
REMARK INTER:                  -8.915
REMARK INTRA:                  -2.337
REMARK UNBOUND:                -2.307
REMARK SMILES CCCCCCCCCCCCCCCCCC(=O)[O-]
REMARK SMILES IDX 10 1 11 2 12 3 13 4 14 5 15 6 16 7 17 8 18 9 19 10 20 11
REMARK SMILES IDX 9 12 8 13 7 14 6 15 5 16 4 17 3 18 2 19 1 20
REMARK H PARENT
REMARK Flexibility Score: inf
ROOT
ATOM      1  C   UNL     1      42.823  22.674  11.946  1.00  0.00     0.000 C 
ENDROOT
BRANCH   1   2
ATOM      2  C   UNL     1      42.601  23.053  10.471  1.00  0.00     0.000 C 
BRANCH   2   3
ATOM      3  C   UNL     1      42.456  21.823   9.562  1.00  0.00     0.000 C 
BRANCH   3   4
ATOM      4  C   UNL     1      41.030  21.658   9.012  1.00  0.00     0.000 C 
BRANCH   4   5
ATOM      5  C   UNL     1      40.940  20.442   8.079  1.00  0.00     0.000 C 
BRANCH   5   6
ATOM      6  C   UNL     1      42.317  19.835   7.749  1.00  0.00     0.000 C 
BRANCH   6   7
ATOM      7  C   UNL     1      42.844  20.143   6.331  1.00  0.00     0.006 C 
BRANCH   7   8
ATOM      8  C   UNL     1      43.984  21.172   6.283  1.00  0.00     0.053 C 
BRANCH   8   9
ATOM      9  C   UNL     1      45.080  20.754   5.352  1.00  0.00     0.041 C 
ATOM     10  O   UNL     1      46.282  20.812   5.723  1.00  0.00    -0.550 OA
ATOM     11  O   UNL     1      44.776  20.334   4.064  1.00  0.00    -0.550 OA
ENDBRANCH   8   9
ENDBRANCH   7   8
ENDBRANCH   6   7
ENDBRANCH   5   6
ENDBRANCH   4   5
ENDBRANCH   3   4
ENDBRANCH   2   3
ENDBRANCH   1   2
BRANCH   1  12
ATOM     12  C   UNL     1      43.419  21.265  12.119  1.00  0.00     0.000 C 
BRANCH  12  13
ATOM     13  C   UNL     1      43.171  20.611  13.490  1.00  0.00    -0.000 C 
BRANCH  13  14
ATOM     14  C   UNL     1      41.696  20.666  13.923  1.00  0.00    -0.000 C 
BRANCH  14  15
ATOM     15  C   UNL     1      40.906  19.423  13.480  1.00  0.00    -0.000 C 
BRANCH  15  16
ATOM     16  C   UNL     1      40.561  19.450  11.981  1.00  0.00    -0.000 C 
BRANCH  16  17
ATOM     17  C   UNL     1      40.792  18.093  11.297  1.00  0.00    -0.000 C 
BRANCH  17  18
ATOM     18  C   UNL     1      42.273  17.827  10.988  1.00  0.00    -0.000 C 
BRANCH  18  19
ATOM     19  C   UNL     1      42.908  16.946  12.069  1.00  0.00    -0.003 C 
ATOM     20  C   UNL     1      44.378  17.302  12.278  1.00  0.00     0.004 C 
ENDBRANCH  18  19
ENDBRANCH  17  18
ENDBRANCH  16  17
ENDBRANCH  15  16
ENDBRANCH  14  15
ENDBRANCH  13  14
ENDBRANCH  12  13
ENDBRANCH   1  12
TORSDOF 16
ENDMDL
MODEL 4
REMARK VINA RESULT:    -4.588      3.377      5.254
REMARK INTER + INTRA:         -11.187
REMARK INTER:                  -8.997
REMARK INTRA:                  -2.190
REMARK UNBOUND:                -2.307
REMARK SMILES CCCCCCCCCCCCCCCCCC(=O)[O-]
REMARK SMILES IDX 10 1 11 2 12 3 13 4 14 5 15 6 16 7 17 8 18 9 19 10 20 11
REMARK SMILES IDX 9 12 8 13 7 14 6 15 5 16 4 17 3 18 2 19 1 20
REMARK H PARENT
REMARK Flexibility Score: inf
ROOT
ATOM      1  C   UNL     1      41.578  18.801   9.409  1.00  0.00     0.000 C 
ENDROOT
BRANCH   1   2
ATOM      2  C   UNL     1      41.345  20.027   8.509  1.00  0.00     0.000 C 
BRANCH   2   3
ATOM      3  C   UNL     1      40.714  21.204   9.269  1.00  0.00     0.000 C 
BRANCH   3   4
ATOM      4  C   UNL     1      41.728  22.313   9.592  1.00  0.00     0.000 C 
BRANCH   4   5
ATOM      5  C   UNL     1      43.140  21.912   9.143  1.00  0.00     0.000 C 
BRANCH   5   6
ATOM      6  C   UNL     1      43.919  23.075   8.501  1.00  0.00     0.000 C 
BRANCH   6   7
ATOM      7  C   UNL     1      44.247  22.896   7.005  1.00  0.00     0.006 C 
BRANCH   7   8
ATOM      8  C   UNL     1      44.023  21.473   6.468  1.00  0.00     0.053 C 
BRANCH   8   9
ATOM      9  C   UNL     1      44.700  21.257   5.150  1.00  0.00     0.041 C 
ATOM     10  O   UNL     1      45.290  22.211   4.577  1.00  0.00    -0.550 OA
ATOM     11  O   UNL     1      44.648  20.012   4.537  1.00  0.00    -0.550 OA
ENDBRANCH   8   9
ENDBRANCH   7   8
ENDBRANCH   6   7
ENDBRANCH   5   6
ENDBRANCH   4   5
ENDBRANCH   3   4
ENDBRANCH   2   3
ENDBRANCH   1   2
BRANCH   1  12
ATOM     12  C   UNL     1      40.273  18.221   9.983  1.00  0.00     0.000 C 
BRANCH  12  13
ATOM     13  C   UNL     1      40.266  17.998  11.506  1.00  0.00    -0.000 C 
BRANCH  13  14
ATOM     14  C   UNL     1      40.095  19.303  12.302  1.00  0.00    -0.000 C 
BRANCH  14  15
ATOM     15  C   UNL     1      41.226  19.523  13.322  1.00  0.00    -0.000 C 
BRANCH  15  16
ATOM     16  C   UNL     1      42.361  20.397  12.760  1.00  0.00    -0.000 C 
BRANCH  16  17
ATOM     17  C   UNL     1      43.629  19.587  12.446  1.00  0.00    -0.000 C 
BRANCH  17  18
ATOM     18  C   UNL     1      43.519  18.117  12.879  1.00  0.00    -0.000 C 
BRANCH  18  19
ATOM     19  C   UNL     1      44.597  17.265  12.201  1.00  0.00    -0.003 C 
ATOM     20  C   UNL     1      44.305  15.775  12.362  1.00  0.00     0.004 C 
ENDBRANCH  18  19
ENDBRANCH  17  18
ENDBRANCH  16  17
ENDBRANCH  15  16
ENDBRANCH  14  15
ENDBRANCH  13  14
ENDBRANCH  12  13
ENDBRANCH   1  12
TORSDOF 16
ENDMDL
MODEL 5
REMARK VINA RESULT:    -4.584      2.573      5.186
REMARK INTER + INTRA:         -11.179
REMARK INTER:                  -8.981
REMARK INTRA:                  -2.199
REMARK UNBOUND:                -2.307
REMARK SMILES CCCCCCCCCCCCCCCCCC(=O)[O-]
REMARK SMILES IDX 10 1 11 2 12 3 13 4 14 5 15 6 16 7 17 8 18 9 19 10 20 11
REMARK SMILES IDX 9 12 8 13 7 14 6 15 5 16 4 17 3 18 2 19 1 20
REMARK H PARENT
REMARK Flexibility Score: inf
ROOT
ATOM      1  C   UNL     1      42.647  21.747  10.442  1.00  0.00     0.000 C 
ENDROOT
BRANCH   1   2
ATOM      2  C   UNL     1      42.962  22.851  11.466  1.00  0.00     0.000 C 
BRANCH   2   3
ATOM      3  C   UNL     1      43.110  22.305  12.895  1.00  0.00     0.000 C 
BRANCH   3   4
ATOM      4  C   UNL     1      43.466  20.810  12.924  1.00  0.00     0.000 C 
BRANCH   4   5
ATOM      5  C   UNL     1      42.343  19.991  13.576  1.00  0.00     0.000 C 
BRANCH   5   6
ATOM      6  C   UNL     1      41.354  20.860  14.375  1.00  0.00     0.000 C 
BRANCH   6   7
ATOM      7  C   UNL     1      40.274  20.077  15.151  1.00  0.00     0.006 C 
BRANCH   7   8
ATOM      8  C   UNL     1      39.921  20.667  16.525  1.00  0.00     0.053 C 
BRANCH   8   9
ATOM      9  C   UNL     1      38.554  20.256  16.979  1.00  0.00     0.041 C 
ATOM     10  O   UNL     1      37.924  19.360  16.358  1.00  0.00    -0.550 OA
ATOM     11  O   UNL     1      37.961  20.888  18.064  1.00  0.00    -0.550 OA
ENDBRANCH   8   9
ENDBRANCH   7   8
ENDBRANCH   6   7
ENDBRANCH   5   6
ENDBRANCH   4   5
ENDBRANCH   3   4
ENDBRANCH   2   3
ENDBRANCH   1   2
BRANCH   1  12
ATOM     12  C   UNL     1      41.278  21.930   9.764  1.00  0.00     0.000 C 
BRANCH  12  13
ATOM     13  C   UNL     1      40.920  20.869   8.708  1.00  0.00    -0.000 C 
BRANCH  13  14
ATOM     14  C   UNL     1      41.990  19.772   8.573  1.00  0.00    -0.000 C 
BRANCH  14  15
ATOM     15  C   UNL     1      41.486  18.397   9.046  1.00  0.00    -0.000 C 
BRANCH  15  16
ATOM     16  C   UNL     1      41.715  18.174  10.551  1.00  0.00    -0.000 C 
BRANCH  16  17
ATOM     17  C   UNL     1      40.411  17.882  11.310  1.00  0.00    -0.000 C 
BRANCH  17  18
ATOM     18  C   UNL     1      39.532  19.131  11.486  1.00  0.00    -0.000 C 
BRANCH  18  19
ATOM     19  C   UNL     1      38.241  19.010  10.670  1.00  0.00    -0.003 C 
ATOM     20  C   UNL     1      37.054  18.659  11.564  1.00  0.00     0.004 C 
ENDBRANCH  18  19
ENDBRANCH  17  18
ENDBRANCH  16  17
ENDBRANCH  15  16
ENDBRANCH  14  15
ENDBRANCH  13  14
ENDBRANCH  12  13
ENDBRANCH   1  12
TORSDOF 16
ENDMDL
MODEL 6
REMARK VINA RESULT:    -4.517      4.063      6.187
REMARK INTER + INTRA:         -11.050
REMARK INTER:                  -9.128
REMARK INTRA:                  -1.922
REMARK UNBOUND:                -2.307
REMARK SMILES CCCCCCCCCCCCCCCCCC(=O)[O-]
REMARK SMILES IDX 10 1 11 2 12 3 13 4 14 5 15 6 16 7 17 8 18 9 19 10 20 11
REMARK SMILES IDX 9 12 8 13 7 14 6 15 5 16 4 17 3 18 2 19 1 20
REMARK H PARENT
REMARK Flexibility Score: inf
ROOT
ATOM      1  C   UNL     1      42.100  22.229   9.884  1.00  0.00     0.000 C 
ENDROOT
BRANCH   1   2
ATOM      2  C   UNL     1      40.793  21.513   9.502  1.00  0.00     0.000 C 
BRANCH   2   3
ATOM      3  C   UNL     1      40.869  20.849   8.118  1.00  0.00     0.000 C 
BRANCH   3   4
ATOM      4  C   UNL     1      42.133  19.993   7.939  1.00  0.00     0.000 C 
BRANCH   4   5
ATOM      5  C   UNL     1      42.866  20.364   6.642  1.00  0.00     0.000 C 
BRANCH   5   6
ATOM      6  C   UNL     1      43.954  21.434   6.852  1.00  0.00     0.000 C 
BRANCH   6   7
ATOM      7  C   UNL     1      44.207  22.355   5.641  1.00  0.00     0.006 C 
BRANCH   7   8
ATOM      8  C   UNL     1      45.654  22.345   5.122  1.00  0.00     0.053 C 
BRANCH   8   9
ATOM      9  C   UNL     1      45.854  21.333   4.036  1.00  0.00     0.041 C 
ATOM     10  O   UNL     1      46.944  21.287   3.408  1.00  0.00    -0.550 OA
ATOM     11  O   UNL     1      44.825  20.465   3.695  1.00  0.00    -0.550 OA
ENDBRANCH   8   9
ENDBRANCH   7   8
ENDBRANCH   6   7
ENDBRANCH   5   6
ENDBRANCH   4   5
ENDBRANCH   3   4
ENDBRANCH   2   3
ENDBRANCH   1   2
BRANCH   1  12
ATOM     12  C   UNL     1      42.643  21.795  11.257  1.00  0.00     0.000 C 
BRANCH  12  13
ATOM     13  C   UNL     1      43.352  20.428  11.281  1.00  0.00    -0.000 C 
BRANCH  13  14
ATOM     14  C   UNL     1      43.268  19.733  12.651  1.00  0.00    -0.000 C 
BRANCH  14  15
ATOM     15  C   UNL     1      41.903  19.065  12.890  1.00  0.00    -0.000 C 
BRANCH  15  16
ATOM     16  C   UNL     1      41.687  17.834  11.992  1.00  0.00    -0.000 C 
BRANCH  16  17
ATOM     17  C   UNL     1      40.345  17.879  11.241  1.00  0.00    -0.000 C 
BRANCH  17  18
ATOM     18  C   UNL     1      39.427  19.009  11.730  1.00  0.00    -0.000 C 
BRANCH  18  19
ATOM     19  C   UNL     1      38.163  19.098  10.869  1.00  0.00    -0.003 C 
ATOM     20  C   UNL     1      36.938  18.605  11.635  1.00  0.00     0.004 C 
ENDBRANCH  18  19
ENDBRANCH  17  18
ENDBRANCH  16  17
ENDBRANCH  15  16
ENDBRANCH  14  15
ENDBRANCH  13  14
ENDBRANCH  12  13
ENDBRANCH   1  12
TORSDOF 16
ENDMDL
MODEL 7
REMARK VINA RESULT:    -4.502      3.673      6.082
REMARK INTER + INTRA:         -11.021
REMARK INTER:                  -9.339
REMARK INTRA:                  -1.682
REMARK UNBOUND:                -2.307
REMARK SMILES CCCCCCCCCCCCCCCCCC(=O)[O-]
REMARK SMILES IDX 10 1 11 2 12 3 13 4 14 5 15 6 16 7 17 8 18 9 19 10 20 11
REMARK SMILES IDX 9 12 8 13 7 14 6 15 5 16 4 17 3 18 2 19 1 20
REMARK H PARENT
REMARK Flexibility Score: inf
ROOT
ATOM      1  C   UNL     1      42.811  21.759  12.883  1.00  0.00     0.000 C 
ENDROOT
BRANCH   1   2
ATOM      2  C   UNL     1      42.664  21.778  11.351  1.00  0.00     0.000 C 
BRANCH   2   3
ATOM      3  C   UNL     1      43.110  23.113  10.733  1.00  0.00     0.000 C 
BRANCH   3   4
ATOM      4  C   UNL     1      43.297  23.027   9.210  1.00  0.00     0.000 C 
BRANCH   4   5
ATOM      5  C   UNL     1      43.050  21.598   8.706  1.00  0.00     0.000 C 
BRANCH   5   6
ATOM      6  C   UNL     1      43.475  21.397   7.240  1.00  0.00     0.000 C 
BRANCH   6   7
ATOM      7  C   UNL     1      44.306  22.548   6.636  1.00  0.00     0.006 C 
BRANCH   7   8
ATOM      8  C   UNL     1      44.652  22.373   5.149  1.00  0.00     0.053 C 
BRANCH   8   9
ATOM      9  C   UNL     1      45.405  21.104   4.892  1.00  0.00     0.041 C 
ATOM     10  O   UNL     1      46.528  20.915   5.431  1.00  0.00    -0.550 OA
ATOM     11  O   UNL     1      44.884  20.147   4.031  1.00  0.00    -0.550 OA
ENDBRANCH   8   9
ENDBRANCH   7   8
ENDBRANCH   6   7
ENDBRANCH   5   6
ENDBRANCH   4   5
ENDBRANCH   3   4
ENDBRANCH   2   3
ENDBRANCH   1   2
BRANCH   1  12
ATOM     12  C   UNL     1      43.490  20.480  13.404  1.00  0.00     0.000 C 
BRANCH  12  13
ATOM     13  C   UNL     1      43.803  19.418  12.333  1.00  0.00    -0.000 C 
BRANCH  13  14
ATOM     14  C   UNL     1      43.340  18.007  12.734  1.00  0.00    -0.000 C 
BRANCH  14  15
ATOM     15  C   UNL     1      42.099  17.549  11.949  1.00  0.00    -0.000 C 
BRANCH  15  16
ATOM     16  C   UNL     1      42.025  18.179  10.547  1.00  0.00    -0.000 C 
BRANCH  16  17
ATOM     17  C   UNL     1      40.667  18.842  10.268  1.00  0.00    -0.000 C 
BRANCH  17  18
ATOM     18  C   UNL     1      39.518  18.203  11.063  1.00  0.00    -0.000 C 
BRANCH  18  19
ATOM     19  C   UNL     1      38.160  18.576  10.458  1.00  0.00    -0.003 C 
ATOM     20  C   UNL     1      37.126  18.847  11.548  1.00  0.00     0.004 C 
ENDBRANCH  18  19
ENDBRANCH  17  18
ENDBRANCH  16  17
ENDBRANCH  15  16
ENDBRANCH  14  15
ENDBRANCH  13  14
ENDBRANCH  12  13
ENDBRANCH   1  12
TORSDOF 16
ENDMDL
MODEL 8
REMARK VINA RESULT:    -4.426      3.609      5.962
REMARK INTER + INTRA:         -10.873
REMARK INTER:                  -9.075
REMARK INTRA:                  -1.799
REMARK UNBOUND:                -2.307
REMARK SMILES CCCCCCCCCCCCCCCCCC(=O)[O-]
REMARK SMILES IDX 10 1 11 2 12 3 13 4 14 5 15 6 16 7 17 8 18 9 19 10 20 11
REMARK SMILES IDX 9 12 8 13 7 14 6 15 5 16 4 17 3 18 2 19 1 20
REMARK H PARENT
REMARK Flexibility Score: inf
ROOT
ATOM      1  C   UNL     1      40.169  18.984   9.948  1.00  0.00     0.000 C 
ENDROOT
BRANCH   1   2
ATOM      2  C   UNL     1      39.746  20.464   9.949  1.00  0.00     0.000 C 
BRANCH   2   3
ATOM      3  C   UNL     1      40.491  21.289   8.888  1.00  0.00     0.000 C 
BRANCH   3   4
ATOM      4  C   UNL     1      41.990  20.957   8.822  1.00  0.00     0.000 C 
BRANCH   4   5
ATOM      5  C   UNL     1      42.840  22.185   9.178  1.00  0.00     0.000 C 
BRANCH   5   6
ATOM      6  C   UNL     1      43.891  22.519   8.103  1.00  0.00     0.000 C 
BRANCH   6   7
ATOM      7  C   UNL     1      43.879  21.596   6.867  1.00  0.00     0.006 C 
BRANCH   7   8
ATOM      8  C   UNL     1      44.283  22.282   5.553  1.00  0.00     0.053 C 
BRANCH   8   9
ATOM      9  C   UNL     1      45.021  21.354   4.638  1.00  0.00     0.041 C 
ATOM     10  O   UNL     1      45.949  21.792   3.907  1.00  0.00    -0.550 OA
ATOM     11  O   UNL     1      44.660  20.015   4.565  1.00  0.00    -0.550 OA
ENDBRANCH   8   9
ENDBRANCH   7   8
ENDBRANCH   6   7
ENDBRANCH   5   6
ENDBRANCH   4   5
ENDBRANCH   3   4
ENDBRANCH   2   3
ENDBRANCH   1   2
BRANCH   1  12
ATOM     12  C   UNL     1      39.850  18.269  11.273  1.00  0.00     0.000 C 
BRANCH  12  13
ATOM     13  C   UNL     1      41.060  17.642  11.990  1.00  0.00    -0.000 C 
BRANCH  13  14
ATOM     14  C   UNL     1      42.381  17.853  11.231  1.00  0.00    -0.000 C 
BRANCH  14  15
ATOM     15  C   UNL     1      43.610  17.768  12.154  1.00  0.00    -0.000 C 
BRANCH  15  16
ATOM     16  C   UNL     1      44.391  19.091  12.215  1.00  0.00    -0.000 C 
BRANCH  16  17
ATOM     17  C   UNL     1      43.469  20.319  12.290  1.00  0.00    -0.000 C 
BRANCH  17  18
ATOM     18  C   UNL     1      42.889  20.542  13.695  1.00  0.00    -0.000 C 
BRANCH  18  19
ATOM     19  C   UNL     1      42.439  21.995  13.877  1.00  0.00    -0.003 C 
ATOM     20  C   UNL     1      42.915  22.869  12.720  1.00  0.00     0.004 C 
ENDBRANCH  18  19
ENDBRANCH  17  18
ENDBRANCH  16  17
ENDBRANCH  15  16
ENDBRANCH  14  15
ENDBRANCH  13  14
ENDBRANCH  12  13
ENDBRANCH   1  12
TORSDOF 16
ENDMDL
MODEL 9
REMARK VINA RESULT:    -4.327      2.849      5.405
REMARK INTER + INTRA:         -10.682
REMARK INTER:                  -8.937
REMARK INTRA:                  -1.745
REMARK UNBOUND:                -2.307
REMARK SMILES CCCCCCCCCCCCCCCCCC(=O)[O-]
REMARK SMILES IDX 10 1 11 2 12 3 13 4 14 5 15 6 16 7 17 8 18 9 19 10 20 11
REMARK SMILES IDX 9 12 8 13 7 14 6 15 5 16 4 17 3 18 2 19 1 20
REMARK H PARENT
REMARK Flexibility Score: inf
ROOT
ATOM      1  C   UNL     1      43.144  21.738  12.313  1.00  0.00     0.000 C 
ENDROOT
BRANCH   1   2
ATOM      2  C   UNL     1      43.377  20.491  13.184  1.00  0.00     0.000 C 
BRANCH   2   3
ATOM      3  C   UNL     1      43.956  19.313  12.384  1.00  0.00     0.000 C 
BRANCH   3   4
ATOM      4  C   UNL     1      43.596  17.949  12.994  1.00  0.00     0.000 C 
BRANCH   4   5
ATOM      5  C   UNL     1      42.454  17.283  12.213  1.00  0.00     0.000 C 
BRANCH   5   6
ATOM      6  C   UNL     1      42.386  17.740  10.744  1.00  0.00     0.000 C 
BRANCH   6   7
ATOM      7  C   UNL     1      40.980  18.136  10.247  1.00  0.00     0.006 C 
BRANCH   7   8
ATOM      8  C   UNL     1      39.931  18.296  11.358  1.00  0.00     0.053 C 
BRANCH   8   9
ATOM      9  C   UNL     1      38.772  19.136  10.920  1.00  0.00     0.041 C 
ATOM     10  O   UNL     1      38.967  20.184  10.250  1.00  0.00    -0.550 OA
ATOM     11  O   UNL     1      37.479  18.782  11.281  1.00  0.00    -0.550 OA
ENDBRANCH   8   9
ENDBRANCH   7   8
ENDBRANCH   6   7
ENDBRANCH   5   6
ENDBRANCH   4   5
ENDBRANCH   3   4
ENDBRANCH   2   3
ENDBRANCH   1   2
BRANCH   1  12
ATOM     12  C   UNL     1      42.268  21.452  11.080  1.00  0.00     0.000 C 
BRANCH  12  13
ATOM     13  C   UNL     1      43.016  21.423   9.734  1.00  0.00    -0.000 C 
BRANCH  13  14
ATOM     14  C   UNL     1      42.090  21.142   8.539  1.00  0.00    -0.000 C 
BRANCH  14  15
ATOM     15  C   UNL     1      42.870  20.783   7.262  1.00  0.00    -0.000 C 
BRANCH  15  16
ATOM     16  C   UNL     1      44.019  21.766   6.980  1.00  0.00    -0.000 C 
BRANCH  16  17
ATOM     17  C   UNL     1      44.282  21.952   5.477  1.00  0.00    -0.000 C 
BRANCH  17  18
ATOM     18  C   UNL     1      45.748  22.292   5.167  1.00  0.00    -0.000 C 
BRANCH  18  19
ATOM     19  C   UNL     1      46.189  21.655   3.845  1.00  0.00    -0.003 C 
ATOM     20  C   UNL     1      45.270  20.499   3.456  1.00  0.00     0.004 C 
ENDBRANCH  18  19
ENDBRANCH  17  18
ENDBRANCH  16  17
ENDBRANCH  15  16
ENDBRANCH  14  15
ENDBRANCH  13  14
ENDBRANCH  12  13
ENDBRANCH   1  12
TORSDOF 16
ENDMDL
