MODEL 1
REMARK VINA RESULT:    -3.048      0.000      0.000
REMARK INTER + INTRA:          -7.778
REMARK INTER:                  -5.542
REMARK INTRA:                  -2.236
REMARK UNBOUND:                -2.236
REMARK SMILES CCCCCCCCCCCCCCCC(=O)[O-]
REMARK SMILES IDX 9 1 10 2 11 3 12 4 13 5 14 6 15 7 16 8 17 9 18 10 8 11 7 12
REMARK SMILES IDX 6 13 5 14 4 15 3 16 2 17 1 18
REMARK H PARENT
REMARK Flexibility Score: inf
ROOT
ATOM      1  C   UNL     1     -25.449   3.298 -30.501  1.00  0.00     0.000 C 
ENDROOT
BRANCH   1   2
ATOM      2  C   UNL     1     -26.654   4.048 -31.102  1.00  0.00     0.000 C 
BRANCH   2   3
ATOM      3  C   UNL     1     -26.642   4.185 -32.638  1.00  0.00     0.000 C 
BRANCH   3   4
ATOM      4  C   UNL     1     -25.513   5.067 -33.202  1.00  0.00     0.000 C 
BRANCH   4   5
ATOM      5  C   UNL     1     -24.656   4.341 -34.250  1.00  0.00     0.000 C 
BRANCH   5   6
ATOM      6  C   UNL     1     -23.388   3.761 -33.613  1.00  0.00     0.006 C 
BRANCH   6   7
ATOM      7  C   UNL     1     -23.470   2.234 -33.517  1.00  0.00     0.053 C 
BRANCH   7   8
ATOM      8  C   UNL     1     -22.293   1.692 -32.770  1.00  0.00     0.041 C 
ATOM      9  O   UNL     1     -22.055   2.078 -31.595  1.00  0.00    -0.550 OA
ATOM     10  O   UNL     1     -21.486   0.723 -33.352  1.00  0.00    -0.550 OA
ENDBRANCH   7   8
ENDBRANCH   6   7
ENDBRANCH   5   6
ENDBRANCH   4   5
ENDBRANCH   3   4
ENDBRANCH   2   3
ENDBRANCH   1   2
BRANCH   1  11
ATOM     11  C   UNL     1     -24.627   4.101 -29.477  1.00  0.00     0.000 C 
BRANCH  11  12
ATOM     12  C   UNL     1     -23.484   4.901 -30.125  1.00  0.00    -0.000 C 
BRANCH  12  13
ATOM     13  C   UNL     1     -23.777   6.409 -30.179  1.00  0.00    -0.000 C 
BRANCH  13  14
ATOM     14  C   UNL     1     -23.842   7.046 -28.779  1.00  0.00    -0.000 C 
BRANCH  14  15
ATOM     15  C   UNL     1     -24.934   8.124 -28.662  1.00  0.00    -0.000 C 
BRANCH  15  16
ATOM     16  C   UNL     1     -26.271   7.776 -29.339  1.00  0.00    -0.000 C 
BRANCH  16  17
ATOM     17  C   UNL     1     -27.403   7.521 -28.333  1.00  0.00    -0.003 C 
ATOM     18  C   UNL     1     -27.555   6.030 -28.042  1.00  0.00     0.004 C 
ENDBRANCH  16  17
ENDBRANCH  15  16
ENDBRANCH  14  15
ENDBRANCH  13  14
ENDBRANCH  12  13
ENDBRANCH  11  12
ENDBRANCH   1  11
TORSDOF 14
ENDMDL
MODEL 2
REMARK VINA RESULT:    -3.025      6.855      9.568
REMARK INTER + INTRA:          -7.738
REMARK INTER:                  -5.569
REMARK INTRA:                  -2.169
REMARK UNBOUND:                -2.236
REMARK SMILES CCCCCCCCCCCCCCCC(=O)[O-]
REMARK SMILES IDX 9 1 10 2 11 3 12 4 13 5 14 6 15 7 16 8 17 9 18 10 8 11 7 12
REMARK SMILES IDX 6 13 5 14 4 15 3 16 2 17 1 18
REMARK H PARENT
REMARK Flexibility Score: inf
ROOT
ATOM      1  C   UNL     1     -29.738   0.335 -36.812  1.00  0.00     0.000 C 
ENDROOT
BRANCH   1   2
ATOM      2  C   UNL     1     -30.255   1.585 -36.072  1.00  0.00     0.000 C 
BRANCH   2   3
ATOM      3  C   UNL     1     -29.528   2.900 -36.418  1.00  0.00     0.000 C 
BRANCH   3   4
ATOM      4  C   UNL     1     -28.530   2.802 -37.586  1.00  0.00     0.000 C 
BRANCH   4   5
ATOM      5  C   UNL     1     -28.321   4.143 -38.306  1.00  0.00     0.000 C 
BRANCH   5   6
ATOM      6  C   UNL     1     -27.507   5.111 -37.438  1.00  0.00     0.006 C 
BRANCH   6   7
ATOM      7  C   UNL     1     -26.260   4.424 -36.872  1.00  0.00     0.053 C 
BRANCH   7   8
ATOM      8  C   UNL     1     -26.172   4.633 -35.394  1.00  0.00     0.041 C 
ATOM      9  O   UNL     1     -26.616   5.691 -34.875  1.00  0.00    -0.550 OA
ATOM     10  O   UNL     1     -25.645   3.637 -34.582  1.00  0.00    -0.550 OA
ENDBRANCH   7   8
ENDBRANCH   6   7
ENDBRANCH   5   6
ENDBRANCH   4   5
ENDBRANCH   3   4
ENDBRANCH   2   3
ENDBRANCH   1   2
BRANCH   1  11
ATOM     11  C   UNL     1     -30.798  -0.748 -37.079  1.00  0.00     0.000 C 
BRANCH  11  12
ATOM     12  C   UNL     1     -31.576  -0.512 -38.385  1.00  0.00    -0.000 C 
BRANCH  12  13
ATOM     13  C   UNL     1     -32.922   0.192 -38.149  1.00  0.00    -0.000 C 
BRANCH  13  14
ATOM     14  C   UNL     1     -33.114   1.416 -39.062  1.00  0.00    -0.000 C 
BRANCH  14  15
ATOM     15  C   UNL     1     -31.786   2.103 -39.430  1.00  0.00    -0.000 C 
BRANCH  15  16
ATOM     16  C   UNL     1     -31.836   3.640 -39.477  1.00  0.00    -0.000 C 
BRANCH  16  17
ATOM     17  C   UNL     1     -32.473   4.256 -38.223  1.00  0.00    -0.003 C 
ATOM     18  C   UNL     1     -31.777   5.558 -37.836  1.00  0.00     0.004 C 
ENDBRANCH  16  17
ENDBRANCH  15  16
ENDBRANCH  14  15
ENDBRANCH  13  14
ENDBRANCH  12  13
ENDBRANCH  11  12
ENDBRANCH   1  11
TORSDOF 14
ENDMDL
MODEL 3
REMARK VINA RESULT:    -3.021      7.222      9.783
REMARK INTER + INTRA:          -7.729
REMARK INTER:                  -5.258
REMARK INTRA:                  -2.472
REMARK UNBOUND:                -2.236
REMARK SMILES CCCCCCCCCCCCCCCC(=O)[O-]
REMARK SMILES IDX 9 1 10 2 11 3 12 4 13 5 14 6 15 7 16 8 17 9 18 10 8 11 7 12
REMARK SMILES IDX 6 13 5 14 4 15 3 16 2 17 1 18
REMARK H PARENT
REMARK Flexibility Score: inf
ROOT
ATOM      1  C   UNL     1     -30.907  -0.269 -39.161  1.00  0.00     0.000 C 
ENDROOT
BRANCH   1   2
ATOM      2  C   UNL     1     -29.515  -0.301 -38.499  1.00  0.00     0.000 C 
BRANCH   2   3
ATOM      3  C   UNL     1     -28.472   0.653 -39.117  1.00  0.00     0.000 C 
BRANCH   3   4
ATOM      4  C   UNL     1     -29.049   1.718 -40.067  1.00  0.00     0.000 C 
BRANCH   4   5
ATOM      5  C   UNL     1     -28.952   3.141 -39.497  1.00  0.00     0.000 C 
BRANCH   5   6
ATOM      6  C   UNL     1     -27.879   3.222 -38.405  1.00  0.00     0.006 C 
BRANCH   6   7
ATOM      7  C   UNL     1     -27.866   4.606 -37.749  1.00  0.00     0.053 C 
BRANCH   7   8
ATOM      8  C   UNL     1     -26.863   4.651 -36.640  1.00  0.00     0.041 C 
ATOM      9  O   UNL     1     -27.160   5.181 -35.537  1.00  0.00    -0.550 OA
ATOM     10  O   UNL     1     -25.616   4.064 -36.807  1.00  0.00    -0.550 OA
ENDBRANCH   7   8
ENDBRANCH   6   7
ENDBRANCH   5   6
ENDBRANCH   4   5
ENDBRANCH   3   4
ENDBRANCH   2   3
ENDBRANCH   1   2
BRANCH   1  11
ATOM     11  C   UNL     1     -32.094  -0.287 -38.181  1.00  0.00     0.000 C 
BRANCH  11  12
ATOM     12  C   UNL     1     -33.227   0.666 -38.601  1.00  0.00    -0.000 C 
BRANCH  12  13
ATOM     13  C   UNL     1     -32.700   1.985 -39.186  1.00  0.00    -0.000 C 
BRANCH  13  14
ATOM     14  C   UNL     1     -33.044   3.199 -38.304  1.00  0.00    -0.000 C 
BRANCH  14  15
ATOM     15  C   UNL     1     -31.810   4.048 -37.947  1.00  0.00    -0.000 C 
BRANCH  15  16
ATOM     16  C   UNL     1     -31.387   3.996 -36.468  1.00  0.00    -0.000 C 
BRANCH  16  17
ATOM     17  C   UNL     1     -31.359   2.567 -35.905  1.00  0.00    -0.003 C 
ATOM     18  C   UNL     1     -29.925   2.077 -35.720  1.00  0.00     0.004 C 
ENDBRANCH  16  17
ENDBRANCH  15  16
ENDBRANCH  14  15
ENDBRANCH  13  14
ENDBRANCH  12  13
ENDBRANCH  11  12
ENDBRANCH   1  11
TORSDOF 14
ENDMDL
MODEL 4
REMARK VINA RESULT:    -2.998     13.405     15.276
REMARK INTER + INTRA:          -7.687
REMARK INTER:                  -5.222
REMARK INTRA:                  -2.466
REMARK UNBOUND:                -2.236
REMARK SMILES CCCCCCCCCCCCCCCC(=O)[O-]
REMARK SMILES IDX 9 1 10 2 11 3 12 4 13 5 14 6 15 7 16 8 17 9 18 10 8 11 7 12
REMARK SMILES IDX 6 13 5 14 4 15 3 16 2 17 1 18
REMARK H PARENT
REMARK Flexibility Score: inf
ROOT
ATOM      1  C   UNL     1     -31.105  -5.720 -29.527  1.00  0.00     0.000 C 
ENDROOT
BRANCH   1   2
ATOM      2  C   UNL     1     -31.148  -6.560 -30.819  1.00  0.00     0.000 C 
BRANCH   2   3
ATOM      3  C   UNL     1     -30.861  -8.064 -30.633  1.00  0.00     0.000 C 
BRANCH   3   4
ATOM      4  C   UNL     1     -32.071  -8.989 -30.861  1.00  0.00     0.000 C 
BRANCH   4   5
ATOM      5  C   UNL     1     -32.716  -9.460 -29.549  1.00  0.00     0.000 C 
BRANCH   5   6
ATOM      6  C   UNL     1     -31.713  -9.399 -28.392  1.00  0.00     0.006 C 
BRANCH   6   7
ATOM      7  C   UNL     1     -32.344  -8.761 -27.150  1.00  0.00     0.053 C 
BRANCH   7   8
ATOM      8  C   UNL     1     -32.710  -9.812 -26.150  1.00  0.00     0.041 C 
ATOM      9  O   UNL     1     -32.860  -9.508 -24.938  1.00  0.00    -0.550 OA
ATOM     10  O   UNL     1     -32.934 -11.118 -26.565  1.00  0.00    -0.550 OA
ENDBRANCH   7   8
ENDBRANCH   6   7
ENDBRANCH   5   6
ENDBRANCH   4   5
ENDBRANCH   3   4
ENDBRANCH   2   3
ENDBRANCH   1   2
BRANCH   1  11
ATOM     11  C   UNL     1     -32.421  -5.005 -29.171  1.00  0.00     0.000 C 
BRANCH  11  12
ATOM     12  C   UNL     1     -33.633  -5.952 -29.172  1.00  0.00    -0.000 C 
BRANCH  12  13
ATOM     13  C   UNL     1     -34.915  -5.267 -29.671  1.00  0.00    -0.000 C 
BRANCH  13  14
ATOM     14  C   UNL     1     -35.573  -6.027 -30.836  1.00  0.00    -0.000 C 
BRANCH  14  15
ATOM     15  C   UNL     1     -34.585  -6.358 -31.970  1.00  0.00    -0.000 C 
BRANCH  15  16
ATOM     16  C   UNL     1     -34.562  -5.348 -33.131  1.00  0.00    -0.000 C 
BRANCH  16  17
ATOM     17  C   UNL     1     -33.247  -4.559 -33.210  1.00  0.00    -0.003 C 
ATOM     18  C   UNL     1     -33.321  -3.280 -32.379  1.00  0.00     0.004 C 
ENDBRANCH  16  17
ENDBRANCH  15  16
ENDBRANCH  14  15
ENDBRANCH  13  14
ENDBRANCH  12  13
ENDBRANCH  11  12
ENDBRANCH   1  11
TORSDOF 14
ENDMDL
MODEL 5
REMARK VINA RESULT:    -2.997     10.130     12.366
REMARK INTER + INTRA:          -7.686
REMARK INTER:                  -6.341
REMARK INTRA:                  -1.344
REMARK UNBOUND:                -2.236
REMARK SMILES CCCCCCCCCCCCCCCC(=O)[O-]
REMARK SMILES IDX 9 1 10 2 11 3 12 4 13 5 14 6 15 7 16 8 17 9 18 10 8 11 7 12
REMARK SMILES IDX 6 13 5 14 4 15 3 16 2 17 1 18
REMARK H PARENT
REMARK Flexibility Score: inf
ROOT
ATOM      1  C   UNL     1     -31.610  -0.238 -35.770  1.00  0.00     0.000 C 
ENDROOT
BRANCH   1   2
ATOM      2  C   UNL     1     -32.257  -1.219 -34.773  1.00  0.00     0.000 C 
BRANCH   2   3
ATOM      3  C   UNL     1     -31.421  -2.474 -34.451  1.00  0.00     0.000 C 
BRANCH   3   4
ATOM      4  C   UNL     1     -32.160  -3.558 -33.644  1.00  0.00     0.000 C 
BRANCH   4   5
ATOM      5  C   UNL     1     -33.677  -3.326 -33.584  1.00  0.00     0.000 C 
BRANCH   5   6
ATOM      6  C   UNL     1     -34.429  -4.653 -33.429  1.00  0.00     0.006 C 
BRANCH   6   7
ATOM      7  C   UNL     1     -33.928  -5.428 -32.206  1.00  0.00     0.053 C 
BRANCH   7   8
ATOM      8  C   UNL     1     -35.057  -5.706 -31.264  1.00  0.00     0.041 C 
ATOM      9  O   UNL     1     -35.097  -5.141 -30.140  1.00  0.00    -0.550 OA
ATOM     10  O   UNL     1     -36.090  -6.550 -31.648  1.00  0.00    -0.550 OA
ENDBRANCH   7   8
ENDBRANCH   6   7
ENDBRANCH   5   6
ENDBRANCH   4   5
ENDBRANCH   3   4
ENDBRANCH   2   3
ENDBRANCH   1   2
BRANCH   1  11
ATOM     11  C   UNL     1     -30.890  -0.898 -36.959  1.00  0.00     0.000 C 
BRANCH  11  12
ATOM     12  C   UNL     1     -31.526  -0.542 -38.314  1.00  0.00    -0.000 C 
BRANCH  12  13
ATOM     13  C   UNL     1     -32.943   0.036 -38.165  1.00  0.00    -0.000 C 
BRANCH  13  14
ATOM     14  C   UNL     1     -33.106   1.386 -38.886  1.00  0.00    -0.000 C 
BRANCH  14  15
ATOM     15  C   UNL     1     -33.124   2.584 -37.918  1.00  0.00    -0.000 C 
BRANCH  15  16
ATOM     16  C   UNL     1     -31.957   3.573 -38.082  1.00  0.00    -0.000 C 
BRANCH  16  17
ATOM     17  C   UNL     1     -30.624   3.017 -37.561  1.00  0.00    -0.003 C 
ATOM     18  C   UNL     1     -30.457   3.297 -36.069  1.00  0.00     0.004 C 
ENDBRANCH  16  17
ENDBRANCH  15  16
ENDBRANCH  14  15
ENDBRANCH  13  14
ENDBRANCH  12  13
ENDBRANCH  11  12
ENDBRANCH   1  11
TORSDOF 14
ENDMDL
MODEL 6
REMARK VINA RESULT:    -2.939      6.797      9.609
REMARK INTER + INTRA:          -7.581
REMARK INTER:                  -5.274
REMARK INTRA:                  -2.307
REMARK UNBOUND:                -2.236
REMARK SMILES CCCCCCCCCCCCCCCC(=O)[O-]
REMARK SMILES IDX 9 1 10 2 11 3 12 4 13 5 14 6 15 7 16 8 17 9 18 10 8 11 7 12
REMARK SMILES IDX 6 13 5 14 4 15 3 16 2 17 1 18
REMARK H PARENT
REMARK Flexibility Score: inf
ROOT
ATOM      1  C   UNL     1     -32.461   2.360 -38.169  1.00  0.00     0.000 C 
ENDROOT
BRANCH   1   2
ATOM      2  C   UNL     1     -31.906   2.895 -36.834  1.00  0.00     0.000 C 
BRANCH   2   3
ATOM      3  C   UNL     1     -30.387   3.161 -36.814  1.00  0.00     0.000 C 
BRANCH   3   4
ATOM      4  C   UNL     1     -29.805   3.702 -38.132  1.00  0.00     0.000 C 
BRANCH   4   5
ATOM      5  C   UNL     1     -28.269   3.725 -38.141  1.00  0.00     0.000 C 
BRANCH   5   6
ATOM      6  C   UNL     1     -27.737   5.026 -37.529  1.00  0.00     0.006 C 
BRANCH   6   7
ATOM      7  C   UNL     1     -26.454   4.773 -36.730  1.00  0.00     0.053 C 
BRANCH   7   8
ATOM      8  C   UNL     1     -26.723   4.871 -35.262  1.00  0.00     0.041 C 
ATOM      9  O   UNL     1     -27.797   4.421 -34.783  1.00  0.00    -0.550 OA
ATOM     10  O   UNL     1     -25.767   5.416 -34.415  1.00  0.00    -0.550 OA
ENDBRANCH   7   8
ENDBRANCH   6   7
ENDBRANCH   5   6
ENDBRANCH   4   5
ENDBRANCH   3   4
ENDBRANCH   2   3
ENDBRANCH   1   2
BRANCH   1  11
ATOM     11  C   UNL     1     -33.171   0.997 -38.079  1.00  0.00     0.000 C 
BRANCH  11  12
ATOM     12  C   UNL     1     -32.285  -0.169 -38.552  1.00  0.00    -0.000 C 
BRANCH  12  13
ATOM     13  C   UNL     1     -30.945   0.308 -39.132  1.00  0.00    -0.000 C 
BRANCH  13  14
ATOM     14  C   UNL     1     -29.736  -0.270 -38.374  1.00  0.00    -0.000 C 
BRANCH  14  15
ATOM     15  C   UNL     1     -30.130  -0.958 -37.054  1.00  0.00    -0.000 C 
BRANCH  15  16
ATOM     16  C   UNL     1     -29.549  -0.314 -35.783  1.00  0.00    -0.000 C 
BRANCH  16  17
ATOM     17  C   UNL     1     -30.626   0.046 -34.750  1.00  0.00    -0.003 C 
ATOM     18  C   UNL     1     -31.908  -0.746 -34.993  1.00  0.00     0.004 C 
ENDBRANCH  16  17
ENDBRANCH  15  16
ENDBRANCH  14  15
ENDBRANCH  13  14
ENDBRANCH  12  13
ENDBRANCH  11  12
ENDBRANCH   1  11
TORSDOF 14
ENDMDL
MODEL 7
REMARK VINA RESULT:    -2.904      8.980     11.188
REMARK INTER + INTRA:          -7.518
REMARK INTER:                  -5.408
REMARK INTRA:                  -2.110
REMARK UNBOUND:                -2.236
REMARK SMILES CCCCCCCCCCCCCCCC(=O)[O-]
REMARK SMILES IDX 9 1 10 2 11 3 12 4 13 5 14 6 15 7 16 8 17 9 18 10 8 11 7 12
REMARK SMILES IDX 6 13 5 14 4 15 3 16 2 17 1 18
REMARK H PARENT
REMARK Flexibility Score: inf
ROOT
ATOM      1  C   UNL     1     -31.721   0.158 -37.674  1.00  0.00     0.000 C 
ENDROOT
BRANCH   1   2
ATOM      2  C   UNL     1     -32.802   1.249 -37.807  1.00  0.00     0.000 C 
BRANCH   2   3
ATOM      3  C   UNL     1     -32.964   1.843 -39.221  1.00  0.00     0.000 C 
BRANCH   3   4
ATOM      4  C   UNL     1     -31.962   2.957 -39.576  1.00  0.00     0.000 C 
BRANCH   4   5
ATOM      5  C   UNL     1     -32.648   4.261 -40.009  1.00  0.00     0.000 C 
BRANCH   5   6
ATOM      6  C   UNL     1     -33.454   4.866 -38.852  1.00  0.00     0.006 C 
BRANCH   6   7
ATOM      7  C   UNL     1     -32.527   5.495 -37.808  1.00  0.00     0.053 C 
BRANCH   7   8
ATOM      8  C   UNL     1     -32.615   4.750 -36.513  1.00  0.00     0.041 C 
ATOM      9  O   UNL     1     -33.736   4.524 -35.987  1.00  0.00    -0.550 OA
ATOM     10  O   UNL     1     -31.462   4.264 -35.911  1.00  0.00    -0.550 OA
ENDBRANCH   7   8
ENDBRANCH   6   7
ENDBRANCH   5   6
ENDBRANCH   4   5
ENDBRANCH   3   4
ENDBRANCH   2   3
ENDBRANCH   1   2
BRANCH   1  11
ATOM     11  C   UNL     1     -31.463  -0.663 -38.950  1.00  0.00     0.000 C 
BRANCH  11  12
ATOM     12  C   UNL     1     -29.965  -0.825 -39.262  1.00  0.00    -0.000 C 
BRANCH  12  13
ATOM     13  C   UNL     1     -29.394   0.373 -40.038  1.00  0.00    -0.000 C 
BRANCH  13  14
ATOM     14  C   UNL     1     -28.222   1.047 -39.300  1.00  0.00    -0.000 C 
BRANCH  14  15
ATOM     15  C   UNL     1     -28.665   2.247 -38.444  1.00  0.00    -0.000 C 
BRANCH  15  16
ATOM     16  C   UNL     1     -28.324   3.628 -39.029  1.00  0.00    -0.000 C 
BRANCH  16  17
ATOM     17  C   UNL     1     -28.865   4.788 -38.179  1.00  0.00    -0.003 C 
ATOM     18  C   UNL     1     -29.155   6.014 -39.042  1.00  0.00     0.004 C 
ENDBRANCH  16  17
ENDBRANCH  15  16
ENDBRANCH  14  15
ENDBRANCH  13  14
ENDBRANCH  12  13
ENDBRANCH  11  12
ENDBRANCH   1  11
TORSDOF 14
ENDMDL
MODEL 8
REMARK VINA RESULT:    -2.900      7.167      9.513
REMARK INTER + INTRA:          -7.510
REMARK INTER:                  -5.103
REMARK INTRA:                  -2.407
REMARK UNBOUND:                -2.236
REMARK SMILES CCCCCCCCCCCCCCCC(=O)[O-]
REMARK SMILES IDX 9 1 10 2 11 3 12 4 13 5 14 6 15 7 16 8 17 9 18 10 8 11 7 12
REMARK SMILES IDX 6 13 5 14 4 15 3 16 2 17 1 18
REMARK H PARENT
REMARK Flexibility Score: inf
ROOT
ATOM      1  C   UNL     1     -30.447   4.508 -37.892  1.00  0.00     0.000 C 
ENDROOT
BRANCH   1   2
ATOM      2  C   UNL     1     -31.057   3.441 -36.961  1.00  0.00     0.000 C 
BRANCH   2   3
ATOM      3  C   UNL     1     -32.585   3.268 -37.073  1.00  0.00     0.000 C 
BRANCH   3   4
ATOM      4  C   UNL     1     -33.137   3.284 -38.510  1.00  0.00     0.000 C 
BRANCH   4   5
ATOM      5  C   UNL     1     -32.684   2.071 -39.336  1.00  0.00     0.000 C 
BRANCH   5   6
ATOM      6  C   UNL     1     -33.012   0.761 -38.610  1.00  0.00     0.006 C 
BRANCH   6   7
ATOM      7  C   UNL     1     -31.842  -0.223 -38.697  1.00  0.00     0.053 C 
BRANCH   7   8
ATOM      8  C   UNL     1     -31.292  -0.506 -37.335  1.00  0.00     0.041 C 
ATOM      9  O   UNL     1     -30.160  -1.040 -37.206  1.00  0.00    -0.550 OA
ATOM     10  O   UNL     1     -32.011  -0.135 -36.206  1.00  0.00    -0.550 OA
ENDBRANCH   7   8
ENDBRANCH   6   7
ENDBRANCH   5   6
ENDBRANCH   4   5
ENDBRANCH   3   4
ENDBRANCH   2   3
ENDBRANCH   1   2
BRANCH   1  11
ATOM     11  C   UNL     1     -29.302   4.009 -38.792  1.00  0.00     0.000 C 
BRANCH  11  12
ATOM     12  C   UNL     1     -29.094   2.487 -38.703  1.00  0.00    -0.000 C 
BRANCH  12  13
ATOM     13  C   UNL     1     -27.739   2.114 -38.081  1.00  0.00    -0.000 C 
BRANCH  13  14
ATOM     14  C   UNL     1     -27.871   1.644 -36.620  1.00  0.00    -0.000 C 
BRANCH  14  15
ATOM     15  C   UNL     1     -27.081   2.524 -35.634  1.00  0.00    -0.000 C 
BRANCH  15  16
ATOM     16  C   UNL     1     -27.802   3.805 -35.180  1.00  0.00    -0.000 C 
BRANCH  16  17
ATOM     17  C   UNL     1     -26.915   5.055 -35.272  1.00  0.00    -0.003 C 
ATOM     18  C   UNL     1     -26.775   5.525 -36.718  1.00  0.00     0.004 C 
ENDBRANCH  16  17
ENDBRANCH  15  16
ENDBRANCH  14  15
ENDBRANCH  13  14
ENDBRANCH  12  13
ENDBRANCH  11  12
ENDBRANCH   1  11
TORSDOF 14
ENDMDL
MODEL 9
REMARK VINA RESULT:    -2.871      6.634      9.667
REMARK INTER + INTRA:          -7.458
REMARK INTER:                  -5.569
REMARK INTRA:                  -1.889
REMARK UNBOUND:                -2.236
REMARK SMILES CCCCCCCCCCCCCCCC(=O)[O-]
REMARK SMILES IDX 9 1 10 2 11 3 12 4 13 5 14 6 15 7 16 8 17 9 18 10 8 11 7 12
REMARK SMILES IDX 6 13 5 14 4 15 3 16 2 17 1 18
REMARK H PARENT
REMARK Flexibility Score: inf
ROOT
ATOM      1  C   UNL     1     -30.803   2.960 -39.631  1.00  0.00     0.000 C 
ENDROOT
BRANCH   1   2
ATOM      2  C   UNL     1     -29.339   2.887 -39.155  1.00  0.00     0.000 C 
BRANCH   2   3
ATOM      3  C   UNL     1     -29.047   3.598 -37.818  1.00  0.00     0.000 C 
BRANCH   3   4
ATOM      4  C   UNL     1     -28.407   4.992 -37.950  1.00  0.00     0.000 C 
BRANCH   4   5
ATOM      5  C   UNL     1     -27.045   5.092 -37.247  1.00  0.00     0.000 C 
BRANCH   5   6
ATOM      6  C   UNL     1     -26.858   3.943 -36.248  1.00  0.00     0.006 C 
BRANCH   6   7
ATOM      7  C   UNL     1     -25.385   3.534 -36.151  1.00  0.00     0.053 C 
BRANCH   7   8
ATOM      8  C   UNL     1     -24.808   3.962 -34.839  1.00  0.00     0.041 C 
ATOM      9  O   UNL     1     -23.749   3.433 -34.410  1.00  0.00    -0.550 OA
ATOM     10  O   UNL     1     -25.411   4.981 -34.115  1.00  0.00    -0.550 OA
ENDBRANCH   7   8
ENDBRANCH   6   7
ENDBRANCH   5   6
ENDBRANCH   4   5
ENDBRANCH   3   4
ENDBRANCH   2   3
ENDBRANCH   1   2
BRANCH   1  11
ATOM     11  C   UNL     1     -31.795   3.531 -38.601  1.00  0.00     0.000 C 
BRANCH  11  12
ATOM     12  C   UNL     1     -32.669   2.446 -37.950  1.00  0.00    -0.000 C 
BRANCH  12  13
ATOM     13  C   UNL     1     -33.062   1.335 -38.937  1.00  0.00    -0.000 C 
BRANCH  13  14
ATOM     14  C   UNL     1     -32.767  -0.072 -38.388  1.00  0.00    -0.000 C 
BRANCH  14  15
ATOM     15  C   UNL     1     -31.462  -0.671 -38.946  1.00  0.00    -0.000 C 
BRANCH  15  16
ATOM     16  C   UNL     1     -30.236  -0.537 -38.026  1.00  0.00    -0.000 C 
BRANCH  16  17
ATOM     17  C   UNL     1     -30.596  -0.616 -36.535  1.00  0.00    -0.003 C 
ATOM     18  C   UNL     1     -30.171   0.652 -35.798  1.00  0.00     0.004 C 
ENDBRANCH  16  17
ENDBRANCH  15  16
ENDBRANCH  14  15
ENDBRANCH  13  14
ENDBRANCH  12  13
ENDBRANCH  11  12
ENDBRANCH   1  11
TORSDOF 14
ENDMDL
