MODEL 1
REMARK VINA RESULT:    26.687      0.000      0.000
REMARK INTER + INTRA:          32.597
REMARK INTER:                  32.927
REMARK INTRA:                  -0.330
REMARK UNBOUND:                -0.330
REMARK SMILES Oc1cc(O)c2cc(O)c(-c3cc(O)c(O)c(O)c3)[o+]c2c1
REMARK SMILES IDX 10 1 20 2 21 3 22 4 2 5 3 6 4 7 6 8 7 9 8 10 11 11 12 12
REMARK SMILES IDX 13 13 19 14 15 15 17 16 14 17 16 19 18 21 9 23 1 25 5 27
REMARK H PARENT 14 18 16 20 18 22 9 24 1 26 5 28
REMARK Flexibility Score: inf
ROOT
ATOM      1  C   UNL     1     -22.912  28.543  -7.268  1.00  0.00     0.402 A 
ATOM      2  O   UNL     1     -22.586  29.804  -7.545  1.00  0.00    -0.202 OA
ATOM      3  C   UNL     1     -23.434  30.675  -8.079  1.00  0.00     0.368 A 
ATOM      4  C   UNL     1     -23.000  31.979  -8.331  1.00  0.00     0.162 A 
ATOM      5  C   UNL     1     -23.869  32.917  -8.889  1.00  0.00     0.128 A 
ATOM      6  C   UNL     1     -25.184  32.551  -9.198  1.00  0.00     0.093 A 
ATOM      7  C   UNL     1     -25.644  31.251  -8.955  1.00  0.00     0.136 A 
ATOM      8  C   UNL     1     -24.762  30.293  -8.390  1.00  0.00     0.125 A 
ATOM      9  C   UNL     1     -25.131  28.965  -8.125  1.00  0.00     0.078 A 
ATOM     10  C   UNL     1     -24.205  28.077  -7.571  1.00  0.00     0.223 A 
ENDROOT
BRANCH   1  11
ATOM     11  C   UNL     1     -21.880  27.670  -6.664  1.00  0.00     0.091 A 
ATOM     12  C   UNL     1     -21.962  27.346  -5.301  1.00  0.00     0.068 A 
ATOM     13  C   UNL     1     -21.010  26.504  -4.709  1.00  0.00     0.162 A 
ATOM     14  C   UNL     1     -20.851  27.109  -7.439  1.00  0.00     0.068 A 
ATOM     15  C   UNL     1     -19.974  25.966  -5.483  1.00  0.00     0.200 A 
ATOM     16  C   UNL     1     -19.897  26.265  -6.853  1.00  0.00     0.162 A 
BRANCH  13  17
ATOM     17  O   UNL     1     -21.088  26.198  -3.352  1.00  0.00    -0.504 OA
ATOM     18  H   UNL     1     -21.155  26.923  -2.647  1.00  0.00     0.293 HD
ENDBRANCH  13  17
BRANCH  15  19
ATOM     19  O   UNL     1     -19.034  25.132  -4.876  1.00  0.00    -0.502 OA
ATOM     20  H   UNL     1     -19.302  24.298  -4.367  1.00  0.00     0.293 HD
ENDBRANCH  15  19
BRANCH  16  21
ATOM     21  O   UNL     1     -18.875  25.720  -7.629  1.00  0.00    -0.504 OA
ATOM     22  H   UNL     1     -18.288  26.299  -8.219  1.00  0.00     0.293 HD
ENDBRANCH  16  21
ENDBRANCH   1  11
BRANCH  10  23
ATOM     23  O   UNL     1     -24.556  26.744  -7.354  1.00  0.00    -0.500 OA
ATOM     24  H   UNL     1     -25.223  26.479  -6.639  1.00  0.00     0.294 HD
ENDBRANCH  10  23
BRANCH   5  25
ATOM     25  O   UNL     1     -23.417  34.213  -9.133  1.00  0.00    -0.507 OA
ATOM     26  H   UNL     1     -22.564  34.388  -9.650  1.00  0.00     0.293 HD
ENDBRANCH   5  25
BRANCH   7  27
ATOM     27  O   UNL     1     -26.971  30.965  -9.289  1.00  0.00    -0.507 OA
ATOM     28  H   UNL     1     -27.351  30.033  -9.368  1.00  0.00     0.293 HD
ENDBRANCH   7  27
TORSDOF 7
ENDMDL
MODEL 2
REMARK VINA RESULT:    27.017      3.647      7.262
REMARK INTER + INTRA:          33.004
REMARK INTER:                  32.798
REMARK INTRA:                   0.206
REMARK UNBOUND:                -0.330
REMARK SMILES Oc1cc(O)c2cc(O)c(-c3cc(O)c(O)c(O)c3)[o+]c2c1
REMARK SMILES IDX 10 1 20 2 21 3 22 4 2 5 3 6 4 7 6 8 7 9 8 10 11 11 12 12
REMARK SMILES IDX 13 13 19 14 15 15 17 16 14 17 16 19 18 21 9 23 1 25 5 27
REMARK H PARENT 14 18 16 20 18 22 9 24 1 26 5 28
REMARK Flexibility Score: inf
ROOT
ATOM      1  C   UNL     1     -25.575  31.490  -8.168  1.00  0.00     0.402 A 
ATOM      2  O   UNL     1     -25.019  30.291  -8.322  1.00  0.00    -0.202 OA
ATOM      3  C   UNL     1     -25.610  29.160  -7.952  1.00  0.00     0.368 A 
ATOM      4  C   UNL     1     -24.947  27.948  -8.158  1.00  0.00     0.162 A 
ATOM      5  C   UNL     1     -25.545  26.744  -7.783  1.00  0.00     0.128 A 
ATOM      6  C   UNL     1     -26.816  26.750  -7.197  1.00  0.00     0.093 A 
ATOM      7  C   UNL     1     -27.502  27.952  -6.979  1.00  0.00     0.136 A 
ATOM      8  C   UNL     1     -26.895  29.178  -7.358  1.00  0.00     0.125 A 
ATOM      9  C   UNL     1     -27.502  30.430  -7.167  1.00  0.00     0.078 A 
ATOM     10  C   UNL     1     -26.840  31.597  -7.561  1.00  0.00     0.223 A 
ENDROOT
BRANCH   1  11
ATOM     11  C   UNL     1     -24.819  32.677  -8.629  1.00  0.00     0.091 A 
ATOM     12  C   UNL     1     -25.517  33.802  -9.094  1.00  0.00     0.068 A 
ATOM     13  C   UNL     1     -24.826  34.945  -9.517  1.00  0.00     0.162 A 
ATOM     14  C   UNL     1     -23.416  32.724  -8.556  1.00  0.00     0.068 A 
ATOM     15  C   UNL     1     -23.427  34.979  -9.463  1.00  0.00     0.200 A 
ATOM     16  C   UNL     1     -22.720  33.867  -8.977  1.00  0.00     0.162 A 
BRANCH  13  17
ATOM     17  O   UNL     1     -25.525  36.054  -9.993  1.00  0.00    -0.504 OA
ATOM     18  H   UNL     1     -25.344  36.986  -9.640  1.00  0.00     0.293 HD
ENDBRANCH  13  17
BRANCH  15  19
ATOM     19  O   UNL     1     -22.756  36.125  -9.890  1.00  0.00    -0.502 OA
ATOM     20  H   UNL     1     -21.805  36.330  -9.607  1.00  0.00     0.293 HD
ENDBRANCH  15  19
BRANCH  16  21
ATOM     21  O   UNL     1     -21.328  33.901  -8.907  1.00  0.00    -0.504 OA
ATOM     22  H   UNL     1     -20.773  34.385  -9.604  1.00  0.00     0.293 HD
ENDBRANCH  16  21
ENDBRANCH   1  11
BRANCH  10  23
ATOM     23  O   UNL     1     -27.420  32.844  -7.326  1.00  0.00    -0.500 OA
ATOM     24  H   UNL     1     -27.271  33.345  -6.458  1.00  0.00     0.294 HD
ENDBRANCH  10  23
BRANCH   5  25
ATOM     25  O   UNL     1     -24.868  25.545  -7.996  1.00  0.00    -0.507 OA
ATOM     26  H   UNL     1     -25.116  24.700  -7.495  1.00  0.00     0.293 HD
ENDBRANCH   5  25
BRANCH   7  27
ATOM     27  O   UNL     1     -28.768  27.874  -6.392  1.00  0.00    -0.507 OA
ATOM     28  H   UNL     1     -29.576  27.462  -6.834  1.00  0.00     0.293 HD
ENDBRANCH   7  27
TORSDOF 7
ENDMDL
MODEL 3
REMARK VINA RESULT:    28.239      1.182      3.040
REMARK INTER + INTRA:          34.512
REMARK INTER:                  34.405
REMARK INTRA:                   0.107
REMARK UNBOUND:                -0.330
REMARK SMILES Oc1cc(O)c2cc(O)c(-c3cc(O)c(O)c(O)c3)[o+]c2c1
REMARK SMILES IDX 10 1 20 2 21 3 22 4 2 5 3 6 4 7 6 8 7 9 8 10 11 11 12 12
REMARK SMILES IDX 13 13 19 14 15 15 17 16 14 17 16 19 18 21 9 23 1 25 5 27
REMARK H PARENT 14 18 16 20 18 22 9 24 1 26 5 28
REMARK Flexibility Score: inf
ROOT
ATOM      1  C   UNL     1     -22.527  29.110  -7.287  1.00  0.00     0.402 A 
ATOM      2  O   UNL     1     -23.828  29.150  -7.011  1.00  0.00    -0.202 OA
ATOM      3  C   UNL     1     -24.654  30.058  -7.520  1.00  0.00     0.368 A 
ATOM      4  C   UNL     1     -26.007  30.017  -7.173  1.00  0.00     0.162 A 
ATOM      5  C   UNL     1     -26.898  30.955  -7.694  1.00  0.00     0.128 A 
ATOM      6  C   UNL     1     -26.435  31.944  -8.569  1.00  0.00     0.093 A 
ATOM      7  C   UNL     1     -25.084  32.008  -8.932  1.00  0.00     0.136 A 
ATOM      8  C   UNL     1     -24.174  31.056  -8.403  1.00  0.00     0.125 A 
ATOM      9  C   UNL     1     -22.802  31.051  -8.700  1.00  0.00     0.078 A 
ATOM     10  C   UNL     1     -21.966  30.083  -8.136  1.00  0.00     0.223 A 
ENDROOT
BRANCH   1  11
ATOM     11  C   UNL     1     -21.711  28.042  -6.666  1.00  0.00     0.091 A 
ATOM     12  C   UNL     1     -20.686  27.437  -7.407  1.00  0.00     0.068 A 
ATOM     13  C   UNL     1     -19.886  26.438  -6.835  1.00  0.00     0.162 A 
ATOM     14  C   UNL     1     -21.904  27.660  -5.327  1.00  0.00     0.068 A 
ATOM     15  C   UNL     1     -20.097  26.047  -5.507  1.00  0.00     0.200 A 
ATOM     16  C   UNL     1     -21.106  26.663  -4.749  1.00  0.00     0.162 A 
BRANCH  13  17
ATOM     17  O   UNL     1     -18.878  25.829  -7.582  1.00  0.00    -0.504 OA
ATOM     18  H   UNL     1     -18.972  24.881  -7.926  1.00  0.00     0.293 HD
ENDBRANCH  13  17
BRANCH  15  19
ATOM     19  O   UNL     1     -19.293  25.049  -4.955  1.00  0.00    -0.502 OA
ATOM     20  H   UNL     1     -18.673  25.227  -4.173  1.00  0.00     0.293 HD
ENDBRANCH  15  19
BRANCH  16  21
ATOM     21  O   UNL     1     -21.310  26.286  -3.422  1.00  0.00    -0.504 OA
ATOM     22  H   UNL     1     -20.773  25.542  -2.992  1.00  0.00     0.293 HD
ENDBRANCH  16  21
ENDBRANCH   1  11
BRANCH  10  23
ATOM     23  O   UNL     1     -20.595  30.107  -8.391  1.00  0.00    -0.500 OA
ATOM     24  H   UNL     1     -20.177  29.530  -9.111  1.00  0.00     0.294 HD
ENDBRANCH  10  23
BRANCH   5  25
ATOM     25  O   UNL     1     -28.243  30.898  -7.336  1.00  0.00    -0.507 OA
ATOM     26  H   UNL     1     -28.543  31.031  -6.378  1.00  0.00     0.293 HD
ENDBRANCH   5  25
BRANCH   7  27
ATOM     27  O   UNL     1     -24.702  33.024  -9.813  1.00  0.00    -0.507 OA
ATOM     28  H   UNL     1     -23.750  33.329  -9.953  1.00  0.00     0.293 HD
ENDBRANCH   7  27
TORSDOF 7
ENDMDL
