MODEL 1
REMARK VINA RESULT:    -7.370      0.000      0.000
REMARK INTER + INTRA:          -9.148
REMARK INTER:                  -8.877
REMARK INTRA:                  -0.271
REMARK UNBOUND:                -0.271
REMARK SMILES O=c1c(O)c(-c2ccc(O)c(O)c2)oc2cc(O)cc(O)c12
REMARK SMILES IDX 5 1 3 2 2 3 1 4 22 5 20 6 19 7 17 8 16 9 15 10 14 11 6 12
REMARK SMILES IDX 7 13 8 14 9 15 13 16 11 17 10 18 12 20 4 22 21 24 18 26
REMARK H PARENT 10 19 12 21 4 23 21 25 18 27
REMARK Flexibility Score: inf
ROOT
ATOM      1  C   UNL     1     -38.066   4.762  79.558  1.00  0.00     0.180 A 
ATOM      2  C   UNL     1     -38.584   4.763  80.864  1.00  0.00     0.208 A 
ATOM      3  C   UNL     1     -39.894   4.305  81.078  1.00  0.00     0.238 A 
ATOM      4  O   UNL     1     -40.332   4.258  82.257  1.00  0.00    -0.285 OA
ATOM      5  C   UNL     1     -40.675   3.867  79.982  1.00  0.00     0.111 A 
ATOM      6  C   UNL     1     -42.027   3.420  80.077  1.00  0.00     0.134 A 
ATOM      7  C   UNL     1     -42.659   2.887  78.948  1.00  0.00     0.093 A 
ATOM      8  C   UNL     1     -42.013   2.844  77.713  1.00  0.00     0.123 A 
ATOM      9  C   UNL     1     -40.711   3.332  77.595  1.00  0.00     0.094 A 
ATOM     10  C   UNL     1     -40.041   3.838  78.712  1.00  0.00     0.146 A 
ATOM     11  O   UNL     1     -38.800   4.283  78.560  1.00  0.00    -0.452 OA
ENDROOT
BRANCH   1  12
ATOM     12  C   UNL     1     -36.703   5.253  79.250  1.00  0.00     0.025 A 
ATOM     13  C   UNL     1     -35.564   4.485  79.549  1.00  0.00     0.016 A 
ATOM     14  C   UNL     1     -34.287   4.980  79.271  1.00  0.00     0.051 A 
ATOM     15  C   UNL     1     -34.126   6.249  78.706  1.00  0.00     0.157 A 
ATOM     16  C   UNL     1     -36.538   6.535  78.701  1.00  0.00     0.062 A 
ATOM     17  C   UNL     1     -35.256   7.033  78.422  1.00  0.00     0.158 A 
BRANCH  15  18
ATOM     18  O   UNL     1     -32.839   6.713  78.438  1.00  0.00    -0.504 OA
ATOM     19  H   UNL     1     -32.224   7.045  79.172  1.00  0.00     0.293 HD
ENDBRANCH  15  18
BRANCH  17  20
ATOM     20  O   UNL     1     -35.104   8.302  77.865  1.00  0.00    -0.504 OA
ATOM     21  H   UNL     1     -35.903   8.886  77.650  1.00  0.00     0.293 HD
ENDBRANCH  17  20
ENDBRANCH   1  12
BRANCH   2  22
ATOM     22  O   UNL     1     -37.788   5.179  81.936  1.00  0.00    -0.502 OA
ATOM     23  H   UNL     1     -36.811   4.927  82.018  1.00  0.00     0.293 HD
ENDBRANCH   2  22
BRANCH   6  24
ATOM     24  O   UNL     1     -42.796   3.503  81.242  1.00  0.00    -0.507 OA
ATOM     25  H   UNL     1     -43.740   3.156  81.334  1.00  0.00     0.293 HD
ENDBRANCH   6  24
BRANCH   8  26
ATOM     26  O   UNL     1     -42.677   2.321  76.607  1.00  0.00    -0.508 OA
ATOM     27  H   UNL     1     -42.728   1.322  76.441  1.00  0.00     0.293 HD
ENDBRANCH   8  26
TORSDOF 6
ENDMDL
MODEL 2
REMARK VINA RESULT:    -6.488     10.004     11.689
REMARK INTER + INTRA:          -8.086
REMARK INTER:                  -7.785
REMARK INTRA:                  -0.300
REMARK UNBOUND:                -0.271
REMARK SMILES O=c1c(O)c(-c2ccc(O)c(O)c2)oc2cc(O)cc(O)c12
REMARK SMILES IDX 5 1 3 2 2 3 1 4 22 5 20 6 19 7 17 8 16 9 15 10 14 11 6 12
REMARK SMILES IDX 7 13 8 14 9 15 13 16 11 17 10 18 12 20 4 22 21 24 18 26
REMARK H PARENT 10 19 12 21 4 23 21 25 18 27
REMARK Flexibility Score: inf
ROOT
ATOM      1  C   UNL     1     -46.591   2.348  73.714  1.00  0.00     0.180 A 
ATOM      2  C   UNL     1     -47.215   3.219  74.623  1.00  0.00     0.208 A 
ATOM      3  C   UNL     1     -47.427   4.556  74.249  1.00  0.00     0.238 A 
ATOM      4  O   UNL     1     -48.035   5.317  75.047  1.00  0.00    -0.285 OA
ATOM      5  C   UNL     1     -46.999   5.009  72.978  1.00  0.00     0.111 A 
ATOM      6  C   UNL     1     -47.126   6.352  72.511  1.00  0.00     0.134 A 
ATOM      7  C   UNL     1     -46.787   6.657  71.188  1.00  0.00     0.093 A 
ATOM      8  C   UNL     1     -46.263   5.685  70.335  1.00  0.00     0.123 A 
ATOM      9  C   UNL     1     -46.079   4.383  70.800  1.00  0.00     0.094 A 
ATOM     10  C   UNL     1     -46.442   4.039  72.104  1.00  0.00     0.146 A 
ATOM     11  O   UNL     1     -46.260   2.786  72.505  1.00  0.00    -0.452 OA
ENDROOT
BRANCH   1  12
ATOM     12  C   UNL     1     -46.311   0.932  74.045  1.00  0.00     0.025 A 
ATOM     13  C   UNL     1     -45.030   0.513  74.443  1.00  0.00     0.016 A 
ATOM     14  C   UNL     1     -44.783  -0.833  74.727  1.00  0.00     0.051 A 
ATOM     15  C   UNL     1     -45.804  -1.780  74.606  1.00  0.00     0.157 A 
ATOM     16  C   UNL     1     -47.330  -0.025  73.904  1.00  0.00     0.062 A 
ATOM     17  C   UNL     1     -47.083  -1.377  74.189  1.00  0.00     0.158 A 
BRANCH  15  18
ATOM     18  O   UNL     1     -45.528  -3.115  74.898  1.00  0.00    -0.504 OA
ATOM     19  H   UNL     1     -45.352  -3.800  74.172  1.00  0.00     0.293 HD
ENDBRANCH  15  18
BRANCH  17  20
ATOM     20  O   UNL     1     -48.104  -2.317  74.058  1.00  0.00    -0.504 OA
ATOM     21  H   UNL     1     -48.939  -2.123  73.518  1.00  0.00     0.293 HD
ENDBRANCH  17  20
ENDBRANCH   1  12
BRANCH   2  22
ATOM     22  O   UNL     1     -47.651   2.746  75.864  1.00  0.00    -0.502 OA
ATOM     23  H   UNL     1     -48.454   2.138  75.964  1.00  0.00     0.293 HD
ENDBRANCH   2  22
BRANCH   6  24
ATOM     24  O   UNL     1     -47.552   7.418  73.308  1.00  0.00    -0.507 OA
ATOM     25  H   UNL     1     -48.073   7.321  74.167  1.00  0.00     0.293 HD
ENDBRANCH   6  24
BRANCH   8  26
ATOM     26  O   UNL     1     -45.921   6.028  69.029  1.00  0.00    -0.508 OA
ATOM     27  H   UNL     1     -46.026   5.373  68.264  1.00  0.00     0.293 HD
ENDBRANCH   8  26
TORSDOF 6
ENDMDL
MODEL 3
REMARK VINA RESULT:    -6.407     10.331     11.674
REMARK INTER + INTRA:          -7.988
REMARK INTER:                  -7.750
REMARK INTRA:                  -0.238
REMARK UNBOUND:                -0.271
REMARK SMILES O=c1c(O)c(-c2ccc(O)c(O)c2)oc2cc(O)cc(O)c12
REMARK SMILES IDX 5 1 3 2 2 3 1 4 22 5 20 6 19 7 17 8 16 9 15 10 14 11 6 12
REMARK SMILES IDX 7 13 8 14 9 15 13 16 11 17 10 18 12 20 4 22 21 24 18 26
REMARK H PARENT 10 19 12 21 4 23 21 25 18 27
REMARK Flexibility Score: inf
ROOT
ATOM      1  C   UNL     1     -46.525  -0.205  74.001  1.00  0.00     0.180 A 
ATOM      2  C   UNL     1     -47.695  -0.973  73.878  1.00  0.00     0.208 A 
ATOM      3  C   UNL     1     -47.634  -2.353  74.132  1.00  0.00     0.238 A 
ATOM      4  O   UNL     1     -48.696  -3.025  74.072  1.00  0.00    -0.285 OA
ATOM      5  C   UNL     1     -46.401  -2.949  74.491  1.00  0.00     0.111 A 
ATOM      6  C   UNL     1     -46.215  -4.344  74.732  1.00  0.00     0.134 A 
ATOM      7  C   UNL     1     -44.982  -4.804  75.208  1.00  0.00     0.093 A 
ATOM      8  C   UNL     1     -43.909  -3.932  75.389  1.00  0.00     0.123 A 
ATOM      9  C   UNL     1     -44.062  -2.575  75.100  1.00  0.00     0.094 A 
ATOM     10  C   UNL     1     -45.291  -2.081  74.658  1.00  0.00     0.146 A 
ATOM     11  O   UNL     1     -45.398  -0.782  74.403  1.00  0.00    -0.452 OA
ENDROOT
BRANCH   1  12
ATOM     12  C   UNL     1     -46.505   1.250  73.725  1.00  0.00     0.025 A 
ATOM     13  C   UNL     1     -45.870   1.770  72.584  1.00  0.00     0.016 A 
ATOM     14  C   UNL     1     -45.843   3.148  72.357  1.00  0.00     0.051 A 
ATOM     15  C   UNL     1     -46.434   4.028  73.269  1.00  0.00     0.157 A 
ATOM     16  C   UNL     1     -47.080   2.137  74.651  1.00  0.00     0.062 A 
ATOM     17  C   UNL     1     -47.053   3.522  74.424  1.00  0.00     0.158 A 
BRANCH  15  18
ATOM     18  O   UNL     1     -46.393   5.398  73.014  1.00  0.00    -0.504 OA
ATOM     19  H   UNL     1     -46.641   5.784  72.110  1.00  0.00     0.293 HD
ENDBRANCH  15  18
BRANCH  17  20
ATOM     20  O   UNL     1     -47.638   4.393  75.342  1.00  0.00    -0.504 OA
ATOM     21  H   UNL     1     -47.085   4.884  76.034  1.00  0.00     0.293 HD
ENDBRANCH  17  20
ENDBRANCH   1  12
BRANCH   2  22
ATOM     22  O   UNL     1     -48.906  -0.361  73.544  1.00  0.00    -0.502 OA
ATOM     23  H   UNL     1     -49.208   0.512  73.961  1.00  0.00     0.293 HD
ENDBRANCH   2  22
BRANCH   6  24
ATOM     24  O   UNL     1     -47.194  -5.314  74.496  1.00  0.00    -0.507 OA
ATOM     25  H   UNL     1     -47.019  -6.219  74.084  1.00  0.00     0.293 HD
ENDBRANCH   6  24
BRANCH   8  26
ATOM     26  O   UNL     1     -42.691  -4.426  75.849  1.00  0.00    -0.508 OA
ATOM     27  H   UNL     1     -42.538  -5.419  75.985  1.00  0.00     0.293 HD
ENDBRANCH   8  26
TORSDOF 6
ENDMDL
MODEL 4
REMARK VINA RESULT:    -6.383      9.071     11.592
REMARK INTER + INTRA:          -7.960
REMARK INTER:                  -7.771
REMARK INTRA:                  -0.189
REMARK UNBOUND:                -0.271
REMARK SMILES O=c1c(O)c(-c2ccc(O)c(O)c2)oc2cc(O)cc(O)c12
REMARK SMILES IDX 5 1 3 2 2 3 1 4 22 5 20 6 19 7 17 8 16 9 15 10 14 11 6 12
REMARK SMILES IDX 7 13 8 14 9 15 13 16 11 17 10 18 12 20 4 22 21 24 18 26
REMARK H PARENT 10 19 12 21 4 23 21 25 18 27
REMARK Flexibility Score: inf
ROOT
ATOM      1  C   UNL     1     -46.634   4.822  72.015  1.00  0.00     0.180 A 
ATOM      2  C   UNL     1     -47.852   4.154  71.801  1.00  0.00     0.208 A 
ATOM      3  C   UNL     1     -47.998   2.837  72.265  1.00  0.00     0.238 A 
ATOM      4  O   UNL     1     -49.109   2.264  72.118  1.00  0.00    -0.285 OA
ATOM      5  C   UNL     1     -46.920   2.199  72.923  1.00  0.00     0.111 A 
ATOM      6  C   UNL     1     -46.943   0.853  73.399  1.00  0.00     0.134 A 
ATOM      7  C   UNL     1     -45.866   0.368  74.151  1.00  0.00     0.093 A 
ATOM      8  C   UNL     1     -44.740   1.155  74.388  1.00  0.00     0.123 A 
ATOM      9  C   UNL     1     -44.682   2.452  73.877  1.00  0.00     0.094 A 
ATOM     10  C   UNL     1     -45.755   2.977  73.154  1.00  0.00     0.146 A 
ATOM     11  O   UNL     1     -45.665   4.219  72.694  1.00  0.00    -0.452 OA
ENDROOT
BRANCH   1  12
ATOM     12  C   UNL     1     -46.396   6.202  71.534  1.00  0.00     0.025 A 
ATOM     13  C   UNL     1     -46.276   7.279  72.429  1.00  0.00     0.016 A 
ATOM     14  C   UNL     1     -46.075   8.576  71.950  1.00  0.00     0.051 A 
ATOM     15  C   UNL     1     -46.006   8.820  70.575  1.00  0.00     0.157 A 
ATOM     16  C   UNL     1     -46.347   6.452  70.152  1.00  0.00     0.062 A 
ATOM     17  C   UNL     1     -46.146   7.755  69.670  1.00  0.00     0.158 A 
BRANCH  15  18
ATOM     18  O   UNL     1     -45.803  10.125  70.127  1.00  0.00    -0.504 OA
ATOM     19  H   UNL     1     -44.894  10.570  70.162  1.00  0.00     0.293 HD
ENDBRANCH  15  18
BRANCH  17  20
ATOM     20  O   UNL     1     -46.086   7.991  68.298  1.00  0.00    -0.504 OA
ATOM     21  H   UNL     1     -45.906   7.244  67.638  1.00  0.00     0.293 HD
ENDBRANCH  17  20
ENDBRANCH   1  12
BRANCH   2  22
ATOM     22  O   UNL     1     -48.912   4.811  71.169  1.00  0.00    -0.502 OA
ATOM     23  H   UNL     1     -49.857   4.795  71.533  1.00  0.00     0.293 HD
ENDBRANCH   2  22
BRANCH   6  24
ATOM     24  O   UNL     1     -47.979  -0.049  73.140  1.00  0.00    -0.507 OA
ATOM     25  H   UNL     1     -48.905   0.010  73.538  1.00  0.00     0.293 HD
ENDBRANCH   6  24
BRANCH   8  26
ATOM     26  O   UNL     1     -43.680   0.635  75.127  1.00  0.00    -0.508 OA
ATOM     27  H   UNL     1     -43.428  -0.345  75.075  1.00  0.00     0.293 HD
ENDBRANCH   8  26
TORSDOF 6
ENDMDL
MODEL 5
REMARK VINA RESULT:    -6.380      1.829      7.252
REMARK INTER + INTRA:          -7.956
REMARK INTER:                  -7.635
REMARK INTRA:                  -0.321
REMARK UNBOUND:                -0.271
REMARK SMILES O=c1c(O)c(-c2ccc(O)c(O)c2)oc2cc(O)cc(O)c12
REMARK SMILES IDX 5 1 3 2 2 3 1 4 22 5 20 6 19 7 17 8 16 9 15 10 14 11 6 12
REMARK SMILES IDX 7 13 8 14 9 15 13 16 11 17 10 18 12 20 4 22 21 24 18 26
REMARK H PARENT 10 19 12 21 4 23 21 25 18 27
REMARK Flexibility Score: inf
ROOT
ATOM      1  C   UNL     1     -38.566   6.024  78.259  1.00  0.00     0.180 A 
ATOM      2  C   UNL     1     -38.886   7.253  77.656  1.00  0.00     0.208 A 
ATOM      3  C   UNL     1     -37.859   8.179  77.411  1.00  0.00     0.238 A 
ATOM      4  O   UNL     1     -38.144   9.255  76.822  1.00  0.00    -0.285 OA
ATOM      5  C   UNL     1     -36.529   7.873  77.788  1.00  0.00     0.111 A 
ATOM      6  C   UNL     1     -35.417   8.754  77.626  1.00  0.00     0.134 A 
ATOM      7  C   UNL     1     -34.127   8.296  77.913  1.00  0.00     0.093 A 
ATOM      8  C   UNL     1     -33.913   7.014  78.420  1.00  0.00     0.123 A 
ATOM      9  C   UNL     1     -34.998   6.166  78.639  1.00  0.00     0.094 A 
ATOM     10  C   UNL     1     -36.295   6.581  78.327  1.00  0.00     0.146 A 
ATOM     11  O   UNL     1     -37.300   5.740  78.541  1.00  0.00    -0.452 OA
ENDROOT
BRANCH   1  12
ATOM     12  C   UNL     1     -39.597   5.008  78.570  1.00  0.00     0.025 A 
ATOM     13  C   UNL     1     -39.992   4.051  77.619  1.00  0.00     0.016 A 
ATOM     14  C   UNL     1     -40.984   3.116  77.928  1.00  0.00     0.051 A 
ATOM     15  C   UNL     1     -41.604   3.130  79.181  1.00  0.00     0.157 A 
ATOM     16  C   UNL     1     -40.236   5.033  79.821  1.00  0.00     0.062 A 
ATOM     17  C   UNL     1     -41.233   4.094  80.132  1.00  0.00     0.158 A 
BRANCH  15  18
ATOM     18  O   UNL     1     -42.589   2.184  79.460  1.00  0.00    -0.504 OA
ATOM     19  H   UNL     1     -43.475   2.169  78.969  1.00  0.00     0.293 HD
ENDBRANCH  15  18
BRANCH  17  20
ATOM     20  O   UNL     1     -41.852   4.120  81.381  1.00  0.00    -0.504 OA
ATOM     21  H   UNL     1     -42.067   3.267  81.884  1.00  0.00     0.293 HD
ENDBRANCH  17  20
ENDBRANCH   1  12
BRANCH   2  22
ATOM     22  O   UNL     1     -40.201   7.526  77.271  1.00  0.00    -0.502 OA
ATOM     23  H   UNL     1     -40.561   7.289  76.354  1.00  0.00     0.293 HD
ENDBRANCH   2  22
BRANCH   6  24
ATOM     24  O   UNL     1     -35.530  10.085  77.213  1.00  0.00    -0.507 OA
ATOM     25  H   UNL     1     -35.838  10.845  77.802  1.00  0.00     0.293 HD
ENDBRANCH   6  24
BRANCH   8  26
ATOM     26  O   UNL     1     -32.616   6.598  78.710  1.00  0.00    -0.508 OA
ATOM     27  H   UNL     1     -32.213   5.775  78.277  1.00  0.00     0.293 HD
ENDBRANCH   8  26
TORSDOF 6
ENDMDL
MODEL 6
REMARK VINA RESULT:    -6.328      9.153     11.605
REMARK INTER + INTRA:          -7.893
REMARK INTER:                  -8.034
REMARK INTRA:                   0.141
REMARK UNBOUND:                -0.271
REMARK SMILES O=c1c(O)c(-c2ccc(O)c(O)c2)oc2cc(O)cc(O)c12
REMARK SMILES IDX 5 1 3 2 2 3 1 4 22 5 20 6 19 7 17 8 16 9 15 10 14 11 6 12
REMARK SMILES IDX 7 13 8 14 9 15 13 16 11 17 10 18 12 20 4 22 21 24 18 26
REMARK H PARENT 10 19 12 21 4 23 21 25 18 27
REMARK Flexibility Score: inf
ROOT
ATOM      1  C   UNL     1     -46.377  -1.422  74.888  1.00  0.00     0.180 A 
ATOM      2  C   UNL     1     -47.657  -1.895  75.223  1.00  0.00     0.208 A 
ATOM      3  C   UNL     1     -47.780  -3.153  75.835  1.00  0.00     0.238 A 
ATOM      4  O   UNL     1     -48.924  -3.547  76.182  1.00  0.00    -0.285 OA
ATOM      5  C   UNL     1     -46.623  -3.929  76.089  1.00  0.00     0.111 A 
ATOM      6  C   UNL     1     -46.633  -5.234  76.667  1.00  0.00     0.134 A 
ATOM      7  C   UNL     1     -45.422  -5.855  76.992  1.00  0.00     0.093 A 
ATOM      8  C   UNL     1     -44.201  -5.248  76.701  1.00  0.00     0.123 A 
ATOM      9  C   UNL     1     -44.178  -3.998  76.082  1.00  0.00     0.094 A 
ATOM     10  C   UNL     1     -45.371  -3.338  75.777  1.00  0.00     0.146 A 
ATOM     11  O   UNL     1     -45.307  -2.145  75.198  1.00  0.00    -0.452 OA
ENDROOT
BRANCH   1  12
ATOM     12  C   UNL     1     -46.170  -0.118  74.218  1.00  0.00     0.025 A 
ATOM     13  C   UNL     1     -47.054   0.347  73.230  1.00  0.00     0.016 A 
ATOM     14  C   UNL     1     -46.825   1.570  72.594  1.00  0.00     0.051 A 
ATOM     15  C   UNL     1     -45.705   2.340  72.925  1.00  0.00     0.157 A 
ATOM     16  C   UNL     1     -45.035   0.648  74.533  1.00  0.00     0.062 A 
ATOM     17  C   UNL     1     -44.803   1.877  73.896  1.00  0.00     0.158 A 
BRANCH  15  18
ATOM     18  O   UNL     1     -45.504   3.557  72.275  1.00  0.00    -0.504 OA
ATOM     19  H   UNL     1     -46.237   4.008  71.740  1.00  0.00     0.293 HD
ENDBRANCH  15  18
BRANCH  17  20
ATOM     20  O   UNL     1     -43.681   2.635  74.226  1.00  0.00    -0.504 OA
ATOM     21  H   UNL     1     -43.590   3.084  75.129  1.00  0.00     0.293 HD
ENDBRANCH  17  20
ENDBRANCH   1  12
BRANCH   2  22
ATOM     22  O   UNL     1     -48.784  -1.104  74.985  1.00  0.00    -0.502 OA
ATOM     23  H   UNL     1     -48.903  -0.187  75.398  1.00  0.00     0.293 HD
ENDBRANCH   2  22
BRANCH   6  24
ATOM     24  O   UNL     1     -47.797  -5.969  76.915  1.00  0.00    -0.507 OA
ATOM     25  H   UNL     1     -48.692  -5.566  77.148  1.00  0.00     0.293 HD
ENDBRANCH   6  24
BRANCH   8  26
ATOM     26  O   UNL     1     -43.014  -5.901  77.024  1.00  0.00    -0.508 OA
ATOM     27  H   UNL     1     -42.778  -6.803  76.625  1.00  0.00     0.293 HD
ENDBRANCH   8  26
TORSDOF 6
ENDMDL
MODEL 7
REMARK VINA RESULT:    -6.240      1.595      3.220
REMARK INTER + INTRA:          -7.788
REMARK INTER:                  -7.480
REMARK INTRA:                  -0.308
REMARK UNBOUND:                -0.271
REMARK SMILES O=c1c(O)c(-c2ccc(O)c(O)c2)oc2cc(O)cc(O)c12
REMARK SMILES IDX 5 1 3 2 2 3 1 4 22 5 20 6 19 7 17 8 16 9 15 10 14 11 6 12
REMARK SMILES IDX 7 13 8 14 9 15 13 16 11 17 10 18 12 20 4 22 21 24 18 26
REMARK H PARENT 10 19 12 21 4 23 21 25 18 27
REMARK Flexibility Score: inf
ROOT
ATOM      1  C   UNL     1     -37.891   5.070  80.099  1.00  0.00     0.180 A 
ATOM      2  C   UNL     1     -38.938   5.012  79.164  1.00  0.00     0.208 A 
ATOM      3  C   UNL     1     -40.204   4.573  79.584  1.00  0.00     0.238 A 
ATOM      4  O   UNL     1     -41.151   4.575  78.754  1.00  0.00    -0.285 OA
ATOM      5  C   UNL     1     -40.403   4.181  80.930  1.00  0.00     0.111 A 
ATOM      6  C   UNL     1     -41.632   3.681  81.456  1.00  0.00     0.134 A 
ATOM      7  C   UNL     1     -41.751   3.448  82.830  1.00  0.00     0.093 A 
ATOM      8  C   UNL     1     -40.668   3.632  83.689  1.00  0.00     0.123 A 
ATOM      9  C   UNL     1     -39.444   4.064  83.177  1.00  0.00     0.094 A 
ATOM     10  C   UNL     1     -39.304   4.339  81.815  1.00  0.00     0.146 A 
ATOM     11  O   UNL     1     -38.126   4.758  81.369  1.00  0.00    -0.452 OA
ENDROOT
BRANCH   1  12
ATOM     12  C   UNL     1     -36.524   5.498  79.726  1.00  0.00     0.025 A 
ATOM     13  C   UNL     1     -35.512   4.561  79.452  1.00  0.00     0.016 A 
ATOM     14  C   UNL     1     -34.223   4.989  79.126  1.00  0.00     0.051 A 
ATOM     15  C   UNL     1     -33.920   6.354  79.081  1.00  0.00     0.157 A 
ATOM     16  C   UNL     1     -36.212   6.868  79.700  1.00  0.00     0.062 A 
ATOM     17  C   UNL     1     -34.917   7.299  79.373  1.00  0.00     0.158 A 
BRANCH  15  18
ATOM     18  O   UNL     1     -32.625   6.750  78.750  1.00  0.00    -0.504 OA
ATOM     19  H   UNL     1     -31.807   6.303  79.148  1.00  0.00     0.293 HD
ENDBRANCH  15  18
BRANCH  17  20
ATOM     20  O   UNL     1     -34.621   8.660  79.338  1.00  0.00    -0.504 OA
ATOM     21  H   UNL     1     -35.302   9.344  79.028  1.00  0.00     0.293 HD
ENDBRANCH  17  20
ENDBRANCH   1  12
BRANCH   2  22
ATOM     22  O   UNL     1     -38.727   5.425  77.845  1.00  0.00    -0.502 OA
ATOM     23  H   UNL     1     -37.858   5.846  77.539  1.00  0.00     0.293 HD
ENDBRANCH   2  22
BRANCH   6  24
ATOM     24  O   UNL     1     -42.749   3.375  80.672  1.00  0.00    -0.507 OA
ATOM     25  H   UNL     1     -43.260   4.043  80.114  1.00  0.00     0.293 HD
ENDBRANCH   6  24
BRANCH   8  26
ATOM     26  O   UNL     1     -40.817   3.375  85.049  1.00  0.00    -0.508 OA
ATOM     27  H   UNL     1     -40.667   4.096  85.746  1.00  0.00     0.293 HD
ENDBRANCH   8  26
TORSDOF 6
ENDMDL
MODEL 8
REMARK VINA RESULT:    -6.185      8.908     10.992
REMARK INTER + INTRA:          -7.721
REMARK INTER:                  -7.412
REMARK INTRA:                  -0.309
REMARK UNBOUND:                -0.271
REMARK SMILES O=c1c(O)c(-c2ccc(O)c(O)c2)oc2cc(O)cc(O)c12
REMARK SMILES IDX 5 1 3 2 2 3 1 4 22 5 20 6 19 7 17 8 16 9 15 10 14 11 6 12
REMARK SMILES IDX 7 13 8 14 9 15 13 16 11 17 10 18 12 20 4 22 21 24 18 26
REMARK H PARENT 10 19 12 21 4 23 21 25 18 27
REMARK Flexibility Score: inf
ROOT
ATOM      1  C   UNL     1     -42.617  -4.726  82.197  1.00  0.00     0.180 A 
ATOM      2  C   UNL     1     -43.118  -5.869  82.841  1.00  0.00     0.208 A 
ATOM      3  C   UNL     1     -44.259  -6.500  82.318  1.00  0.00     0.238 A 
ATOM      4  O   UNL     1     -44.672  -7.555  82.868  1.00  0.00    -0.285 OA
ATOM      5  C   UNL     1     -44.893  -5.970  81.169  1.00  0.00     0.111 A 
ATOM      6  C   UNL     1     -46.078  -6.504  80.577  1.00  0.00     0.134 A 
ATOM      7  C   UNL     1     -46.543  -5.977  79.367  1.00  0.00     0.093 A 
ATOM      8  C   UNL     1     -45.906  -4.895  78.760  1.00  0.00     0.123 A 
ATOM      9  C   UNL     1     -44.781  -4.328  79.359  1.00  0.00     0.094 A 
ATOM     10  C   UNL     1     -44.273  -4.854  80.549  1.00  0.00     0.146 A 
ATOM     11  O   UNL     1     -43.195  -4.291  81.083  1.00  0.00    -0.452 OA
ENDROOT
BRANCH   1  12
ATOM     12  C   UNL     1     -41.434  -3.992  82.702  1.00  0.00     0.025 A 
ATOM     13  C   UNL     1     -41.571  -2.839  83.494  1.00  0.00     0.016 A 
ATOM     14  C   UNL     1     -40.440  -2.149  83.939  1.00  0.00     0.051 A 
ATOM     15  C   UNL     1     -39.160  -2.590  83.591  1.00  0.00     0.157 A 
ATOM     16  C   UNL     1     -40.147  -4.421  82.336  1.00  0.00     0.062 A 
ATOM     17  C   UNL     1     -39.010  -3.729  82.783  1.00  0.00     0.158 A 
BRANCH  15  18
ATOM     18  O   UNL     1     -38.050  -1.882  84.052  1.00  0.00    -0.504 OA
ATOM     19  H   UNL     1     -37.210  -1.776  83.495  1.00  0.00     0.293 HD
ENDBRANCH  15  18
BRANCH  17  20
ATOM     20  O   UNL     1     -37.737  -4.170  82.426  1.00  0.00    -0.504 OA
ATOM     21  H   UNL     1     -36.907  -3.636  82.653  1.00  0.00     0.293 HD
ENDBRANCH  17  20
ENDBRANCH   1  12
BRANCH   2  22
ATOM     22  O   UNL     1     -42.465  -6.389  83.961  1.00  0.00    -0.502 OA
ATOM     23  H   UNL     1     -42.854  -7.139  84.520  1.00  0.00     0.293 HD
ENDBRANCH   2  22
BRANCH   6  24
ATOM     24  O   UNL     1     -46.843  -7.525  81.149  1.00  0.00    -0.507 OA
ATOM     25  H   UNL     1     -46.480  -8.420  81.443  1.00  0.00     0.293 HD
ENDBRANCH   6  24
BRANCH   8  26
ATOM     26  O   UNL     1     -46.405  -4.387  77.563  1.00  0.00    -0.508 OA
ATOM     27  H   UNL     1     -47.390  -4.443  77.332  1.00  0.00     0.293 HD
ENDBRANCH   8  26
TORSDOF 6
ENDMDL
MODEL 9
REMARK VINA RESULT:    -6.145      1.371      6.899
REMARK INTER + INTRA:          -7.673
REMARK INTER:                  -7.486
REMARK INTRA:                  -0.188
REMARK UNBOUND:                -0.271
REMARK SMILES O=c1c(O)c(-c2ccc(O)c(O)c2)oc2cc(O)cc(O)c12
REMARK SMILES IDX 5 1 3 2 2 3 1 4 22 5 20 6 19 7 17 8 16 9 15 10 14 11 6 12
REMARK SMILES IDX 7 13 8 14 9 15 13 16 11 17 10 18 12 20 4 22 21 24 18 26
REMARK H PARENT 10 19 12 21 4 23 21 25 18 27
REMARK Flexibility Score: inf
ROOT
ATOM      1  C   UNL     1     -38.218   4.693  79.226  1.00  0.00     0.180 A 
ATOM      2  C   UNL     1     -37.181   4.093  79.960  1.00  0.00     0.208 A 
ATOM      3  C   UNL     1     -35.900   4.669  79.925  1.00  0.00     0.238 A 
ATOM      4  O   UNL     1     -34.989   4.159  80.627  1.00  0.00    -0.285 OA
ATOM      5  C   UNL     1     -35.670   5.828  79.145  1.00  0.00     0.111 A 
ATOM      6  C   UNL     1     -34.404   6.472  79.004  1.00  0.00     0.134 A 
ATOM      7  C   UNL     1     -34.320   7.686  78.312  1.00  0.00     0.093 A 
ATOM      8  C   UNL     1     -35.441   8.246  77.700  1.00  0.00     0.123 A 
ATOM      9  C   UNL     1     -36.672   7.594  77.781  1.00  0.00     0.094 A 
ATOM     10  C   UNL     1     -36.795   6.400  78.495  1.00  0.00     0.146 A 
ATOM     11  O   UNL     1     -37.986   5.816  78.556  1.00  0.00    -0.452 OA
ENDROOT
BRANCH   1  12
ATOM     12  C   UNL     1     -39.588   4.131  79.193  1.00  0.00     0.025 A 
ATOM     13  C   UNL     1     -40.133   3.601  78.011  1.00  0.00     0.016 A 
ATOM     14  C   UNL     1     -41.437   3.097  77.998  1.00  0.00     0.051 A 
ATOM     15  C   UNL     1     -42.218   3.127  79.158  1.00  0.00     0.157 A 
ATOM     16  C   UNL     1     -40.382   4.178  80.351  1.00  0.00     0.062 A 
ATOM     17  C   UNL     1     -41.691   3.672  80.340  1.00  0.00     0.158 A 
BRANCH  15  18
ATOM     18  O   UNL     1     -43.514   2.615  79.114  1.00  0.00    -0.504 OA
ATOM     19  H   UNL     1     -43.729   1.669  79.410  1.00  0.00     0.293 HD
ENDBRANCH  15  18
BRANCH  17  20
ATOM     20  O   UNL     1     -42.467   3.712  81.497  1.00  0.00    -0.504 OA
ATOM     21  H   UNL     1     -42.213   3.186  82.325  1.00  0.00     0.293 HD
ENDBRANCH  17  20
ENDBRANCH   1  12
BRANCH   2  22
ATOM     22  O   UNL     1     -37.435   2.963  80.741  1.00  0.00    -0.502 OA
ATOM     23  H   UNL     1     -37.117   2.037  80.480  1.00  0.00     0.293 HD
ENDBRANCH   2  22
BRANCH   6  24
ATOM     24  O   UNL     1     -33.204   5.951  79.498  1.00  0.00    -0.507 OA
ATOM     25  H   UNL     1     -32.350   6.478  79.606  1.00  0.00     0.293 HD
ENDBRANCH   6  24
BRANCH   8  26
ATOM     26  O   UNL     1     -35.318   9.447  77.007  1.00  0.00    -0.508 OA
ATOM     27  H   UNL     1     -35.771   9.592  76.112  1.00  0.00     0.293 HD
ENDBRANCH   8  26
TORSDOF 6
ENDMDL
