MODEL 1
REMARK VINA RESULT:    -4.520      0.000      0.000
REMARK INTER + INTRA:         -10.561
REMARK INTER:                  -8.748
REMARK INTRA:                  -1.813
REMARK UNBOUND:                -1.813
REMARK SMILES CCCCCCCCCCCCCCCCCC(=O)[O-]
REMARK SMILES IDX 10 1 11 2 12 3 13 4 14 5 15 6 16 7 17 8 18 9 19 10 20 11
REMARK SMILES IDX 9 12 8 13 7 14 6 15 5 16 4 17 3 18 2 19 1 20
REMARK H PARENT
REMARK Flexibility Score: inf
ROOT
ATOM      1  C   UNL     1      15.287  54.112  35.232  1.00  0.00     0.000 C 
ENDROOT
BRANCH   1   2
ATOM      2  C   UNL     1      13.843  53.941  35.738  1.00  0.00     0.000 C 
BRANCH   2   3
ATOM      3  C   UNL     1      12.946  55.143  35.402  1.00  0.00     0.000 C 
BRANCH   3   4
ATOM      4  C   UNL     1      12.266  55.020  34.025  1.00  0.00     0.000 C 
BRANCH   4   5
ATOM      5  C   UNL     1      12.835  55.943  32.932  1.00  0.00     0.000 C 
BRANCH   5   6
ATOM      6  C   UNL     1      13.768  57.031  33.492  1.00  0.00     0.000 C 
BRANCH   6   7
ATOM      7  C   UNL     1      15.223  56.873  33.012  1.00  0.00     0.006 C 
BRANCH   7   8
ATOM      8  C   UNL     1      15.940  58.203  32.731  1.00  0.00     0.053 C 
BRANCH   8   9
ATOM      9  C   UNL     1      17.360  57.997  32.303  1.00  0.00     0.041 C 
ATOM     10  O   UNL     1      18.274  58.727  32.769  1.00  0.00    -0.550 OA
ATOM     11  O   UNL     1      17.670  57.022  31.363  1.00  0.00    -0.550 OA
ENDBRANCH   8   9
ENDBRANCH   7   8
ENDBRANCH   6   7
ENDBRANCH   5   6
ENDBRANCH   4   5
ENDBRANCH   3   4
ENDBRANCH   2   3
ENDBRANCH   1   2
BRANCH   1  12
ATOM     12  C   UNL     1      15.806  52.978  34.321  1.00  0.00     0.000 C 
BRANCH  12  13
ATOM     13  C   UNL     1      15.801  53.292  32.814  1.00  0.00    -0.000 C 
BRANCH  13  14
ATOM     14  C   UNL     1      14.531  52.788  32.106  1.00  0.00    -0.000 C 
BRANCH  14  15
ATOM     15  C   UNL     1      14.550  51.268  31.873  1.00  0.00    -0.000 C 
BRANCH  15  16
ATOM     16  C   UNL     1      15.533  50.853  30.766  1.00  0.00    -0.000 C 
BRANCH  16  17
ATOM     17  C   UNL     1      15.769  49.335  30.725  1.00  0.00    -0.000 C 
BRANCH  17  18
ATOM     18  C   UNL     1      14.790  48.557  31.621  1.00  0.00    -0.000 C 
BRANCH  18  19
ATOM     19  C   UNL     1      15.383  47.235  32.133  1.00  0.00    -0.003 C 
ATOM     20  C   UNL     1      14.890  46.869  33.533  1.00  0.00     0.004 C 
ENDBRANCH  18  19
ENDBRANCH  17  18
ENDBRANCH  16  17
ENDBRANCH  15  16
ENDBRANCH  14  15
ENDBRANCH  13  14
ENDBRANCH  12  13
ENDBRANCH   1  12
TORSDOF 16
ENDMDL
MODEL 2
REMARK VINA RESULT:    -4.501      4.334      8.468
REMARK INTER + INTRA:         -10.524
REMARK INTER:                  -8.751
REMARK INTRA:                  -1.773
REMARK UNBOUND:                -1.813
REMARK SMILES CCCCCCCCCCCCCCCCCC(=O)[O-]
REMARK SMILES IDX 10 1 11 2 12 3 13 4 14 5 15 6 16 7 17 8 18 9 19 10 20 11
REMARK SMILES IDX 9 12 8 13 7 14 6 15 5 16 4 17 3 18 2 19 1 20
REMARK H PARENT
REMARK Flexibility Score: inf
ROOT
ATOM      1  C   UNL     1      15.799  53.313  33.081  1.00  0.00     0.000 C 
ENDROOT
BRANCH   1   2
ATOM      2  C   UNL     1      14.608  52.522  32.511  1.00  0.00     0.000 C 
BRANCH   2   3
ATOM      3  C   UNL     1      15.004  51.605  31.341  1.00  0.00     0.000 C 
BRANCH   3   4
ATOM      4  C   UNL     1      14.546  50.148  31.539  1.00  0.00     0.000 C 
BRANCH   4   5
ATOM      5  C   UNL     1      15.483  49.082  30.942  1.00  0.00     0.000 C 
BRANCH   5   6
ATOM      6  C   UNL     1      14.968  47.647  31.151  1.00  0.00     0.000 C 
BRANCH   6   7
ATOM      7  C   UNL     1      15.651  46.936  32.334  1.00  0.00     0.006 C 
BRANCH   7   8
ATOM      8  C   UNL     1      14.827  46.944  33.632  1.00  0.00     0.053 C 
BRANCH   8   9
ATOM      9  C   UNL     1      14.004  45.703  33.784  1.00  0.00     0.041 C 
ATOM     10  O   UNL     1      13.223  45.576  34.763  1.00  0.00    -0.550 OA
ATOM     11  O   UNL     1      14.124  44.670  32.862  1.00  0.00    -0.550 OA
ENDBRANCH   8   9
ENDBRANCH   7   8
ENDBRANCH   6   7
ENDBRANCH   5   6
ENDBRANCH   4   5
ENDBRANCH   3   4
ENDBRANCH   2   3
ENDBRANCH   1   2
BRANCH   1  12
ATOM     12  C   UNL     1      15.835  53.436  34.619  1.00  0.00     0.000 C 
BRANCH  12  13
ATOM     13  C   UNL     1      14.514  53.105  35.336  1.00  0.00    -0.000 C 
BRANCH  13  14
ATOM     14  C   UNL     1      13.783  54.358  35.848  1.00  0.00    -0.000 C 
BRANCH  14  15
ATOM     15  C   UNL     1      12.596  54.754  34.954  1.00  0.00    -0.000 C 
BRANCH  15  16
ATOM     16  C   UNL     1      12.838  56.074  34.202  1.00  0.00    -0.000 C 
BRANCH  16  17
ATOM     17  C   UNL     1      13.004  55.868  32.688  1.00  0.00    -0.000 C 
BRANCH  17  18
ATOM     18  C   UNL     1      14.150  56.706  32.097  1.00  0.00    -0.000 C 
BRANCH  18  19
ATOM     19  C   UNL     1      15.286  56.944  33.105  1.00  0.00    -0.003 C 
ATOM     20  C   UNL     1      16.531  57.550  32.458  1.00  0.00     0.004 C 
ENDBRANCH  18  19
ENDBRANCH  17  18
ENDBRANCH  16  17
ENDBRANCH  15  16
ENDBRANCH  14  15
ENDBRANCH  13  14
ENDBRANCH  12  13
ENDBRANCH   1  12
TORSDOF 16
ENDMDL
MODEL 3
REMARK VINA RESULT:    -4.392      1.516      2.394
REMARK INTER + INTRA:         -10.313
REMARK INTER:                  -7.898
REMARK INTRA:                  -2.415
REMARK UNBOUND:                -1.813
REMARK SMILES CCCCCCCCCCCCCCCCCC(=O)[O-]
REMARK SMILES IDX 10 1 11 2 12 3 13 4 14 5 15 6 16 7 17 8 18 9 19 10 20 11
REMARK SMILES IDX 9 12 8 13 7 14 6 15 5 16 4 17 3 18 2 19 1 20
REMARK H PARENT
REMARK Flexibility Score: inf
ROOT
ATOM      1  C   UNL     1      13.418  54.840  35.507  1.00  0.00     0.000 C 
ENDROOT
BRANCH   1   2
ATOM      2  C   UNL     1      12.490  54.451  34.343  1.00  0.00     0.000 C 
BRANCH   2   3
ATOM      3  C   UNL     1      12.471  55.500  33.218  1.00  0.00     0.000 C 
BRANCH   3   4
ATOM      4  C   UNL     1      12.924  56.894  33.690  1.00  0.00     0.000 C 
BRANCH   4   5
ATOM      5  C   UNL     1      14.020  57.550  32.829  1.00  0.00     0.000 C 
BRANCH   5   6
ATOM      6  C   UNL     1      15.415  56.950  33.077  1.00  0.00     0.000 C 
BRANCH   6   7
ATOM      7  C   UNL     1      16.195  56.699  31.773  1.00  0.00     0.006 C 
BRANCH   7   8
ATOM      8  C   UNL     1      17.545  57.430  31.699  1.00  0.00     0.053 C 
BRANCH   8   9
ATOM      9  C   UNL     1      17.399  58.905  31.905  1.00  0.00     0.041 C 
ATOM     10  O   UNL     1      17.765  59.432  32.989  1.00  0.00    -0.550 OA
ATOM     11  O   UNL     1      16.828  59.695  30.915  1.00  0.00    -0.550 OA
ENDBRANCH   8   9
ENDBRANCH   7   8
ENDBRANCH   6   7
ENDBRANCH   5   6
ENDBRANCH   4   5
ENDBRANCH   3   4
ENDBRANCH   2   3
ENDBRANCH   1   2
BRANCH   1  12
ATOM     12  C   UNL     1      14.819  54.190  35.482  1.00  0.00     0.000 C 
BRANCH  12  13
ATOM     13  C   UNL     1      14.976  53.005  34.512  1.00  0.00    -0.000 C 
BRANCH  13  14
ATOM     14  C   UNL     1      16.015  53.273  33.409  1.00  0.00    -0.000 C 
BRANCH  14  15
ATOM     15  C   UNL     1      15.413  53.176  31.997  1.00  0.00    -0.000 C 
BRANCH  15  16
ATOM     16  C   UNL     1      14.148  52.303  31.954  1.00  0.00    -0.000 C 
BRANCH  16  17
ATOM     17  C   UNL     1      14.160  51.304  30.784  1.00  0.00    -0.000 C 
BRANCH  17  18
ATOM     18  C   UNL     1      14.843  49.974  31.146  1.00  0.00    -0.000 C 
BRANCH  18  19
ATOM     19  C   UNL     1      16.264  49.867  30.570  1.00  0.00    -0.003 C 
ATOM     20  C   UNL     1      16.345  50.319  29.112  1.00  0.00     0.004 C 
ENDBRANCH  18  19
ENDBRANCH  17  18
ENDBRANCH  16  17
ENDBRANCH  15  16
ENDBRANCH  14  15
ENDBRANCH  13  14
ENDBRANCH  12  13
ENDBRANCH   1  12
TORSDOF 16
ENDMDL
MODEL 4
REMARK VINA RESULT:    -4.376      0.785      1.416
REMARK INTER + INTRA:         -10.283
REMARK INTER:                  -8.924
REMARK INTRA:                  -1.360
REMARK UNBOUND:                -1.813
REMARK SMILES CCCCCCCCCCCCCCCCCC(=O)[O-]
REMARK SMILES IDX 10 1 11 2 12 3 13 4 14 5 15 6 16 7 17 8 18 9 19 10 20 11
REMARK SMILES IDX 9 12 8 13 7 14 6 15 5 16 4 17 3 18 2 19 1 20
REMARK H PARENT
REMARK Flexibility Score: inf
ROOT
ATOM      1  C   UNL     1      15.990  53.297  34.253  1.00  0.00     0.000 C 
ENDROOT
BRANCH   1   2
ATOM      2  C   UNL     1      14.720  53.180  35.115  1.00  0.00     0.000 C 
BRANCH   2   3
ATOM      3  C   UNL     1      14.323  54.509  35.779  1.00  0.00     0.000 C 
BRANCH   3   4
ATOM      4  C   UNL     1      13.037  55.116  35.186  1.00  0.00     0.000 C 
BRANCH   4   5
ATOM      5  C   UNL     1      13.097  55.431  33.680  1.00  0.00     0.000 C 
BRANCH   5   6
ATOM      6  C   UNL     1      13.770  56.781  33.378  1.00  0.00     0.000 C 
BRANCH   6   7
ATOM      7  C   UNL     1      15.272  56.642  33.069  1.00  0.00     0.006 C 
BRANCH   7   8
ATOM      8  C   UNL     1      15.999  57.981  32.868  1.00  0.00     0.053 C 
BRANCH   8   9
ATOM      9  C   UNL     1      17.348  57.801  32.244  1.00  0.00     0.041 C 
ATOM     10  O   UNL     1      18.307  58.545  32.580  1.00  0.00    -0.550 OA
ATOM     11  O   UNL     1      17.541  56.833  31.266  1.00  0.00    -0.550 OA
ENDBRANCH   8   9
ENDBRANCH   7   8
ENDBRANCH   6   7
ENDBRANCH   5   6
ENDBRANCH   4   5
ENDBRANCH   3   4
ENDBRANCH   2   3
ENDBRANCH   1   2
BRANCH   1  12
ATOM     12  C   UNL     1      15.794  53.018  32.748  1.00  0.00     0.000 C 
BRANCH  12  13
ATOM     13  C   UNL     1      14.635  52.066  32.401  1.00  0.00    -0.000 C 
BRANCH  13  14
ATOM     14  C   UNL     1      14.959  51.143  31.213  1.00  0.00    -0.000 C 
BRANCH  14  15
ATOM     15  C   UNL     1      14.002  49.942  31.123  1.00  0.00    -0.000 C 
BRANCH  15  16
ATOM     16  C   UNL     1      14.643  48.726  30.434  1.00  0.00    -0.000 C 
BRANCH  16  17
ATOM     17  C   UNL     1      14.376  47.412  31.186  1.00  0.00    -0.000 C 
BRANCH  17  18
ATOM     18  C   UNL     1      15.483  47.073  32.199  1.00  0.00    -0.000 C 
BRANCH  18  19
ATOM     19  C   UNL     1      14.961  47.017  33.644  1.00  0.00    -0.003 C 
ATOM     20  C   UNL     1      13.769  46.073  33.804  1.00  0.00     0.004 C 
ENDBRANCH  18  19
ENDBRANCH  17  18
ENDBRANCH  16  17
ENDBRANCH  15  16
ENDBRANCH  14  15
ENDBRANCH  13  14
ENDBRANCH  12  13
ENDBRANCH   1  12
TORSDOF 16
ENDMDL
MODEL 5
REMARK VINA RESULT:    -4.326      3.634      7.367
REMARK INTER + INTRA:         -10.185
REMARK INTER:                  -7.717
REMARK INTRA:                  -2.469
REMARK UNBOUND:                -1.813
REMARK SMILES CCCCCCCCCCCCCCCCCC(=O)[O-]
REMARK SMILES IDX 10 1 11 2 12 3 13 4 14 5 15 6 16 7 17 8 18 9 19 10 20 11
REMARK SMILES IDX 9 12 8 13 7 14 6 15 5 16 4 17 3 18 2 19 1 20
REMARK H PARENT
REMARK Flexibility Score: inf
ROOT
ATOM      1  C   UNL     1      14.996  52.638  35.293  1.00  0.00     0.000 C 
ENDROOT
BRANCH   1   2
ATOM      2  C   UNL     1      15.814  53.627  34.444  1.00  0.00     0.000 C 
BRANCH   2   3
ATOM      3  C   UNL     1      15.659  53.388  32.932  1.00  0.00     0.000 C 
BRANCH   3   4
ATOM      4  C   UNL     1      14.683  52.242  32.603  1.00  0.00     0.000 C 
BRANCH   4   5
ATOM      5  C   UNL     1      14.317  52.105  31.113  1.00  0.00     0.000 C 
BRANCH   5   6
ATOM      6  C   UNL     1      13.847  50.688  30.740  1.00  0.00     0.000 C 
BRANCH   6   7
ATOM      7  C   UNL     1      14.779  49.590  31.282  1.00  0.00     0.006 C 
BRANCH   7   8
ATOM      8  C   UNL     1      14.050  48.319  31.749  1.00  0.00     0.053 C 
BRANCH   8   9
ATOM      9  C   UNL     1      14.963  47.380  32.473  1.00  0.00     0.041 C 
ATOM     10  O   UNL     1      16.013  46.962  31.916  1.00  0.00    -0.550 OA
ATOM     11  O   UNL     1      14.639  46.938  33.749  1.00  0.00    -0.550 OA
ENDBRANCH   8   9
ENDBRANCH   7   8
ENDBRANCH   6   7
ENDBRANCH   5   6
ENDBRANCH   4   5
ENDBRANCH   3   4
ENDBRANCH   2   3
ENDBRANCH   1   2
BRANCH   1  12
ATOM     12  C   UNL     1      13.805  53.252  36.059  1.00  0.00     0.000 C 
BRANCH  12  13
ATOM     13  C   UNL     1      13.699  54.786  35.989  1.00  0.00    -0.000 C 
BRANCH  13  14
ATOM     14  C   UNL     1      12.403  55.263  35.310  1.00  0.00    -0.000 C 
BRANCH  14  15
ATOM     15  C   UNL     1      11.951  54.323  34.181  1.00  0.00    -0.000 C 
BRANCH  15  16
ATOM     16  C   UNL     1      12.156  54.937  32.785  1.00  0.00    -0.000 C 
BRANCH  16  17
ATOM     17  C   UNL     1      12.660  56.388  32.847  1.00  0.00    -0.000 C 
BRANCH  17  18
ATOM     18  C   UNL     1      14.025  56.571  32.162  1.00  0.00    -0.000 C 
BRANCH  18  19
ATOM     19  C   UNL     1      15.102  57.091  33.128  1.00  0.00    -0.003 C 
ATOM     20  C   UNL     1      16.433  57.375  32.431  1.00  0.00     0.004 C 
ENDBRANCH  18  19
ENDBRANCH  17  18
ENDBRANCH  16  17
ENDBRANCH  15  16
ENDBRANCH  14  15
ENDBRANCH  13  14
ENDBRANCH  12  13
ENDBRANCH   1  12
TORSDOF 16
ENDMDL
MODEL 6
REMARK VINA RESULT:    -4.313      1.152      2.374
REMARK INTER + INTRA:         -10.161
REMARK INTER:                  -8.356
REMARK INTRA:                  -1.805
REMARK UNBOUND:                -1.813
REMARK SMILES CCCCCCCCCCCCCCCCCC(=O)[O-]
REMARK SMILES IDX 10 1 11 2 12 3 13 4 14 5 15 6 16 7 17 8 18 9 19 10 20 11
REMARK SMILES IDX 9 12 8 13 7 14 6 15 5 16 4 17 3 18 2 19 1 20
REMARK H PARENT
REMARK Flexibility Score: inf
ROOT
ATOM      1  C   UNL     1      15.804  53.029  32.700  1.00  0.00     0.000 C 
ENDROOT
BRANCH   1   2
ATOM      2  C   UNL     1      15.945  53.358  34.197  1.00  0.00     0.000 C 
BRANCH   2   3
ATOM      3  C   UNL     1      14.773  52.826  35.039  1.00  0.00     0.000 C 
BRANCH   3   4
ATOM      4  C   UNL     1      13.782  53.930  35.455  1.00  0.00     0.000 C 
BRANCH   4   5
ATOM      5  C   UNL     1      14.174  55.355  35.025  1.00  0.00     0.000 C 
BRANCH   5   6
ATOM      6  C   UNL     1      13.255  55.925  33.930  1.00  0.00     0.000 C 
BRANCH   6   7
ATOM      7  C   UNL     1      13.927  57.041  33.110  1.00  0.00     0.006 C 
BRANCH   7   8
ATOM      8  C   UNL     1      15.464  57.008  33.144  1.00  0.00     0.053 C 
BRANCH   8   9
ATOM      9  C   UNL     1      16.049  56.631  31.819  1.00  0.00     0.041 C 
ATOM     10  O   UNL     1      15.335  56.062  30.951  1.00  0.00    -0.550 OA
ATOM     11  O   UNL     1      17.390  56.875  31.553  1.00  0.00    -0.550 OA
ENDBRANCH   8   9
ENDBRANCH   7   8
ENDBRANCH   6   7
ENDBRANCH   5   6
ENDBRANCH   4   5
ENDBRANCH   3   4
ENDBRANCH   2   3
ENDBRANCH   1   2
BRANCH   1  12
ATOM     12  C   UNL     1      14.432  52.464  32.273  1.00  0.00     0.000 C 
BRANCH  12  13
ATOM     13  C   UNL     1      14.463  51.047  31.672  1.00  0.00    -0.000 C 
BRANCH  13  14
ATOM     14  C   UNL     1      15.734  50.778  30.848  1.00  0.00    -0.000 C 
BRANCH  14  15
ATOM     15  C   UNL     1      15.683  49.429  30.111  1.00  0.00    -0.000 C 
BRANCH  15  16
ATOM     16  C   UNL     1      17.080  48.828  29.883  1.00  0.00    -0.000 C 
BRANCH  16  17
ATOM     17  C   UNL     1      17.138  47.327  30.214  1.00  0.00    -0.000 C 
BRANCH  17  18
ATOM     18  C   UNL     1      15.845  46.813  30.868  1.00  0.00    -0.000 C 
BRANCH  18  19
ATOM     19  C   UNL     1      16.005  46.572  32.378  1.00  0.00    -0.003 C 
ATOM     20  C   UNL     1      14.866  47.180  33.196  1.00  0.00     0.004 C 
ENDBRANCH  18  19
ENDBRANCH  17  18
ENDBRANCH  16  17
ENDBRANCH  15  16
ENDBRANCH  14  15
ENDBRANCH  13  14
ENDBRANCH  12  13
ENDBRANCH   1  12
TORSDOF 16
ENDMDL
MODEL 7
REMARK VINA RESULT:    -4.265      2.678      5.106
REMARK INTER + INTRA:         -10.067
REMARK INTER:                  -8.559
REMARK INTRA:                  -1.508
REMARK UNBOUND:                -1.813
REMARK SMILES CCCCCCCCCCCCCCCCCC(=O)[O-]
REMARK SMILES IDX 10 1 11 2 12 3 13 4 14 5 15 6 16 7 17 8 18 9 19 10 20 11
REMARK SMILES IDX 9 12 8 13 7 14 6 15 5 16 4 17 3 18 2 19 1 20
REMARK H PARENT
REMARK Flexibility Score: inf
ROOT
ATOM      1  C   UNL     1      15.263  50.032  30.240  1.00  0.00     0.000 C 
ENDROOT
BRANCH   1   2
ATOM      2  C   UNL     1      14.608  50.483  31.557  1.00  0.00     0.000 C 
BRANCH   2   3
ATOM      3  C   UNL     1      14.572  52.013  31.714  1.00  0.00     0.000 C 
BRANCH   3   4
ATOM      4  C   UNL     1      15.724  52.555  32.580  1.00  0.00     0.000 C 
BRANCH   4   5
ATOM      5  C   UNL     1      15.369  53.776  33.449  1.00  0.00     0.000 C 
BRANCH   5   6
ATOM      6  C   UNL     1      15.380  53.462  34.956  1.00  0.00     0.000 C 
BRANCH   6   7
ATOM      7  C   UNL     1      14.024  53.738  35.631  1.00  0.00     0.006 C 
BRANCH   7   8
ATOM      8  C   UNL     1      12.891  54.080  34.649  1.00  0.00     0.053 C 
BRANCH   8   9
ATOM      9  C   UNL     1      12.473  55.513  34.750  1.00  0.00     0.041 C 
ATOM     10  O   UNL     1      11.929  55.942  35.802  1.00  0.00    -0.550 OA
ATOM     11  O   UNL     1      12.650  56.370  33.670  1.00  0.00    -0.550 OA
ENDBRANCH   8   9
ENDBRANCH   7   8
ENDBRANCH   6   7
ENDBRANCH   5   6
ENDBRANCH   4   5
ENDBRANCH   3   4
ENDBRANCH   2   3
ENDBRANCH   1   2
BRANCH   1  12
ATOM     12  C   UNL     1      16.666  49.403  30.381  1.00  0.00     0.000 C 
BRANCH  12  13
ATOM     13  C   UNL     1      16.750  47.902  30.047  1.00  0.00    -0.000 C 
BRANCH  13  14
ATOM     14  C   UNL     1      15.715  47.062  30.815  1.00  0.00    -0.000 C 
BRANCH  14  15
ATOM     15  C   UNL     1      16.222  46.627  32.200  1.00  0.00    -0.000 C 
BRANCH  15  16
ATOM     16  C   UNL     1      15.246  46.999  33.329  1.00  0.00    -0.000 C 
BRANCH  16  17
ATOM     17  C   UNL     1      13.778  46.979  32.872  1.00  0.00    -0.000 C 
BRANCH  17  18
ATOM     18  C   UNL     1      12.859  46.237  33.857  1.00  0.00    -0.000 C 
BRANCH  18  19
ATOM     19  C   UNL     1      13.446  44.891  34.309  1.00  0.00    -0.003 C 
ATOM     20  C   UNL     1      13.339  43.810  33.234  1.00  0.00     0.004 C 
ENDBRANCH  18  19
ENDBRANCH  17  18
ENDBRANCH  16  17
ENDBRANCH  15  16
ENDBRANCH  14  15
ENDBRANCH  13  14
ENDBRANCH  12  13
ENDBRANCH   1  12
TORSDOF 16
ENDMDL
MODEL 8
REMARK VINA RESULT:    -4.234      3.183      7.072
REMARK INTER + INTRA:         -10.008
REMARK INTER:                  -7.908
REMARK INTRA:                  -2.099
REMARK UNBOUND:                -1.813
REMARK SMILES CCCCCCCCCCCCCCCCCC(=O)[O-]
REMARK SMILES IDX 10 1 11 2 12 3 13 4 14 5 15 6 16 7 17 8 18 9 19 10 20 11
REMARK SMILES IDX 9 12 8 13 7 14 6 15 5 16 4 17 3 18 2 19 1 20
REMARK H PARENT
REMARK Flexibility Score: inf
ROOT
ATOM      1  C   UNL     1      13.762  54.841  35.722  1.00  0.00     0.000 C 
ENDROOT
BRANCH   1   2
ATOM      2  C   UNL     1      15.183  54.397  35.331  1.00  0.00     0.000 C 
BRANCH   2   3
ATOM      3  C   UNL     1      15.214  53.014  34.660  1.00  0.00     0.000 C 
BRANCH   3   4
ATOM      4  C   UNL     1      16.078  52.984  33.385  1.00  0.00     0.000 C 
BRANCH   4   5
ATOM      5  C   UNL     1      15.340  53.361  32.087  1.00  0.00     0.000 C 
BRANCH   5   6
ATOM      6  C   UNL     1      14.130  52.455  31.801  1.00  0.00     0.000 C 
BRANCH   6   7
ATOM      7  C   UNL     1      14.521  50.976  31.631  1.00  0.00     0.006 C 
BRANCH   7   8
ATOM      8  C   UNL     1      15.379  50.691  30.387  1.00  0.00     0.053 C 
BRANCH   8   9
ATOM      9  C   UNL     1      16.105  49.386  30.491  1.00  0.00     0.041 C 
ATOM     10  O   UNL     1      15.686  48.489  31.269  1.00  0.00    -0.550 OA
ATOM     11  O   UNL     1      17.264  49.172  29.755  1.00  0.00    -0.550 OA
ENDBRANCH   8   9
ENDBRANCH   7   8
ENDBRANCH   6   7
ENDBRANCH   5   6
ENDBRANCH   4   5
ENDBRANCH   3   4
ENDBRANCH   2   3
ENDBRANCH   1   2
BRANCH   1  12
ATOM     12  C   UNL     1      12.652  54.461  34.719  1.00  0.00     0.000 C 
BRANCH  12  13
ATOM     13  C   UNL     1      12.578  55.340  33.456  1.00  0.00    -0.000 C 
BRANCH  13  14
ATOM     14  C   UNL     1      13.327  56.674  33.615  1.00  0.00    -0.000 C 
BRANCH  14  15
ATOM     15  C   UNL     1      13.528  57.400  32.274  1.00  0.00    -0.000 C 
BRANCH  15  16
ATOM     16  C   UNL     1      14.818  56.967  31.557  1.00  0.00    -0.000 C 
BRANCH  16  17
ATOM     17  C   UNL     1      16.033  56.934  32.498  1.00  0.00    -0.000 C 
BRANCH  17  18
ATOM     18  C   UNL     1      17.320  57.439  31.824  1.00  0.00    -0.000 C 
BRANCH  18  19
ATOM     19  C   UNL     1      17.951  58.624  32.572  1.00  0.00    -0.003 C 
ATOM     20  C   UNL     1      16.907  59.565  33.174  1.00  0.00     0.004 C 
ENDBRANCH  18  19
ENDBRANCH  17  18
ENDBRANCH  16  17
ENDBRANCH  15  16
ENDBRANCH  14  15
ENDBRANCH  13  14
ENDBRANCH  12  13
ENDBRANCH   1  12
TORSDOF 16
ENDMDL
MODEL 9
REMARK VINA RESULT:    -4.145      4.526      8.909
REMARK INTER + INTRA:          -9.835
REMARK INTER:                  -8.057
REMARK INTRA:                  -1.778
REMARK UNBOUND:                -1.813
REMARK SMILES CCCCCCCCCCCCCCCCCC(=O)[O-]
REMARK SMILES IDX 10 1 11 2 12 3 13 4 14 5 15 6 16 7 17 8 18 9 19 10 20 11
REMARK SMILES IDX 9 12 8 13 7 14 6 15 5 16 4 17 3 18 2 19 1 20
REMARK H PARENT
REMARK Flexibility Score: inf
ROOT
ATOM      1  C   UNL     1      14.265  50.317  31.238  1.00  0.00     0.000 C 
ENDROOT
BRANCH   1   2
ATOM      2  C   UNL     1      15.308  50.101  30.126  1.00  0.00     0.000 C 
BRANCH   2   3
ATOM      3  C   UNL     1      16.449  49.162  30.551  1.00  0.00     0.000 C 
BRANCH   3   4
ATOM      4  C   UNL     1      16.272  47.725  30.024  1.00  0.00     0.000 C 
BRANCH   4   5
ATOM      5  C   UNL     1      15.457  46.791  30.937  1.00  0.00     0.000 C 
BRANCH   5   6
ATOM      6  C   UNL     1      16.100  46.596  32.321  1.00  0.00     0.000 C 
BRANCH   6   7
ATOM      7  C   UNL     1      15.142  46.941  33.476  1.00  0.00     0.006 C 
BRANCH   7   8
ATOM      8  C   UNL     1      13.653  46.812  33.118  1.00  0.00     0.053 C 
BRANCH   8   9
ATOM      9  C   UNL     1      13.035  45.587  33.717  1.00  0.00     0.041 C 
ATOM     10  O   UNL     1      13.071  45.403  34.962  1.00  0.00    -0.550 OA
ATOM     11  O   UNL     1      12.448  44.631  32.897  1.00  0.00    -0.550 OA
ENDBRANCH   8   9
ENDBRANCH   7   8
ENDBRANCH   6   7
ENDBRANCH   5   6
ENDBRANCH   4   5
ENDBRANCH   3   4
ENDBRANCH   2   3
ENDBRANCH   1   2
BRANCH   1  12
ATOM     12  C   UNL     1      13.900  51.789  31.524  1.00  0.00     0.000 C 
BRANCH  12  13
ATOM     13  C   UNL     1      15.057  52.794  31.380  1.00  0.00    -0.000 C 
BRANCH  13  14
ATOM     14  C   UNL     1      15.755  53.095  32.717  1.00  0.00    -0.000 C 
BRANCH  14  15
ATOM     15  C   UNL     1      14.885  52.727  33.931  1.00  0.00    -0.000 C 
BRANCH  15  16
ATOM     16  C   UNL     1      15.350  53.422  35.222  1.00  0.00    -0.000 C 
BRANCH  16  17
ATOM     17  C   UNL     1      14.921  54.897  35.287  1.00  0.00    -0.000 C 
BRANCH  17  18
ATOM     18  C   UNL     1      13.442  55.101  34.916  1.00  0.00    -0.000 C 
BRANCH  18  19
ATOM     19  C   UNL     1      13.261  56.048  33.719  1.00  0.00    -0.003 C 
ATOM     20  C   UNL     1      14.581  56.650  33.238  1.00  0.00     0.004 C 
ENDBRANCH  18  19
ENDBRANCH  17  18
ENDBRANCH  16  17
ENDBRANCH  15  16
ENDBRANCH  14  15
ENDBRANCH  13  14
ENDBRANCH  12  13
ENDBRANCH   1  12
TORSDOF 16
ENDMDL
