MODEL 1
REMARK VINA RESULT:    -3.567      0.000      0.000
REMARK INTER + INTRA:          -4.604
REMARK INTER:                  -4.297
REMARK INTRA:                  -0.307
REMARK UNBOUND:                -0.307
REMARK SMILES O=c1c(O)c(-c2ccc(O)c(O)c2)oc2cc(O)cc(O)c12
REMARK SMILES IDX 5 1 3 2 2 3 1 4 22 5 20 6 19 7 17 8 16 9 15 10 14 11 6 12
REMARK SMILES IDX 7 13 8 14 9 15 13 16 11 17 10 18 12 20 4 22 21 24 18 26
REMARK H PARENT 10 19 12 21 4 23 21 25 18 27
REMARK Flexibility Score: inf
ROOT
ATOM      1  C   UNL     1      12.575  45.125   9.048  1.00  0.00     0.180 A 
ATOM      2  C   UNL     1      12.690  45.386   7.672  1.00  0.00     0.208 A 
ATOM      3  C   UNL     1      13.746  46.193   7.219  1.00  0.00     0.238 A 
ATOM      4  O   UNL     1      13.813  46.468   5.992  1.00  0.00    -0.285 OA
ATOM      5  C   UNL     1      14.682  46.715   8.144  1.00  0.00     0.111 A 
ATOM      6  C   UNL     1      15.813  47.510   7.792  1.00  0.00     0.134 A 
ATOM      7  C   UNL     1      16.598  48.080   8.802  1.00  0.00     0.093 A 
ATOM      8  C   UNL     1      16.330  47.829  10.150  1.00  0.00     0.123 A 
ATOM      9  C   UNL     1      15.264  47.006  10.502  1.00  0.00     0.094 A 
ATOM     10  C   UNL     1      14.441  46.453   9.518  1.00  0.00     0.146 A 
ATOM     11  O   UNL     1      13.430  45.681   9.897  1.00  0.00    -0.452 OA
ENDROOT
BRANCH   1  12
ATOM     12  C   UNL     1      11.503  44.262   9.599  1.00  0.00     0.025 A 
ATOM     13  C   UNL     1      11.590  42.861   9.542  1.00  0.00     0.016 A 
ATOM     14  C   UNL     1      10.579  42.067  10.090  1.00  0.00     0.051 A 
ATOM     15  C   UNL     1       9.474  42.662  10.713  1.00  0.00     0.157 A 
ATOM     16  C   UNL     1      10.404  44.853  10.243  1.00  0.00     0.062 A 
ATOM     17  C   UNL     1       9.387  44.057  10.792  1.00  0.00     0.158 A 
BRANCH  15  18
ATOM     18  O   UNL     1       8.462  41.875  11.259  1.00  0.00    -0.504 OA
ATOM     19  H   UNL     1       7.627  41.647  10.732  1.00  0.00     0.293 HD
ENDBRANCH  15  18
BRANCH  17  20
ATOM     20  O   UNL     1       8.291  44.647  11.420  1.00  0.00    -0.504 OA
ATOM     21  H   UNL     1       8.132  45.648  11.380  1.00  0.00     0.293 HD
ENDBRANCH  17  20
ENDBRANCH   1  12
BRANCH   2  22
ATOM     22  O   UNL     1      11.743  44.880   6.778  1.00  0.00    -0.502 OA
ATOM     23  H   UNL     1      11.849  43.979   6.325  1.00  0.00     0.293 HD
ENDBRANCH   2  22
BRANCH   6  24
ATOM     24  O   UNL     1      16.222  47.747   6.476  1.00  0.00    -0.507 OA
ATOM     25  H   UNL     1      15.596  47.889   5.697  1.00  0.00     0.293 HD
ENDBRANCH   6  24
BRANCH   8  26
ATOM     26  O   UNL     1      17.125  48.389  11.148  1.00  0.00    -0.508 OA
ATOM     27  H   UNL     1      17.739  49.173  10.959  1.00  0.00     0.293 HD
ENDBRANCH   8  26
TORSDOF 6
ENDMDL
MODEL 2
REMARK VINA RESULT:    -3.376      2.455      5.862
REMARK INTER + INTRA:          -4.374
REMARK INTER:                  -4.045
REMARK INTRA:                  -0.329
REMARK UNBOUND:                -0.307
REMARK SMILES O=c1c(O)c(-c2ccc(O)c(O)c2)oc2cc(O)cc(O)c12
REMARK SMILES IDX 5 1 3 2 2 3 1 4 22 5 20 6 19 7 17 8 16 9 15 10 14 11 6 12
REMARK SMILES IDX 7 13 8 14 9 15 13 16 11 17 10 18 12 20 4 22 21 24 18 26
REMARK H PARENT 10 19 12 21 4 23 21 25 18 27
REMARK Flexibility Score: inf
ROOT
ATOM      1  C   UNL     1      14.230  46.521   9.898  1.00  0.00     0.180 A 
ATOM      2  C   UNL     1      14.743  47.196   8.777  1.00  0.00     0.208 A 
ATOM      3  C   UNL     1      14.344  46.785   7.494  1.00  0.00     0.238 A 
ATOM      4  O   UNL     1      14.849  47.357   6.493  1.00  0.00    -0.285 OA
ATOM      5  C   UNL     1      13.428  45.716   7.349  1.00  0.00     0.111 A 
ATOM      6  C   UNL     1      12.925  45.243   6.100  1.00  0.00     0.134 A 
ATOM      7  C   UNL     1      12.123  44.096   6.069  1.00  0.00     0.093 A 
ATOM      8  C   UNL     1      11.753  43.443   7.247  1.00  0.00     0.123 A 
ATOM      9  C   UNL     1      12.190  43.933   8.476  1.00  0.00     0.094 A 
ATOM     10  C   UNL     1      13.020  45.054   8.537  1.00  0.00     0.146 A 
ATOM     11  O   UNL     1      13.422  45.481   9.727  1.00  0.00    -0.452 OA
ENDROOT
BRANCH   1  12
ATOM     12  C   UNL     1      14.582  46.913  11.282  1.00  0.00     0.025 A 
ATOM     13  C   UNL     1      13.804  47.836  12.003  1.00  0.00     0.016 A 
ATOM     14  C   UNL     1      14.142  48.172  13.317  1.00  0.00     0.051 A 
ATOM     15  C   UNL     1      15.254  47.582  13.933  1.00  0.00     0.157 A 
ATOM     16  C   UNL     1      15.683  46.308  11.912  1.00  0.00     0.062 A 
ATOM     17  C   UNL     1      16.024  46.646  13.230  1.00  0.00     0.158 A 
BRANCH  15  18
ATOM     18  O   UNL     1      15.596  47.915  15.241  1.00  0.00    -0.504 OA
ATOM     19  H   UNL     1      15.875  48.857  15.492  1.00  0.00     0.293 HD
ENDBRANCH  15  18
BRANCH  17  20
ATOM     20  O   UNL     1      17.125  46.055  13.848  1.00  0.00    -0.504 OA
ATOM     21  H   UNL     1      17.949  45.790  13.321  1.00  0.00     0.293 HD
ENDBRANCH  17  20
ENDBRANCH   1  12
BRANCH   2  22
ATOM     22  O   UNL     1      15.663  48.234   8.941  1.00  0.00    -0.502 OA
ATOM     23  H   UNL     1      15.598  49.106   8.429  1.00  0.00     0.293 HD
ENDBRANCH   2  22
BRANCH   6  24
ATOM     24  O   UNL     1      13.159  45.874   4.875  1.00  0.00    -0.507 OA
ATOM     25  H   UNL     1      13.266  46.870   4.754  1.00  0.00     0.293 HD
ENDBRANCH   6  24
BRANCH   8  26
ATOM     26  O   UNL     1      10.942  42.311   7.208  1.00  0.00    -0.508 OA
ATOM     27  H   UNL     1      10.798  41.792   6.349  1.00  0.00     0.293 HD
ENDBRANCH   8  26
TORSDOF 6
ENDMDL
MODEL 3
REMARK VINA RESULT:    -3.291      2.196      3.422
REMARK INTER + INTRA:          -4.271
REMARK INTER:                  -3.952
REMARK INTRA:                  -0.319
REMARK UNBOUND:                -0.307
REMARK SMILES O=c1c(O)c(-c2ccc(O)c(O)c2)oc2cc(O)cc(O)c12
REMARK SMILES IDX 5 1 3 2 2 3 1 4 22 5 20 6 19 7 17 8 16 9 15 10 14 11 6 12
REMARK SMILES IDX 7 13 8 14 9 15 13 16 11 17 10 18 12 20 4 22 21 24 18 26
REMARK H PARENT 10 19 12 21 4 23 21 25 18 27
REMARK Flexibility Score: inf
ROOT
ATOM      1  C   UNL     1      13.355  46.442   8.962  1.00  0.00     0.180 A 
ATOM      2  C   UNL     1      14.591  46.733   9.565  1.00  0.00     0.208 A 
ATOM      3  C   UNL     1      15.307  47.863   9.135  1.00  0.00     0.238 A 
ATOM      4  O   UNL     1      16.438  48.088   9.640  1.00  0.00    -0.285 OA
ATOM      5  C   UNL     1      14.772  48.693   8.122  1.00  0.00     0.111 A 
ATOM      6  C   UNL     1      15.392  49.884   7.638  1.00  0.00     0.134 A 
ATOM      7  C   UNL     1      14.836  50.556   6.543  1.00  0.00     0.093 A 
ATOM      8  C   UNL     1      13.647  50.117   5.956  1.00  0.00     0.123 A 
ATOM      9  C   UNL     1      13.002  48.990   6.459  1.00  0.00     0.094 A 
ATOM     10  C   UNL     1      13.552  48.278   7.528  1.00  0.00     0.146 A 
ATOM     11  O   UNL     1      12.910  47.203   7.970  1.00  0.00    -0.452 OA
ENDROOT
BRANCH   1  12
ATOM     12  C   UNL     1      12.530  45.284   9.379  1.00  0.00     0.025 A 
ATOM     13  C   UNL     1      12.646  44.035   8.743  1.00  0.00     0.016 A 
ATOM     14  C   UNL     1      11.876  42.950   9.170  1.00  0.00     0.051 A 
ATOM     15  C   UNL     1      10.989  43.093  10.245  1.00  0.00     0.157 A 
ATOM     16  C   UNL     1      11.654  45.416  10.470  1.00  0.00     0.062 A 
ATOM     17  C   UNL     1      10.879  44.328  10.898  1.00  0.00     0.158 A 
BRANCH  15  18
ATOM     18  O   UNL     1      10.216  42.016  10.672  1.00  0.00    -0.504 OA
ATOM     19  H   UNL     1      10.637  41.199  11.102  1.00  0.00     0.293 HD
ENDBRANCH  15  18
BRANCH  17  20
ATOM     20  O   UNL     1      10.002  44.466  11.972  1.00  0.00    -0.504 OA
ATOM     21  H   UNL     1       9.025  44.699  11.832  1.00  0.00     0.293 HD
ENDBRANCH  17  20
ENDBRANCH   1  12
BRANCH   2  22
ATOM     22  O   UNL     1      15.111  45.889  10.548  1.00  0.00    -0.502 OA
ATOM     23  H   UNL     1      15.158  46.154  11.525  1.00  0.00     0.293 HD
ENDBRANCH   2  22
BRANCH   6  24
ATOM     24  O   UNL     1      16.531  50.459   8.211  1.00  0.00    -0.507 OA
ATOM     25  H   UNL     1      16.521  51.088   9.000  1.00  0.00     0.293 HD
ENDBRANCH   6  24
BRANCH   8  26
ATOM     26  O   UNL     1      13.093  50.800   4.876  1.00  0.00    -0.508 OA
ATOM     27  H   UNL     1      13.620  51.497   4.363  1.00  0.00     0.293 HD
ENDBRANCH   8  26
TORSDOF 6
ENDMDL
MODEL 4
REMARK VINA RESULT:    -3.290      2.891      4.889
REMARK INTER + INTRA:          -4.270
REMARK INTER:                  -3.955
REMARK INTRA:                  -0.315
REMARK UNBOUND:                -0.307
REMARK SMILES O=c1c(O)c(-c2ccc(O)c(O)c2)oc2cc(O)cc(O)c12
REMARK SMILES IDX 5 1 3 2 2 3 1 4 22 5 20 6 19 7 17 8 16 9 15 10 14 11 6 12
REMARK SMILES IDX 7 13 8 14 9 15 13 16 11 17 10 18 12 20 4 22 21 24 18 26
REMARK H PARENT 10 19 12 21 4 23 21 25 18 27
REMARK Flexibility Score: inf
ROOT
ATOM      1  C   UNL     1      11.637  45.058  10.369  1.00  0.00     0.180 A 
ATOM      2  C   UNL     1      11.629  43.662  10.200  1.00  0.00     0.208 A 
ATOM      3  C   UNL     1      12.011  43.125   8.959  1.00  0.00     0.238 A 
ATOM      4  O   UNL     1      11.949  41.878   8.797  1.00  0.00    -0.285 OA
ATOM      5  C   UNL     1      12.411  43.987   7.911  1.00  0.00     0.111 A 
ATOM      6  C   UNL     1      12.856  43.551   6.627  1.00  0.00     0.134 A 
ATOM      7  C   UNL     1      13.102  44.495   5.624  1.00  0.00     0.093 A 
ATOM      8  C   UNL     1      12.984  45.864   5.878  1.00  0.00     0.123 A 
ATOM      9  C   UNL     1      12.608  46.302   7.145  1.00  0.00     0.094 A 
ATOM     10  C   UNL     1      12.320  45.383   8.156  1.00  0.00     0.146 A 
ATOM     11  O   UNL     1      11.955  45.842   9.347  1.00  0.00    -0.452 OA
ENDROOT
BRANCH   1  12
ATOM     12  C   UNL     1      11.272  45.697  11.655  1.00  0.00     0.025 A 
ATOM     13  C   UNL     1       9.932  45.965  11.985  1.00  0.00     0.016 A 
ATOM     14  C   UNL     1       9.610  46.546  13.214  1.00  0.00     0.051 A 
ATOM     15  C   UNL     1      10.619  46.855  14.136  1.00  0.00     0.157 A 
ATOM     16  C   UNL     1      12.278  45.989  12.591  1.00  0.00     0.062 A 
ATOM     17  C   UNL     1      11.956  46.574  13.824  1.00  0.00     0.158 A 
BRANCH  15  18
ATOM     18  O   UNL     1      10.304  47.436  15.361  1.00  0.00    -0.504 OA
ATOM     19  H   UNL     1      10.135  48.432  15.448  1.00  0.00     0.293 HD
ENDBRANCH  15  18
BRANCH  17  20
ATOM     20  O   UNL     1      12.958  46.875  14.745  1.00  0.00    -0.504 OA
ATOM     21  H   UNL     1      13.455  47.758  14.719  1.00  0.00     0.293 HD
ENDBRANCH  17  20
ENDBRANCH   1  12
BRANCH   2  22
ATOM     22  O   UNL     1      11.210  42.830  11.240  1.00  0.00    -0.502 OA
ATOM     23  H   UNL     1      10.578  43.143  11.968  1.00  0.00     0.293 HD
ENDBRANCH   2  22
BRANCH   6  24
ATOM     24  O   UNL     1      13.095  42.213   6.297  1.00  0.00    -0.507 OA
ATOM     25  H   UNL     1      13.858  41.661   6.658  1.00  0.00     0.293 HD
ENDBRANCH   6  24
BRANCH   8  26
ATOM     26  O   UNL     1      13.246  46.798   4.878  1.00  0.00    -0.508 OA
ATOM     27  H   UNL     1      12.983  47.772   4.980  1.00  0.00     0.293 HD
ENDBRANCH   8  26
TORSDOF 6
ENDMDL
MODEL 5
REMARK VINA RESULT:    -3.281      1.802      3.672
REMARK INTER + INTRA:          -4.260
REMARK INTER:                  -3.925
REMARK INTRA:                  -0.335
REMARK UNBOUND:                -0.307
REMARK SMILES O=c1c(O)c(-c2ccc(O)c(O)c2)oc2cc(O)cc(O)c12
REMARK SMILES IDX 5 1 3 2 2 3 1 4 22 5 20 6 19 7 17 8 16 9 15 10 14 11 6 12
REMARK SMILES IDX 7 13 8 14 9 15 13 16 11 17 10 18 12 20 4 22 21 24 18 26
REMARK H PARENT 10 19 12 21 4 23 21 25 18 27
REMARK Flexibility Score: inf
ROOT
ATOM      1  C   UNL     1      12.326  45.843  11.200  1.00  0.00     0.180 A 
ATOM      2  C   UNL     1      12.897  46.123  12.454  1.00  0.00     0.208 A 
ATOM      3  C   UNL     1      14.170  46.716  12.505  1.00  0.00     0.238 A 
ATOM      4  O   UNL     1      14.699  46.914  13.629  1.00  0.00    -0.285 OA
ATOM      5  C   UNL     1      14.846  47.036  11.304  1.00  0.00     0.111 A 
ATOM      6  C   UNL     1      16.121  47.676  11.237  1.00  0.00     0.134 A 
ATOM      7  C   UNL     1      16.754  47.826   9.997  1.00  0.00     0.093 A 
ATOM      8  C   UNL     1      16.129  47.419   8.815  1.00  0.00     0.123 A 
ATOM      9  C   UNL     1      14.860  46.849   8.865  1.00  0.00     0.094 A 
ATOM     10  C   UNL     1      14.219  46.652  10.090  1.00  0.00     0.146 A 
ATOM     11  O   UNL     1      13.014  46.096  10.093  1.00  0.00    -0.452 OA
ENDROOT
BRANCH   1  12
ATOM     12  C   UNL     1      10.979  45.242  11.066  1.00  0.00     0.025 A 
ATOM     13  C   UNL     1       9.824  46.041  11.008  1.00  0.00     0.016 A 
ATOM     14  C   UNL     1       8.565  45.454  10.855  1.00  0.00     0.051 A 
ATOM     15  C   UNL     1       8.444  44.062  10.746  1.00  0.00     0.157 A 
ATOM     16  C   UNL     1      10.854  43.849  10.935  1.00  0.00     0.062 A 
ATOM     17  C   UNL     1       9.590  43.259  10.784  1.00  0.00     0.158 A 
BRANCH  15  18
ATOM     18  O   UNL     1       7.191  43.471  10.597  1.00  0.00    -0.504 OA
ATOM     19  H   UNL     1       6.374  44.017  10.346  1.00  0.00     0.293 HD
ENDBRANCH  15  18
BRANCH  17  20
ATOM     20  O   UNL     1       9.468  41.875  10.667  1.00  0.00    -0.504 OA
ATOM     21  H   UNL     1      10.069  41.244  11.185  1.00  0.00     0.293 HD
ENDBRANCH  17  20
ENDBRANCH   1  12
BRANCH   2  22
ATOM     22  O   UNL     1      12.222  45.779  13.627  1.00  0.00    -0.502 OA
ATOM     23  H   UNL     1      12.044  44.817  13.891  1.00  0.00     0.293 HD
ENDBRANCH   2  22
BRANCH   6  24
ATOM     24  O   UNL     1      16.790  48.201  12.346  1.00  0.00    -0.507 OA
ATOM     25  H   UNL     1      16.604  49.105  12.754  1.00  0.00     0.293 HD
ENDBRANCH   6  24
BRANCH   8  26
ATOM     26  O   UNL     1      16.760  47.586   7.584  1.00  0.00    -0.508 OA
ATOM     27  H   UNL     1      17.554  48.206   7.475  1.00  0.00     0.293 HD
ENDBRANCH   8  26
TORSDOF 6
ENDMDL
MODEL 6
REMARK VINA RESULT:    -3.273      1.657      6.977
REMARK INTER + INTRA:          -4.250
REMARK INTER:                  -3.967
REMARK INTRA:                  -0.283
REMARK UNBOUND:                -0.307
REMARK SMILES O=c1c(O)c(-c2ccc(O)c(O)c2)oc2cc(O)cc(O)c12
REMARK SMILES IDX 5 1 3 2 2 3 1 4 22 5 20 6 19 7 17 8 16 9 15 10 14 11 6 12
REMARK SMILES IDX 7 13 8 14 9 15 13 16 11 17 10 18 12 20 4 22 21 24 18 26
REMARK H PARENT 10 19 12 21 4 23 21 25 18 27
REMARK Flexibility Score: inf
ROOT
ATOM      1  C   UNL     1      11.899  45.097   9.786  1.00  0.00     0.180 A 
ATOM      2  C   UNL     1      11.698  43.710   9.664  1.00  0.00     0.208 A 
ATOM      3  C   UNL     1      10.593  43.124  10.304  1.00  0.00     0.238 A 
ATOM      4  O   UNL     1      10.449  41.876  10.236  1.00  0.00    -0.285 OA
ATOM      5  C   UNL     1       9.696  43.933  11.042  1.00  0.00     0.111 A 
ATOM      6  C   UNL     1       8.523  43.452  11.696  1.00  0.00     0.134 A 
ATOM      7  C   UNL     1       7.779  44.318  12.506  1.00  0.00     0.093 A 
ATOM      8  C   UNL     1       8.130  45.665  12.633  1.00  0.00     0.123 A 
ATOM      9  C   UNL     1       9.240  46.157  11.950  1.00  0.00     0.094 A 
ATOM     10  C   UNL     1      10.022  45.309  11.164  1.00  0.00     0.146 A 
ATOM     11  O   UNL     1      11.077  45.817  10.538  1.00  0.00    -0.452 OA
ENDROOT
BRANCH   1  12
ATOM     12  C   UNL     1      13.026  45.790   9.119  1.00  0.00     0.025 A 
ATOM     13  C   UNL     1      13.013  46.046   7.737  1.00  0.00     0.016 A 
ATOM     14  C   UNL     1      14.076  46.724   7.134  1.00  0.00     0.051 A 
ATOM     15  C   UNL     1      15.160  47.166   7.905  1.00  0.00     0.157 A 
ATOM     16  C   UNL     1      14.104  46.254   9.890  1.00  0.00     0.062 A 
ATOM     17  C   UNL     1      15.173  46.933   9.286  1.00  0.00     0.158 A 
BRANCH  15  18
ATOM     18  O   UNL     1      16.223  47.840   7.308  1.00  0.00    -0.504 OA
ATOM     19  H   UNL     1      16.115  48.777   6.938  1.00  0.00     0.293 HD
ENDBRANCH  15  18
BRANCH  17  20
ATOM     20  O   UNL     1      16.248  47.381  10.052  1.00  0.00    -0.504 OA
ATOM     21  H   UNL     1      16.691  48.275   9.873  1.00  0.00     0.293 HD
ENDBRANCH  17  20
ENDBRANCH   1  12
BRANCH   2  22
ATOM     22  O   UNL     1      12.608  42.928   8.949  1.00  0.00    -0.502 OA
ATOM     23  H   UNL     1      13.303  42.347   9.404  1.00  0.00     0.293 HD
ENDBRANCH   2  22
BRANCH   6  24
ATOM     24  O   UNL     1       8.033  42.149  11.563  1.00  0.00    -0.507 OA
ATOM     25  H   UNL     1       7.959  41.483  12.318  1.00  0.00     0.293 HD
ENDBRANCH   6  24
BRANCH   8  26
ATOM     26  O   UNL     1       7.376  46.524  13.429  1.00  0.00    -0.508 OA
ATOM     27  H   UNL     1       6.867  47.305  13.032  1.00  0.00     0.293 HD
ENDBRANCH   8  26
TORSDOF 6
ENDMDL
MODEL 7
REMARK VINA RESULT:    -3.071      1.767      6.485
REMARK INTER + INTRA:          -4.007
REMARK INTER:                  -3.680
REMARK INTRA:                  -0.327
REMARK UNBOUND:                -0.307
REMARK SMILES O=c1c(O)c(-c2ccc(O)c(O)c2)oc2cc(O)cc(O)c12
REMARK SMILES IDX 5 1 3 2 2 3 1 4 22 5 20 6 19 7 17 8 16 9 15 10 14 11 6 12
REMARK SMILES IDX 7 13 8 14 9 15 13 16 11 17 10 18 12 20 4 22 21 24 18 26
REMARK H PARENT 10 19 12 21 4 23 21 25 18 27
REMARK Flexibility Score: inf
ROOT
ATOM      1  C   UNL     1      13.116  46.016   9.926  1.00  0.00     0.180 A 
ATOM      2  C   UNL     1      13.419  45.712   8.587  1.00  0.00     0.208 A 
ATOM      3  C   UNL     1      12.706  44.684   7.946  1.00  0.00     0.238 A 
ATOM      4  O   UNL     1      13.019  44.379   6.766  1.00  0.00    -0.285 OA
ATOM      5  C   UNL     1      11.692  43.988   8.645  1.00  0.00     0.111 A 
ATOM      6  C   UNL     1      10.880  42.958   8.081  1.00  0.00     0.134 A 
ATOM      7  C   UNL     1       9.996  42.249   8.903  1.00  0.00     0.093 A 
ATOM      8  C   UNL     1       9.846  42.577  10.253  1.00  0.00     0.123 A 
ATOM      9  C   UNL     1      10.591  43.620  10.798  1.00  0.00     0.094 A 
ATOM     10  C   UNL     1      11.507  44.321  10.012  1.00  0.00     0.146 A 
ATOM     11  O   UNL     1      12.204  45.302  10.574  1.00  0.00    -0.452 OA
ENDROOT
BRANCH   1  12
ATOM     12  C   UNL     1      13.806  47.102  10.661  1.00  0.00     0.025 A 
ATOM     13  C   UNL     1      13.285  48.408  10.697  1.00  0.00     0.016 A 
ATOM     14  C   UNL     1      13.939  49.410  11.418  1.00  0.00     0.051 A 
ATOM     15  C   UNL     1      15.116  49.120  12.122  1.00  0.00     0.157 A 
ATOM     16  C   UNL     1      14.974  46.812  11.386  1.00  0.00     0.062 A 
ATOM     17  C   UNL     1      15.632  47.819  12.108  1.00  0.00     0.158 A 
BRANCH  15  18
ATOM     18  O   UNL     1      15.773  50.117  12.840  1.00  0.00    -0.504 OA
ATOM     19  H   UNL     1      16.317  50.834  12.374  1.00  0.00     0.293 HD
ENDBRANCH  15  18
BRANCH  17  20
ATOM     20  O   UNL     1      16.798  47.531  12.815  1.00  0.00    -0.504 OA
ATOM     21  H   UNL     1      17.638  48.087  12.702  1.00  0.00     0.293 HD
ENDBRANCH  17  20
ENDBRANCH   1  12
BRANCH   2  22
ATOM     22  O   UNL     1      14.439  46.396   7.923  1.00  0.00    -0.502 OA
ATOM     23  H   UNL     1      14.291  47.292   7.473  1.00  0.00     0.293 HD
ENDBRANCH   2  22
BRANCH   6  24
ATOM     24  O   UNL     1      10.885  42.614   6.726  1.00  0.00    -0.507 OA
ATOM     25  H   UNL     1      10.077  42.298   6.211  1.00  0.00     0.293 HD
ENDBRANCH   6  24
BRANCH   8  26
ATOM     26  O   UNL     1       8.953  41.875  11.060  1.00  0.00    -0.508 OA
ATOM     27  H   UNL     1       9.276  41.241  11.782  1.00  0.00     0.293 HD
ENDBRANCH   8  26
TORSDOF 6
ENDMDL
MODEL 8
REMARK VINA RESULT:    -3.038      2.896      5.772
REMARK INTER + INTRA:          -3.967
REMARK INTER:                  -3.666
REMARK INTRA:                  -0.302
REMARK UNBOUND:                -0.307
REMARK SMILES O=c1c(O)c(-c2ccc(O)c(O)c2)oc2cc(O)cc(O)c12
REMARK SMILES IDX 5 1 3 2 2 3 1 4 22 5 20 6 19 7 17 8 16 9 15 10 14 11 6 12
REMARK SMILES IDX 7 13 8 14 9 15 13 16 11 17 10 18 12 20 4 22 21 24 18 26
REMARK H PARENT 10 19 12 21 4 23 21 25 18 27
REMARK Flexibility Score: inf
ROOT
ATOM      1  C   UNL     1      14.926  46.829  10.562  1.00  0.00     0.180 A 
ATOM      2  C   UNL     1      13.697  46.177  10.360  1.00  0.00     0.208 A 
ATOM      3  C   UNL     1      13.232  45.995   9.047  1.00  0.00     0.238 A 
ATOM      4  O   UNL     1      12.106  45.460   8.874  1.00  0.00    -0.285 OA
ATOM      5  C   UNL     1      14.007  46.453   7.955  1.00  0.00     0.111 A 
ATOM      6  C   UNL     1      13.652  46.286   6.582  1.00  0.00     0.134 A 
ATOM      7  C   UNL     1      14.430  46.894   5.589  1.00  0.00     0.093 A 
ATOM      8  C   UNL     1      15.587  47.606   5.915  1.00  0.00     0.123 A 
ATOM      9  C   UNL     1      15.974  47.724   7.248  1.00  0.00     0.094 A 
ATOM     10  C   UNL     1      15.199  47.160   8.263  1.00  0.00     0.146 A 
ATOM     11  O   UNL     1      15.599  47.304   9.521  1.00  0.00    -0.452 OA
ENDROOT
BRANCH   1  12
ATOM     12  C   UNL     1      15.495  47.035  11.915  1.00  0.00     0.025 A 
ATOM     13  C   UNL     1      16.491  46.185  12.427  1.00  0.00     0.016 A 
ATOM     14  C   UNL     1      17.030  46.413  13.696  1.00  0.00     0.051 A 
ATOM     15  C   UNL     1      16.592  47.500  14.465  1.00  0.00     0.157 A 
ATOM     16  C   UNL     1      15.074  48.134  12.681  1.00  0.00     0.062 A 
ATOM     17  C   UNL     1      15.614  48.363  13.956  1.00  0.00     0.158 A 
BRANCH  15  18
ATOM     18  O   UNL     1      17.124  47.730  15.732  1.00  0.00    -0.504 OA
ATOM     19  H   UNL     1      16.653  48.324  16.404  1.00  0.00     0.293 HD
ENDBRANCH  15  18
BRANCH  17  20
ATOM     20  O   UNL     1      15.184  49.447  14.719  1.00  0.00    -0.504 OA
ATOM     21  H   UNL     1      14.543  50.138  14.345  1.00  0.00     0.293 HD
ENDBRANCH  17  20
ENDBRANCH   1  12
BRANCH   2  22
ATOM     22  O   UNL     1      12.938  45.753  11.452  1.00  0.00    -0.502 OA
ATOM     23  H   UNL     1      12.237  46.340  11.890  1.00  0.00     0.293 HD
ENDBRANCH   2  22
BRANCH   6  24
ATOM     24  O   UNL     1      12.570  45.518   6.144  1.00  0.00    -0.507 OA
ATOM     25  H   UNL     1      11.738  45.336   6.686  1.00  0.00     0.293 HD
ENDBRANCH   6  24
BRANCH   8  26
ATOM     26  O   UNL     1      16.363  48.195   4.920  1.00  0.00    -0.508 OA
ATOM     27  H   UNL     1      16.800  47.641   4.192  1.00  0.00     0.293 HD
ENDBRANCH   8  26
TORSDOF 6
ENDMDL
MODEL 9
REMARK VINA RESULT:    -3.005      2.123      7.134
REMARK INTER + INTRA:          -3.928
REMARK INTER:                  -3.597
REMARK INTRA:                  -0.331
REMARK UNBOUND:                -0.307
REMARK SMILES O=c1c(O)c(-c2ccc(O)c(O)c2)oc2cc(O)cc(O)c12
REMARK SMILES IDX 5 1 3 2 2 3 1 4 22 5 20 6 19 7 17 8 16 9 15 10 14 11 6 12
REMARK SMILES IDX 7 13 8 14 9 15 13 16 11 17 10 18 12 20 4 22 21 24 18 26
REMARK H PARENT 10 19 12 21 4 23 21 25 18 27
REMARK Flexibility Score: inf
ROOT
ATOM      1  C   UNL     1      13.683  46.848   9.239  1.00  0.00     0.180 A 
ATOM      2  C   UNL     1      13.001  46.783  10.467  1.00  0.00     0.208 A 
ATOM      3  C   UNL     1      12.177  45.676  10.728  1.00  0.00     0.238 A 
ATOM      4  O   UNL     1      11.526  45.649  11.805  1.00  0.00    -0.285 OA
ATOM      5  C   UNL     1      12.059  44.642   9.769  1.00  0.00     0.111 A 
ATOM      6  C   UNL     1      11.285  43.456   9.946  1.00  0.00     0.134 A 
ATOM      7  C   UNL     1      11.136  42.563   8.878  1.00  0.00     0.093 A 
ATOM      8  C   UNL     1      11.788  42.780   7.661  1.00  0.00     0.123 A 
ATOM      9  C   UNL     1      12.594  43.904   7.499  1.00  0.00     0.094 A 
ATOM     10  C   UNL     1      12.732  44.832   8.533  1.00  0.00     0.146 A 
ATOM     11  O   UNL     1      13.501  45.895   8.334  1.00  0.00    -0.452 OA
ENDROOT
BRANCH   1  12
ATOM     12  C   UNL     1      14.590  47.970   8.901  1.00  0.00     0.025 A 
ATOM     13  C   UNL     1      15.960  47.923   9.210  1.00  0.00     0.016 A 
ATOM     14  C   UNL     1      16.801  48.983   8.859  1.00  0.00     0.051 A 
ATOM     15  C   UNL     1      16.287  50.098   8.185  1.00  0.00     0.157 A 
ATOM     16  C   UNL     1      14.084  49.081   8.206  1.00  0.00     0.062 A 
ATOM     17  C   UNL     1      14.927  50.147   7.856  1.00  0.00     0.158 A 
BRANCH  15  18
ATOM     18  O   UNL     1      17.121  51.158   7.836  1.00  0.00    -0.504 OA
ATOM     19  H   UNL     1      17.996  51.006   7.348  1.00  0.00     0.293 HD
ENDBRANCH  15  18
BRANCH  17  20
ATOM     20  O   UNL     1      14.419  51.254   7.178  1.00  0.00    -0.504 OA
ATOM     21  H   UNL     1      14.977  52.087   7.031  1.00  0.00     0.293 HD
ENDBRANCH  17  20
ENDBRANCH   1  12
BRANCH   2  22
ATOM     22  O   UNL     1      13.114  47.824  11.391  1.00  0.00    -0.502 OA
ATOM     23  H   UNL     1      12.310  48.336  11.736  1.00  0.00     0.293 HD
ENDBRANCH   2  22
BRANCH   6  24
ATOM     24  O   UNL     1      10.668  43.099  11.148  1.00  0.00    -0.507 OA
ATOM     25  H   UNL     1      10.522  43.725  11.926  1.00  0.00     0.293 HD
ENDBRANCH   6  24
BRANCH   8  26
ATOM     26  O   UNL     1      11.646  41.878   6.608  1.00  0.00    -0.508 OA
ATOM     27  H   UNL     1      11.949  42.109   5.669  1.00  0.00     0.293 HD
ENDBRANCH   8  26
TORSDOF 6
ENDMDL
