MODEL 1
REMARK VINA RESULT:    -3.563      0.000      0.000
REMARK INTER + INTRA:          -6.153
REMARK INTER:                  -5.646
REMARK INTRA:                  -0.508
REMARK UNBOUND:                -0.508
REMARK SMILES CCCCCCCCCCCC(=O)[O-]
REMARK SMILES IDX 7 1 8 2 9 3 10 4 11 5 12 6 13 7 14 8 6 9 5 10 4 11 3 12 2 13
REMARK SMILES IDX 1 14
REMARK H PARENT
REMARK Flexibility Score: inf
ROOT
ATOM      1  C   UNL     1      43.476  21.357  79.613  1.00  0.00     0.000 C 
ENDROOT
BRANCH   1   2
ATOM      2  C   UNL     1      44.768  20.862  78.945  1.00  0.00     0.000 C 
BRANCH   2   3
ATOM      3  C   UNL     1      44.516  19.580  78.145  1.00  0.00     0.000 C 
BRANCH   3   4
ATOM      4  C   UNL     1      45.832  18.845  77.850  1.00  0.00     0.006 C 
BRANCH   4   5
ATOM      5  C   UNL     1      45.886  18.299  76.418  1.00  0.00     0.053 C 
BRANCH   5   6
ATOM      6  C   UNL     1      45.992  16.805  76.395  1.00  0.00     0.041 C 
ATOM      7  O   UNL     1      46.098  16.161  77.471  1.00  0.00    -0.550 OA
ATOM      8  O   UNL     1      45.938  16.122  75.187  1.00  0.00    -0.550 OA
ENDBRANCH   5   6
ENDBRANCH   4   5
ENDBRANCH   3   4
ENDBRANCH   2   3
ENDBRANCH   1   2
BRANCH   1   9
ATOM      9  C   UNL     1      42.260  20.477  79.280  1.00  0.00     0.000 C 
BRANCH   9  10
ATOM     10  C   UNL     1      41.069  21.293  78.749  1.00  0.00    -0.000 C 
BRANCH  10  11
ATOM     11  C   UNL     1      39.737  20.883  79.398  1.00  0.00    -0.000 C 
BRANCH  11  12
ATOM     12  C   UNL     1      39.799  19.497  80.057  1.00  0.00    -0.000 C 
BRANCH  12  13
ATOM     13  C   UNL     1      38.394  18.990  80.402  1.00  0.00    -0.003 C 
ATOM     14  C   UNL     1      37.371  20.120  80.349  1.00  0.00     0.004 C 
ENDBRANCH  12  13
ENDBRANCH  11  12
ENDBRANCH  10  11
ENDBRANCH   9  10
ENDBRANCH   1   9
TORSDOF 10
ENDMDL
MODEL 2
REMARK VINA RESULT:    -3.555      1.394      1.738
REMARK INTER + INTRA:          -6.141
REMARK INTER:                  -5.658
REMARK INTRA:                  -0.483
REMARK UNBOUND:                -0.508
REMARK SMILES CCCCCCCCCCCC(=O)[O-]
REMARK SMILES IDX 7 1 8 2 9 3 10 4 11 5 12 6 13 7 14 8 6 9 5 10 4 11 3 12 2 13
REMARK SMILES IDX 1 14
REMARK H PARENT
REMARK Flexibility Score: inf
ROOT
ATOM      1  C   UNL     1      42.794  21.339  78.463  1.00  0.00     0.000 C 
ENDROOT
BRANCH   1   2
ATOM      2  C   UNL     1      44.156  20.915  77.890  1.00  0.00     0.000 C 
BRANCH   2   3
ATOM      3  C   UNL     1      44.594  19.562  78.463  1.00  0.00     0.000 C 
BRANCH   3   4
ATOM      4  C   UNL     1      46.005  19.190  77.980  1.00  0.00     0.006 C 
BRANCH   4   5
ATOM      5  C   UNL     1      46.347  19.837  76.632  1.00  0.00     0.053 C 
BRANCH   5   6
ATOM      6  C   UNL     1      46.103  18.901  75.488  1.00  0.00     0.041 C 
ATOM      7  O   UNL     1      45.929  17.673  75.701  1.00  0.00    -0.550 OA
ATOM      8  O   UNL     1      46.034  19.391  74.190  1.00  0.00    -0.550 OA
ENDBRANCH   5   6
ENDBRANCH   4   5
ENDBRANCH   3   4
ENDBRANCH   2   3
ENDBRANCH   1   2
BRANCH   1   9
ATOM      9  C   UNL     1      42.082  20.198  79.209  1.00  0.00     0.000 C 
BRANCH   9  10
ATOM     10  C   UNL     1      40.550  20.299  79.116  1.00  0.00    -0.000 C 
BRANCH  10  11
ATOM     11  C   UNL     1      39.839  19.545  80.251  1.00  0.00    -0.000 C 
BRANCH  11  12
ATOM     12  C   UNL     1      38.456  20.129  80.579  1.00  0.00    -0.000 C 
BRANCH  12  13
ATOM     13  C   UNL     1      37.375  19.044  80.522  1.00  0.00    -0.003 C 
ATOM     14  C   UNL     1      37.946  17.720  80.024  1.00  0.00     0.004 C 
ENDBRANCH  12  13
ENDBRANCH  11  12
ENDBRANCH  10  11
ENDBRANCH   9  10
ENDBRANCH   1   9
TORSDOF 10
ENDMDL
MODEL 3
REMARK VINA RESULT:    -3.540     16.951     18.715
REMARK INTER + INTRA:          -6.117
REMARK INTER:                  -4.866
REMARK INTRA:                  -1.251
REMARK UNBOUND:                -0.508
REMARK SMILES CCCCCCCCCCCC(=O)[O-]
REMARK SMILES IDX 7 1 8 2 9 3 10 4 11 5 12 6 13 7 14 8 6 9 5 10 4 11 3 12 2 13
REMARK SMILES IDX 1 14
REMARK H PARENT
REMARK Flexibility Score: inf
ROOT
ATOM      1  C   UNL     1      53.191  33.033  85.651  1.00  0.00     0.000 C 
ENDROOT
BRANCH   1   2
ATOM      2  C   UNL     1      53.243  34.155  84.602  1.00  0.00     0.000 C 
BRANCH   2   3
ATOM      3  C   UNL     1      52.257  33.883  83.460  1.00  0.00     0.000 C 
BRANCH   3   4
ATOM      4  C   UNL     1      50.946  33.285  83.993  1.00  0.00     0.006 C 
BRANCH   4   5
ATOM      5  C   UNL     1      49.812  34.318  84.038  1.00  0.00     0.053 C 
BRANCH   5   6
ATOM      6  C   UNL     1      48.811  34.093  82.947  1.00  0.00     0.041 C 
ATOM      7  O   UNL     1      47.683  33.603  83.214  1.00  0.00    -0.550 OA
ATOM      8  O   UNL     1      49.111  34.456  81.640  1.00  0.00    -0.550 OA
ENDBRANCH   5   6
ENDBRANCH   4   5
ENDBRANCH   3   4
ENDBRANCH   2   3
ENDBRANCH   1   2
BRANCH   1   9
ATOM      9  C   UNL     1      53.160  33.567  87.092  1.00  0.00     0.000 C 
BRANCH   9  10
ATOM     10  C   UNL     1      52.646  35.015  87.174  1.00  0.00    -0.000 C 
BRANCH  10  11
ATOM     11  C   UNL     1      51.375  35.143  88.030  1.00  0.00    -0.000 C 
BRANCH  11  12
ATOM     12  C   UNL     1      50.411  33.961  87.842  1.00  0.00    -0.000 C 
BRANCH  12  13
ATOM     13  C   UNL     1      48.975  34.453  87.632  1.00  0.00    -0.003 C 
ATOM     14  C   UNL     1      48.863  35.954  87.880  1.00  0.00     0.004 C 
ENDBRANCH  12  13
ENDBRANCH  11  12
ENDBRANCH  10  11
ENDBRANCH   9  10
ENDBRANCH   1   9
TORSDOF 10
ENDMDL
MODEL 4
REMARK VINA RESULT:    -3.460      3.869      7.210
REMARK INTER + INTRA:          -5.991
REMARK INTER:                  -5.333
REMARK INTRA:                  -0.658
REMARK UNBOUND:                -0.508
REMARK SMILES CCCCCCCCCCCC(=O)[O-]
REMARK SMILES IDX 7 1 8 2 9 3 10 4 11 5 12 6 13 7 14 8 6 9 5 10 4 11 3 12 2 13
REMARK SMILES IDX 1 14
REMARK H PARENT
REMARK Flexibility Score: inf
ROOT
ATOM      1  C   UNL     1      42.005  20.889  78.446  1.00  0.00     0.000 C 
ENDROOT
BRANCH   1   2
ATOM      2  C   UNL     1      42.036  20.337  79.880  1.00  0.00     0.000 C 
BRANCH   2   3
ATOM      3  C   UNL     1      40.712  19.647  80.231  1.00  0.00     0.000 C 
BRANCH   3   4
ATOM      4  C   UNL     1      39.546  20.257  79.439  1.00  0.00     0.006 C 
BRANCH   4   5
ATOM      5  C   UNL     1      38.382  20.675  80.347  1.00  0.00     0.053 C 
BRANCH   5   6
ATOM      6  C   UNL     1      37.672  19.488  80.922  1.00  0.00     0.041 C 
ATOM      7  O   UNL     1      37.298  19.495  82.124  1.00  0.00    -0.550 OA
ATOM      8  O   UNL     1      37.391  18.389  80.121  1.00  0.00    -0.550 OA
ENDBRANCH   5   6
ENDBRANCH   4   5
ENDBRANCH   3   4
ENDBRANCH   2   3
ENDBRANCH   1   2
BRANCH   1   9
ATOM      9  C   UNL     1      43.406  21.220  77.906  1.00  0.00     0.000 C 
BRANCH   9  10
ATOM     10  C   UNL     1      44.528  20.716  78.830  1.00  0.00    -0.000 C 
BRANCH  10  11
ATOM     11  C   UNL     1      45.833  20.429  78.070  1.00  0.00    -0.000 C 
BRANCH  11  12
ATOM     12  C   UNL     1      46.248  18.951  78.136  1.00  0.00    -0.000 C 
BRANCH  12  13
ATOM     13  C   UNL     1      45.690  18.171  76.940  1.00  0.00    -0.003 C 
ATOM     14  C   UNL     1      46.025  18.865  75.624  1.00  0.00     0.004 C 
ENDBRANCH  12  13
ENDBRANCH  11  12
ENDBRANCH  10  11
ENDBRANCH   9  10
ENDBRANCH   1   9
TORSDOF 10
ENDMDL
MODEL 5
REMARK VINA RESULT:    -3.446      1.813      3.007
REMARK INTER + INTRA:          -5.969
REMARK INTER:                  -4.400
REMARK INTRA:                  -1.569
REMARK UNBOUND:                -0.508
REMARK SMILES CCCCCCCCCCCC(=O)[O-]
REMARK SMILES IDX 7 1 8 2 9 3 10 4 11 5 12 6 13 7 14 8 6 9 5 10 4 11 3 12 2 13
REMARK SMILES IDX 1 14
REMARK H PARENT
REMARK Flexibility Score: inf
ROOT
ATOM      1  C   UNL     1      41.522  22.845  77.063  1.00  0.00     0.000 C 
ENDROOT
BRANCH   1   2
ATOM      2  C   UNL     1      43.027  22.690  76.794  1.00  0.00     0.000 C 
BRANCH   2   3
ATOM      3  C   UNL     1      43.422  21.211  76.724  1.00  0.00     0.000 C 
BRANCH   3   4
ATOM      4  C   UNL     1      44.805  20.979  77.352  1.00  0.00     0.006 C 
BRANCH   4   5
ATOM      5  C   UNL     1      44.939  19.579  77.964  1.00  0.00     0.053 C 
BRANCH   5   6
ATOM      6  C   UNL     1      45.670  18.641  77.054  1.00  0.00     0.041 C 
ATOM      7  O   UNL     1      45.633  17.399  77.261  1.00  0.00    -0.550 OA
ATOM      8  O   UNL     1      46.363  19.134  75.956  1.00  0.00    -0.550 OA
ENDBRANCH   5   6
ENDBRANCH   4   5
ENDBRANCH   3   4
ENDBRANCH   2   3
ENDBRANCH   1   2
BRANCH   1   9
ATOM      9  C   UNL     1      40.794  21.495  77.163  1.00  0.00     0.000 C 
BRANCH   9  10
ATOM     10  C   UNL     1      40.040  21.328  78.493  1.00  0.00    -0.000 C 
BRANCH  10  11
ATOM     11  C   UNL     1      40.410  20.026  79.222  1.00  0.00    -0.000 C 
BRANCH  11  12
ATOM     12  C   UNL     1      41.789  20.092  79.895  1.00  0.00    -0.000 C 
BRANCH  12  13
ATOM     13  C   UNL     1      41.921  21.356  80.752  1.00  0.00    -0.003 C 
ATOM     14  C   UNL     1      43.246  22.064  80.491  1.00  0.00     0.004 C 
ENDBRANCH  12  13
ENDBRANCH  11  12
ENDBRANCH  10  11
ENDBRANCH   9  10
ENDBRANCH   1   9
TORSDOF 10
ENDMDL
MODEL 6
REMARK VINA RESULT:    -3.433     16.974     18.247
REMARK INTER + INTRA:          -5.947
REMARK INTER:                  -5.464
REMARK INTRA:                  -0.483
REMARK UNBOUND:                -0.508
REMARK SMILES CCCCCCCCCCCC(=O)[O-]
REMARK SMILES IDX 7 1 8 2 9 3 10 4 11 5 12 6 13 7 14 8 6 9 5 10 4 11 3 12 2 13
REMARK SMILES IDX 1 14
REMARK H PARENT
REMARK Flexibility Score: inf
ROOT
ATOM      1  C   UNL     1      47.584  32.023  88.847  1.00  0.00     0.000 C 
ENDROOT
BRANCH   1   2
ATOM      2  C   UNL     1      47.810  31.768  87.348  1.00  0.00     0.000 C 
BRANCH   2   3
ATOM      3  C   UNL     1      48.227  33.057  86.630  1.00  0.00     0.000 C 
BRANCH   3   4
ATOM      4  C   UNL     1      48.605  34.153  87.638  1.00  0.00     0.006 C 
BRANCH   4   5
ATOM      5  C   UNL     1      49.854  34.933  87.207  1.00  0.00     0.053 C 
BRANCH   5   6
ATOM      6  C   UNL     1      51.052  34.562  88.026  1.00  0.00     0.041 C 
ATOM      7  O   UNL     1      51.074  33.474  88.659  1.00  0.00    -0.550 OA
ATOM      8  O   UNL     1      52.159  35.400  88.061  1.00  0.00    -0.550 OA
ENDBRANCH   5   6
ENDBRANCH   4   5
ENDBRANCH   3   4
ENDBRANCH   2   3
ENDBRANCH   1   2
BRANCH   1   9
ATOM      9  C   UNL     1      46.677  30.967  89.499  1.00  0.00     0.000 C 
BRANCH   9  10
ATOM     10  C   UNL     1      46.305  31.324  90.949  1.00  0.00    -0.000 C 
BRANCH  10  11
ATOM     11  C   UNL     1      44.786  31.330  91.183  1.00  0.00    -0.000 C 
BRANCH  11  12
ATOM     12  C   UNL     1      44.279  30.033  91.831  1.00  0.00    -0.000 C 
BRANCH  12  13
ATOM     13  C   UNL     1      43.933  30.256  93.308  1.00  0.00    -0.003 C 
ATOM     14  C   UNL     1      43.791  31.741  93.623  1.00  0.00     0.004 C 
ENDBRANCH  12  13
ENDBRANCH  11  12
ENDBRANCH  10  11
ENDBRANCH   9  10
ENDBRANCH   1   9
TORSDOF 10
ENDMDL
MODEL 7
REMARK VINA RESULT:    -3.426     15.764     17.767
REMARK INTER + INTRA:          -5.937
REMARK INTER:                  -4.338
REMARK INTRA:                  -1.599
REMARK UNBOUND:                -0.508
REMARK SMILES CCCCCCCCCCCC(=O)[O-]
REMARK SMILES IDX 7 1 8 2 9 3 10 4 11 5 12 6 13 7 14 8 6 9 5 10 4 11 3 12 2 13
REMARK SMILES IDX 1 14
REMARK H PARENT
REMARK Flexibility Score: inf
ROOT
ATOM      1  C   UNL     1      48.030  30.536  91.115  1.00  0.00     0.000 C 
ENDROOT
BRANCH   1   2
ATOM      2  C   UNL     1      47.525  31.237  89.845  1.00  0.00     0.000 C 
BRANCH   2   3
ATOM      3  C   UNL     1      46.035  31.581  89.963  1.00  0.00     0.000 C 
BRANCH   3   4
ATOM      4  C   UNL     1      45.580  31.562  91.431  1.00  0.00     0.006 C 
BRANCH   4   5
ATOM      5  C   UNL     1      44.212  30.891  91.607  1.00  0.00     0.053 C 
BRANCH   5   6
ATOM      6  C   UNL     1      43.876  30.683  93.051  1.00  0.00     0.041 C 
ATOM      7  O   UNL     1      43.737  29.518  93.507  1.00  0.00    -0.550 OA
ATOM      8  O   UNL     1      43.751  31.773  93.901  1.00  0.00    -0.550 OA
ENDBRANCH   5   6
ENDBRANCH   4   5
ENDBRANCH   3   4
ENDBRANCH   2   3
ENDBRANCH   1   2
BRANCH   1   9
ATOM      9  C   UNL     1      48.848  29.271  90.811  1.00  0.00     0.000 C 
BRANCH   9  10
ATOM     10  C   UNL     1      48.183  27.993  91.352  1.00  0.00    -0.000 C 
BRANCH  10  11
ATOM     11  C   UNL     1      46.791  28.261  91.948  1.00  0.00    -0.000 C 
BRANCH  11  12
ATOM     12  C   UNL     1      45.698  27.378  91.326  1.00  0.00    -0.000 C 
BRANCH  12  13
ATOM     13  C   UNL     1      45.918  27.214  89.818  1.00  0.00    -0.003 C 
ATOM     14  C   UNL     1      45.127  28.253  89.028  1.00  0.00     0.004 C 
ENDBRANCH  12  13
ENDBRANCH  11  12
ENDBRANCH  10  11
ENDBRANCH   9  10
ENDBRANCH   1   9
TORSDOF 10
ENDMDL
MODEL 8
REMARK VINA RESULT:    -3.379      3.521      6.753
REMARK INTER + INTRA:          -5.862
REMARK INTER:                  -4.903
REMARK INTRA:                  -0.958
REMARK UNBOUND:                -0.508
REMARK SMILES CCCCCCCCCCCC(=O)[O-]
REMARK SMILES IDX 7 1 8 2 9 3 10 4 11 5 12 6 13 7 14 8 6 9 5 10 4 11 3 12 2 13
REMARK SMILES IDX 1 14
REMARK H PARENT
REMARK Flexibility Score: inf
ROOT
ATOM      1  C   UNL     1      44.133  22.135  78.057  1.00  0.00     0.000 C 
ENDROOT
BRANCH   1   2
ATOM      2  C   UNL     1      42.934  21.711  77.194  1.00  0.00     0.000 C 
BRANCH   2   3
ATOM      3  C   UNL     1      41.611  22.052  77.888  1.00  0.00     0.000 C 
BRANCH   3   4
ATOM      4  C   UNL     1      40.709  20.813  77.997  1.00  0.00     0.006 C 
BRANCH   4   5
ATOM      5  C   UNL     1      40.826  20.128  79.365  1.00  0.00     0.053 C 
BRANCH   5   6
ATOM      6  C   UNL     1      39.486  19.936  80.007  1.00  0.00     0.041 C 
ATOM      7  O   UNL     1      39.258  18.913  80.704  1.00  0.00    -0.550 OA
ATOM      8  O   UNL     1      38.501  20.905  79.866  1.00  0.00    -0.550 OA
ENDBRANCH   5   6
ENDBRANCH   4   5
ENDBRANCH   3   4
ENDBRANCH   2   3
ENDBRANCH   1   2
BRANCH   1   9
ATOM      9  C   UNL     1      44.628  21.011  78.981  1.00  0.00     0.000 C 
BRANCH   9  10
ATOM     10  C   UNL     1      44.452  19.615  78.358  1.00  0.00    -0.000 C 
BRANCH  10  11
ATOM     11  C   UNL     1      45.791  18.970  77.968  1.00  0.00    -0.000 C 
BRANCH  11  12
ATOM     12  C   UNL     1      45.833  18.529  76.497  1.00  0.00    -0.000 C 
BRANCH  12  13
ATOM     13  C   UNL     1      46.124  19.719  75.575  1.00  0.00    -0.003 C 
ATOM     14  C   UNL     1      46.288  19.269  74.127  1.00  0.00     0.004 C 
ENDBRANCH  12  13
ENDBRANCH  11  12
ENDBRANCH  10  11
ENDBRANCH   9  10
ENDBRANCH   1   9
TORSDOF 10
ENDMDL
MODEL 9
REMARK VINA RESULT:    -3.369     16.914     18.231
REMARK INTER + INTRA:          -5.846
REMARK INTER:                  -4.604
REMARK INTRA:                  -1.242
REMARK UNBOUND:                -0.508
REMARK SMILES CCCCCCCCCCCC(=O)[O-]
REMARK SMILES IDX 7 1 8 2 9 3 10 4 11 5 12 6 13 7 14 8 6 9 5 10 4 11 3 12 2 13
REMARK SMILES IDX 1 14
REMARK H PARENT
REMARK Flexibility Score: inf
ROOT
ATOM      1  C   UNL     1      47.877  29.947  91.095  1.00  0.00     0.000 C 
ENDROOT
BRANCH   1   2
ATOM      2  C   UNL     1      47.007  31.187  90.834  1.00  0.00     0.000 C 
BRANCH   2   3
ATOM      3  C   UNL     1      45.869  30.862  89.859  1.00  0.00     0.000 C 
BRANCH   3   4
ATOM      4  C   UNL     1      44.512  31.302  90.429  1.00  0.00     0.006 C 
BRANCH   4   5
ATOM      5  C   UNL     1      44.513  31.348  91.963  1.00  0.00     0.053 C 
BRANCH   5   6
ATOM      6  C   UNL     1      44.017  30.067  92.558  1.00  0.00     0.041 C 
ATOM      7  O   UNL     1      44.829  29.241  93.051  1.00  0.00    -0.550 OA
ATOM      8  O   UNL     1      42.654  29.801  92.602  1.00  0.00    -0.550 OA
ENDBRANCH   5   6
ENDBRANCH   4   5
ENDBRANCH   3   4
ENDBRANCH   2   3
ENDBRANCH   1   2
BRANCH   1   9
ATOM      9  C   UNL     1      49.079  29.853  90.141  1.00  0.00     0.000 C 
BRANCH   9  10
ATOM     10  C   UNL     1      49.966  31.109  90.185  1.00  0.00    -0.000 C 
BRANCH  10  11
ATOM     11  C   UNL     1      50.036  31.829  88.828  1.00  0.00    -0.000 C 
BRANCH  11  12
ATOM     12  C   UNL     1      49.187  31.143  87.747  1.00  0.00    -0.000 C 
BRANCH  12  13
ATOM     13  C   UNL     1      48.164  32.118  87.153  1.00  0.00    -0.003 C 
ATOM     14  C   UNL     1      48.225  33.475  87.848  1.00  0.00     0.004 C 
ENDBRANCH  12  13
ENDBRANCH  11  12
ENDBRANCH  10  11
ENDBRANCH   9  10
ENDBRANCH   1   9
TORSDOF 10
ENDMDL
