MODEL 1
REMARK VINA RESULT:    -2.451      0.000      0.000
REMARK INTER + INTRA:          -6.852
REMARK INTER:                  -5.316
REMARK INTRA:                  -1.537
REMARK UNBOUND:                -1.537
REMARK SMILES CCCCCCCCCCCCCCCCCCCCCC(=O)[O-]
REMARK SMILES IDX 12 1 11 2 10 3 9 4 8 5 7 6 6 7 5 8 4 9 3 10 2 11 1 12 13 13
REMARK SMILES IDX 14 14 15 15 16 16 17 17 18 18 19 19 20 20 21 21 22 22 23 23
REMARK SMILES IDX 24 24
REMARK H PARENT
REMARK Flexibility Score: inf
ROOT
ATOM      1  C   UNL     1      31.652  -1.025  45.133  1.00  0.00     0.000 C 
ENDROOT
BRANCH   1   2
ATOM      2  C   UNL     1      32.135  -1.487  43.752  1.00  0.00     0.000 C 
BRANCH   2   3
ATOM      3  C   UNL     1      32.296  -0.328  42.756  1.00  0.00     0.000 C 
BRANCH   3   4
ATOM      4  C   UNL     1      33.609  -0.380  41.948  1.00  0.00    -0.000 C 
BRANCH   4   5
ATOM      5  C   UNL     1      34.846  -0.112  42.824  1.00  0.00    -0.000 C 
BRANCH   5   6
ATOM      6  C   UNL     1      36.171  -0.467  42.125  1.00  0.00    -0.000 C 
BRANCH   6   7
ATOM      7  C   UNL     1      37.137  -1.336  42.953  1.00  0.00    -0.000 C 
BRANCH   7   8
ATOM      8  C   UNL     1      37.850  -2.408  42.109  1.00  0.00    -0.000 C 
BRANCH   8   9
ATOM      9  C   UNL     1      37.462  -3.838  42.517  1.00  0.00    -0.000 C 
BRANCH   9  10
ATOM     10  C   UNL     1      36.593  -3.881  43.786  1.00  0.00    -0.000 C 
BRANCH  10  11
ATOM     11  C   UNL     1      35.090  -3.824  43.469  1.00  0.00    -0.003 C 
ATOM     12  C   UNL     1      34.265  -4.755  44.358  1.00  0.00     0.004 C 
ENDBRANCH  10  11
ENDBRANCH   9  10
ENDBRANCH   8   9
ENDBRANCH   7   8
ENDBRANCH   6   7
ENDBRANCH   5   6
ENDBRANCH   4   5
ENDBRANCH   3   4
ENDBRANCH   2   3
ENDBRANCH   1   2
BRANCH   1  13
ATOM     13  C   UNL     1      31.093  -2.201  45.948  1.00  0.00     0.000 C 
BRANCH  13  14
ATOM     14  C   UNL     1      30.712  -3.405  45.067  1.00  0.00     0.000 C 
BRANCH  14  15
ATOM     15  C   UNL     1      29.268  -3.917  45.253  1.00  0.00     0.000 C 
BRANCH  15  16
ATOM     16  C   UNL     1      28.247  -3.391  44.226  1.00  0.00     0.000 C 
BRANCH  16  17
ATOM     17  C   UNL     1      28.543  -1.949  43.779  1.00  0.00     0.000 C 
BRANCH  17  18
ATOM     18  C   UNL     1      28.292  -0.910  44.887  1.00  0.00     0.000 C 
BRANCH  18  19
ATOM     19  C   UNL     1      26.957  -1.060  45.638  1.00  0.00     0.000 C 
BRANCH  19  20
ATOM     20  C   UNL     1      27.103  -1.773  46.993  1.00  0.00     0.006 C 
BRANCH  20  21
ATOM     21  C   UNL     1      26.174  -2.987  47.081  1.00  0.00     0.053 C 
BRANCH  21  22
ATOM     22  C   UNL     1      26.757  -4.037  47.973  1.00  0.00     0.041 C 
ATOM     23  O   UNL     1      27.045  -3.763  49.169  1.00  0.00    -0.550 OA
ATOM     24  O   UNL     1      26.954  -5.327  47.495  1.00  0.00    -0.550 OA
ENDBRANCH  21  22
ENDBRANCH  20  21
ENDBRANCH  19  20
ENDBRANCH  18  19
ENDBRANCH  17  18
ENDBRANCH  16  17
ENDBRANCH  15  16
ENDBRANCH  14  15
ENDBRANCH  13  14
ENDBRANCH   1  13
TORSDOF 20
ENDMDL
MODEL 2
REMARK VINA RESULT:    -2.305      3.167      8.430
REMARK INTER + INTRA:          -6.537
REMARK INTER:                  -5.002
REMARK INTRA:                  -1.535
REMARK UNBOUND:                -1.537
REMARK SMILES CCCCCCCCCCCCCCCCCCCCCC(=O)[O-]
REMARK SMILES IDX 12 1 11 2 10 3 9 4 8 5 7 6 6 7 5 8 4 9 3 10 2 11 1 12 13 13
REMARK SMILES IDX 14 14 15 15 16 16 17 17 18 18 19 19 20 20 21 21 22 22 23 23
REMARK SMILES IDX 24 24
REMARK H PARENT
REMARK Flexibility Score: inf
ROOT
ATOM      1  C   UNL     1      30.947  -1.964  46.034  1.00  0.00     0.000 C 
ENDROOT
BRANCH   1   2
ATOM      2  C   UNL     1      30.905  -3.380  45.445  1.00  0.00     0.000 C 
BRANCH   2   3
ATOM      3  C   UNL     1      29.523  -3.754  44.883  1.00  0.00     0.000 C 
BRANCH   3   4
ATOM      4  C   UNL     1      28.628  -4.510  45.887  1.00  0.00    -0.000 C 
BRANCH   4   5
ATOM      5  C   UNL     1      28.397  -3.711  47.182  1.00  0.00    -0.000 C 
BRANCH   5   6
ATOM      6  C   UNL     1      26.974  -3.133  47.290  1.00  0.00    -0.000 C 
BRANCH   6   7
ATOM      7  C   UNL     1      26.580  -2.149  46.171  1.00  0.00    -0.000 C 
BRANCH   7   8
ATOM      8  C   UNL     1      27.560  -0.969  46.040  1.00  0.00    -0.000 C 
BRANCH   8   9
ATOM      9  C   UNL     1      27.828  -0.583  44.577  1.00  0.00    -0.000 C 
BRANCH   9  10
ATOM     10  C   UNL     1      27.875  -1.800  43.637  1.00  0.00    -0.000 C 
BRANCH  10  11
ATOM     11  C   UNL     1      28.258  -1.416  42.199  1.00  0.00    -0.003 C 
ATOM     12  C   UNL     1      27.943   0.045  41.875  1.00  0.00     0.004 C 
ENDBRANCH  10  11
ENDBRANCH   9  10
ENDBRANCH   8   9
ENDBRANCH   7   8
ENDBRANCH   6   7
ENDBRANCH   5   6
ENDBRANCH   4   5
ENDBRANCH   3   4
ENDBRANCH   2   3
ENDBRANCH   1   2
BRANCH   1  13
ATOM     13  C   UNL     1      31.147  -0.911  44.934  1.00  0.00     0.000 C 
BRANCH  13  14
ATOM     14  C   UNL     1      31.667  -1.519  43.618  1.00  0.00     0.000 C 
BRANCH  14  15
ATOM     15  C   UNL     1      32.173  -0.494  42.582  1.00  0.00     0.000 C 
BRANCH  15  16
ATOM     16  C   UNL     1      33.232   0.498  43.101  1.00  0.00     0.000 C 
BRANCH  16  17
ATOM     17  C   UNL     1      33.999   1.197  41.964  1.00  0.00     0.000 C 
BRANCH  17  18
ATOM     18  C   UNL     1      35.488   0.813  41.918  1.00  0.00     0.000 C 
BRANCH  18  19
ATOM     19  C   UNL     1      35.776  -0.699  41.877  1.00  0.00     0.000 C 
BRANCH  19  20
ATOM     20  C   UNL     1      36.416  -1.227  43.171  1.00  0.00     0.006 C 
BRANCH  20  21
ATOM     21  C   UNL     1      37.306  -2.442  42.891  1.00  0.00     0.053 C 
BRANCH  21  22
ATOM     22  C   UNL     1      36.762  -3.663  43.562  1.00  0.00     0.041 C 
ATOM     23  O   UNL     1      37.545  -4.562  43.973  1.00  0.00    -0.550 OA
ATOM     24  O   UNL     1      35.394  -3.798  43.763  1.00  0.00    -0.550 OA
ENDBRANCH  21  22
ENDBRANCH  20  21
ENDBRANCH  19  20
ENDBRANCH  18  19
ENDBRANCH  17  18
ENDBRANCH  16  17
ENDBRANCH  15  16
ENDBRANCH  14  15
ENDBRANCH  13  14
ENDBRANCH   1  13
TORSDOF 20
ENDMDL
MODEL 3
REMARK VINA RESULT:    -2.289      1.887      2.879
REMARK INTER + INTRA:          -6.502
REMARK INTER:                  -5.919
REMARK INTRA:                  -0.583
REMARK UNBOUND:                -1.537
REMARK SMILES CCCCCCCCCCCCCCCCCCCCCC(=O)[O-]
REMARK SMILES IDX 12 1 11 2 10 3 9 4 8 5 7 6 6 7 5 8 4 9 3 10 2 11 1 12 13 13
REMARK SMILES IDX 14 14 15 15 16 16 17 17 18 18 19 19 20 20 21 21 22 22 23 23
REMARK SMILES IDX 24 24
REMARK H PARENT
REMARK Flexibility Score: inf
ROOT
ATOM      1  C   UNL     1      32.282  -1.072  42.853  1.00  0.00     0.000 C 
ENDROOT
BRANCH   1   2
ATOM      2  C   UNL     1      33.278   0.010  42.414  1.00  0.00     0.000 C 
BRANCH   2   3
ATOM      3  C   UNL     1      34.604  -0.571  41.897  1.00  0.00     0.000 C 
BRANCH   3   4
ATOM      4  C   UNL     1      35.854   0.125  42.474  1.00  0.00    -0.000 C 
BRANCH   4   5
ATOM      5  C   UNL     1      36.642  -0.785  43.433  1.00  0.00    -0.000 C 
BRANCH   5   6
ATOM      6  C   UNL     1      37.965  -1.295  42.832  1.00  0.00    -0.000 C 
BRANCH   6   7
ATOM      7  C   UNL     1      38.840  -2.129  43.788  1.00  0.00    -0.000 C 
BRANCH   7   8
ATOM      8  C   UNL     1      38.885  -3.620  43.409  1.00  0.00    -0.000 C 
BRANCH   8   9
ATOM      9  C   UNL     1      37.557  -4.342  43.685  1.00  0.00    -0.000 C 
BRANCH   9  10
ATOM     10  C   UNL     1      36.579  -4.265  42.500  1.00  0.00    -0.000 C 
BRANCH  10  11
ATOM     11  C   UNL     1      35.171  -3.821  42.930  1.00  0.00    -0.003 C 
ATOM     12  C   UNL     1      34.685  -4.541  44.188  1.00  0.00     0.004 C 
ENDBRANCH  10  11
ENDBRANCH   9  10
ENDBRANCH   8   9
ENDBRANCH   7   8
ENDBRANCH   6   7
ENDBRANCH   5   6
ENDBRANCH   4   5
ENDBRANCH   3   4
ENDBRANCH   2   3
ENDBRANCH   1   2
BRANCH   1  13
ATOM     13  C   UNL     1      30.858  -0.507  42.958  1.00  0.00     0.000 C 
BRANCH  13  14
ATOM     14  C   UNL     1      29.915  -1.075  41.881  1.00  0.00     0.000 C 
BRANCH  14  15
ATOM     15  C   UNL     1      28.669  -1.804  42.425  1.00  0.00     0.000 C 
BRANCH  15  16
ATOM     16  C   UNL     1      27.782  -0.974  43.373  1.00  0.00     0.000 C 
BRANCH  16  17
ATOM     17  C   UNL     1      28.347  -0.901  44.802  1.00  0.00     0.000 C 
BRANCH  17  18
ATOM     18  C   UNL     1      27.268  -1.074  45.886  1.00  0.00     0.000 C 
BRANCH  18  19
ATOM     19  C   UNL     1      27.047  -2.519  46.369  1.00  0.00     0.000 C 
BRANCH  19  20
ATOM     20  C   UNL     1      28.349  -3.224  46.783  1.00  0.00     0.006 C 
BRANCH  20  21
ATOM     21  C   UNL     1      29.135  -3.696  45.556  1.00  0.00     0.053 C 
BRANCH  21  22
ATOM     22  C   UNL     1      30.530  -3.159  45.581  1.00  0.00     0.041 C 
ATOM     23  O   UNL     1      31.415  -3.660  44.836  1.00  0.00    -0.550 OA
ATOM     24  O   UNL     1      30.850  -2.084  46.403  1.00  0.00    -0.550 OA
ENDBRANCH  21  22
ENDBRANCH  20  21
ENDBRANCH  19  20
ENDBRANCH  18  19
ENDBRANCH  17  18
ENDBRANCH  16  17
ENDBRANCH  15  16
ENDBRANCH  14  15
ENDBRANCH  13  14
ENDBRANCH   1  13
TORSDOF 20
ENDMDL
MODEL 4
REMARK VINA RESULT:    -1.962      3.492      8.589
REMARK INTER + INTRA:          -5.791
REMARK INTER:                  -5.010
REMARK INTRA:                  -0.782
REMARK UNBOUND:                -1.537
REMARK SMILES CCCCCCCCCCCCCCCCCCCCCC(=O)[O-]
REMARK SMILES IDX 12 1 11 2 10 3 9 4 8 5 7 6 6 7 5 8 4 9 3 10 2 11 1 12 13 13
REMARK SMILES IDX 14 14 15 15 16 16 17 17 18 18 19 19 20 20 21 21 22 22 23 23
REMARK SMILES IDX 24 24
REMARK H PARENT
REMARK Flexibility Score: inf
ROOT
ATOM      1  C   UNL     1      28.625  -1.280  42.585  1.00  0.00     0.000 C 
ENDROOT
BRANCH   1   2
ATOM      2  C   UNL     1      28.790  -1.244  44.110  1.00  0.00     0.000 C 
BRANCH   2   3
ATOM      3  C   UNL     1      27.522  -0.770  44.838  1.00  0.00     0.000 C 
BRANCH   3   4
ATOM      4  C   UNL     1      27.450  -1.215  46.314  1.00  0.00    -0.000 C 
BRANCH   4   5
ATOM      5  C   UNL     1      26.192  -2.049  46.613  1.00  0.00    -0.000 C 
BRANCH   5   6
ATOM      6  C   UNL     1      26.469  -3.252  47.535  1.00  0.00    -0.000 C 
BRANCH   6   7
ATOM      7  C   UNL     1      27.930  -3.740  47.554  1.00  0.00    -0.000 C 
BRANCH   7   8
ATOM      8  C   UNL     1      28.228  -4.777  46.457  1.00  0.00    -0.000 C 
BRANCH   8   9
ATOM      9  C   UNL     1      28.899  -4.156  45.221  1.00  0.00    -0.000 C 
BRANCH   9  10
ATOM     10  C   UNL     1      30.435  -4.184  45.299  1.00  0.00    -0.000 C 
BRANCH  10  11
ATOM     11  C   UNL     1      31.046  -2.774  45.325  1.00  0.00    -0.003 C 
ATOM     12  C   UNL     1      31.151  -2.203  46.740  1.00  0.00     0.004 C 
ENDBRANCH  10  11
ENDBRANCH   9  10
ENDBRANCH   8   9
ENDBRANCH   7   8
ENDBRANCH   6   7
ENDBRANCH   5   6
ENDBRANCH   4   5
ENDBRANCH   3   4
ENDBRANCH   2   3
ENDBRANCH   1   2
BRANCH   1  13
ATOM     13  C   UNL     1      29.965  -1.034  41.875  1.00  0.00     0.000 C 
BRANCH  13  14
ATOM     14  C   UNL     1      31.114  -0.751  42.861  1.00  0.00     0.000 C 
BRANCH  14  15
ATOM     15  C   UNL     1      32.358  -0.084  42.236  1.00  0.00     0.000 C 
BRANCH  15  16
ATOM     16  C   UNL     1      33.631  -0.125  43.103  1.00  0.00     0.000 C 
BRANCH  16  17
ATOM     17  C   UNL     1      34.905   0.203  42.305  1.00  0.00     0.000 C 
BRANCH  17  18
ATOM     18  C   UNL     1      35.795  -1.028  42.057  1.00  0.00     0.000 C 
BRANCH  18  19
ATOM     19  C   UNL     1      36.685  -1.445  43.242  1.00  0.00     0.000 C 
BRANCH  19  20
ATOM     20  C   UNL     1      38.086  -1.907  42.812  1.00  0.00     0.006 C 
BRANCH  20  21
ATOM     21  C   UNL     1      38.068  -3.368  42.354  1.00  0.00     0.053 C 
BRANCH  21  22
ATOM     22  C   UNL     1      37.912  -4.289  43.523  1.00  0.00     0.041 C 
ATOM     23  O   UNL     1      36.859  -4.260  44.215  1.00  0.00    -0.550 OA
ATOM     24  O   UNL     1      38.914  -5.201  43.831  1.00  0.00    -0.550 OA
ENDBRANCH  21  22
ENDBRANCH  20  21
ENDBRANCH  19  20
ENDBRANCH  18  19
ENDBRANCH  17  18
ENDBRANCH  16  17
ENDBRANCH  15  16
ENDBRANCH  14  15
ENDBRANCH  13  14
ENDBRANCH   1  13
TORSDOF 20
ENDMDL
MODEL 5
REMARK VINA RESULT:    -1.876      3.398      8.309
REMARK INTER + INTRA:          -5.607
REMARK INTER:                  -4.344
REMARK INTRA:                  -1.263
REMARK UNBOUND:                -1.537
REMARK SMILES CCCCCCCCCCCCCCCCCCCCCC(=O)[O-]
REMARK SMILES IDX 12 1 11 2 10 3 9 4 8 5 7 6 6 7 5 8 4 9 3 10 2 11 1 12 13 13
REMARK SMILES IDX 14 14 15 15 16 16 17 17 18 18 19 19 20 20 21 21 22 22 23 23
REMARK SMILES IDX 24 24
REMARK H PARENT
REMARK Flexibility Score: inf
ROOT
ATOM      1  C   UNL     1      29.369  -1.491  41.878  1.00  0.00     0.000 C 
ENDROOT
BRANCH   1   2
ATOM      2  C   UNL     1      28.166  -0.662  42.349  1.00  0.00     0.000 C 
BRANCH   2   3
ATOM      3  C   UNL     1      27.455  -1.277  43.566  1.00  0.00     0.000 C 
BRANCH   3   4
ATOM      4  C   UNL     1      27.515  -0.395  44.831  1.00  0.00    -0.000 C 
BRANCH   4   5
ATOM      5  C   UNL     1      28.075  -1.154  46.047  1.00  0.00    -0.000 C 
BRANCH   5   6
ATOM      6  C   UNL     1      29.592  -0.963  46.232  1.00  0.00    -0.000 C 
BRANCH   6   7
ATOM      7  C   UNL     1      30.421  -2.262  46.228  1.00  0.00    -0.000 C 
BRANCH   7   8
ATOM      8  C   UNL     1      29.873  -3.318  45.251  1.00  0.00    -0.000 C 
BRANCH   8   9
ATOM      9  C   UNL     1      28.962  -4.346  45.940  1.00  0.00    -0.000 C 
BRANCH   9  10
ATOM     10  C   UNL     1      27.539  -3.813  46.184  1.00  0.00    -0.000 C 
BRANCH  10  11
ATOM     11  C   UNL     1      26.931  -4.343  47.492  1.00  0.00    -0.003 C 
ATOM     12  C   UNL     1      27.299  -3.486  48.703  1.00  0.00     0.004 C 
ENDBRANCH  10  11
ENDBRANCH   9  10
ENDBRANCH   8   9
ENDBRANCH   7   8
ENDBRANCH   6   7
ENDBRANCH   5   6
ENDBRANCH   4   5
ENDBRANCH   3   4
ENDBRANCH   2   3
ENDBRANCH   1   2
BRANCH   1  13
ATOM     13  C   UNL     1      30.658  -0.657  41.894  1.00  0.00     0.000 C 
BRANCH  13  14
ATOM     14  C   UNL     1      31.617  -1.070  43.026  1.00  0.00     0.000 C 
BRANCH  14  15
ATOM     15  C   UNL     1      32.528   0.059  43.553  1.00  0.00     0.000 C 
BRANCH  15  16
ATOM     16  C   UNL     1      33.426   0.727  42.495  1.00  0.00     0.000 C 
BRANCH  16  17
ATOM     17  C   UNL     1      34.444  -0.248  41.878  1.00  0.00     0.000 C 
BRANCH  17  18
ATOM     18  C   UNL     1      35.890   0.276  41.932  1.00  0.00     0.000 C 
BRANCH  18  19
ATOM     19  C   UNL     1      36.966  -0.790  42.210  1.00  0.00     0.000 C 
BRANCH  19  20
ATOM     20  C   UNL     1      36.412  -2.224  42.196  1.00  0.00     0.006 C 
BRANCH  20  21
ATOM     21  C   UNL     1      37.546  -3.253  42.242  1.00  0.00     0.053 C 
BRANCH  21  22
ATOM     22  C   UNL     1      37.402  -4.148  43.432  1.00  0.00     0.041 C 
ATOM     23  O   UNL     1      38.402  -4.771  43.880  1.00  0.00    -0.550 OA
ATOM     24  O   UNL     1      36.173  -4.271  44.067  1.00  0.00    -0.550 OA
ENDBRANCH  21  22
ENDBRANCH  20  21
ENDBRANCH  19  20
ENDBRANCH  18  19
ENDBRANCH  17  18
ENDBRANCH  16  17
ENDBRANCH  15  16
ENDBRANCH  14  15
ENDBRANCH  13  14
ENDBRANCH   1  13
TORSDOF 20
ENDMDL
MODEL 6
REMARK VINA RESULT:    -1.762      1.130      2.983
REMARK INTER + INTRA:          -5.359
REMARK INTER:                  -4.141
REMARK INTRA:                  -1.218
REMARK UNBOUND:                -1.537
REMARK SMILES CCCCCCCCCCCCCCCCCCCCCC(=O)[O-]
REMARK SMILES IDX 12 1 11 2 10 3 9 4 8 5 7 6 6 7 5 8 4 9 3 10 2 11 1 12 13 13
REMARK SMILES IDX 14 14 15 15 16 16 17 17 18 18 19 19 20 20 21 21 22 22 23 23
REMARK SMILES IDX 24 24
REMARK H PARENT
REMARK Flexibility Score: inf
ROOT
ATOM      1  C   UNL     1      31.364  -2.589  44.833  1.00  0.00     0.000 C 
ENDROOT
BRANCH   1   2
ATOM      2  C   UNL     1      32.767  -3.065  45.231  1.00  0.00     0.000 C 
BRANCH   2   3
ATOM      3  C   UNL     1      33.112  -4.453  44.667  1.00  0.00     0.000 C 
BRANCH   3   4
ATOM      4  C   UNL     1      34.592  -4.608  44.262  1.00  0.00    -0.000 C 
BRANCH   4   5
ATOM      5  C   UNL     1      34.969  -3.718  43.064  1.00  0.00    -0.000 C 
BRANCH   5   6
ATOM      6  C   UNL     1      36.348  -4.056  42.468  1.00  0.00    -0.000 C 
BRANCH   6   7
ATOM      7  C   UNL     1      37.487  -4.202  43.496  1.00  0.00    -0.000 C 
BRANCH   7   8
ATOM      8  C   UNL     1      38.282  -2.899  43.696  1.00  0.00    -0.000 C 
BRANCH   8   9
ATOM      9  C   UNL     1      37.802  -1.765  42.776  1.00  0.00    -0.000 C 
BRANCH   9  10
ATOM     10  C   UNL     1      36.796  -0.824  43.463  1.00  0.00    -0.000 C 
BRANCH  10  11
ATOM     11  C   UNL     1      35.989   0.008  42.454  1.00  0.00    -0.003 C 
ATOM     12  C   UNL     1      34.488  -0.010  42.743  1.00  0.00     0.004 C 
ENDBRANCH  10  11
ENDBRANCH   9  10
ENDBRANCH   8   9
ENDBRANCH   7   8
ENDBRANCH   6   7
ENDBRANCH   5   6
ENDBRANCH   4   5
ENDBRANCH   3   4
ENDBRANCH   2   3
ENDBRANCH   1   2
BRANCH   1  13
ATOM     13  C   UNL     1      31.416  -1.217  44.145  1.00  0.00     0.000 C 
BRANCH  13  14
ATOM     14  C   UNL     1      31.320  -1.320  42.611  1.00  0.00     0.000 C 
BRANCH  14  15
ATOM     15  C   UNL     1      30.323  -0.343  41.954  1.00  0.00     0.000 C 
BRANCH  15  16
ATOM     16  C   UNL     1      28.852  -0.803  41.958  1.00  0.00     0.000 C 
BRANCH  16  17
ATOM     17  C   UNL     1      28.328  -1.106  43.372  1.00  0.00     0.000 C 
BRANCH  17  18
ATOM     18  C   UNL     1      27.953  -2.585  43.573  1.00  0.00     0.000 C 
BRANCH  18  19
ATOM     19  C   UNL     1      28.374  -3.193  44.923  1.00  0.00     0.000 C 
BRANCH  19  20
ATOM     20  C   UNL     1      27.947  -2.340  46.129  1.00  0.00     0.006 C 
BRANCH  20  21
ATOM     21  C   UNL     1      26.626  -2.841  46.718  1.00  0.00     0.053 C 
BRANCH  21  22
ATOM     22  C   UNL     1      26.874  -3.851  47.794  1.00  0.00     0.041 C 
ATOM     23  O   UNL     1      27.050  -3.477  48.985  1.00  0.00    -0.550 OA
ATOM     24  O   UNL     1      26.881  -5.207  47.489  1.00  0.00    -0.550 OA
ENDBRANCH  21  22
ENDBRANCH  20  21
ENDBRANCH  19  20
ENDBRANCH  18  19
ENDBRANCH  17  18
ENDBRANCH  16  17
ENDBRANCH  15  16
ENDBRANCH  14  15
ENDBRANCH  13  14
ENDBRANCH   1  13
TORSDOF 20
ENDMDL
MODEL 7
REMARK VINA RESULT:    -1.642     11.702     15.270
REMARK INTER + INTRA:          -5.098
REMARK INTER:                  -3.446
REMARK INTRA:                  -1.652
REMARK UNBOUND:                -1.537
REMARK SMILES CCCCCCCCCCCCCCCCCCCCCC(=O)[O-]
REMARK SMILES IDX 12 1 11 2 10 3 9 4 8 5 7 6 6 7 5 8 4 9 3 10 2 11 1 12 13 13
REMARK SMILES IDX 14 14 15 15 16 16 17 17 18 18 19 19 20 20 21 21 22 22 23 23
REMARK SMILES IDX 24 24
REMARK H PARENT
REMARK Flexibility Score: inf
ROOT
ATOM      1  C   UNL     1      21.108 -10.621  46.492  1.00  0.00     0.000 C 
ENDROOT
BRANCH   1   2
ATOM      2  C   UNL     1      19.760 -11.343  46.619  1.00  0.00     0.000 C 
BRANCH   2   3
ATOM      3  C   UNL     1      19.859 -12.662  47.404  1.00  0.00     0.000 C 
BRANCH   3   4
ATOM      4  C   UNL     1      18.897 -13.758  46.900  1.00  0.00    -0.000 C 
BRANCH   4   5
ATOM      5  C   UNL     1      19.594 -15.121  46.743  1.00  0.00    -0.000 C 
BRANCH   5   6
ATOM      6  C   UNL     1      18.876 -16.057  45.753  1.00  0.00    -0.000 C 
BRANCH   6   7
ATOM      7  C   UNL     1      19.260 -15.865  44.273  1.00  0.00    -0.000 C 
BRANCH   7   8
ATOM      8  C   UNL     1      19.429 -14.384  43.887  1.00  0.00    -0.000 C 
BRANCH   8   9
ATOM      9  C   UNL     1      20.416 -14.184  42.726  1.00  0.00    -0.000 C 
BRANCH   9  10
ATOM     10  C   UNL     1      21.424 -13.051  42.989  1.00  0.00    -0.000 C 
BRANCH  10  11
ATOM     11  C   UNL     1      22.162 -13.221  44.327  1.00  0.00    -0.003 C 
ATOM     12  C   UNL     1      23.501 -12.484  44.359  1.00  0.00     0.004 C 
ENDBRANCH  10  11
ENDBRANCH   9  10
ENDBRANCH   8   9
ENDBRANCH   7   8
ENDBRANCH   6   7
ENDBRANCH   5   6
ENDBRANCH   4   5
ENDBRANCH   3   4
ENDBRANCH   2   3
ENDBRANCH   1   2
BRANCH   1  13
ATOM     13  C   UNL     1      21.242  -9.931  45.127  1.00  0.00     0.000 C 
BRANCH  13  14
ATOM     14  C   UNL     1      19.985 -10.099  44.252  1.00  0.00     0.000 C 
BRANCH  14  15
ATOM     15  C   UNL     1      20.220  -9.933  42.736  1.00  0.00     0.000 C 
BRANCH  15  16
ATOM     16  C   UNL     1      18.997  -9.457  41.929  1.00  0.00     0.000 C 
BRANCH  16  17
ATOM     17  C   UNL     1      18.875  -7.924  41.885  1.00  0.00     0.000 C 
BRANCH  17  18
ATOM     18  C   UNL     1      20.030  -7.205  42.606  1.00  0.00     0.000 C 
BRANCH  18  19
ATOM     19  C   UNL     1      19.713  -5.781  43.097  1.00  0.00     0.000 C 
BRANCH  19  20
ATOM     20  C   UNL     1      20.044  -4.697  42.059  1.00  0.00     0.006 C 
BRANCH  20  21
ATOM     21  C   UNL     1      20.107  -3.311  42.709  1.00  0.00     0.053 C 
BRANCH  21  22
ATOM     22  C   UNL     1      20.684  -3.399  44.087  1.00  0.00     0.041 C 
ATOM     23  O   UNL     1      19.954  -3.190  45.093  1.00  0.00    -0.550 OA
ATOM     24  O   UNL     1      22.019  -3.740  44.264  1.00  0.00    -0.550 OA
ENDBRANCH  21  22
ENDBRANCH  20  21
ENDBRANCH  19  20
ENDBRANCH  18  19
ENDBRANCH  17  18
ENDBRANCH  16  17
ENDBRANCH  15  16
ENDBRANCH  14  15
ENDBRANCH  13  14
ENDBRANCH   1  13
TORSDOF 20
ENDMDL
MODEL 8
REMARK VINA RESULT:    -0.186      2.825      8.518
REMARK INTER + INTRA:          -1.940
REMARK INTER:                  -0.919
REMARK INTRA:                  -1.021
REMARK UNBOUND:                -1.537
REMARK SMILES CCCCCCCCCCCCCCCCCCCCCC(=O)[O-]
REMARK SMILES IDX 12 1 11 2 10 3 9 4 8 5 7 6 6 7 5 8 4 9 3 10 2 11 1 12 13 13
REMARK SMILES IDX 14 14 15 15 16 16 17 17 18 18 19 19 20 20 21 21 22 22 23 23
REMARK SMILES IDX 24 24
REMARK H PARENT
REMARK Flexibility Score: inf
ROOT
ATOM      1  C   UNL     1      31.501  -0.561  44.850  1.00  0.00     0.000 C 
ENDROOT
BRANCH   1   2
ATOM      2  C   UNL     1      30.949  -1.539  45.896  1.00  0.00     0.000 C 
BRANCH   2   3
ATOM      3  C   UNL     1      31.495  -2.966  45.728  1.00  0.00     0.000 C 
BRANCH   3   4
ATOM      4  C   UNL     1      30.593  -3.880  44.872  1.00  0.00    -0.000 C 
BRANCH   4   5
ATOM      5  C   UNL     1      29.113  -3.794  45.286  1.00  0.00    -0.000 C 
BRANCH   5   6
ATOM      6  C   UNL     1      28.252  -2.991  44.294  1.00  0.00    -0.000 C 
BRANCH   6   7
ATOM      7  C   UNL     1      27.963  -1.535  44.707  1.00  0.00    -0.000 C 
BRANCH   7   8
ATOM      8  C   UNL     1      27.517  -1.407  46.175  1.00  0.00    -0.000 C 
BRANCH   8   9
ATOM      9  C   UNL     1      26.259  -2.234  46.486  1.00  0.00    -0.000 C 
BRANCH   9  10
ATOM     10  C   UNL     1      26.355  -2.984  47.826  1.00  0.00    -0.000 C 
BRANCH  10  11
ATOM     11  C   UNL     1      27.387  -4.122  47.788  1.00  0.00    -0.003 C 
ATOM     12  C   UNL     1      26.742  -5.506  47.854  1.00  0.00     0.004 C 
ENDBRANCH  10  11
ENDBRANCH   9  10
ENDBRANCH   8   9
ENDBRANCH   7   8
ENDBRANCH   6   7
ENDBRANCH   5   6
ENDBRANCH   4   5
ENDBRANCH   3   4
ENDBRANCH   2   3
ENDBRANCH   1   2
BRANCH   1  13
ATOM     13  C   UNL     1      31.074  -0.966  43.431  1.00  0.00     0.000 C 
BRANCH  13  14
ATOM     14  C   UNL     1      32.159  -0.671  42.379  1.00  0.00     0.000 C 
BRANCH  14  15
ATOM     15  C   UNL     1      33.570  -0.417  42.951  1.00  0.00     0.000 C 
BRANCH  15  16
ATOM     16  C   UNL     1      34.736  -0.780  42.012  1.00  0.00     0.000 C 
BRANCH  16  17
ATOM     17  C   UNL     1      36.112  -0.467  42.626  1.00  0.00     0.000 C 
BRANCH  17  18
ATOM     18  C   UNL     1      37.274  -1.142  41.875  1.00  0.00     0.000 C 
BRANCH  18  19
ATOM     19  C   UNL     1      38.193  -2.022  42.741  1.00  0.00     0.000 C 
BRANCH  19  20
ATOM     20  C   UNL     1      37.480  -2.618  43.966  1.00  0.00     0.006 C 
BRANCH  20  21
ATOM     21  C   UNL     1      37.065  -4.070  43.710  1.00  0.00     0.053 C 
BRANCH  21  22
ATOM     22  C   UNL     1      35.634  -4.144  43.281  1.00  0.00     0.041 C 
ATOM     23  O   UNL     1      34.735  -4.423  44.119  1.00  0.00    -0.550 OA
ATOM     24  O   UNL     1      35.286  -3.873  41.963  1.00  0.00    -0.550 OA
ENDBRANCH  21  22
ENDBRANCH  20  21
ENDBRANCH  19  20
ENDBRANCH  18  19
ENDBRANCH  17  18
ENDBRANCH  16  17
ENDBRANCH  15  16
ENDBRANCH  14  15
ENDBRANCH  13  14
ENDBRANCH   1  13
TORSDOF 20
ENDMDL
