MODEL 1
REMARK VINA RESULT:    -4.489      0.000      0.000
REMARK INTER + INTRA:         -16.525
REMARK INTER:                 -11.837
REMARK INTRA:                  -4.688
REMARK UNBOUND:                -4.688
REMARK SMILES CCCCCCCCCCCCCCCCCCCCCCCCCCCCCC(=O)[O-]
REMARK SMILES IDX 16 1 17 2 18 3 19 4 20 5 21 6 22 7 23 8 24 9 25 10 26 11
REMARK SMILES IDX 27 12 28 13 29 14 30 15 31 16 32 17 15 18 14 19 13 20 12 21
REMARK SMILES IDX 11 22 10 23 9 24 8 25 7 26 6 27 5 28 4 29 3 30 2 31 1 32
REMARK H PARENT
REMARK Flexibility Score: inf
ROOT
ATOM      1  C   UNL     1      43.293  27.131  16.753  1.00  0.00     0.000 C 
ENDROOT
BRANCH   1   2
ATOM      2  C   UNL     1      43.989  27.128  18.129  1.00  0.00     0.000 C 
BRANCH   2   3
ATOM      3  C   UNL     1      44.213  25.736  18.746  1.00  0.00     0.000 C 
BRANCH   3   4
ATOM      4  C   UNL     1      45.695  25.323  18.765  1.00  0.00     0.000 C 
BRANCH   4   5
ATOM      5  C   UNL     1      46.181  24.783  17.407  1.00  0.00     0.000 C 
BRANCH   5   6
ATOM      6  C   UNL     1      47.304  25.600  16.742  1.00  0.00     0.000 C 
BRANCH   6   7
ATOM      7  C   UNL     1      47.799  26.762  17.622  1.00  0.00     0.000 C 
BRANCH   7   8
ATOM      8  C   UNL     1      49.266  27.126  17.347  1.00  0.00     0.000 C 
BRANCH   8   9
ATOM      9  C   UNL     1      50.146  27.017  18.602  1.00  0.00     0.000 C 
BRANCH   9  10
ATOM     10  C   UNL     1      49.337  27.313  19.871  1.00  0.00     0.000 C 
BRANCH  10  11
ATOM     11  C   UNL     1      49.440  26.153  20.872  1.00  0.00     0.000 C 
BRANCH  11  12
ATOM     12  C   UNL     1      48.096  25.820  21.544  1.00  0.00     0.000 C 
BRANCH  12  13
ATOM     13  C   UNL     1      48.173  25.550  23.061  1.00  0.00     0.006 C 
BRANCH  13  14
ATOM     14  C   UNL     1      47.183  26.367  23.906  1.00  0.00     0.053 C 
BRANCH  14  15
ATOM     15  C   UNL     1      47.646  26.513  25.323  1.00  0.00     0.041 C 
ATOM     16  O   UNL     1      47.051  27.300  26.106  1.00  0.00    -0.550 OA
ATOM     17  O   UNL     1      48.759  25.810  25.768  1.00  0.00    -0.550 OA
ENDBRANCH  14  15
ENDBRANCH  13  14
ENDBRANCH  12  13
ENDBRANCH  11  12
ENDBRANCH  10  11
ENDBRANCH   9  10
ENDBRANCH   8   9
ENDBRANCH   7   8
ENDBRANCH   6   7
ENDBRANCH   5   6
ENDBRANCH   4   5
ENDBRANCH   3   4
ENDBRANCH   2   3
ENDBRANCH   1   2
BRANCH   1  18
ATOM     18  C   UNL     1      43.773  28.255  15.811  1.00  0.00     0.000 C 
BRANCH  18  19
ATOM     19  C   UNL     1      45.234  28.659  16.082  1.00  0.00     0.000 C 
BRANCH  19  20
ATOM     20  C   UNL     1      45.894  29.341  14.872  1.00  0.00     0.000 C 
BRANCH  20  21
ATOM     21  C   UNL     1      46.912  28.427  14.167  1.00  0.00     0.000 C 
BRANCH  21  22
ATOM     22  C   UNL     1      48.193  29.172  13.759  1.00  0.00     0.000 C 
BRANCH  22  23
ATOM     23  C   UNL     1      49.422  28.253  13.686  1.00  0.00     0.000 C 
BRANCH  23  24
ATOM     24  C   UNL     1      50.575  28.939  12.940  1.00  0.00    -0.000 C 
BRANCH  24  25
ATOM     25  C   UNL     1      50.164  30.277  12.304  1.00  0.00    -0.000 C 
BRANCH  25  26
ATOM     26  C   UNL     1      51.298  31.318  12.321  1.00  0.00    -0.000 C 
BRANCH  26  27
ATOM     27  C   UNL     1      51.008  32.485  13.279  1.00  0.00    -0.000 C 
BRANCH  27  28
ATOM     28  C   UNL     1      49.552  32.500  13.769  1.00  0.00    -0.000 C 
BRANCH  28  29
ATOM     29  C   UNL     1      49.479  32.232  15.280  1.00  0.00    -0.000 C 
BRANCH  29  30
ATOM     30  C   UNL     1      50.821  31.760  15.861  1.00  0.00    -0.000 C 
BRANCH  30  31
ATOM     31  C   UNL     1      50.736  30.357  16.478  1.00  0.00    -0.003 C 
ATOM     32  C   UNL     1      52.063  29.615  16.344  1.00  0.00     0.004 C 
ENDBRANCH  30  31
ENDBRANCH  29  30
ENDBRANCH  28  29
ENDBRANCH  27  28
ENDBRANCH  26  27
ENDBRANCH  25  26
ENDBRANCH  24  25
ENDBRANCH  23  24
ENDBRANCH  22  23
ENDBRANCH  21  22
ENDBRANCH  20  21
ENDBRANCH  19  20
ENDBRANCH  18  19
ENDBRANCH   1  18
TORSDOF 28
ENDMDL
MODEL 2
REMARK VINA RESULT:    -4.411      1.019      2.226
REMARK INTER + INTRA:         -16.319
REMARK INTER:                 -11.589
REMARK INTRA:                  -4.731
REMARK UNBOUND:                -4.688
REMARK SMILES CCCCCCCCCCCCCCCCCCCCCCCCCCCCCC(=O)[O-]
REMARK SMILES IDX 16 1 17 2 18 3 19 4 20 5 21 6 22 7 23 8 24 9 25 10 26 11
REMARK SMILES IDX 27 12 28 13 29 14 30 15 31 16 32 17 15 18 14 19 13 20 12 21
REMARK SMILES IDX 11 22 10 23 9 24 8 25 7 26 6 27 5 28 4 29 3 30 2 31 1 32
REMARK H PARENT
REMARK Flexibility Score: inf
ROOT
ATOM      1  C   UNL     1      43.087  26.206  17.110  1.00  0.00     0.000 C 
ENDROOT
BRANCH   1   2
ATOM      2  C   UNL     1      43.278  24.746  17.568  1.00  0.00     0.000 C 
BRANCH   2   3
ATOM      3  C   UNL     1      44.722  24.221  17.494  1.00  0.00     0.000 C 
BRANCH   3   4
ATOM      4  C   UNL     1      45.363  24.041  18.880  1.00  0.00     0.000 C 
BRANCH   4   5
ATOM      5  C   UNL     1      46.556  24.986  19.114  1.00  0.00     0.000 C 
BRANCH   5   6
ATOM      6  C   UNL     1      47.815  24.668  18.285  1.00  0.00     0.000 C 
BRANCH   6   7
ATOM      7  C   UNL     1      48.038  25.665  17.133  1.00  0.00     0.000 C 
BRANCH   7   8
ATOM      8  C   UNL     1      48.622  27.002  17.615  1.00  0.00     0.000 C 
BRANCH   8   9
ATOM      9  C   UNL     1      49.872  26.819  18.490  1.00  0.00     0.000 C 
BRANCH   9  10
ATOM     10  C   UNL     1      50.214  28.113  19.239  1.00  0.00     0.000 C 
BRANCH  10  11
ATOM     11  C   UNL     1      49.942  27.966  20.743  1.00  0.00     0.000 C 
BRANCH  11  12
ATOM     12  C   UNL     1      49.590  26.523  21.150  1.00  0.00     0.000 C 
BRANCH  12  13
ATOM     13  C   UNL     1      48.385  26.389  22.104  1.00  0.00     0.006 C 
BRANCH  13  14
ATOM     14  C   UNL     1      48.568  25.348  23.220  1.00  0.00     0.053 C 
BRANCH  14  15
ATOM     15  C   UNL     1      47.970  25.806  24.514  1.00  0.00     0.041 C 
ATOM     16  O   UNL     1      48.299  25.250  25.595  1.00  0.00    -0.550 OA
ATOM     17  O   UNL     1      47.020  26.820  24.523  1.00  0.00    -0.550 OA
ENDBRANCH  14  15
ENDBRANCH  13  14
ENDBRANCH  12  13
ENDBRANCH  11  12
ENDBRANCH  10  11
ENDBRANCH   9  10
ENDBRANCH   8   9
ENDBRANCH   7   8
ENDBRANCH   6   7
ENDBRANCH   5   6
ENDBRANCH   4   5
ENDBRANCH   3   4
ENDBRANCH   2   3
ENDBRANCH   1   2
BRANCH   1  18
ATOM     18  C   UNL     1      44.076  27.200  17.753  1.00  0.00     0.000 C 
BRANCH  18  19
ATOM     19  C   UNL     1      45.062  27.788  16.727  1.00  0.00     0.000 C 
BRANCH  19  20
ATOM     20  C   UNL     1      44.364  28.645  15.658  1.00  0.00     0.000 C 
BRANCH  20  21
ATOM     21  C   UNL     1      45.362  29.452  14.810  1.00  0.00     0.000 C 
BRANCH  21  22
ATOM     22  C   UNL     1      46.816  28.999  15.014  1.00  0.00     0.000 C 
BRANCH  22  23
ATOM     23  C   UNL     1      47.397  28.282  13.786  1.00  0.00     0.000 C 
BRANCH  23  24
ATOM     24  C   UNL     1      48.798  28.815  13.452  1.00  0.00    -0.000 C 
BRANCH  24  25
ATOM     25  C   UNL     1      49.920  28.024  14.145  1.00  0.00    -0.000 C 
BRANCH  25  26
ATOM     26  C   UNL     1      50.959  28.935  14.822  1.00  0.00    -0.000 C 
BRANCH  26  27
ATOM     27  C   UNL     1      50.370  29.718  16.007  1.00  0.00    -0.000 C 
BRANCH  27  28
ATOM     28  C   UNL     1      50.521  31.239  15.842  1.00  0.00    -0.000 C 
BRANCH  28  29
ATOM     29  C   UNL     1      49.214  31.867  15.334  1.00  0.00    -0.000 C 
BRANCH  29  30
ATOM     30  C   UNL     1      49.375  32.535  13.960  1.00  0.00    -0.000 C 
BRANCH  30  31
ATOM     31  C   UNL     1      50.815  32.463  13.433  1.00  0.00    -0.003 C 
ATOM     32  C   UNL     1      50.902  31.589  12.185  1.00  0.00     0.004 C 
ENDBRANCH  30  31
ENDBRANCH  29  30
ENDBRANCH  28  29
ENDBRANCH  27  28
ENDBRANCH  26  27
ENDBRANCH  25  26
ENDBRANCH  24  25
ENDBRANCH  23  24
ENDBRANCH  22  23
ENDBRANCH  21  22
ENDBRANCH  20  21
ENDBRANCH  19  20
ENDBRANCH  18  19
ENDBRANCH   1  18
TORSDOF 28
ENDMDL
MODEL 3
REMARK VINA RESULT:    -4.201      1.245      2.408
REMARK INTER + INTRA:         -15.765
REMARK INTER:                 -10.571
REMARK INTRA:                  -5.195
REMARK UNBOUND:                -4.688
REMARK SMILES CCCCCCCCCCCCCCCCCCCCCCCCCCCCCC(=O)[O-]
REMARK SMILES IDX 16 1 17 2 18 3 19 4 20 5 21 6 22 7 23 8 24 9 25 10 26 11
REMARK SMILES IDX 27 12 28 13 29 14 30 15 31 16 32 17 15 18 14 19 13 20 12 21
REMARK SMILES IDX 11 22 10 23 9 24 8 25 7 26 6 27 5 28 4 29 3 30 2 31 1 32
REMARK H PARENT
REMARK Flexibility Score: inf
ROOT
ATOM      1  C   UNL     1      44.521  26.911  17.948  1.00  0.00     0.000 C 
ENDROOT
BRANCH   1   2
ATOM      2  C   UNL     1      44.549  25.433  18.385  1.00  0.00     0.000 C 
BRANCH   2   3
ATOM      3  C   UNL     1      45.914  24.924  18.881  1.00  0.00     0.000 C 
BRANCH   3   4
ATOM      4  C   UNL     1      47.043  25.947  18.671  1.00  0.00     0.000 C 
BRANCH   4   5
ATOM      5  C   UNL     1      48.098  25.471  17.656  1.00  0.00     0.000 C 
BRANCH   5   6
ATOM      6  C   UNL     1      48.300  26.394  16.440  1.00  0.00     0.000 C 
BRANCH   6   7
ATOM      7  C   UNL     1      49.364  27.480  16.685  1.00  0.00     0.000 C 
BRANCH   7   8
ATOM      8  C   UNL     1      50.759  26.890  16.948  1.00  0.00     0.000 C 
BRANCH   8   9
ATOM      9  C   UNL     1      51.290  27.234  18.348  1.00  0.00     0.000 C 
BRANCH   9  10
ATOM     10  C   UNL     1      50.411  28.292  19.027  1.00  0.00     0.000 C 
BRANCH  10  11
ATOM     11  C   UNL     1      49.884  27.785  20.377  1.00  0.00     0.000 C 
BRANCH  11  12
ATOM     12  C   UNL     1      50.306  26.335  20.678  1.00  0.00     0.000 C 
BRANCH  12  13
ATOM     13  C   UNL     1      49.344  25.553  21.596  1.00  0.00     0.006 C 
BRANCH  13  14
ATOM     14  C   UNL     1      48.200  26.394  22.187  1.00  0.00     0.053 C 
BRANCH  14  15
ATOM     15  C   UNL     1      47.982  26.098  23.639  1.00  0.00     0.041 C 
ATOM     16  O   UNL     1      47.009  26.613  24.251  1.00  0.00    -0.550 OA
ATOM     17  O   UNL     1      48.875  25.285  24.327  1.00  0.00    -0.550 OA
ENDBRANCH  14  15
ENDBRANCH  13  14
ENDBRANCH  12  13
ENDBRANCH  11  12
ENDBRANCH  10  11
ENDBRANCH   9  10
ENDBRANCH   8   9
ENDBRANCH   7   8
ENDBRANCH   6   7
ENDBRANCH   5   6
ENDBRANCH   4   5
ENDBRANCH   3   4
ENDBRANCH   2   3
ENDBRANCH   1   2
BRANCH   1  18
ATOM     18  C   UNL     1      43.413  27.241  16.925  1.00  0.00     0.000 C 
BRANCH  18  19
ATOM     19  C   UNL     1      43.877  28.265  15.873  1.00  0.00     0.000 C 
BRANCH  19  20
ATOM     20  C   UNL     1      45.364  28.629  16.015  1.00  0.00     0.000 C 
BRANCH  20  21
ATOM     21  C   UNL     1      45.848  29.571  14.899  1.00  0.00     0.000 C 
BRANCH  21  22
ATOM     22  C   UNL     1      47.054  29.009  14.131  1.00  0.00     0.000 C 
BRANCH  22  23
ATOM     23  C   UNL     1      48.230  29.996  14.059  1.00  0.00     0.000 C 
BRANCH  23  24
ATOM     24  C   UNL     1      47.959  31.234  14.926  1.00  0.00    -0.000 C 
BRANCH  24  25
ATOM     25  C   UNL     1      48.842  32.434  14.547  1.00  0.00    -0.000 C 
BRANCH  25  26
ATOM     26  C   UNL     1      50.345  32.111  14.613  1.00  0.00    -0.000 C 
BRANCH  26  27
ATOM     27  C   UNL     1      50.814  31.785  16.041  1.00  0.00    -0.000 C 
BRANCH  27  28
ATOM     28  C   UNL     1      51.647  30.496  16.110  1.00  0.00    -0.000 C 
BRANCH  28  29
ATOM     29  C   UNL     1      51.600  29.742  14.772  1.00  0.00    -0.000 C 
BRANCH  29  30
ATOM     30  C   UNL     1      52.836  28.858  14.548  1.00  0.00    -0.000 C 
BRANCH  30  31
ATOM     31  C   UNL     1      52.631  27.828  13.428  1.00  0.00    -0.003 C 
ATOM     32  C   UNL     1      51.161  27.441  13.297  1.00  0.00     0.004 C 
ENDBRANCH  30  31
ENDBRANCH  29  30
ENDBRANCH  28  29
ENDBRANCH  27  28
ENDBRANCH  26  27
ENDBRANCH  25  26
ENDBRANCH  24  25
ENDBRANCH  23  24
ENDBRANCH  22  23
ENDBRANCH  21  22
ENDBRANCH  20  21
ENDBRANCH  19  20
ENDBRANCH  18  19
ENDBRANCH   1  18
TORSDOF 28
ENDMDL
MODEL 4
REMARK VINA RESULT:    -4.184      1.183      3.362
REMARK INTER + INTRA:         -15.720
REMARK INTER:                 -11.578
REMARK INTRA:                  -4.142
REMARK UNBOUND:                -4.688
REMARK SMILES CCCCCCCCCCCCCCCCCCCCCCCCCCCCCC(=O)[O-]
REMARK SMILES IDX 16 1 17 2 18 3 19 4 20 5 21 6 22 7 23 8 24 9 25 10 26 11
REMARK SMILES IDX 27 12 28 13 29 14 30 15 31 16 32 17 15 18 14 19 13 20 12 21
REMARK SMILES IDX 11 22 10 23 9 24 8 25 7 26 6 27 5 28 4 29 3 30 2 31 1 32
REMARK H PARENT
REMARK Flexibility Score: inf
ROOT
ATOM      1  C   UNL     1      45.299  29.564  14.882  1.00  0.00     0.000 C 
ENDROOT
BRANCH   1   2
ATOM      2  C   UNL     1      44.327  28.606  15.598  1.00  0.00     0.000 C 
BRANCH   2   3
ATOM      3  C   UNL     1      44.956  27.744  16.707  1.00  0.00     0.000 C 
BRANCH   3   4
ATOM      4  C   UNL     1      43.912  27.177  17.685  1.00  0.00     0.000 C 
BRANCH   4   5
ATOM      5  C   UNL     1      42.843  26.319  16.985  1.00  0.00     0.000 C 
BRANCH   5   6
ATOM      6  C   UNL     1      43.049  24.797  17.096  1.00  0.00     0.000 C 
BRANCH   6   7
ATOM      7  C   UNL     1      43.958  24.402  18.274  1.00  0.00     0.000 C 
BRANCH   7   8
ATOM      8  C   UNL     1      45.216  23.645  17.820  1.00  0.00     0.000 C 
BRANCH   8   9
ATOM      9  C   UNL     1      46.511  24.404  18.147  1.00  0.00     0.000 C 
BRANCH   9  10
ATOM     10  C   UNL     1      46.339  25.276  19.397  1.00  0.00     0.000 C 
BRANCH  10  11
ATOM     11  C   UNL     1      47.701  25.670  19.985  1.00  0.00     0.000 C 
BRANCH  11  12
ATOM     12  C   UNL     1      48.061  24.872  21.251  1.00  0.00     0.000 C 
BRANCH  12  13
ATOM     13  C   UNL     1      48.386  25.728  22.492  1.00  0.00     0.006 C 
BRANCH  13  14
ATOM     14  C   UNL     1      47.209  25.917  23.463  1.00  0.00     0.053 C 
BRANCH  14  15
ATOM     15  C   UNL     1      47.675  26.207  24.857  1.00  0.00     0.041 C 
ATOM     16  O   UNL     1      48.775  25.751  25.265  1.00  0.00    -0.550 OA
ATOM     17  O   UNL     1      46.875  26.949  25.718  1.00  0.00    -0.550 OA
ENDBRANCH  14  15
ENDBRANCH  13  14
ENDBRANCH  12  13
ENDBRANCH  11  12
ENDBRANCH  10  11
ENDBRANCH   9  10
ENDBRANCH   8   9
ENDBRANCH   7   8
ENDBRANCH   6   7
ENDBRANCH   5   6
ENDBRANCH   4   5
ENDBRANCH   3   4
ENDBRANCH   2   3
ENDBRANCH   1   2
BRANCH   1  18
ATOM     18  C   UNL     1      46.659  28.928  14.527  1.00  0.00     0.000 C 
BRANCH  18  19
ATOM     19  C   UNL     1      47.809  29.952  14.562  1.00  0.00     0.000 C 
BRANCH  19  20
ATOM     20  C   UNL     1      47.347  31.347  15.016  1.00  0.00     0.000 C 
BRANCH  20  21
ATOM     21  C   UNL     1      48.485  32.382  14.983  1.00  0.00     0.000 C 
BRANCH  21  22
ATOM     22  C   UNL     1      49.813  31.819  15.515  1.00  0.00     0.000 C 
BRANCH  22  23
ATOM     23  C   UNL     1      50.997  32.093  14.576  1.00  0.00     0.000 C 
BRANCH  23  24
ATOM     24  C   UNL     1      50.508  32.399  13.153  1.00  0.00    -0.000 C 
BRANCH  24  25
ATOM     25  C   UNL     1      51.048  31.409  12.108  1.00  0.00    -0.000 C 
BRANCH  25  26
ATOM     26  C   UNL     1      50.240  30.100  12.056  1.00  0.00    -0.000 C 
BRANCH  26  27
ATOM     27  C   UNL     1      51.021  28.905  12.628  1.00  0.00    -0.000 C 
BRANCH  27  28
ATOM     28  C   UNL     1      50.108  27.724  12.994  1.00  0.00    -0.000 C 
BRANCH  28  29
ATOM     29  C   UNL     1      50.448  27.182  14.391  1.00  0.00    -0.000 C 
BRANCH  29  30
ATOM     30  C   UNL     1      50.892  28.287  15.361  1.00  0.00    -0.000 C 
BRANCH  30  31
ATOM     31  C   UNL     1      50.284  28.123  16.762  1.00  0.00    -0.003 C 
ATOM     32  C   UNL     1      49.096  27.167  16.738  1.00  0.00     0.004 C 
ENDBRANCH  30  31
ENDBRANCH  29  30
ENDBRANCH  28  29
ENDBRANCH  27  28
ENDBRANCH  26  27
ENDBRANCH  25  26
ENDBRANCH  24  25
ENDBRANCH  23  24
ENDBRANCH  22  23
ENDBRANCH  21  22
ENDBRANCH  20  21
ENDBRANCH  19  20
ENDBRANCH  18  19
ENDBRANCH   1  18
TORSDOF 28
ENDMDL
MODEL 5
REMARK VINA RESULT:    -4.168      2.452      7.537
REMARK INTER + INTRA:         -15.680
REMARK INTER:                 -10.393
REMARK INTRA:                  -5.287
REMARK UNBOUND:                -4.688
REMARK SMILES CCCCCCCCCCCCCCCCCCCCCCCCCCCCCC(=O)[O-]
REMARK SMILES IDX 16 1 17 2 18 3 19 4 20 5 21 6 22 7 23 8 24 9 25 10 26 11
REMARK SMILES IDX 27 12 28 13 29 14 30 15 31 16 32 17 15 18 14 19 13 20 12 21
REMARK SMILES IDX 11 22 10 23 9 24 8 25 7 26 6 27 5 28 4 29 3 30 2 31 1 32
REMARK H PARENT
REMARK Flexibility Score: inf
ROOT
ATOM      1  C   UNL     1      46.832  28.574  14.893  1.00  0.00     0.000 C 
ENDROOT
BRANCH   1   2
ATOM      2  C   UNL     1      47.374  28.290  13.478  1.00  0.00     0.000 C 
BRANCH   2   3
ATOM      3  C   UNL     1      48.682  27.482  13.428  1.00  0.00     0.000 C 
BRANCH   3   4
ATOM      4  C   UNL     1      49.881  28.319  12.949  1.00  0.00     0.000 C 
BRANCH   4   5
ATOM      5  C   UNL     1      49.503  29.778  12.636  1.00  0.00     0.000 C 
BRANCH   5   6
ATOM      6  C   UNL     1      50.693  30.731  12.423  1.00  0.00     0.000 C 
BRANCH   6   7
ATOM      7  C   UNL     1      50.579  32.023  13.253  1.00  0.00     0.000 C 
BRANCH   7   8
ATOM      8  C   UNL     1      49.298  32.068  14.101  1.00  0.00     0.000 C 
BRANCH   8   9
ATOM      9  C   UNL     1      49.568  31.818  15.592  1.00  0.00     0.000 C 
BRANCH   9  10
ATOM     10  C   UNL     1      51.071  31.679  15.865  1.00  0.00     0.000 C 
BRANCH  10  11
ATOM     11  C   UNL     1      51.394  30.308  16.475  1.00  0.00     0.000 C 
BRANCH  11  12
ATOM     12  C   UNL     1      50.262  29.283  16.280  1.00  0.00     0.000 C 
BRANCH  12  13
ATOM     13  C   UNL     1      50.646  27.820  16.581  1.00  0.00     0.006 C 
BRANCH  13  14
ATOM     14  C   UNL     1      51.676  27.650  17.709  1.00  0.00     0.053 C 
BRANCH  14  15
ATOM     15  C   UNL     1      51.362  26.474  18.581  1.00  0.00     0.041 C 
ATOM     16  O   UNL     1      51.385  25.308  18.104  1.00  0.00    -0.550 OA
ATOM     17  O   UNL     1      51.003  26.667  19.910  1.00  0.00    -0.550 OA
ENDBRANCH  14  15
ENDBRANCH  13  14
ENDBRANCH  12  13
ENDBRANCH  11  12
ENDBRANCH  10  11
ENDBRANCH   9  10
ENDBRANCH   8   9
ENDBRANCH   7   8
ENDBRANCH   6   7
ENDBRANCH   5   6
ENDBRANCH   4   5
ENDBRANCH   3   4
ENDBRANCH   2   3
ENDBRANCH   1   2
BRANCH   1  18
ATOM     18  C   UNL     1      45.521  29.386  14.912  1.00  0.00     0.000 C 
BRANCH  18  19
ATOM     19  C   UNL     1      44.382  28.639  15.630  1.00  0.00     0.000 C 
BRANCH  19  20
ATOM     20  C   UNL     1      44.897  27.655  16.693  1.00  0.00     0.000 C 
BRANCH  20  21
ATOM     21  C   UNL     1      43.891  27.448  17.838  1.00  0.00     0.000 C 
BRANCH  21  22
ATOM     22  C   UNL     1      43.707  25.967  18.206  1.00  0.00     0.000 C 
BRANCH  22  23
ATOM     23  C   UNL     1      42.975  25.166  17.118  1.00  0.00     0.000 C 
BRANCH  23  24
ATOM     24  C   UNL     1      43.303  23.670  17.225  1.00  0.00    -0.000 C 
BRANCH  24  25
ATOM     25  C   UNL     1      44.798  23.401  17.464  1.00  0.00    -0.000 C 
BRANCH  25  26
ATOM     26  C   UNL     1      45.053  22.512  18.694  1.00  0.00    -0.000 C 
BRANCH  26  27
ATOM     27  C   UNL     1      46.310  22.935  19.473  1.00  0.00    -0.000 C 
BRANCH  27  28
ATOM     28  C   UNL     1      46.051  24.124  20.412  1.00  0.00    -0.000 C 
BRANCH  28  29
ATOM     29  C   UNL     1      46.978  25.301  20.072  1.00  0.00    -0.000 C 
BRANCH  29  30
ATOM     30  C   UNL     1      47.900  25.002  18.880  1.00  0.00    -0.000 C 
BRANCH  30  31
ATOM     31  C   UNL     1      47.707  25.991  17.721  1.00  0.00    -0.003 C 
ATOM     32  C   UNL     1      47.832  25.289  16.372  1.00  0.00     0.004 C 
ENDBRANCH  30  31
ENDBRANCH  29  30
ENDBRANCH  28  29
ENDBRANCH  27  28
ENDBRANCH  26  27
ENDBRANCH  25  26
ENDBRANCH  24  25
ENDBRANCH  23  24
ENDBRANCH  22  23
ENDBRANCH  21  22
ENDBRANCH  20  21
ENDBRANCH  19  20
ENDBRANCH  18  19
ENDBRANCH   1  18
TORSDOF 28
ENDMDL
MODEL 6
REMARK VINA RESULT:    -4.129      2.765      7.103
REMARK INTER + INTRA:         -15.576
REMARK INTER:                 -10.102
REMARK INTRA:                  -5.473
REMARK UNBOUND:                -4.688
REMARK SMILES CCCCCCCCCCCCCCCCCCCCCCCCCCCCCC(=O)[O-]
REMARK SMILES IDX 16 1 17 2 18 3 19 4 20 5 21 6 22 7 23 8 24 9 25 10 26 11
REMARK SMILES IDX 27 12 28 13 29 14 30 15 31 16 32 17 15 18 14 19 13 20 12 21
REMARK SMILES IDX 11 22 10 23 9 24 8 25 7 26 6 27 5 28 4 29 3 30 2 31 1 32
REMARK H PARENT
REMARK Flexibility Score: inf
ROOT
ATOM      1  C   UNL     1      46.148  30.238  14.873  1.00  0.00     0.000 C 
ENDROOT
BRANCH   1   2
ATOM      2  C   UNL     1      47.665  30.372  14.636  1.00  0.00     0.000 C 
BRANCH   2   3
ATOM      3  C   UNL     1      48.304  31.655  15.195  1.00  0.00     0.000 C 
BRANCH   3   4
ATOM      4  C   UNL     1      49.132  32.415  14.145  1.00  0.00     0.000 C 
BRANCH   4   5
ATOM      5  C   UNL     1      50.649  32.311  14.392  1.00  0.00     0.000 C 
BRANCH   5   6
ATOM      6  C   UNL     1      51.453  31.646  13.260  1.00  0.00     0.000 C 
BRANCH   6   7
ATOM      7  C   UNL     1      50.582  30.763  12.348  1.00  0.00     0.000 C 
BRANCH   7   8
ATOM      8  C   UNL     1      50.687  29.270  12.699  1.00  0.00     0.000 C 
BRANCH   8   9
ATOM      9  C   UNL     1      52.055  28.897  13.288  1.00  0.00     0.000 C 
BRANCH   9  10
ATOM     10  C   UNL     1      51.901  28.233  14.662  1.00  0.00     0.000 C 
BRANCH  10  11
ATOM     11  C   UNL     1      50.570  28.628  15.317  1.00  0.00     0.000 C 
BRANCH  11  12
ATOM     12  C   UNL     1      50.749  29.221  16.727  1.00  0.00     0.000 C 
BRANCH  12  13
ATOM     13  C   UNL     1      51.968  28.691  17.509  1.00  0.00     0.006 C 
BRANCH  13  14
ATOM     14  C   UNL     1      51.617  27.823  18.728  1.00  0.00     0.053 C 
BRANCH  14  15
ATOM     15  C   UNL     1      51.959  26.382  18.506  1.00  0.00     0.041 C 
ATOM     16  O   UNL     1      52.193  25.628  19.487  1.00  0.00    -0.550 OA
ATOM     17  O   UNL     1      52.057  25.881  17.213  1.00  0.00    -0.550 OA
ENDBRANCH  14  15
ENDBRANCH  13  14
ENDBRANCH  12  13
ENDBRANCH  11  12
ENDBRANCH  10  11
ENDBRANCH   9  10
ENDBRANCH   8   9
ENDBRANCH   7   8
ENDBRANCH   6   7
ENDBRANCH   5   6
ENDBRANCH   4   5
ENDBRANCH   3   4
ENDBRANCH   2   3
ENDBRANCH   1   2
BRANCH   1  18
ATOM     18  C   UNL     1      45.654  28.779  14.962  1.00  0.00     0.000 C 
BRANCH  18  19
ATOM     19  C   UNL     1      44.288  28.667  15.664  1.00  0.00     0.000 C 
BRANCH  19  20
ATOM     20  C   UNL     1      44.285  27.623  16.793  1.00  0.00     0.000 C 
BRANCH  20  21
ATOM     21  C   UNL     1      42.972  26.823  16.850  1.00  0.00     0.000 C 
BRANCH  21  22
ATOM     22  C   UNL     1      43.107  25.519  17.653  1.00  0.00     0.000 C 
BRANCH  22  23
ATOM     23  C   UNL     1      44.514  24.910  17.572  1.00  0.00     0.000 C 
BRANCH  23  24
ATOM     24  C   UNL     1      45.024  24.522  18.967  1.00  0.00    -0.000 C 
BRANCH  24  25
ATOM     25  C   UNL     1      46.537  24.248  18.997  1.00  0.00    -0.000 C 
BRANCH  25  26
ATOM     26  C   UNL     1      47.350  25.458  19.491  1.00  0.00    -0.000 C 
BRANCH  26  27
ATOM     27  C   UNL     1      48.396  25.921  18.463  1.00  0.00    -0.000 C 
BRANCH  27  28
ATOM     28  C   UNL     1      47.821  26.921  17.447  1.00  0.00    -0.000 C 
BRANCH  28  29
ATOM     29  C   UNL     1      47.683  26.273  16.061  1.00  0.00    -0.000 C 
BRANCH  29  30
ATOM     30  C   UNL     1      48.921  25.451  15.667  1.00  0.00    -0.000 C 
BRANCH  30  31
ATOM     31  C   UNL     1      49.047  25.265  14.148  1.00  0.00    -0.003 C 
ATOM     32  C   UNL     1      48.331  26.382  13.394  1.00  0.00     0.004 C 
ENDBRANCH  30  31
ENDBRANCH  29  30
ENDBRANCH  28  29
ENDBRANCH  27  28
ENDBRANCH  26  27
ENDBRANCH  25  26
ENDBRANCH  24  25
ENDBRANCH  23  24
ENDBRANCH  22  23
ENDBRANCH  21  22
ENDBRANCH  20  21
ENDBRANCH  19  20
ENDBRANCH  18  19
ENDBRANCH   1  18
TORSDOF 28
ENDMDL
MODEL 7
REMARK VINA RESULT:    -4.103      3.380      7.561
REMARK INTER + INTRA:         -15.508
REMARK INTER:                 -10.327
REMARK INTRA:                  -5.182
REMARK UNBOUND:                -4.688
REMARK SMILES CCCCCCCCCCCCCCCCCCCCCCCCCCCCCC(=O)[O-]
REMARK SMILES IDX 16 1 17 2 18 3 19 4 20 5 21 6 22 7 23 8 24 9 25 10 26 11
REMARK SMILES IDX 27 12 28 13 29 14 30 15 31 16 32 17 15 18 14 19 13 20 12 21
REMARK SMILES IDX 11 22 10 23 9 24 8 25 7 26 6 27 5 28 4 29 3 30 2 31 1 32
REMARK H PARENT
REMARK Flexibility Score: inf
ROOT
ATOM      1  C   UNL     1      47.325  31.730  15.249  1.00  0.00     0.000 C 
ENDROOT
BRANCH   1   2
ATOM      2  C   UNL     1      48.525  32.391  14.541  1.00  0.00     0.000 C 
BRANCH   2   3
ATOM      3  C   UNL     1      49.856  32.324  15.310  1.00  0.00     0.000 C 
BRANCH   3   4
ATOM      4  C   UNL     1      50.948  31.557  14.545  1.00  0.00     0.000 C 
BRANCH   4   5
ATOM      5  C   UNL     1      50.411  30.851  13.287  1.00  0.00     0.000 C 
BRANCH   5   6
ATOM      6  C   UNL     1      50.642  29.329  13.241  1.00  0.00     0.000 C 
BRANCH   6   7
ATOM      7  C   UNL     1      49.384  28.546  12.822  1.00  0.00     0.000 C 
BRANCH   7   8
ATOM      8  C   UNL     1      49.456  27.062  13.215  1.00  0.00     0.000 C 
BRANCH   8   9
ATOM      9  C   UNL     1      48.203  26.590  13.970  1.00  0.00     0.000 C 
BRANCH   9  10
ATOM     10  C   UNL     1      48.554  26.141  15.394  1.00  0.00     0.000 C 
BRANCH  10  11
ATOM     11  C   UNL     1      48.851  27.349  16.293  1.00  0.00     0.000 C 
BRANCH  11  12
ATOM     12  C   UNL     1      50.332  27.441  16.704  1.00  0.00     0.000 C 
BRANCH  12  13
ATOM     13  C   UNL     1      50.843  28.867  16.992  1.00  0.00     0.006 C 
BRANCH  13  14
ATOM     14  C   UNL     1      52.288  28.935  17.510  1.00  0.00     0.053 C 
BRANCH  14  15
ATOM     15  C   UNL     1      53.247  29.353  16.438  1.00  0.00     0.041 C 
ATOM     16  O   UNL     1      53.564  28.549  15.523  1.00  0.00    -0.550 OA
ATOM     17  O   UNL     1      53.820  30.619  16.471  1.00  0.00    -0.550 OA
ENDBRANCH  14  15
ENDBRANCH  13  14
ENDBRANCH  12  13
ENDBRANCH  11  12
ENDBRANCH  10  11
ENDBRANCH   9  10
ENDBRANCH   8   9
ENDBRANCH   7   8
ENDBRANCH   6   7
ENDBRANCH   5   6
ENDBRANCH   4   5
ENDBRANCH   3   4
ENDBRANCH   2   3
ENDBRANCH   1   2
BRANCH   1  18
ATOM     18  C   UNL     1      47.235  30.204  15.038  1.00  0.00     0.000 C 
BRANCH  18  19
ATOM     19  C   UNL     1      45.785  29.728  14.832  1.00  0.00     0.000 C 
BRANCH  19  20
ATOM     20  C   UNL     1      45.389  28.600  15.799  1.00  0.00     0.000 C 
BRANCH  20  21
ATOM     21  C   UNL     1      43.864  28.437  15.916  1.00  0.00     0.000 C 
BRANCH  21  22
ATOM     22  C   UNL     1      43.461  27.166  16.681  1.00  0.00     0.000 C 
BRANCH  22  23
ATOM     23  C   UNL     1      43.938  27.170  18.141  1.00  0.00     0.000 C 
BRANCH  23  24
ATOM     24  C   UNL     1      44.464  25.786  18.549  1.00  0.00    -0.000 C 
BRANCH  24  25
ATOM     25  C   UNL     1      45.817  25.446  17.903  1.00  0.00    -0.000 C 
BRANCH  25  26
ATOM     26  C   UNL     1      47.013  25.806  18.802  1.00  0.00    -0.000 C 
BRANCH  26  27
ATOM     27  C   UNL     1      47.024  25.002  20.113  1.00  0.00    -0.000 C 
BRANCH  27  28
ATOM     28  C   UNL     1      48.408  24.981  20.781  1.00  0.00    -0.000 C 
BRANCH  28  29
ATOM     29  C   UNL     1      49.523  25.113  19.733  1.00  0.00    -0.000 C 
BRANCH  29  30
ATOM     30  C   UNL     1      50.570  26.171  20.115  1.00  0.00    -0.000 C 
BRANCH  30  31
ATOM     31  C   UNL     1      50.035  27.195  21.126  1.00  0.00    -0.003 C 
ATOM     32  C   UNL     1      50.000  28.597  20.525  1.00  0.00     0.004 C 
ENDBRANCH  30  31
ENDBRANCH  29  30
ENDBRANCH  28  29
ENDBRANCH  27  28
ENDBRANCH  26  27
ENDBRANCH  25  26
ENDBRANCH  24  25
ENDBRANCH  23  24
ENDBRANCH  22  23
ENDBRANCH  21  22
ENDBRANCH  20  21
ENDBRANCH  19  20
ENDBRANCH  18  19
ENDBRANCH   1  18
TORSDOF 28
ENDMDL
MODEL 8
REMARK VINA RESULT:    -4.098      1.830      3.166
REMARK INTER + INTRA:         -15.493
REMARK INTER:                 -10.819
REMARK INTRA:                  -4.674
REMARK UNBOUND:                -4.688
REMARK SMILES CCCCCCCCCCCCCCCCCCCCCCCCCCCCCC(=O)[O-]
REMARK SMILES IDX 16 1 17 2 18 3 19 4 20 5 21 6 22 7 23 8 24 9 25 10 26 11
REMARK SMILES IDX 27 12 28 13 29 14 30 15 31 16 32 17 15 18 14 19 13 20 12 21
REMARK SMILES IDX 11 22 10 23 9 24 8 25 7 26 6 27 5 28 4 29 3 30 2 31 1 32
REMARK H PARENT
REMARK Flexibility Score: inf
ROOT
ATOM      1  C   UNL     1      42.908  26.300  17.241  1.00  0.00     0.000 C 
ENDROOT
BRANCH   1   2
ATOM      2  C   UNL     1      43.512  25.132  18.045  1.00  0.00     0.000 C 
BRANCH   2   3
ATOM      3  C   UNL     1      44.813  24.546  17.470  1.00  0.00     0.000 C 
BRANCH   3   4
ATOM      4  C   UNL     1      46.050  24.901  18.313  1.00  0.00     0.000 C 
BRANCH   4   5
ATOM      5  C   UNL     1      46.984  25.902  17.609  1.00  0.00     0.000 C 
BRANCH   5   6
ATOM      6  C   UNL     1      47.788  25.329  16.428  1.00  0.00     0.000 C 
BRANCH   6   7
ATOM      7  C   UNL     1      49.064  26.136  16.126  1.00  0.00     0.000 C 
BRANCH   7   8
ATOM      8  C   UNL     1      48.977  27.586  16.628  1.00  0.00     0.000 C 
BRANCH   8   9
ATOM      9  C   UNL     1      50.347  28.281  16.664  1.00  0.00     0.000 C 
BRANCH   9  10
ATOM     10  C   UNL     1      50.965  28.210  18.066  1.00  0.00     0.000 C 
BRANCH  10  11
ATOM     11  C   UNL     1      50.141  27.296  18.984  1.00  0.00     0.000 C 
BRANCH  11  12
ATOM     12  C   UNL     1      49.821  27.944  20.343  1.00  0.00     0.000 C 
BRANCH  12  13
ATOM     13  C   UNL     1      49.506  26.951  21.481  1.00  0.00     0.006 C 
BRANCH  13  14
ATOM     14  C   UNL     1      48.341  25.992  21.187  1.00  0.00     0.053 C 
BRANCH  14  15
ATOM     15  C   UNL     1      48.787  24.563  21.160  1.00  0.00     0.041 C 
ATOM     16  O   UNL     1      48.979  23.980  20.061  1.00  0.00    -0.550 OA
ATOM     17  O   UNL     1      48.953  23.862  22.349  1.00  0.00    -0.550 OA
ENDBRANCH  14  15
ENDBRANCH  13  14
ENDBRANCH  12  13
ENDBRANCH  11  12
ENDBRANCH  10  11
ENDBRANCH   9  10
ENDBRANCH   8   9
ENDBRANCH   7   8
ENDBRANCH   6   7
ENDBRANCH   5   6
ENDBRANCH   4   5
ENDBRANCH   3   4
ENDBRANCH   2   3
ENDBRANCH   1   2
BRANCH   1  18
ATOM     18  C   UNL     1      43.694  27.621  17.366  1.00  0.00     0.000 C 
BRANCH  18  19
ATOM     19  C   UNL     1      44.000  28.251  15.994  1.00  0.00     0.000 C 
BRANCH  19  20
ATOM     20  C   UNL     1      45.485  28.610  15.825  1.00  0.00     0.000 C 
BRANCH  20  21
ATOM     21  C   UNL     1      45.701  29.757  14.822  1.00  0.00     0.000 C 
BRANCH  21  22
ATOM     22  C   UNL     1      47.142  30.290  14.833  1.00  0.00     0.000 C 
BRANCH  22  23
ATOM     23  C   UNL     1      47.229  31.771  15.234  1.00  0.00     0.000 C 
BRANCH  23  24
ATOM     24  C   UNL     1      48.542  32.395  14.742  1.00  0.00    -0.000 C 
BRANCH  24  25
ATOM     25  C   UNL     1      49.772  31.886  15.512  1.00  0.00    -0.000 C 
BRANCH  25  26
ATOM     26  C   UNL     1      51.045  31.857  14.648  1.00  0.00    -0.000 C 
BRANCH  26  27
ATOM     27  C   UNL     1      50.739  31.997  13.147  1.00  0.00    -0.000 C 
BRANCH  27  28
ATOM     28  C   UNL     1      51.124  30.744  12.346  1.00  0.00    -0.000 C 
BRANCH  28  29
ATOM     29  C   UNL     1      49.922  29.797  12.200  1.00  0.00    -0.000 C 
BRANCH  29  30
ATOM     30  C   UNL     1      49.996  28.597  13.157  1.00  0.00    -0.000 C 
BRANCH  30  31
ATOM     31  C   UNL     1      49.340  27.336  12.576  1.00  0.00    -0.003 C 
ATOM     32  C   UNL     1      47.870  27.247  12.972  1.00  0.00     0.004 C 
ENDBRANCH  30  31
ENDBRANCH  29  30
ENDBRANCH  28  29
ENDBRANCH  27  28
ENDBRANCH  26  27
ENDBRANCH  25  26
ENDBRANCH  24  25
ENDBRANCH  23  24
ENDBRANCH  22  23
ENDBRANCH  21  22
ENDBRANCH  20  21
ENDBRANCH  19  20
ENDBRANCH  18  19
ENDBRANCH   1  18
TORSDOF 28
ENDMDL
MODEL 9
REMARK VINA RESULT:    -4.093      1.749      3.384
REMARK INTER + INTRA:         -15.481
REMARK INTER:                 -10.109
REMARK INTRA:                  -5.372
REMARK UNBOUND:                -4.688
REMARK SMILES CCCCCCCCCCCCCCCCCCCCCCCCCCCCCC(=O)[O-]
REMARK SMILES IDX 16 1 17 2 18 3 19 4 20 5 21 6 22 7 23 8 24 9 25 10 26 11
REMARK SMILES IDX 27 12 28 13 29 14 30 15 31 16 32 17 15 18 14 19 13 20 12 21
REMARK SMILES IDX 11 22 10 23 9 24 8 25 7 26 6 27 5 28 4 29 3 30 2 31 1 32
REMARK H PARENT
REMARK Flexibility Score: inf
ROOT
ATOM      1  C   UNL     1      46.150  27.466  16.810  1.00  0.00     0.000 C 
ENDROOT
BRANCH   1   2
ATOM      2  C   UNL     1      44.712  27.859  16.415  1.00  0.00     0.000 C 
BRANCH   2   3
ATOM      3  C   UNL     1      43.622  27.446  17.418  1.00  0.00     0.000 C 
BRANCH   3   4
ATOM      4  C   UNL     1      43.046  26.048  17.131  1.00  0.00     0.000 C 
BRANCH   4   5
ATOM      5  C   UNL     1      43.876  24.919  17.768  1.00  0.00     0.000 C 
BRANCH   5   6
ATOM      6  C   UNL     1      44.209  25.112  19.259  1.00  0.00     0.000 C 
BRANCH   6   7
ATOM      7  C   UNL     1      45.722  25.217  19.524  1.00  0.00     0.000 C 
BRANCH   7   8
ATOM      8  C   UNL     1      46.359  23.858  19.856  1.00  0.00     0.000 C 
BRANCH   8   9
ATOM      9  C   UNL     1      47.540  23.519  18.933  1.00  0.00     0.000 C 
BRANCH   9  10
ATOM     10  C   UNL     1      47.641  24.520  17.776  1.00  0.00     0.000 C 
BRANCH  10  11
ATOM     11  C   UNL     1      49.107  24.783  17.403  1.00  0.00     0.000 C 
BRANCH  11  12
ATOM     12  C   UNL     1      49.841  25.656  18.437  1.00  0.00     0.000 C 
BRANCH  12  13
ATOM     13  C   UNL     1      49.009  26.816  19.021  1.00  0.00     0.006 C 
BRANCH  13  14
ATOM     14  C   UNL     1      49.513  27.347  20.372  1.00  0.00     0.053 C 
BRANCH  14  15
ATOM     15  C   UNL     1      49.213  26.400  21.493  1.00  0.00     0.041 C 
ATOM     16  O   UNL     1      48.071  26.388  22.023  1.00  0.00    -0.550 OA
ATOM     17  O   UNL     1      50.205  25.556  21.977  1.00  0.00    -0.550 OA
ENDBRANCH  14  15
ENDBRANCH  13  14
ENDBRANCH  12  13
ENDBRANCH  11  12
ENDBRANCH  10  11
ENDBRANCH   9  10
ENDBRANCH   8   9
ENDBRANCH   7   8
ENDBRANCH   6   7
ENDBRANCH   5   6
ENDBRANCH   4   5
ENDBRANCH   3   4
ENDBRANCH   2   3
ENDBRANCH   1   2
BRANCH   1  18
ATOM     18  C   UNL     1      47.175  27.604  15.665  1.00  0.00     0.000 C 
BRANCH  18  19
ATOM     19  C   UNL     1      46.589  28.335  14.443  1.00  0.00     0.000 C 
BRANCH  19  20
ATOM     20  C   UNL     1      47.226  29.716  14.217  1.00  0.00     0.000 C 
BRANCH  20  21
ATOM     21  C   UNL     1      46.508  30.829  15.000  1.00  0.00     0.000 C 
BRANCH  21  22
ATOM     22  C   UNL     1      47.419  32.033  15.290  1.00  0.00     0.000 C 
BRANCH  22  23
ATOM     23  C   UNL     1      48.891  31.637  15.479  1.00  0.00     0.000 C 
BRANCH  23  24
ATOM     24  C   UNL     1      49.825  32.697  14.878  1.00  0.00    -0.000 C 
BRANCH  24  25
ATOM     25  C   UNL     1      50.035  32.521  13.365  1.00  0.00    -0.000 C 
BRANCH  25  26
ATOM     26  C   UNL     1      50.933  31.318  13.026  1.00  0.00    -0.000 C 
BRANCH  26  27
ATOM     27  C   UNL     1      50.160  30.188  12.325  1.00  0.00    -0.000 C 
BRANCH  27  28
ATOM     28  C   UNL     1      50.603  28.793  12.792  1.00  0.00    -0.000 C 
BRANCH  28  29
ATOM     29  C   UNL     1      51.372  28.878  14.120  1.00  0.00    -0.000 C 
BRANCH  29  30
ATOM     30  C   UNL     1      50.618  28.213  15.283  1.00  0.00    -0.000 C 
BRANCH  30  31
ATOM     31  C   UNL     1      50.860  28.920  16.624  1.00  0.00    -0.003 C 
ATOM     32  C   UNL     1      52.036  29.888  16.533  1.00  0.00     0.004 C 
ENDBRANCH  30  31
ENDBRANCH  29  30
ENDBRANCH  28  29
ENDBRANCH  27  28
ENDBRANCH  26  27
ENDBRANCH  25  26
ENDBRANCH  24  25
ENDBRANCH  23  24
ENDBRANCH  22  23
ENDBRANCH  21  22
ENDBRANCH  20  21
ENDBRANCH  19  20
ENDBRANCH  18  19
ENDBRANCH   1  18
TORSDOF 28
ENDMDL
