MODEL 1
REMARK VINA RESULT:    -7.470      0.000      0.000
REMARK INTER + INTRA:         -11.981
REMARK INTER:                 -10.964
REMARK INTRA:                  -1.018
REMARK UNBOUND:                -1.018
REMARK SMILES O=c1c(O[C@H]2O[C@@H](CO)[C@H](O)[C@@H](O)[C@H]2O)c(-c2ccc(O)c(O)c2)oc2cc(O)cc(O)c12
REMARK SMILES IDX 4 1 3 2 16 3 25 4 2 5 26 6 1 7 33 8 27 9 31 10 28 11 30 12
REMARK SMILES IDX 17 13 18 14 19 15 20 16 24 17 22 18 21 19 23 21 32 23 29 25
REMARK SMILES IDX 5 27 14 28 6 29 12 30 7 31 10 32 15 33 13 35 8 37 9 38 11 40
REMARK H PARENT 21 20 23 22 32 24 29 26 15 34 13 36 9 39 11 41
REMARK Flexibility Score: inf
ROOT
ATOM      1  O   UNL     1      -6.362   7.168  14.420  1.00  0.00    -0.454 OA
ENDROOT
BRANCH   1   2
ATOM      2  C   UNL     1      -5.313   6.247  14.683  1.00  0.00     0.214 A 
ATOM      3  C   UNL     1      -4.002   6.612  14.292  1.00  0.00     0.180 A 
ATOM      4  O   UNL     1      -2.961   5.878  14.679  1.00  0.00    -0.452 OA
ATOM      5  C   UNL     1      -5.463   5.010  15.359  1.00  0.00     0.239 A 
ATOM      6  C   UNL     1      -3.054   4.776  15.406  1.00  0.00     0.146 A 
ATOM      7  O   UNL     1      -6.609   4.507  15.529  1.00  0.00    -0.285 OA
ATOM      8  C   UNL     1      -4.322   4.299  15.792  1.00  0.00     0.111 A 
ATOM      9  C   UNL     1      -1.899   4.088  15.762  1.00  0.00     0.094 A 
ATOM     10  C   UNL     1      -4.402   3.163  16.635  1.00  0.00     0.134 A 
ATOM     11  C   UNL     1      -1.991   2.943  16.566  1.00  0.00     0.123 A 
ATOM     12  C   UNL     1      -3.232   2.479  17.005  1.00  0.00     0.093 A 
BRANCH   3  13
ATOM     13  C   UNL     1      -3.704   7.808  13.478  1.00  0.00     0.025 A 
ATOM     14  C   UNL     1      -3.559   9.080  14.043  1.00  0.00     0.016 A 
ATOM     15  C   UNL     1      -3.340  10.193  13.222  1.00  0.00     0.051 A 
ATOM     16  C   UNL     1      -3.262  10.039  11.828  1.00  0.00     0.157 A 
ATOM     17  C   UNL     1      -3.609   7.655  12.090  1.00  0.00     0.062 A 
ATOM     18  C   UNL     1      -3.387   8.758  11.266  1.00  0.00     0.158 A 
BRANCH  16  19
ATOM     19  O   UNL     1      -3.014  11.125  10.992  1.00  0.00    -0.504 OA
ATOM     20  H   UNL     1      -2.933  11.008   9.990  1.00  0.00     0.293 HD
ENDBRANCH  16  19
BRANCH  18  21
ATOM     21  O   UNL     1      -3.261   8.555   9.884  1.00  0.00    -0.504 OA
ATOM     22  H   UNL     1      -3.810   7.866   9.373  1.00  0.00     0.293 HD
ENDBRANCH  18  21
ENDBRANCH   3  13
BRANCH  10  23
ATOM     23  O   UNL     1      -5.642   2.694  17.120  1.00  0.00    -0.507 OA
ATOM     24  H   UNL     1      -5.753   1.747  17.465  1.00  0.00     0.293 HD
ENDBRANCH  10  23
BRANCH  11  25
ATOM     25  O   UNL     1      -0.815   2.296  16.958  1.00  0.00    -0.508 OA
ATOM     26  H   UNL     1       0.032   2.375  16.396  1.00  0.00     0.293 HD
ENDBRANCH  11  25
ENDBRANCH   1   2
BRANCH   1  27
ATOM     27  C   UNL     1      -6.802   7.671  13.144  1.00  0.00     0.339 C 
ATOM     28  C   UNL     1      -7.674   8.939  13.326  1.00  0.00     0.214 C 
ATOM     29  O   UNL     1      -7.357   6.633  12.334  1.00  0.00    -0.332 OA
ATOM     30  C   UNL     1      -9.124   8.582  13.675  1.00  0.00     0.180 C 
ATOM     31  C   UNL     1      -8.719   6.296  12.578  1.00  0.00     0.179 C 
ATOM     32  C   UNL     1      -9.668   7.513  12.688  1.00  0.00     0.177 C 
BRANCH  28  33
ATOM     33  O   UNL     1      -7.112   9.753  14.346  1.00  0.00    -0.384 OA
ATOM     34  H   UNL     1      -7.761   9.757  15.123  1.00  0.00     0.211 HD
ENDBRANCH  28  33
BRANCH  30  35
ATOM     35  O   UNL     1      -9.254   8.122  14.999  1.00  0.00    -0.387 OA
ATOM     36  H   UNL     1     -10.138   7.680  15.069  1.00  0.00     0.211 HD
ENDBRANCH  30  35
BRANCH  31  37
ATOM     37  C   UNL     1      -8.895   5.203  13.641  1.00  0.00     0.191 C 
BRANCH  37  38
ATOM     38  O   UNL     1      -8.278   4.017  13.264  1.00  0.00    -0.394 OA
ATOM     39  H   UNL     1      -8.128   3.516  14.103  1.00  0.00     0.210 HD
ENDBRANCH  37  38
ENDBRANCH  31  37
BRANCH  32  40
ATOM     40  O   UNL     1      -9.843   8.058  11.392  1.00  0.00    -0.387 OA
ATOM     41  H   UNL     1     -10.203   8.984  11.478  1.00  0.00     0.211 HD
ENDBRANCH  32  40
ENDBRANCH   1  27
TORSDOF 12
ENDMDL
MODEL 2
REMARK VINA RESULT:    -7.024      1.119      2.184
REMARK INTER + INTRA:         -11.326
REMARK INTER:                  -9.473
REMARK INTRA:                  -1.854
REMARK UNBOUND:                -1.018
REMARK SMILES O=c1c(O[C@H]2O[C@@H](CO)[C@H](O)[C@@H](O)[C@H]2O)c(-c2ccc(O)c(O)c2)oc2cc(O)cc(O)c12
REMARK SMILES IDX 4 1 3 2 16 3 25 4 2 5 26 6 1 7 33 8 27 9 31 10 28 11 30 12
REMARK SMILES IDX 17 13 18 14 19 15 20 16 24 17 22 18 21 19 23 21 32 23 29 25
REMARK SMILES IDX 5 27 14 28 6 29 12 30 7 31 10 32 15 33 13 35 8 37 9 38 11 40
REMARK H PARENT 21 20 23 22 32 24 29 26 15 34 13 36 9 39 11 41
REMARK Flexibility Score: inf
ROOT
ATOM      1  O   UNL     1      -6.647   6.586  13.780  1.00  0.00    -0.454 OA
ENDROOT
BRANCH   1   2
ATOM      2  C   UNL     1      -5.521   5.855  14.241  1.00  0.00     0.214 A 
ATOM      3  C   UNL     1      -4.235   6.382  13.967  1.00  0.00     0.180 A 
ATOM      4  O   UNL     1      -3.157   5.843  14.534  1.00  0.00    -0.452 OA
ATOM      5  C   UNL     1      -5.579   4.663  15.007  1.00  0.00     0.239 A 
ATOM      6  C   UNL     1      -3.185   4.797  15.344  1.00  0.00     0.146 A 
ATOM      7  O   UNL     1      -6.655   4.009  15.093  1.00  0.00    -0.285 OA
ATOM      8  C   UNL     1      -4.412   4.165  15.628  1.00  0.00     0.111 A 
ATOM      9  C   UNL     1      -1.999   4.318  15.888  1.00  0.00     0.094 A 
ATOM     10  C   UNL     1      -4.437   3.096  16.557  1.00  0.00     0.134 A 
ATOM     11  C   UNL     1      -2.028   3.235  16.779  1.00  0.00     0.123 A 
ATOM     12  C   UNL     1      -3.237   2.624  17.117  1.00  0.00     0.093 A 
BRANCH   3  13
ATOM     13  C   UNL     1      -4.009   7.545  13.086  1.00  0.00     0.025 A 
ATOM     14  C   UNL     1      -4.035   7.442  11.691  1.00  0.00     0.016 A 
ATOM     15  C   UNL     1      -3.751   8.563  10.898  1.00  0.00     0.051 A 
ATOM     16  C   UNL     1      -3.443   9.793  11.499  1.00  0.00     0.157 A 
ATOM     17  C   UNL     1      -3.718   8.778  13.682  1.00  0.00     0.062 A 
ATOM     18  C   UNL     1      -3.439   9.898  12.899  1.00  0.00     0.158 A 
BRANCH  16  19
ATOM     19  O   UNL     1      -3.188  10.929  10.734  1.00  0.00    -0.504 OA
ATOM     20  H   UNL     1      -2.491  10.921  10.000  1.00  0.00     0.293 HD
ENDBRANCH  16  19
BRANCH  18  21
ATOM     21  O   UNL     1      -3.189  11.122  13.536  1.00  0.00    -0.504 OA
ATOM     22  H   UNL     1      -2.700  11.892  13.083  1.00  0.00     0.293 HD
ENDBRANCH  18  21
ENDBRANCH   3  13
BRANCH  10  23
ATOM     23  O   UNL     1      -5.650   2.484  16.941  1.00  0.00    -0.507 OA
ATOM     24  H   UNL     1      -6.223   2.866  17.687  1.00  0.00     0.293 HD
ENDBRANCH  10  23
BRANCH  11  25
ATOM     25  O   UNL     1      -0.831   2.802  17.357  1.00  0.00    -0.508 OA
ATOM     26  H   UNL     1      -0.369   3.363  18.073  1.00  0.00     0.293 HD
ENDBRANCH  11  25
ENDBRANCH   1   2
BRANCH   1  27
ATOM     27  C   UNL     1      -7.368   7.631  14.461  1.00  0.00     0.339 C 
ATOM     28  C   UNL     1      -8.813   7.177  14.787  1.00  0.00     0.214 C 
ATOM     29  O   UNL     1      -7.234   8.884  13.787  1.00  0.00    -0.332 OA
ATOM     30  C   UNL     1      -9.742   7.339  13.576  1.00  0.00     0.180 C 
ATOM     31  C   UNL     1      -8.110   9.111  12.687  1.00  0.00     0.179 C 
ATOM     32  C   UNL     1      -9.591   8.759  12.967  1.00  0.00     0.177 C 
BRANCH  28  33
ATOM     33  O   UNL     1      -8.796   5.823  15.212  1.00  0.00    -0.384 OA
ATOM     34  H   UNL     1      -9.748   5.481  15.179  1.00  0.00     0.211 HD
ENDBRANCH  28  33
BRANCH  30  35
ATOM     35  O   UNL     1      -9.501   6.365  12.589  1.00  0.00    -0.387 OA
ATOM     36  H   UNL     1      -8.568   6.054  12.708  1.00  0.00     0.211 HD
ENDBRANCH  30  35
BRANCH  31  37
ATOM     37  C   UNL     1      -7.542   8.626  11.347  1.00  0.00     0.191 C 
BRANCH  37  38
ATOM     38  O   UNL     1      -8.551   8.273  10.459  1.00  0.00    -0.394 OA
ATOM     39  H   UNL     1      -8.997   9.120  10.213  1.00  0.00     0.210 HD
ENDBRANCH  37  38
ENDBRANCH  31  37
BRANCH  32  40
ATOM     40  O   UNL     1     -10.125   9.745  13.833  1.00  0.00    -0.387 OA
ATOM     41  H   UNL     1      -9.852   9.535  14.768  1.00  0.00     0.211 HD
ENDBRANCH  32  40
ENDBRANCH   1  27
TORSDOF 12
ENDMDL
MODEL 3
REMARK VINA RESULT:    -6.675      2.412      5.846
REMARK INTER + INTRA:         -10.815
REMARK INTER:                  -9.136
REMARK INTRA:                  -1.678
REMARK UNBOUND:                -1.018
REMARK SMILES O=c1c(O[C@H]2O[C@@H](CO)[C@H](O)[C@@H](O)[C@H]2O)c(-c2ccc(O)c(O)c2)oc2cc(O)cc(O)c12
REMARK SMILES IDX 4 1 3 2 16 3 25 4 2 5 26 6 1 7 33 8 27 9 31 10 28 11 30 12
REMARK SMILES IDX 17 13 18 14 19 15 20 16 24 17 22 18 21 19 23 21 32 23 29 25
REMARK SMILES IDX 5 27 14 28 6 29 12 30 7 31 10 32 15 33 13 35 8 37 9 38 11 40
REMARK H PARENT 21 20 23 22 32 24 29 26 15 34 13 36 9 39 11 41
REMARK Flexibility Score: inf
ROOT
ATOM      1  O   UNL     1      -5.070   7.070  14.201  1.00  0.00    -0.454 OA
ENDROOT
BRANCH   1   2
ATOM      2  C   UNL     1      -4.142   7.643  13.292  1.00  0.00     0.214 A 
ATOM      3  C   UNL     1      -4.587   7.913  11.975  1.00  0.00     0.180 A 
ATOM      4  O   UNL     1      -3.824   8.617  11.142  1.00  0.00    -0.452 OA
ATOM      5  C   UNL     1      -2.813   8.022  13.613  1.00  0.00     0.239 A 
ATOM      6  C   UNL     1      -2.623   9.083  11.446  1.00  0.00     0.146 A 
ATOM      7  O   UNL     1      -2.268   7.609  14.674  1.00  0.00    -0.285 OA
ATOM      8  C   UNL     1      -2.067   8.813  12.712  1.00  0.00     0.111 A 
ATOM      9  C   UNL     1      -1.912   9.815  10.501  1.00  0.00     0.094 A 
ATOM     10  C   UNL     1      -0.815   9.383  13.049  1.00  0.00     0.134 A 
ATOM     11  C   UNL     1      -0.656  10.344  10.831  1.00  0.00     0.123 A 
ATOM     12  C   UNL     1      -0.106  10.135  12.097  1.00  0.00     0.093 A 
BRANCH   3  13
ATOM     13  C   UNL     1      -5.899   7.471  11.460  1.00  0.00     0.025 A 
ATOM     14  C   UNL     1      -6.894   8.376  11.075  1.00  0.00     0.016 A 
ATOM     15  C   UNL     1      -8.145   7.907  10.652  1.00  0.00     0.051 A 
ATOM     16  C   UNL     1      -8.405   6.528  10.610  1.00  0.00     0.157 A 
ATOM     17  C   UNL     1      -6.155   6.096  11.399  1.00  0.00     0.062 A 
ATOM     18  C   UNL     1      -7.396   5.622  10.975  1.00  0.00     0.158 A 
BRANCH  16  19
ATOM     19  O   UNL     1      -9.629   6.035  10.163  1.00  0.00    -0.504 OA
ATOM     20  H   UNL     1     -10.486   6.554  10.304  1.00  0.00     0.293 HD
ENDBRANCH  16  19
BRANCH  18  21
ATOM     21  O   UNL     1      -7.599   4.236  10.894  1.00  0.00    -0.504 OA
ATOM     22  H   UNL     1      -6.885   3.591  10.559  1.00  0.00     0.293 HD
ENDBRANCH  18  21
ENDBRANCH   3  13
BRANCH  10  23
ATOM     23  O   UNL     1      -0.253   9.214  14.333  1.00  0.00    -0.507 OA
ATOM     24  H   UNL     1       0.596   9.697  14.608  1.00  0.00     0.293 HD
ENDBRANCH  10  23
BRANCH  11  25
ATOM     25  O   UNL     1       0.020  11.123   9.887  1.00  0.00    -0.508 OA
ATOM     26  H   UNL     1       0.473  10.686   9.084  1.00  0.00     0.293 HD
ENDBRANCH  11  25
ENDBRANCH   1   2
BRANCH   1  27
ATOM     27  C   UNL     1      -5.382   7.499  15.540  1.00  0.00     0.339 C 
ATOM     28  C   UNL     1      -5.208   6.332  16.544  1.00  0.00     0.214 C 
ATOM     29  O   UNL     1      -6.629   8.196  15.589  1.00  0.00    -0.332 OA
ATOM     30  C   UNL     1      -6.438   5.414  16.561  1.00  0.00     0.180 C 
ATOM     31  C   UNL     1      -7.804   7.393  15.661  1.00  0.00     0.179 C 
ATOM     32  C   UNL     1      -7.735   6.255  16.707  1.00  0.00     0.177 C 
BRANCH  28  33
ATOM     33  O   UNL     1      -4.048   5.587  16.203  1.00  0.00    -0.384 OA
ATOM     34  H   UNL     1      -3.395   5.672  16.972  1.00  0.00     0.211 HD
ENDBRANCH  28  33
BRANCH  30  35
ATOM     35  O   UNL     1      -6.515   4.608  15.410  1.00  0.00    -0.387 OA
ATOM     36  H   UNL     1      -6.049   5.093  14.683  1.00  0.00     0.211 HD
ENDBRANCH  30  35
BRANCH  31  37
ATOM     37  C   UNL     1      -8.367   7.015  14.285  1.00  0.00     0.191 C 
BRANCH  37  38
ATOM     38  O   UNL     1      -9.002   5.780  14.312  1.00  0.00    -0.394 OA
ATOM     39  H   UNL     1      -9.244   5.627  15.259  1.00  0.00     0.210 HD
ENDBRANCH  37  38
ENDBRANCH  31  37
BRANCH  32  40
ATOM     40  O   UNL     1      -7.829   6.831  17.997  1.00  0.00    -0.387 OA
ATOM     41  H   UNL     1      -7.315   6.267  18.639  1.00  0.00     0.211 HD
ENDBRANCH  32  40
ENDBRANCH   1  27
TORSDOF 12
ENDMDL
MODEL 4
REMARK VINA RESULT:    -6.529      1.875      6.172
REMARK INTER + INTRA:         -10.601
REMARK INTER:                  -9.819
REMARK INTRA:                  -0.782
REMARK UNBOUND:                -1.018
REMARK SMILES O=c1c(O[C@H]2O[C@@H](CO)[C@H](O)[C@@H](O)[C@H]2O)c(-c2ccc(O)c(O)c2)oc2cc(O)cc(O)c12
REMARK SMILES IDX 4 1 3 2 16 3 25 4 2 5 26 6 1 7 33 8 27 9 31 10 28 11 30 12
REMARK SMILES IDX 17 13 18 14 19 15 20 16 24 17 22 18 21 19 23 21 32 23 29 25
REMARK SMILES IDX 5 27 14 28 6 29 12 30 7 31 10 32 15 33 13 35 8 37 9 38 11 40
REMARK H PARENT 21 20 23 22 32 24 29 26 15 34 13 36 9 39 11 41
REMARK Flexibility Score: inf
ROOT
ATOM      1  O   UNL     1      -5.058   6.846  14.678  1.00  0.00    -0.454 OA
ENDROOT
BRANCH   1   2
ATOM      2  C   UNL     1      -4.252   7.469  13.689  1.00  0.00     0.214 A 
ATOM      3  C   UNL     1      -4.872   7.842  12.471  1.00  0.00     0.180 A 
ATOM      4  O   UNL     1      -4.215   8.593  11.590  1.00  0.00    -0.452 OA
ATOM      5  C   UNL     1      -2.882   7.802  13.843  1.00  0.00     0.239 A 
ATOM      6  C   UNL     1      -2.971   9.016  11.751  1.00  0.00     0.146 A 
ATOM      7  O   UNL     1      -2.204   7.303  14.784  1.00  0.00    -0.285 OA
ATOM      8  C   UNL     1      -2.250   8.645  12.902  1.00  0.00     0.111 A 
ATOM      9  C   UNL     1      -2.381   9.804  10.768  1.00  0.00     0.094 A 
ATOM     10  C   UNL     1      -0.948   9.168  13.097  1.00  0.00     0.134 A 
ATOM     11  C   UNL     1      -1.078  10.287  10.953  1.00  0.00     0.123 A 
ATOM     12  C   UNL     1      -0.360   9.976  12.109  1.00  0.00     0.093 A 
BRANCH   3  13
ATOM     13  C   UNL     1      -6.254   7.461  12.118  1.00  0.00     0.025 A 
ATOM     14  C   UNL     1      -7.364   8.204  12.535  1.00  0.00     0.016 A 
ATOM     15  C   UNL     1      -8.659   7.766  12.227  1.00  0.00     0.051 A 
ATOM     16  C   UNL     1      -8.849   6.581  11.498  1.00  0.00     0.157 A 
ATOM     17  C   UNL     1      -6.447   6.290  11.376  1.00  0.00     0.062 A 
ATOM     18  C   UNL     1      -7.732   5.850  11.062  1.00  0.00     0.158 A 
BRANCH  16  19
ATOM     19  O   UNL     1     -10.124   6.141  11.152  1.00  0.00    -0.504 OA
ATOM     20  H   UNL     1     -10.770   5.799  11.853  1.00  0.00     0.293 HD
ENDBRANCH  16  19
BRANCH  18  21
ATOM     21  O   UNL     1      -7.879   4.692  10.284  1.00  0.00    -0.504 OA
ATOM     22  H   UNL     1      -7.302   3.863  10.412  1.00  0.00     0.293 HD
ENDBRANCH  18  21
ENDBRANCH   3  13
BRANCH  10  23
ATOM     23  O   UNL     1      -0.216   8.896  14.273  1.00  0.00    -0.507 OA
ATOM     24  H   UNL     1      -0.380   8.056  14.818  1.00  0.00     0.293 HD
ENDBRANCH  10  23
BRANCH  11  25
ATOM     25  O   UNL     1      -0.521  11.122   9.979  1.00  0.00    -0.508 OA
ATOM     26  H   UNL     1      -0.590  12.136  10.065  1.00  0.00     0.293 HD
ENDBRANCH  11  25
ENDBRANCH   1   2
BRANCH   1  27
ATOM     27  C   UNL     1      -5.690   5.553  14.623  1.00  0.00     0.339 C 
ATOM     28  C   UNL     1      -6.676   5.373  15.804  1.00  0.00     0.214 C 
ATOM     29  O   UNL     1      -4.731   4.509  14.434  1.00  0.00    -0.332 OA
ATOM     30  C   UNL     1      -5.949   4.953  17.088  1.00  0.00     0.180 C 
ATOM     31  C   UNL     1      -4.063   4.041  15.602  1.00  0.00     0.179 C 
ATOM     32  C   UNL     1      -4.999   3.758  16.802  1.00  0.00     0.177 C 
BRANCH  28  33
ATOM     33  O   UNL     1      -7.380   6.588  16.017  1.00  0.00    -0.384 OA
ATOM     34  H   UNL     1      -6.751   7.226  16.487  1.00  0.00     0.211 HD
ENDBRANCH  28  33
BRANCH  30  35
ATOM     35  O   UNL     1      -5.225   6.015  17.660  1.00  0.00    -0.387 OA
ATOM     36  H   UNL     1      -5.058   6.675  16.940  1.00  0.00     0.211 HD
ENDBRANCH  30  35
BRANCH  31  37
ATOM     37  C   UNL     1      -2.775   4.813  15.916  1.00  0.00     0.191 C 
BRANCH  37  38
ATOM     38  O   UNL     1      -1.724   4.411  15.100  1.00  0.00    -0.394 OA
ATOM     39  H   UNL     1      -0.912   4.811  15.496  1.00  0.00     0.210 HD
ENDBRANCH  37  38
ENDBRANCH  31  37
BRANCH  32  40
ATOM     40  O   UNL     1      -5.731   2.578  16.525  1.00  0.00    -0.387 OA
ATOM     41  H   UNL     1      -5.090   1.841  16.323  1.00  0.00     0.211 HD
ENDBRANCH  32  40
ENDBRANCH   1  27
TORSDOF 12
ENDMDL
MODEL 5
REMARK VINA RESULT:    -6.513      2.223      5.700
REMARK INTER + INTRA:         -10.576
REMARK INTER:                  -9.290
REMARK INTRA:                  -1.286
REMARK UNBOUND:                -1.018
REMARK SMILES O=c1c(O[C@H]2O[C@@H](CO)[C@H](O)[C@@H](O)[C@H]2O)c(-c2ccc(O)c(O)c2)oc2cc(O)cc(O)c12
REMARK SMILES IDX 4 1 3 2 16 3 25 4 2 5 26 6 1 7 33 8 27 9 31 10 28 11 30 12
REMARK SMILES IDX 17 13 18 14 19 15 20 16 24 17 22 18 21 19 23 21 32 23 29 25
REMARK SMILES IDX 5 27 14 28 6 29 12 30 7 31 10 32 15 33 13 35 8 37 9 38 11 40
REMARK H PARENT 21 20 23 22 32 24 29 26 15 34 13 36 9 39 11 41
REMARK Flexibility Score: inf
ROOT
ATOM      1  O   UNL     1      -7.113   9.005  13.531  1.00  0.00    -0.454 OA
ENDROOT
BRANCH   1   2
ATOM      2  C   UNL     1      -5.721   9.228  13.367  1.00  0.00     0.214 A 
ATOM      3  C   UNL     1      -4.842   8.624  14.298  1.00  0.00     0.180 A 
ATOM      4  O   UNL     1      -3.528   8.642  14.087  1.00  0.00    -0.452 OA
ATOM      5  C   UNL     1      -5.130   9.965  12.309  1.00  0.00     0.239 A 
ATOM      6  C   UNL     1      -2.948   9.226  13.049  1.00  0.00     0.146 A 
ATOM      7  O   UNL     1      -5.835  10.721  11.583  1.00  0.00    -0.285 OA
ATOM      8  C   UNL     1      -3.735   9.907  12.100  1.00  0.00     0.111 A 
ATOM      9  C   UNL     1      -1.564   9.179  12.920  1.00  0.00     0.094 A 
ATOM     10  C   UNL     1      -3.109  10.459  10.956  1.00  0.00     0.134 A 
ATOM     11  C   UNL     1      -0.949   9.761  11.803  1.00  0.00     0.123 A 
ATOM     12  C   UNL     1      -1.711  10.397  10.821  1.00  0.00     0.093 A 
BRANCH   3  13
ATOM     13  C   UNL     1      -5.307   7.928  15.515  1.00  0.00     0.025 A 
ATOM     14  C   UNL     1      -6.022   8.583  16.524  1.00  0.00     0.016 A 
ATOM     15  C   UNL     1      -6.387   7.893  17.688  1.00  0.00     0.051 A 
ATOM     16  C   UNL     1      -6.038   6.543  17.847  1.00  0.00     0.157 A 
ATOM     17  C   UNL     1      -4.977   6.577  15.669  1.00  0.00     0.062 A 
ATOM     18  C   UNL     1      -5.340   5.883  16.824  1.00  0.00     0.158 A 
BRANCH  16  19
ATOM     19  O   UNL     1      -6.416   5.827  18.981  1.00  0.00    -0.504 OA
ATOM     20  H   UNL     1      -6.041   4.906  19.169  1.00  0.00     0.293 HD
ENDBRANCH  16  19
BRANCH  18  21
ATOM     21  O   UNL     1      -5.022   4.520  16.922  1.00  0.00    -0.504 OA
ATOM     22  H   UNL     1      -5.460   3.806  16.342  1.00  0.00     0.293 HD
ENDBRANCH  18  21
ENDBRANCH   3  13
BRANCH  10  23
ATOM     23  O   UNL     1      -3.860  11.077   9.933  1.00  0.00    -0.507 OA
ATOM     24  H   UNL     1      -3.902  10.689   8.997  1.00  0.00     0.293 HD
ENDBRANCH  10  23
BRANCH  11  25
ATOM     25  O   UNL     1       0.439   9.657  11.663  1.00  0.00    -0.508 OA
ATOM     26  H   UNL     1       1.048   9.730  12.478  1.00  0.00     0.293 HD
ENDBRANCH  11  25
ENDBRANCH   1   2
BRANCH   1  27
ATOM     27  C   UNL     1      -8.114   8.850  12.506  1.00  0.00     0.339 C 
ATOM     28  C   UNL     1      -9.490   8.509  13.131  1.00  0.00     0.214 C 
ATOM     29  O   UNL     1      -7.663   7.988  11.460  1.00  0.00    -0.332 OA
ATOM     30  C   UNL     1      -9.607   7.015  13.459  1.00  0.00     0.180 C 
ATOM     31  C   UNL     1      -7.798   6.588  11.688  1.00  0.00     0.179 C 
ATOM     32  C   UNL     1      -9.181   6.160  12.234  1.00  0.00     0.177 C 
BRANCH  28  33
ATOM     33  O   UNL     1      -9.677   9.283  14.307  1.00  0.00    -0.384 OA
ATOM     34  H   UNL     1      -9.568  10.256  14.052  1.00  0.00     0.211 HD
ENDBRANCH  28  33
BRANCH  30  35
ATOM     35  O   UNL     1      -8.841   6.657  14.583  1.00  0.00    -0.387 OA
ATOM     36  H   UNL     1      -8.036   7.235  14.585  1.00  0.00     0.211 HD
ENDBRANCH  30  35
BRANCH  31  37
ATOM     37  C   UNL     1      -6.576   5.963  12.375  1.00  0.00     0.191 C 
BRANCH  37  38
ATOM     38  O   UNL     1      -6.923   4.841  13.117  1.00  0.00    -0.394 OA
ATOM     39  H   UNL     1      -7.790   4.538  12.751  1.00  0.00     0.210 HD
ENDBRANCH  37  38
ENDBRANCH  31  37
BRANCH  32  40
ATOM     40  O   UNL     1     -10.125   6.266  11.184  1.00  0.00    -0.387 OA
ATOM     41  H   UNL     1      -9.874   7.037  10.602  1.00  0.00     0.211 HD
ENDBRANCH  32  40
ENDBRANCH   1  27
TORSDOF 12
ENDMDL
MODEL 6
REMARK VINA RESULT:    -6.088      1.469      4.622
REMARK INTER + INTRA:          -9.953
REMARK INTER:                  -8.812
REMARK INTRA:                  -1.141
REMARK UNBOUND:                -1.018
REMARK SMILES O=c1c(O[C@H]2O[C@@H](CO)[C@H](O)[C@@H](O)[C@H]2O)c(-c2ccc(O)c(O)c2)oc2cc(O)cc(O)c12
REMARK SMILES IDX 4 1 3 2 16 3 25 4 2 5 26 6 1 7 33 8 27 9 31 10 28 11 30 12
REMARK SMILES IDX 17 13 18 14 19 15 20 16 24 17 22 18 21 19 23 21 32 23 29 25
REMARK SMILES IDX 5 27 14 28 6 29 12 30 7 31 10 32 15 33 13 35 8 37 9 38 11 40
REMARK H PARENT 21 20 23 22 32 24 29 26 15 34 13 36 9 39 11 41
REMARK Flexibility Score: inf
ROOT
ATOM      1  O   UNL     1      -4.074   7.011  13.448  1.00  0.00    -0.454 OA
ENDROOT
BRANCH   1   2
ATOM      2  C   UNL     1      -4.354   6.063  14.467  1.00  0.00     0.214 A 
ATOM      3  C   UNL     1      -5.712   5.758  14.729  1.00  0.00     0.180 A 
ATOM      4  O   UNL     1      -6.025   4.747  15.537  1.00  0.00    -0.452 OA
ATOM      5  C   UNL     1      -3.378   5.352  15.211  1.00  0.00     0.239 A 
ATOM      6  C   UNL     1      -5.138   3.989  16.162  1.00  0.00     0.146 A 
ATOM      7  O   UNL     1      -2.173   5.727  15.210  1.00  0.00    -0.285 OA
ATOM      8  C   UNL     1      -3.763   4.254  16.012  1.00  0.00     0.111 A 
ATOM      9  C   UNL     1      -5.575   2.952  16.978  1.00  0.00     0.094 A 
ATOM     10  C   UNL     1      -2.824   3.388  16.625  1.00  0.00     0.134 A 
ATOM     11  C   UNL     1      -4.639   2.121  17.611  1.00  0.00     0.123 A 
ATOM     12  C   UNL     1      -3.270   2.331  17.438  1.00  0.00     0.093 A 
BRANCH   3  13
ATOM     13  C   UNL     1      -6.838   6.496  14.123  1.00  0.00     0.025 A 
ATOM     14  C   UNL     1      -7.496   7.535  14.789  1.00  0.00     0.016 A 
ATOM     15  C   UNL     1      -8.600   8.162  14.196  1.00  0.00     0.051 A 
ATOM     16  C   UNL     1      -9.050   7.753  12.931  1.00  0.00     0.157 A 
ATOM     17  C   UNL     1      -7.278   6.102  12.854  1.00  0.00     0.062 A 
ATOM     18  C   UNL     1      -8.373   6.724  12.256  1.00  0.00     0.158 A 
BRANCH  16  19
ATOM     19  O   UNL     1     -10.125   8.381  12.307  1.00  0.00    -0.504 OA
ATOM     20  H   UNL     1     -10.046   8.742  11.364  1.00  0.00     0.293 HD
ENDBRANCH  16  19
BRANCH  18  21
ATOM     21  O   UNL     1      -8.758   6.324  10.968  1.00  0.00    -0.504 OA
ATOM     22  H   UNL     1      -9.669   6.543  10.569  1.00  0.00     0.293 HD
ENDBRANCH  18  21
ENDBRANCH   3  13
BRANCH  10  23
ATOM     23  O   UNL     1      -1.436   3.559  16.438  1.00  0.00    -0.507 OA
ATOM     24  H   UNL     1      -0.778   3.432  17.200  1.00  0.00     0.293 HD
ENDBRANCH  10  23
BRANCH  11  25
ATOM     25  O   UNL     1      -5.097   1.051  18.385  1.00  0.00    -0.508 OA
ATOM     26  H   UNL     1      -5.520   0.235  17.942  1.00  0.00     0.293 HD
ENDBRANCH  11  25
ENDBRANCH   1   2
BRANCH   1  27
ATOM     27  C   UNL     1      -3.104   8.076  13.467  1.00  0.00     0.339 C 
ATOM     28  C   UNL     1      -3.748   9.395  13.962  1.00  0.00     0.214 C 
ATOM     29  O   UNL     1      -2.379   8.147  12.238  1.00  0.00    -0.332 OA
ATOM     30  C   UNL     1      -4.500  10.114  12.833  1.00  0.00     0.180 C 
ATOM     31  C   UNL     1      -3.007   8.850  11.170  1.00  0.00     0.179 C 
ATOM     32  C   UNL     1      -3.602  10.221  11.571  1.00  0.00     0.177 C 
BRANCH  28  33
ATOM     33  O   UNL     1      -4.633   9.113  15.036  1.00  0.00    -0.384 OA
ATOM     34  H   UNL     1      -5.485   8.739  14.638  1.00  0.00     0.211 HD
ENDBRANCH  28  33
BRANCH  30  35
ATOM     35  O   UNL     1      -5.709   9.471  12.509  1.00  0.00    -0.387 OA
ATOM     36  H   UNL     1      -6.337  10.171  12.198  1.00  0.00     0.211 HD
ENDBRANCH  30  35
BRANCH  31  37
ATOM     37  C   UNL     1      -3.895   7.958  10.293  1.00  0.00     0.191 C 
BRANCH  37  38
ATOM     38  O   UNL     1      -3.762   6.616  10.627  1.00  0.00    -0.394 OA
ATOM     39  H   UNL     1      -4.303   6.121   9.963  1.00  0.00     0.210 HD
ENDBRANCH  37  38
ENDBRANCH  31  37
BRANCH  32  40
ATOM     40  O   UNL     1      -2.531  11.125  11.781  1.00  0.00    -0.387 OA
ATOM     41  H   UNL     1      -2.681  11.936  11.221  1.00  0.00     0.211 HD
ENDBRANCH  32  40
ENDBRANCH   1  27
TORSDOF 12
ENDMDL
MODEL 7
REMARK VINA RESULT:    -5.947     11.868     17.063
REMARK INTER + INTRA:          -9.747
REMARK INTER:                  -8.095
REMARK INTRA:                  -1.652
REMARK UNBOUND:                -1.018
REMARK SMILES O=c1c(O[C@H]2O[C@@H](CO)[C@H](O)[C@@H](O)[C@H]2O)c(-c2ccc(O)c(O)c2)oc2cc(O)cc(O)c12
REMARK SMILES IDX 4 1 3 2 16 3 25 4 2 5 26 6 1 7 33 8 27 9 31 10 28 11 30 12
REMARK SMILES IDX 17 13 18 14 19 15 20 16 24 17 22 18 21 19 23 21 32 23 29 25
REMARK SMILES IDX 5 27 14 28 6 29 12 30 7 31 10 32 15 33 13 35 8 37 9 38 11 40
REMARK H PARENT 21 20 23 22 32 24 29 26 15 34 13 36 9 39 11 41
REMARK Flexibility Score: inf
ROOT
ATOM      1  O   UNL     1      -7.683  -6.139  24.393  1.00  0.00    -0.454 OA
ENDROOT
BRANCH   1   2
ATOM      2  C   UNL     1      -7.334  -5.442  23.206  1.00  0.00     0.214 A 
ATOM      3  C   UNL     1      -5.972  -5.437  22.820  1.00  0.00     0.180 A 
ATOM      4  O   UNL     1      -5.617  -4.964  21.627  1.00  0.00    -0.452 OA
ATOM      5  C   UNL     1      -8.251  -4.793  22.340  1.00  0.00     0.239 A 
ATOM      6  C   UNL     1      -6.462  -4.452  20.746  1.00  0.00     0.146 A 
ATOM      7  O   UNL     1      -9.430  -4.550  22.722  1.00  0.00    -0.285 OA
ATOM      8  C   UNL     1      -7.831  -4.357  21.065  1.00  0.00     0.111 A 
ATOM      9  C   UNL     1      -5.985  -3.992  19.524  1.00  0.00     0.094 A 
ATOM     10  C   UNL     1      -8.734  -3.879  20.083  1.00  0.00     0.134 A 
ATOM     11  C   UNL     1      -6.881  -3.485  18.572  1.00  0.00     0.123 A 
ATOM     12  C   UNL     1      -8.250  -3.429  18.843  1.00  0.00     0.093 A 
BRANCH   3  13
ATOM     13  C   UNL     1      -4.888  -5.965  23.673  1.00  0.00     0.025 A 
ATOM     14  C   UNL     1      -4.234  -7.169  23.390  1.00  0.00     0.016 A 
ATOM     15  C   UNL     1      -3.255  -7.660  24.265  1.00  0.00     0.051 A 
ATOM     16  C   UNL     1      -2.925  -6.945  25.428  1.00  0.00     0.157 A 
ATOM     17  C   UNL     1      -4.544  -5.246  24.823  1.00  0.00     0.062 A 
ATOM     18  C   UNL     1      -3.568  -5.726  25.697  1.00  0.00     0.158 A 
BRANCH  16  19
ATOM     19  O   UNL     1      -1.934  -7.395  26.297  1.00  0.00    -0.504 OA
ATOM     20  H   UNL     1      -1.235  -6.764  26.668  1.00  0.00     0.293 HD
ENDBRANCH  16  19
BRANCH  18  21
ATOM     21  O   UNL     1      -3.227  -4.956  26.819  1.00  0.00    -0.504 OA
ATOM     22  H   UNL     1      -3.193  -5.337  27.762  1.00  0.00     0.293 HD
ENDBRANCH  18  21
ENDBRANCH   3  13
BRANCH  10  23
ATOM     23  O   UNL     1     -10.125  -3.844  20.320  1.00  0.00    -0.507 OA
ATOM     24  H   UNL     1     -10.504  -3.900  21.259  1.00  0.00     0.293 HD
ENDBRANCH  10  23
BRANCH  11  25
ATOM     25  O   UNL     1      -6.390  -3.078  17.329  1.00  0.00    -0.508 OA
ATOM     26  H   UNL     1      -5.426  -3.279  17.061  1.00  0.00     0.293 HD
ENDBRANCH  11  25
ENDBRANCH   1   2
BRANCH   1  27
ATOM     27  C   UNL     1      -8.800  -7.023  24.607  1.00  0.00     0.339 C 
ATOM     28  C   UNL     1      -9.730  -6.472  25.717  1.00  0.00     0.214 C 
ATOM     29  O   UNL     1      -8.374  -8.379  24.753  1.00  0.00    -0.332 OA
ATOM     30  C   UNL     1      -9.202  -6.815  27.117  1.00  0.00     0.180 C 
ATOM     31  C   UNL     1      -7.924  -8.768  26.048  1.00  0.00     0.179 C 
ATOM     32  C   UNL     1      -8.850  -8.325  27.205  1.00  0.00     0.177 C 
BRANCH  28  33
ATOM     33  O   UNL     1      -9.853  -5.065  25.573  1.00  0.00    -0.384 OA
ATOM     34  H   UNL     1      -9.343  -4.799  24.740  1.00  0.00     0.211 HD
ENDBRANCH  28  33
BRANCH  30  35
ATOM     35  O   UNL     1      -8.081  -6.040  27.465  1.00  0.00    -0.387 OA
ATOM     36  H   UNL     1      -8.280  -5.611  28.336  1.00  0.00     0.211 HD
ENDBRANCH  30  35
BRANCH  31  37
ATOM     37  C   UNL     1      -6.421  -8.546  26.261  1.00  0.00     0.191 C 
BRANCH  37  38
ATOM     38  O   UNL     1      -6.115  -8.362  27.603  1.00  0.00    -0.394 OA
ATOM     39  H   UNL     1      -6.711  -8.977  28.099  1.00  0.00     0.210 HD
ENDBRANCH  37  38
ENDBRANCH  31  37
BRANCH  32  40
ATOM     40  O   UNL     1     -10.019  -9.124  27.170  1.00  0.00    -0.387 OA
ATOM     41  H   UNL     1     -10.639  -8.819  27.888  1.00  0.00     0.211 HD
ENDBRANCH  32  40
ENDBRANCH   1  27
TORSDOF 12
ENDMDL
MODEL 8
REMARK VINA RESULT:    -5.820      1.333      2.460
REMARK INTER + INTRA:          -9.559
REMARK INTER:                  -8.783
REMARK INTRA:                  -0.777
REMARK UNBOUND:                -1.018
REMARK SMILES O=c1c(O[C@H]2O[C@@H](CO)[C@H](O)[C@@H](O)[C@H]2O)c(-c2ccc(O)c(O)c2)oc2cc(O)cc(O)c12
REMARK SMILES IDX 4 1 3 2 16 3 25 4 2 5 26 6 1 7 33 8 27 9 31 10 28 11 30 12
REMARK SMILES IDX 17 13 18 14 19 15 20 16 24 17 22 18 21 19 23 21 32 23 29 25
REMARK SMILES IDX 5 27 14 28 6 29 12 30 7 31 10 32 15 33 13 35 8 37 9 38 11 40
REMARK H PARENT 21 20 23 22 32 24 29 26 15 34 13 36 9 39 11 41
REMARK Flexibility Score: inf
ROOT
ATOM      1  O   UNL     1      -5.492   7.429  13.609  1.00  0.00    -0.454 OA
ENDROOT
BRANCH   1   2
ATOM      2  C   UNL     1      -4.602   6.460  14.141  1.00  0.00     0.214 A 
ATOM      3  C   UNL     1      -3.213   6.723  14.058  1.00  0.00     0.180 A 
ATOM      4  O   UNL     1      -2.346   5.946  14.703  1.00  0.00    -0.452 OA
ATOM      5  C   UNL     1      -4.993   5.268  14.803  1.00  0.00     0.239 A 
ATOM      6  C   UNL     1      -2.685   4.888  15.424  1.00  0.00     0.146 A 
ATOM      7  O   UNL     1      -6.180   4.847  14.715  1.00  0.00    -0.285 OA
ATOM      8  C   UNL     1      -4.039   4.510  15.516  1.00  0.00     0.111 A 
ATOM      9  C   UNL     1      -1.697   4.148  16.064  1.00  0.00     0.094 A 
ATOM     10  C   UNL     1      -4.394   3.423  16.352  1.00  0.00     0.134 A 
ATOM     11  C   UNL     1      -2.055   3.051  16.861  1.00  0.00     0.123 A 
ATOM     12  C   UNL     1      -3.394   2.686  17.010  1.00  0.00     0.093 A 
BRANCH   3  13
ATOM     13  C   UNL     1      -2.649   7.857  13.299  1.00  0.00     0.025 A 
ATOM     14  C   UNL     1      -1.708   8.733  13.852  1.00  0.00     0.016 A 
ATOM     15  C   UNL     1      -1.251   9.832  13.112  1.00  0.00     0.051 A 
ATOM     16  C   UNL     1      -1.732  10.058  11.813  1.00  0.00     0.157 A 
ATOM     17  C   UNL     1      -3.113   8.075  11.997  1.00  0.00     0.062 A 
ATOM     18  C   UNL     1      -2.659   9.165  11.253  1.00  0.00     0.158 A 
BRANCH  16  19
ATOM     19  O   UNL     1      -1.270  11.125  11.045  1.00  0.00    -0.504 OA
ATOM     20  H   UNL     1      -0.620  10.980  10.283  1.00  0.00     0.293 HD
ENDBRANCH  16  19
BRANCH  18  21
ATOM     21  O   UNL     1      -3.122   9.325   9.939  1.00  0.00    -0.504 OA
ATOM     22  H   UNL     1      -2.521   9.624   9.173  1.00  0.00     0.293 HD
ENDBRANCH  18  21
ENDBRANCH   3  13
BRANCH  10  23
ATOM     23  O   UNL     1      -5.743   3.056  16.546  1.00  0.00    -0.507 OA
ATOM     24  H   UNL     1      -6.149   2.999  17.475  1.00  0.00     0.293 HD
ENDBRANCH  10  23
BRANCH  11  25
ATOM     25  O   UNL     1      -1.052   2.352  17.540  1.00  0.00    -0.508 OA
ATOM     26  H   UNL     1      -0.521   1.620  17.068  1.00  0.00     0.293 HD
ENDBRANCH  11  25
ENDBRANCH   1   2
BRANCH   1  27
ATOM     27  C   UNL     1      -6.932   7.411  13.615  1.00  0.00     0.339 C 
ATOM     28  C   UNL     1      -7.484   7.214  12.181  1.00  0.00     0.214 C 
ATOM     29  O   UNL     1      -7.467   8.511  14.355  1.00  0.00    -0.332 OA
ATOM     30  C   UNL     1      -7.514   8.536  11.402  1.00  0.00     0.180 C 
ATOM     31  C   UNL     1      -7.568   9.752  13.663  1.00  0.00     0.179 C 
ATOM     32  C   UNL     1      -8.191   9.646  12.250  1.00  0.00     0.177 C 
BRANCH  28  33
ATOM     33  O   UNL     1      -6.685   6.262  11.495  1.00  0.00    -0.384 OA
ATOM     34  H   UNL     1      -6.413   6.672  10.612  1.00  0.00     0.211 HD
ENDBRANCH  28  33
BRANCH  30  35
ATOM     35  O   UNL     1      -6.227   8.950  11.010  1.00  0.00    -0.387 OA
ATOM     36  H   UNL     1      -6.284   9.915  10.794  1.00  0.00     0.211 HD
ENDBRANCH  30  35
BRANCH  31  37
ATOM     37  C   UNL     1      -6.309  10.620  13.783  1.00  0.00     0.191 C 
BRANCH  37  38
ATOM     38  O   UNL     1      -5.618  10.360  14.960  1.00  0.00    -0.394 OA
ATOM     39  H   UNL     1      -5.531   9.376  15.005  1.00  0.00     0.210 HD
ENDBRANCH  37  38
ENDBRANCH  31  37
BRANCH  32  40
ATOM     40  O   UNL     1      -9.579   9.404  12.394  1.00  0.00    -0.387 OA
ATOM     41  H   UNL     1      -9.876   8.789  11.667  1.00  0.00     0.211 HD
ENDBRANCH  32  40
ENDBRANCH   1  27
TORSDOF 12
ENDMDL
