MODEL 1
REMARK VINA RESULT:    -0.535      0.000      0.000
REMARK INTER + INTRA:           0.214
REMARK INTER:                  -0.910
REMARK INTRA:                   1.124
REMARK UNBOUND:                 1.124
REMARK SMILES CCCCCCCCCCCCCC(=O)[O-]
REMARK SMILES IDX 8 1 9 2 10 3 11 4 12 5 13 6 14 7 15 8 16 9 7 10 6 11 5 12
REMARK SMILES IDX 4 13 3 14 2 15 1 16
REMARK H PARENT
REMARK Flexibility Score: inf
ROOT
ATOM      1  C   UNL     1      -7.355  -9.198 -12.539  1.00  0.00     0.000 C 
ENDROOT
BRANCH   1   2
ATOM      2  C   UNL     1      -7.082  -9.967 -13.844  1.00  0.00     0.000 C 
BRANCH   2   3
ATOM      3  C   UNL     1      -6.209 -11.217 -13.631  1.00  0.00     0.000 C 
BRANCH   3   4
ATOM      4  C   UNL     1      -4.689 -10.969 -13.681  1.00  0.00     0.000 C 
BRANCH   4   5
ATOM      5  C   UNL     1      -4.269  -9.552 -14.123  1.00  0.00     0.006 C 
BRANCH   5   6
ATOM      6  C   UNL     1      -4.849  -8.420 -13.262  1.00  0.00     0.053 C 
BRANCH   6   7
ATOM      7  C   UNL     1      -4.072  -7.148 -13.414  1.00  0.00     0.041 C 
ATOM      8  O   UNL     1      -2.915  -7.049 -12.926  1.00  0.00    -0.550 OA
ATOM      9  O   UNL     1      -4.613  -6.084 -14.124  1.00  0.00    -0.550 OA
ENDBRANCH   6   7
ENDBRANCH   5   6
ENDBRANCH   4   5
ENDBRANCH   3   4
ENDBRANCH   2   3
ENDBRANCH   1   2
BRANCH   1  10
ATOM     10  C   UNL     1      -8.625  -9.696 -11.816  1.00  0.00     0.000 C 
BRANCH  10  11
ATOM     11  C   UNL     1      -9.842  -9.879 -12.743  1.00  0.00    -0.000 C 
BRANCH  11  12
ATOM     12  C   UNL     1     -10.500 -11.268 -12.686  1.00  0.00    -0.000 C 
BRANCH  12  13
ATOM     13  C   UNL     1     -10.319 -12.020 -11.353  1.00  0.00    -0.000 C 
BRANCH  13  14
ATOM     14  C   UNL     1     -11.069 -11.375 -10.169  1.00  0.00    -0.000 C 
BRANCH  14  15
ATOM     15  C   UNL     1     -10.227 -11.350  -8.885  1.00  0.00    -0.003 C 
ATOM     16  C   UNL     1     -11.108 -11.495  -7.648  1.00  0.00     0.004 C 
ENDBRANCH  14  15
ENDBRANCH  13  14
ENDBRANCH  12  13
ENDBRANCH  11  12
ENDBRANCH  10  11
ENDBRANCH   1  10
TORSDOF 12
ENDMDL
MODEL 2
REMARK VINA RESULT:     0.418     20.446     22.485
REMARK INTER + INTRA:           1.835
REMARK INTER:                   2.091
REMARK INTRA:                  -0.256
REMARK UNBOUND:                 1.124
REMARK SMILES CCCCCCCCCCCCCC(=O)[O-]
REMARK SMILES IDX 8 1 9 2 10 3 11 4 12 5 13 6 14 7 15 8 16 9 7 10 6 11 5 12
REMARK SMILES IDX 4 13 3 14 2 15 1 16
REMARK H PARENT
REMARK Flexibility Score: inf
ROOT
ATOM      1  C   UNL     1       4.135   7.503  -6.205  1.00  0.00     0.000 C 
ENDROOT
BRANCH   1   2
ATOM      2  C   UNL     1       3.017   7.863  -5.211  1.00  0.00     0.000 C 
BRANCH   2   3
ATOM      3  C   UNL     1       3.503   7.907  -3.752  1.00  0.00     0.000 C 
BRANCH   3   4
ATOM      4  C   UNL     1       2.397   8.121  -2.701  1.00  0.00     0.000 C 
BRANCH   4   5
ATOM      5  C   UNL     1       2.829   7.891  -1.238  1.00  0.00     0.006 C 
BRANCH   5   6
ATOM      6  C   UNL     1       1.696   7.433  -0.306  1.00  0.00     0.053 C 
BRANCH   6   7
ATOM      7  C   UNL     1       2.078   6.219   0.484  1.00  0.00     0.041 C 
ATOM      8  O   UNL     1       1.205   5.583   1.132  1.00  0.00    -0.550 OA
ATOM      9  O   UNL     1       3.392   5.770   0.475  1.00  0.00    -0.550 OA
ENDBRANCH   6   7
ENDBRANCH   5   6
ENDBRANCH   4   5
ENDBRANCH   3   4
ENDBRANCH   2   3
ENDBRANCH   1   2
BRANCH   1  10
ATOM     10  C   UNL     1       3.882   8.081  -7.614  1.00  0.00     0.000 C 
BRANCH  10  11
ATOM     11  C   UNL     1       4.462   7.223  -8.755  1.00  0.00    -0.000 C 
BRANCH  11  12
ATOM     12  C   UNL     1       4.114   7.707 -10.173  1.00  0.00    -0.000 C 
BRANCH  12  13
ATOM     13  C   UNL     1       4.660   6.827 -11.314  1.00  0.00    -0.000 C 
BRANCH  13  14
ATOM     14  C   UNL     1       4.383   7.394 -12.722  1.00  0.00    -0.000 C 
BRANCH  14  15
ATOM     15  C   UNL     1       3.231   6.666 -13.431  1.00  0.00    -0.003 C 
ATOM     16  C   UNL     1       2.141   7.646 -13.855  1.00  0.00     0.004 C 
ENDBRANCH  14  15
ENDBRANCH  13  14
ENDBRANCH  12  13
ENDBRANCH  11  12
ENDBRANCH  10  11
ENDBRANCH   1  10
TORSDOF 12
ENDMDL
MODEL 3
REMARK VINA RESULT:     0.511      5.424      7.928
REMARK INTER + INTRA:           1.994
REMARK INTER:                   2.339
REMARK INTRA:                  -0.344
REMARK UNBOUND:                 1.124
REMARK SMILES CCCCCCCCCCCCCC(=O)[O-]
REMARK SMILES IDX 8 1 9 2 10 3 11 4 12 5 13 6 14 7 15 8 16 9 7 10 6 11 5 12
REMARK SMILES IDX 4 13 3 14 2 15 1 16
REMARK H PARENT
REMARK Flexibility Score: inf
ROOT
ATOM      1  C   UNL     1      -2.135  -5.964 -13.333  1.00  0.00     0.000 C 
ENDROOT
BRANCH   1   2
ATOM      2  C   UNL     1      -1.436  -4.817 -14.084  1.00  0.00     0.000 C 
BRANCH   2   3
ATOM      3  C   UNL     1       0.094  -4.973 -14.125  1.00  0.00     0.000 C 
BRANCH   3   4
ATOM      4  C   UNL     1       0.890  -3.676 -13.881  1.00  0.00     0.000 C 
BRANCH   4   5
ATOM      5  C   UNL     1       2.420  -3.806 -14.028  1.00  0.00     0.006 C 
BRANCH   5   6
ATOM      6  C   UNL     1       3.220  -2.673 -13.368  1.00  0.00     0.053 C 
BRANCH   6   7
ATOM      7  C   UNL     1       4.652  -3.052 -13.152  1.00  0.00     0.041 C 
ATOM      8  O   UNL     1       5.350  -3.472 -14.112  1.00  0.00    -0.550 OA
ATOM      9  O   UNL     1       5.227  -2.910 -11.895  1.00  0.00    -0.550 OA
ENDBRANCH   6   7
ENDBRANCH   5   6
ENDBRANCH   4   5
ENDBRANCH   3   4
ENDBRANCH   2   3
ENDBRANCH   1   2
BRANCH   1  10
ATOM     10  C   UNL     1      -3.350  -6.521 -14.105  1.00  0.00     0.000 C 
BRANCH  10  11
ATOM     11  C   UNL     1      -4.178  -7.550 -13.310  1.00  0.00    -0.000 C 
BRANCH  11  12
ATOM     12  C   UNL     1      -4.648  -8.771 -14.119  1.00  0.00    -0.000 C 
BRANCH  12  13
ATOM     13  C   UNL     1      -4.536 -10.121 -13.386  1.00  0.00    -0.000 C 
BRANCH  13  14
ATOM     14  C   UNL     1      -5.840 -10.558 -12.686  1.00  0.00    -0.000 C 
BRANCH  14  15
ATOM     15  C   UNL     1      -7.076  -9.841 -13.250  1.00  0.00    -0.003 C 
ATOM     16  C   UNL     1      -7.934 -10.793 -14.078  1.00  0.00     0.004 C 
ENDBRANCH  14  15
ENDBRANCH  13  14
ENDBRANCH  12  13
ENDBRANCH  11  12
ENDBRANCH  10  11
ENDBRANCH   1  10
TORSDOF 12
ENDMDL
MODEL 4
REMARK VINA RESULT:     1.672      6.944     10.146
REMARK INTER + INTRA:           3.969
REMARK INTER:                   4.385
REMARK INTRA:                  -0.415
REMARK UNBOUND:                 1.124
REMARK SMILES CCCCCCCCCCCCCC(=O)[O-]
REMARK SMILES IDX 8 1 9 2 10 3 11 4 12 5 13 6 14 7 15 8 16 9 7 10 6 11 5 12
REMARK SMILES IDX 4 13 3 14 2 15 1 16
REMARK H PARENT
REMARK Flexibility Score: inf
ROOT
ATOM      1  C   UNL     1       0.348  -3.686 -13.770  1.00  0.00     0.000 C 
ENDROOT
BRANCH   1   2
ATOM      2  C   UNL     1       1.553  -4.584 -14.098  1.00  0.00     0.000 C 
BRANCH   2   3
ATOM      3  C   UNL     1       2.885  -3.813 -14.124  1.00  0.00     0.000 C 
BRANCH   3   4
ATOM      4  C   UNL     1       3.266  -3.121 -12.801  1.00  0.00     0.000 C 
BRANCH   4   5
ATOM      5  C   UNL     1       4.732  -2.653 -12.703  1.00  0.00     0.006 C 
BRANCH   5   6
ATOM      6  C   UNL     1       5.708  -3.429 -13.601  1.00  0.00     0.053 C 
BRANCH   6   7
ATOM      7  C   UNL     1       6.569  -4.366 -12.811  1.00  0.00     0.041 C 
ATOM      8  O   UNL     1       6.892  -4.085 -11.627  1.00  0.00    -0.550 OA
ATOM      9  O   UNL     1       6.987  -5.566 -13.372  1.00  0.00    -0.550 OA
ENDBRANCH   6   7
ENDBRANCH   5   6
ENDBRANCH   4   5
ENDBRANCH   3   4
ENDBRANCH   2   3
ENDBRANCH   1   2
BRANCH   1  10
ATOM     10  C   UNL     1      -0.798  -4.462 -13.087  1.00  0.00     0.000 C 
BRANCH  10  11
ATOM     11  C   UNL     1      -1.853  -5.012 -14.068  1.00  0.00    -0.000 C 
BRANCH  11  12
ATOM     12  C   UNL     1      -3.075  -5.671 -13.406  1.00  0.00    -0.000 C 
BRANCH  12  13
ATOM     13  C   UNL     1      -3.607  -6.926 -14.124  1.00  0.00    -0.000 C 
BRANCH  13  14
ATOM     14  C   UNL     1      -4.505  -7.815 -13.238  1.00  0.00    -0.000 C 
BRANCH  14  15
ATOM     15  C   UNL     1      -4.645  -9.241 -13.790  1.00  0.00    -0.003 C 
ATOM     16  C   UNL     1      -3.611 -10.175 -13.170  1.00  0.00     0.004 C 
ENDBRANCH  14  15
ENDBRANCH  13  14
ENDBRANCH  12  13
ENDBRANCH  11  12
ENDBRANCH  10  11
ENDBRANCH   1  10
TORSDOF 12
ENDMDL
MODEL 5
REMARK VINA RESULT:     1.709      8.096     12.845
REMARK INTER + INTRA:           4.032
REMARK INTER:                   4.477
REMARK INTRA:                  -0.445
REMARK UNBOUND:                 1.124
REMARK SMILES CCCCCCCCCCCCCC(=O)[O-]
REMARK SMILES IDX 8 1 9 2 10 3 11 4 12 5 13 6 14 7 15 8 16 9 7 10 6 11 5 12
REMARK SMILES IDX 4 13 3 14 2 15 1 16
REMARK H PARENT
REMARK Flexibility Score: inf
ROOT
ATOM      1  C   UNL     1       4.892  -2.879 -12.665  1.00  0.00     0.000 C 
ENDROOT
BRANCH   1   2
ATOM      2  C   UNL     1       3.417  -2.509 -12.899  1.00  0.00     0.000 C 
BRANCH   2   3
ATOM      3  C   UNL     1       2.731  -3.410 -13.942  1.00  0.00     0.000 C 
BRANCH   3   4
ATOM      4  C   UNL     1       1.205  -3.232 -14.056  1.00  0.00     0.000 C 
BRANCH   4   5
ATOM      5  C   UNL     1       0.395  -4.543 -14.124  1.00  0.00     0.006 C 
BRANCH   5   6
ATOM      6  C   UNL     1      -1.127  -4.356 -14.017  1.00  0.00     0.053 C 
BRANCH   6   7
ATOM      7  C   UNL     1      -1.748  -5.349 -13.084  1.00  0.00     0.041 C 
ATOM      8  O   UNL     1      -1.364  -5.421 -11.887  1.00  0.00    -0.550 OA
ATOM      9  O   UNL     1      -2.775  -6.173 -13.528  1.00  0.00    -0.550 OA
ENDBRANCH   6   7
ENDBRANCH   5   6
ENDBRANCH   4   5
ENDBRANCH   3   4
ENDBRANCH   2   3
ENDBRANCH   1   2
BRANCH   1  10
ATOM     10  C   UNL     1       5.684  -3.008 -13.984  1.00  0.00     0.000 C 
BRANCH  10  11
ATOM     11  C   UNL     1       6.911  -3.936 -13.888  1.00  0.00    -0.000 C 
BRANCH  11  12
ATOM     12  C   UNL     1       6.619  -5.427 -14.125  1.00  0.00    -0.000 C 
BRANCH  12  13
ATOM     13  C   UNL     1       5.184  -5.872 -13.781  1.00  0.00    -0.000 C 
BRANCH  13  14
ATOM     14  C   UNL     1       4.967  -7.397 -13.883  1.00  0.00    -0.000 C 
BRANCH  14  15
ATOM     15  C   UNL     1       3.482  -7.770 -14.007  1.00  0.00    -0.003 C 
ATOM     16  C   UNL     1       3.294  -9.283 -14.012  1.00  0.00     0.004 C 
ENDBRANCH  14  15
ENDBRANCH  13  14
ENDBRANCH  12  13
ENDBRANCH  11  12
ENDBRANCH  10  11
ENDBRANCH   1  10
TORSDOF 12
ENDMDL
MODEL 6
REMARK VINA RESULT:     1.929      7.896     11.424
REMARK INTER + INTRA:           4.407
REMARK INTER:                   3.907
REMARK INTRA:                   0.500
REMARK UNBOUND:                 1.124
REMARK SMILES CCCCCCCCCCCCCC(=O)[O-]
REMARK SMILES IDX 8 1 9 2 10 3 11 4 12 5 13 6 14 7 15 8 16 9 7 10 6 11 5 12
REMARK SMILES IDX 4 13 3 14 2 15 1 16
REMARK H PARENT
REMARK Flexibility Score: inf
ROOT
ATOM      1  C   UNL     1       2.473  -2.706 -13.668  1.00  0.00     0.000 C 
ENDROOT
BRANCH   1   2
ATOM      2  C   UNL     1       3.907  -3.254 -13.569  1.00  0.00     0.000 C 
BRANCH   2   3
ATOM      3  C   UNL     1       4.041  -4.683 -14.125  1.00  0.00     0.000 C 
BRANCH   3   4
ATOM      4  C   UNL     1       5.260  -5.473 -13.610  1.00  0.00     0.000 C 
BRANCH   4   5
ATOM      5  C   UNL     1       6.633  -4.895 -14.009  1.00  0.00     0.006 C 
BRANCH   5   6
ATOM      6  C   UNL     1       6.993  -3.573 -13.313  1.00  0.00     0.053 C 
BRANCH   6   7
ATOM      7  C   UNL     1       6.626  -3.589 -11.861  1.00  0.00     0.041 C 
ATOM      8  O   UNL     1       6.044  -2.600 -11.342  1.00  0.00    -0.550 OA
ATOM      9  O   UNL     1       6.896  -4.712 -11.088  1.00  0.00    -0.550 OA
ENDBRANCH   6   7
ENDBRANCH   5   6
ENDBRANCH   4   5
ENDBRANCH   3   4
ENDBRANCH   2   3
ENDBRANCH   1   2
BRANCH   1  10
ATOM     10  C   UNL     1       1.447  -3.799 -14.035  1.00  0.00     0.000 C 
BRANCH  10  11
ATOM     11  C   UNL     1       0.059  -3.593 -13.398  1.00  0.00    -0.000 C 
BRANCH  11  12
ATOM     12  C   UNL     1      -0.759  -4.879 -13.191  1.00  0.00    -0.000 C 
BRANCH  12  13
ATOM     13  C   UNL     1      -1.990  -5.023 -14.107  1.00  0.00    -0.000 C 
BRANCH  13  14
ATOM     14  C   UNL     1      -3.182  -5.737 -13.436  1.00  0.00    -0.000 C 
BRANCH  14  15
ATOM     15  C   UNL     1      -3.513  -7.080 -14.104  1.00  0.00    -0.003 C 
ATOM     16  C   UNL     1      -4.310  -7.980 -13.166  1.00  0.00     0.004 C 
ENDBRANCH  14  15
ENDBRANCH  13  14
ENDBRANCH  12  13
ENDBRANCH  11  12
ENDBRANCH  10  11
ENDBRANCH   1  10
TORSDOF 12
ENDMDL
MODEL 7
REMARK VINA RESULT:     2.149      8.675     13.809
REMARK INTER + INTRA:           4.781
REMARK INTER:                   4.904
REMARK INTRA:                  -0.123
REMARK UNBOUND:                 1.124
REMARK SMILES CCCCCCCCCCCCCC(=O)[O-]
REMARK SMILES IDX 8 1 9 2 10 3 11 4 12 5 13 6 14 7 15 8 16 9 7 10 6 11 5 12
REMARK SMILES IDX 4 13 3 14 2 15 1 16
REMARK H PARENT
REMARK Flexibility Score: inf
ROOT
ATOM      1  C   UNL     1       4.456  -1.807 -12.202  1.00  0.00     0.000 C 
ENDROOT
BRANCH   1   2
ATOM      2  C   UNL     1       3.779  -1.786 -13.583  1.00  0.00     0.000 C 
BRANCH   2   3
ATOM      3  C   UNL     1       3.040  -3.097 -13.908  1.00  0.00     0.000 C 
BRANCH   3   4
ATOM      4  C   UNL     1       1.568  -3.147 -13.456  1.00  0.00     0.000 C 
BRANCH   4   5
ATOM      5  C   UNL     1       0.729  -4.283 -14.076  1.00  0.00     0.006 C 
BRANCH   5   6
ATOM      6  C   UNL     1      -0.781  -4.003 -14.125  1.00  0.00     0.053 C 
BRANCH   6   7
ATOM      7  C   UNL     1      -1.572  -5.089 -13.463  1.00  0.00     0.041 C 
ATOM      8  O   UNL     1      -2.498  -5.670 -14.088  1.00  0.00    -0.550 OA
ATOM      9  O   UNL     1      -1.264  -5.483 -12.167  1.00  0.00    -0.550 OA
ENDBRANCH   6   7
ENDBRANCH   5   6
ENDBRANCH   4   5
ENDBRANCH   3   4
ENDBRANCH   2   3
ENDBRANCH   1   2
BRANCH   1  10
ATOM     10  C   UNL     1       5.944  -2.210 -12.281  1.00  0.00     0.000 C 
BRANCH  10  11
ATOM     11  C   UNL     1       6.553  -2.085 -13.691  1.00  0.00    -0.000 C 
BRANCH  11  12
ATOM     12  C   UNL     1       7.596  -3.158 -14.046  1.00  0.00    -0.000 C 
BRANCH  12  13
ATOM     13  C   UNL     1       7.051  -4.597 -14.119  1.00  0.00    -0.000 C 
BRANCH  13  14
ATOM     14  C   UNL     1       6.042  -4.936 -13.001  1.00  0.00    -0.000 C 
BRANCH  14  15
ATOM     15  C   UNL     1       4.858  -5.769 -13.514  1.00  0.00    -0.003 C 
ATOM     16  C   UNL     1       5.221  -7.249 -13.594  1.00  0.00     0.004 C 
ENDBRANCH  14  15
ENDBRANCH  13  14
ENDBRANCH  12  13
ENDBRANCH  11  12
ENDBRANCH  10  11
ENDBRANCH   1  10
TORSDOF 12
ENDMDL
MODEL 8
REMARK VINA RESULT:     2.320      1.621      2.256
REMARK INTER + INTRA:           5.072
REMARK INTER:                   5.608
REMARK INTRA:                  -0.536
REMARK UNBOUND:                 1.124
REMARK SMILES CCCCCCCCCCCCCC(=O)[O-]
REMARK SMILES IDX 8 1 9 2 10 3 11 4 12 5 13 6 14 7 15 8 16 9 7 10 6 11 5 12
REMARK SMILES IDX 4 13 3 14 2 15 1 16
REMARK H PARENT
REMARK Flexibility Score: inf
ROOT
ATOM      1  C   UNL     1      -8.002  -9.866 -12.259  1.00  0.00     0.000 C 
ENDROOT
BRANCH   1   2
ATOM      2  C   UNL     1      -8.267 -10.472 -13.648  1.00  0.00     0.000 C 
BRANCH   2   3
ATOM      3  C   UNL     1      -7.791 -11.931 -13.765  1.00  0.00     0.000 C 
BRANCH   3   4
ATOM      4  C   UNL     1      -6.263 -12.125 -13.727  1.00  0.00     0.000 C 
BRANCH   4   5
ATOM      5  C   UNL     1      -5.433 -10.887 -14.125  1.00  0.00     0.006 C 
BRANCH   5   6
ATOM      6  C   UNL     1      -4.592 -10.293 -12.985  1.00  0.00     0.053 C 
BRANCH   6   7
ATOM      7  C   UNL     1      -3.161 -10.104 -13.387  1.00  0.00     0.041 C 
ATOM      8  O   UNL     1      -2.662  -8.948 -13.431  1.00  0.00    -0.550 OA
ATOM      9  O   UNL     1      -2.370 -11.207 -13.679  1.00  0.00    -0.550 OA
ENDBRANCH   6   7
ENDBRANCH   5   6
ENDBRANCH   4   5
ENDBRANCH   3   4
ENDBRANCH   2   3
ENDBRANCH   1   2
BRANCH   1  10
ATOM     10  C   UNL     1      -9.305  -9.574 -11.484  1.00  0.00     0.000 C 
BRANCH  10  11
ATOM     11  C   UNL     1     -10.499 -10.448 -11.916  1.00  0.00    -0.000 C 
BRANCH  11  12
ATOM     12  C   UNL     1     -11.082 -11.344 -10.810  1.00  0.00    -0.000 C 
BRANCH  12  13
ATOM     13  C   UNL     1     -10.145 -11.594  -9.612  1.00  0.00    -0.000 C 
BRANCH  13  14
ATOM     14  C   UNL     1     -10.761 -11.205  -8.251  1.00  0.00    -0.000 C 
BRANCH  14  15
ATOM     15  C   UNL     1     -10.103 -11.946  -7.077  1.00  0.00    -0.003 C 
ATOM     16  C   UNL     1     -10.832 -11.658  -5.768  1.00  0.00     0.004 C 
ENDBRANCH  14  15
ENDBRANCH  13  14
ENDBRANCH  12  13
ENDBRANCH  11  12
ENDBRANCH  10  11
ENDBRANCH   1  10
TORSDOF 12
ENDMDL
