MODEL 1
REMARK VINA RESULT:    -5.034      0.000      0.000
REMARK INTER + INTRA:         -16.751
REMARK INTER:                 -12.686
REMARK INTRA:                  -4.066
REMARK UNBOUND:                -4.066
REMARK SMILES CCCCCCCCCCCCCCCCCCCCCCCCCCCC(=O)[O-]
REMARK SMILES IDX 15 1 16 2 17 3 18 4 19 5 20 6 21 7 22 8 23 9 24 10 25 11
REMARK SMILES IDX 26 12 27 13 28 14 29 15 30 16 14 17 13 18 12 19 11 20 10 21
REMARK SMILES IDX 9 22 8 23 7 24 6 25 5 26 4 27 3 28 2 29 1 30
REMARK H PARENT
REMARK Flexibility Score: inf
ROOT
ATOM      1  C   UNL     1      60.959 151.686   5.433  1.00  0.00     0.000 C 
ENDROOT
BRANCH   1   2
ATOM      2  C   UNL     1      59.592 152.006   6.063  1.00  0.00     0.000 C 
BRANCH   2   3
ATOM      3  C   UNL     1      59.688 152.260   7.575  1.00  0.00     0.000 C 
BRANCH   3   4
ATOM      4  C   UNL     1      59.054 153.598   7.995  1.00  0.00     0.000 C 
BRANCH   4   5
ATOM      5  C   UNL     1      60.060 154.550   8.670  1.00  0.00     0.000 C 
BRANCH   5   6
ATOM      6  C   UNL     1      60.951 155.342   7.697  1.00  0.00     0.000 C 
BRANCH   6   7
ATOM      7  C   UNL     1      60.296 155.546   6.319  1.00  0.00     0.000 C 
BRANCH   7   8
ATOM      8  C   UNL     1      59.347 156.753   6.292  1.00  0.00     0.000 C 
BRANCH   8   9
ATOM      9  C   UNL     1      58.084 156.489   5.456  1.00  0.00     0.000 C 
BRANCH   9  10
ATOM     10  C   UNL     1      58.083 155.100   4.795  1.00  0.00     0.000 C 
BRANCH  10  11
ATOM     11  C   UNL     1      58.397 155.133   3.285  1.00  0.00     0.000 C 
BRANCH  11  12
ATOM     12  C   UNL     1      58.952 153.791   2.776  1.00  0.00     0.006 C 
BRANCH  12  13
ATOM     13  C   UNL     1      59.196 153.802   1.261  1.00  0.00     0.053 C 
BRANCH  13  14
ATOM     14  C   UNL     1      60.634 153.540   0.931  1.00  0.00     0.041 C 
ATOM     15  O   UNL     1      61.173 154.111  -0.055  1.00  0.00    -0.550 OA
ATOM     16  O   UNL     1      61.371 152.643   1.693  1.00  0.00    -0.550 OA
ENDBRANCH  13  14
ENDBRANCH  12  13
ENDBRANCH  11  12
ENDBRANCH  10  11
ENDBRANCH   9  10
ENDBRANCH   8   9
ENDBRANCH   7   8
ENDBRANCH   6   7
ENDBRANCH   5   6
ENDBRANCH   4   5
ENDBRANCH   3   4
ENDBRANCH   2   3
ENDBRANCH   1   2
BRANCH   1  17
ATOM     17  C   UNL     1      62.134 152.090   6.337  1.00  0.00     0.000 C 
BRANCH  17  18
ATOM     18  C   UNL     1      63.189 152.933   5.598  1.00  0.00     0.000 C 
BRANCH  18  19
ATOM     19  C   UNL     1      64.597 152.312   5.650  1.00  0.00     0.000 C 
BRANCH  19  20
ATOM     20  C   UNL     1      65.083 151.690   4.328  1.00  0.00     0.000 C 
BRANCH  20  21
ATOM     21  C   UNL     1      64.576 150.253   4.120  1.00  0.00     0.000 C 
BRANCH  21  22
ATOM     22  C   UNL     1      64.801 149.355   5.351  1.00  0.00    -0.000 C 
BRANCH  22  23
ATOM     23  C   UNL     1      63.517 148.903   6.079  1.00  0.00    -0.000 C 
BRANCH  23  24
ATOM     24  C   UNL     1      62.651 147.888   5.307  1.00  0.00    -0.000 C 
BRANCH  24  25
ATOM     25  C   UNL     1      61.257 147.633   5.913  1.00  0.00    -0.000 C 
BRANCH  25  26
ATOM     26  C   UNL     1      60.987 148.350   7.252  1.00  0.00    -0.000 C 
BRANCH  26  27
ATOM     27  C   UNL     1      59.517 148.730   7.507  1.00  0.00    -0.000 C 
BRANCH  27  28
ATOM     28  C   UNL     1      58.782 147.710   8.393  1.00  0.00    -0.000 C 
BRANCH  28  29
ATOM     29  C   UNL     1      59.699 146.572   8.866  1.00  0.00    -0.003 C 
ATOM     30  C   UNL     1      59.430 145.252   8.142  1.00  0.00     0.004 C 
ENDBRANCH  28  29
ENDBRANCH  27  28
ENDBRANCH  26  27
ENDBRANCH  25  26
ENDBRANCH  24  25
ENDBRANCH  23  24
ENDBRANCH  22  23
ENDBRANCH  21  22
ENDBRANCH  20  21
ENDBRANCH  19  20
ENDBRANCH  18  19
ENDBRANCH  17  18
ENDBRANCH   1  17
TORSDOF 26
ENDMDL
MODEL 2
REMARK VINA RESULT:    -4.758      2.028      5.267
REMARK INTER + INTRA:         -16.055
REMARK INTER:                 -11.657
REMARK INTRA:                  -4.398
REMARK UNBOUND:                -4.066
REMARK SMILES CCCCCCCCCCCCCCCCCCCCCCCCCCCC(=O)[O-]
REMARK SMILES IDX 15 1 16 2 17 3 18 4 19 5 20 6 21 7 22 8 23 9 24 10 25 11
REMARK SMILES IDX 26 12 27 13 28 14 29 15 30 16 14 17 13 18 12 19 11 20 10 21
REMARK SMILES IDX 9 22 8 23 7 24 6 25 5 26 4 27 3 28 2 29 1 30
REMARK H PARENT
REMARK Flexibility Score: inf
ROOT
ATOM      1  C   UNL     1      61.670 151.667   3.414  1.00  0.00     0.000 C 
ENDROOT
BRANCH   1   2
ATOM      2  C   UNL     1      60.617 151.746   2.295  1.00  0.00     0.000 C 
BRANCH   2   3
ATOM      3  C   UNL     1      60.216 153.193   1.968  1.00  0.00     0.000 C 
BRANCH   3   4
ATOM      4  C   UNL     1      58.700 153.432   2.089  1.00  0.00     0.000 C 
BRANCH   4   5
ATOM      5  C   UNL     1      58.308 154.905   1.869  1.00  0.00     0.000 C 
BRANCH   5   6
ATOM      6  C   UNL     1      57.952 155.676   3.152  1.00  0.00     0.000 C 
BRANCH   6   7
ATOM      7  C   UNL     1      58.280 154.889   4.432  1.00  0.00     0.000 C 
BRANCH   7   8
ATOM      8  C   UNL     1      59.227 155.656   5.367  1.00  0.00     0.000 C 
BRANCH   8   9
ATOM      9  C   UNL     1      58.631 155.857   6.770  1.00  0.00     0.000 C 
BRANCH   9  10
ATOM     10  C   UNL     1      58.182 154.541   7.425  1.00  0.00     0.000 C 
BRANCH  10  11
ATOM     11  C   UNL     1      59.032 154.138   8.648  1.00  0.00     0.000 C 
BRANCH  11  12
ATOM     12  C   UNL     1      60.125 155.174   8.964  1.00  0.00     0.006 C 
BRANCH  12  13
ATOM     13  C   UNL     1      61.536 154.585   8.840  1.00  0.00     0.053 C 
BRANCH  13  14
ATOM     14  C   UNL     1      62.211 155.028   7.578  1.00  0.00     0.041 C 
ATOM     15  O   UNL     1      62.158 156.235   7.219  1.00  0.00    -0.550 OA
ATOM     16  O   UNL     1      62.873 154.103   6.781  1.00  0.00    -0.550 OA
ENDBRANCH  13  14
ENDBRANCH  12  13
ENDBRANCH  11  12
ENDBRANCH  10  11
ENDBRANCH   9  10
ENDBRANCH   8   9
ENDBRANCH   7   8
ENDBRANCH   6   7
ENDBRANCH   5   6
ENDBRANCH   4   5
ENDBRANCH   3   4
ENDBRANCH   2   3
ENDBRANCH   1   2
BRANCH   1  17
ATOM     17  C   UNL     1      61.206 152.349   4.710  1.00  0.00     0.000 C 
BRANCH  17  18
ATOM     18  C   UNL     1      59.946 151.696   5.306  1.00  0.00     0.000 C 
BRANCH  18  19
ATOM     19  C   UNL     1      60.001 151.575   6.840  1.00  0.00     0.000 C 
BRANCH  19  20
ATOM     20  C   UNL     1      61.393 151.257   7.418  1.00  0.00     0.000 C 
BRANCH  20  21
ATOM     21  C   UNL     1      61.329 150.630   8.821  1.00  0.00     0.000 C 
BRANCH  21  22
ATOM     22  C   UNL     1      61.442 149.094   8.796  1.00  0.00    -0.000 C 
BRANCH  22  23
ATOM     23  C   UNL     1      60.310 148.364   8.044  1.00  0.00    -0.000 C 
BRANCH  23  24
ATOM     24  C   UNL     1      60.764 147.531   6.829  1.00  0.00    -0.000 C 
BRANCH  24  25
ATOM     25  C   UNL     1      61.454 148.338   5.712  1.00  0.00    -0.000 C 
BRANCH  25  26
ATOM     26  C   UNL     1      62.925 147.960   5.448  1.00  0.00    -0.000 C 
BRANCH  26  27
ATOM     27  C   UNL     1      63.952 149.067   5.753  1.00  0.00    -0.000 C 
BRANCH  27  28
ATOM     28  C   UNL     1      64.964 149.273   4.614  1.00  0.00    -0.000 C 
BRANCH  28  29
ATOM     29  C   UNL     1      64.993 150.723   4.107  1.00  0.00    -0.003 C 
ATOM     30  C   UNL     1      64.944 151.749   5.240  1.00  0.00     0.004 C 
ENDBRANCH  28  29
ENDBRANCH  27  28
ENDBRANCH  26  27
ENDBRANCH  25  26
ENDBRANCH  24  25
ENDBRANCH  23  24
ENDBRANCH  22  23
ENDBRANCH  21  22
ENDBRANCH  20  21
ENDBRANCH  19  20
ENDBRANCH  18  19
ENDBRANCH  17  18
ENDBRANCH   1  17
TORSDOF 26
ENDMDL
MODEL 3
REMARK VINA RESULT:    -4.609      1.084      4.338
REMARK INTER + INTRA:         -15.679
REMARK INTER:                 -12.620
REMARK INTRA:                  -3.059
REMARK UNBOUND:                -4.066
REMARK SMILES CCCCCCCCCCCCCCCCCCCCCCCCCCCC(=O)[O-]
REMARK SMILES IDX 15 1 16 2 17 3 18 4 19 5 20 6 21 7 22 8 23 9 24 10 25 11
REMARK SMILES IDX 26 12 27 13 28 14 29 15 30 16 14 17 13 18 12 19 11 20 10 21
REMARK SMILES IDX 9 22 8 23 7 24 6 25 5 26 4 27 3 28 2 29 1 30
REMARK H PARENT
REMARK Flexibility Score: inf
ROOT
ATOM      1  C   UNL     1      60.682 149.882   9.123  1.00  0.00     0.000 C 
ENDROOT
BRANCH   1   2
ATOM      2  C   UNL     1      60.921 151.363   8.778  1.00  0.00     0.000 C 
BRANCH   2   3
ATOM      3  C   UNL     1      59.617 152.106   8.448  1.00  0.00     0.000 C 
BRANCH   3   4
ATOM      4  C   UNL     1      59.840 153.605   8.181  1.00  0.00     0.000 C 
BRANCH   4   5
ATOM      5  C   UNL     1      58.608 154.463   8.528  1.00  0.00     0.000 C 
BRANCH   5   6
ATOM      6  C   UNL     1      58.666 155.912   8.014  1.00  0.00     0.000 C 
BRANCH   6   7
ATOM      7  C   UNL     1      59.796 156.140   6.996  1.00  0.00     0.000 C 
BRANCH   7   8
ATOM      8  C   UNL     1      59.306 156.842   5.720  1.00  0.00     0.000 C 
BRANCH   8   9
ATOM      9  C   UNL     1      58.040 156.190   5.140  1.00  0.00     0.000 C 
BRANCH   9  10
ATOM     10  C   UNL     1      58.344 155.203   4.000  1.00  0.00     0.000 C 
BRANCH  10  11
ATOM     11  C   UNL     1      58.860 153.834   4.490  1.00  0.00     0.000 C 
BRANCH  11  12
ATOM     12  C   UNL     1      59.441 152.987   3.343  1.00  0.00     0.006 C 
BRANCH  12  13
ATOM     13  C   UNL     1      58.847 153.371   1.982  1.00  0.00     0.053 C 
BRANCH  13  14
ATOM     14  C   UNL     1      59.916 153.611   0.960  1.00  0.00     0.041 C 
ATOM     15  O   UNL     1      59.621 154.093  -0.167  1.00  0.00    -0.550 OA
ATOM     16  O   UNL     1      61.235 153.277   1.240  1.00  0.00    -0.550 OA
ENDBRANCH  13  14
ENDBRANCH  12  13
ENDBRANCH  11  12
ENDBRANCH  10  11
ENDBRANCH   9  10
ENDBRANCH   8   9
ENDBRANCH   7   8
ENDBRANCH   6   7
ENDBRANCH   5   6
ENDBRANCH   4   5
ENDBRANCH   3   4
ENDBRANCH   2   3
ENDBRANCH   1   2
BRANCH   1  17
ATOM     17  C   UNL     1      59.302 149.385   8.664  1.00  0.00     0.000 C 
BRANCH  17  18
ATOM     18  C   UNL     1      59.080 147.892   8.963  1.00  0.00     0.000 C 
BRANCH  18  19
ATOM     19  C   UNL     1      60.006 146.972   8.146  1.00  0.00     0.000 C 
BRANCH  19  20
ATOM     20  C   UNL     1      60.452 147.539   6.786  1.00  0.00     0.000 C 
BRANCH  20  21
ATOM     21  C   UNL     1      61.328 146.560   5.986  1.00  0.00     0.000 C 
BRANCH  21  22
ATOM     22  C   UNL     1      62.374 147.271   5.109  1.00  0.00    -0.000 C 
BRANCH  22  23
ATOM     23  C   UNL     1      62.545 148.781   5.382  1.00  0.00    -0.000 C 
BRANCH  23  24
ATOM     24  C   UNL     1      63.775 149.156   6.232  1.00  0.00    -0.000 C 
BRANCH  24  25
ATOM     25  C   UNL     1      65.085 149.323   5.437  1.00  0.00    -0.000 C 
BRANCH  25  26
ATOM     26  C   UNL     1      64.919 149.919   4.025  1.00  0.00    -0.000 C 
BRANCH  26  27
ATOM     27  C   UNL     1      64.667 151.437   3.980  1.00  0.00    -0.000 C 
BRANCH  27  28
ATOM     28  C   UNL     1      65.134 152.158   5.255  1.00  0.00    -0.000 C 
BRANCH  28  29
ATOM     29  C   UNL     1      64.037 153.044   5.866  1.00  0.00    -0.003 C 
ATOM     30  C   UNL     1      62.644 152.421   5.760  1.00  0.00     0.004 C 
ENDBRANCH  28  29
ENDBRANCH  27  28
ENDBRANCH  26  27
ENDBRANCH  25  26
ENDBRANCH  24  25
ENDBRANCH  23  24
ENDBRANCH  22  23
ENDBRANCH  21  22
ENDBRANCH  20  21
ENDBRANCH  19  20
ENDBRANCH  18  19
ENDBRANCH  17  18
ENDBRANCH   1  17
TORSDOF 26
ENDMDL
MODEL 4
REMARK VINA RESULT:    -4.540      1.630      7.355
REMARK INTER + INTRA:         -15.505
REMARK INTER:                 -12.518
REMARK INTRA:                  -2.988
REMARK UNBOUND:                -4.066
REMARK SMILES CCCCCCCCCCCCCCCCCCCCCCCCCCCC(=O)[O-]
REMARK SMILES IDX 15 1 16 2 17 3 18 4 19 5 20 6 21 7 22 8 23 9 24 10 25 11
REMARK SMILES IDX 26 12 27 13 28 14 29 15 30 16 14 17 13 18 12 19 11 20 10 21
REMARK SMILES IDX 9 22 8 23 7 24 6 25 5 26 4 27 3 28 2 29 1 30
REMARK H PARENT
REMARK Flexibility Score: inf
ROOT
ATOM      1  C   UNL     1      58.091 150.076   7.468  1.00  0.00     0.000 C 
ENDROOT
BRANCH   1   2
ATOM      2  C   UNL     1      58.512 149.359   8.763  1.00  0.00     0.000 C 
BRANCH   2   3
ATOM      3  C   UNL     1      58.281 147.841   8.695  1.00  0.00     0.000 C 
BRANCH   3   4
ATOM      4  C   UNL     1      59.544 147.066   8.281  1.00  0.00     0.000 C 
BRANCH   4   5
ATOM      5  C   UNL     1      60.655 147.982   7.736  1.00  0.00     0.000 C 
BRANCH   5   6
ATOM      6  C   UNL     1      60.755 148.030   6.201  1.00  0.00     0.000 C 
BRANCH   6   7
ATOM      7  C   UNL     1      61.816 147.067   5.641  1.00  0.00     0.000 C 
BRANCH   7   8
ATOM      8  C   UNL     1      63.027 147.805   5.050  1.00  0.00     0.000 C 
BRANCH   8   9
ATOM      9  C   UNL     1      63.759 148.662   6.096  1.00  0.00     0.000 C 
BRANCH   9  10
ATOM     10  C   UNL     1      65.122 149.176   5.602  1.00  0.00     0.000 C 
BRANCH  10  11
ATOM     11  C   UNL     1      65.108 150.661   5.186  1.00  0.00     0.000 C 
BRANCH  11  12
ATOM     12  C   UNL     1      64.776 150.845   3.695  1.00  0.00     0.006 C 
BRANCH  12  13
ATOM     13  C   UNL     1      63.641 151.854   3.474  1.00  0.00     0.053 C 
BRANCH  13  14
ATOM     14  C   UNL     1      62.520 151.646   4.446  1.00  0.00     0.041 C 
ATOM     15  O   UNL     1      61.613 150.806   4.199  1.00  0.00    -0.550 OA
ATOM     16  O   UNL     1      62.459 152.400   5.610  1.00  0.00    -0.550 OA
ENDBRANCH  13  14
ENDBRANCH  12  13
ENDBRANCH  11  12
ENDBRANCH  10  11
ENDBRANCH   9  10
ENDBRANCH   8   9
ENDBRANCH   7   8
ENDBRANCH   6   7
ENDBRANCH   5   6
ENDBRANCH   4   5
ENDBRANCH   3   4
ENDBRANCH   2   3
ENDBRANCH   1   2
BRANCH   1  17
ATOM     17  C   UNL     1      58.320 151.594   7.533  1.00  0.00     0.000 C 
BRANCH  17  18
ATOM     18  C   UNL     1      59.077 152.026   8.801  1.00  0.00     0.000 C 
BRANCH  18  19
ATOM     19  C   UNL     1      60.560 152.347   8.534  1.00  0.00     0.000 C 
BRANCH  19  20
ATOM     20  C   UNL     1      60.947 153.827   8.708  1.00  0.00     0.000 C 
BRANCH  20  21
ATOM     21  C   UNL     1      59.830 154.793   8.276  1.00  0.00     0.000 C 
BRANCH  21  22
ATOM     22  C   UNL     1      60.183 155.588   7.006  1.00  0.00    -0.000 C 
BRANCH  22  23
ATOM     23  C   UNL     1      59.006 156.346   6.356  1.00  0.00    -0.000 C 
BRANCH  23  24
ATOM     24  C   UNL     1      58.540 155.787   4.997  1.00  0.00    -0.000 C 
BRANCH  24  25
ATOM     25  C   UNL     1      58.294 154.265   4.973  1.00  0.00    -0.000 C 
BRANCH  25  26
ATOM     26  C   UNL     1      59.370 153.442   4.237  1.00  0.00    -0.000 C 
BRANCH  26  27
ATOM     27  C   UNL     1      58.967 152.937   2.839  1.00  0.00    -0.000 C 
BRANCH  27  28
ATOM     28  C   UNL     1      59.952 153.369   1.740  1.00  0.00    -0.000 C 
BRANCH  28  29
ATOM     29  C   UNL     1      59.271 154.174   0.623  1.00  0.00    -0.003 C 
ATOM     30  C   UNL     1      58.265 155.196   1.156  1.00  0.00     0.004 C 
ENDBRANCH  28  29
ENDBRANCH  27  28
ENDBRANCH  26  27
ENDBRANCH  25  26
ENDBRANCH  24  25
ENDBRANCH  23  24
ENDBRANCH  22  23
ENDBRANCH  21  22
ENDBRANCH  20  21
ENDBRANCH  19  20
ENDBRANCH  18  19
ENDBRANCH  17  18
ENDBRANCH   1  17
TORSDOF 26
ENDMDL
MODEL 5
REMARK VINA RESULT:    -4.486      1.845      5.817
REMARK INTER + INTRA:         -15.371
REMARK INTER:                 -11.198
REMARK INTRA:                  -4.173
REMARK UNBOUND:                -4.066
REMARK SMILES CCCCCCCCCCCCCCCCCCCCCCCCCCCC(=O)[O-]
REMARK SMILES IDX 15 1 16 2 17 3 18 4 19 5 20 6 21 7 22 8 23 9 24 10 25 11
REMARK SMILES IDX 26 12 27 13 28 14 29 15 30 16 14 17 13 18 12 19 11 20 10 21
REMARK SMILES IDX 9 22 8 23 7 24 6 25 5 26 4 27 3 28 2 29 1 30
REMARK H PARENT
REMARK Flexibility Score: inf
ROOT
ATOM      1  C   UNL     1      58.045 155.916   4.167  1.00  0.00     0.000 C 
ENDROOT
BRANCH   1   2
ATOM      2  C   UNL     1      58.643 154.518   4.405  1.00  0.00     0.000 C 
BRANCH   2   3
ATOM      3  C   UNL     1      58.628 153.650   3.138  1.00  0.00     0.000 C 
BRANCH   3   4
ATOM      4  C   UNL     1      58.691 154.484   1.846  1.00  0.00     0.000 C 
BRANCH   4   5
ATOM      5  C   UNL     1      59.492 153.791   0.727  1.00  0.00     0.000 C 
BRANCH   5   6
ATOM      6  C   UNL     1      60.989 153.599   1.030  1.00  0.00     0.000 C 
BRANCH   6   7
ATOM      7  C   UNL     1      61.322 152.177   1.512  1.00  0.00     0.000 C 
BRANCH   7   8
ATOM      8  C   UNL     1      62.110 152.172   2.831  1.00  0.00     0.000 C 
BRANCH   8   9
ATOM      9  C   UNL     1      61.399 151.376   3.937  1.00  0.00     0.000 C 
BRANCH   9  10
ATOM     10  C   UNL     1      61.442 152.078   5.304  1.00  0.00     0.000 C 
BRANCH  10  11
ATOM     11  C   UNL     1      62.755 151.843   6.078  1.00  0.00     0.000 C 
BRANCH  11  12
ATOM     12  C   UNL     1      63.444 150.528   5.670  1.00  0.00     0.006 C 
BRANCH  12  13
ATOM     13  C   UNL     1      64.936 150.723   5.374  1.00  0.00     0.053 C 
BRANCH  13  14
ATOM     14  C   UNL     1      65.275 152.169   5.171  1.00  0.00     0.041 C 
ATOM     15  O   UNL     1      65.757 152.847   6.119  1.00  0.00    -0.550 OA
ATOM     16  O   UNL     1      65.032 152.776   3.946  1.00  0.00    -0.550 OA
ENDBRANCH  13  14
ENDBRANCH  12  13
ENDBRANCH  11  12
ENDBRANCH  10  11
ENDBRANCH   9  10
ENDBRANCH   8   9
ENDBRANCH   7   8
ENDBRANCH   6   7
ENDBRANCH   5   6
ENDBRANCH   4   5
ENDBRANCH   3   4
ENDBRANCH   2   3
ENDBRANCH   1   2
BRANCH   1  17
ATOM     17  C   UNL     1      58.489 156.937   5.227  1.00  0.00     0.000 C 
BRANCH  17  18
ATOM     18  C   UNL     1      58.044 156.548   6.648  1.00  0.00     0.000 C 
BRANCH  18  19
ATOM     19  C   UNL     1      59.229 156.296   7.599  1.00  0.00     0.000 C 
BRANCH  19  20
ATOM     20  C   UNL     1      60.553 155.924   6.906  1.00  0.00     0.000 C 
BRANCH  20  21
ATOM     21  C   UNL     1      61.387 154.914   7.712  1.00  0.00     0.000 C 
BRANCH  21  22
ATOM     22  C   UNL     1      60.620 154.323   8.909  1.00  0.00    -0.000 C 
BRANCH  22  23
ATOM     23  C   UNL     1      60.234 152.835   8.774  1.00  0.00    -0.000 C 
BRANCH  23  24
ATOM     24  C   UNL     1      58.973 152.561   7.931  1.00  0.00    -0.000 C 
BRANCH  24  25
ATOM     25  C   UNL     1      58.767 151.086   7.535  1.00  0.00    -0.000 C 
BRANCH  25  26
ATOM     26  C   UNL     1      59.449 150.060   8.462  1.00  0.00    -0.000 C 
BRANCH  26  27
ATOM     27  C   UNL     1      60.652 149.320   7.850  1.00  0.00    -0.000 C 
BRANCH  27  28
ATOM     28  C   UNL     1      60.318 148.643   6.510  1.00  0.00    -0.000 C 
BRANCH  28  29
ATOM     29  C   UNL     1      60.991 147.271   6.360  1.00  0.00    -0.003 C 
ATOM     30  C   UNL     1      62.121 147.273   5.329  1.00  0.00     0.004 C 
ENDBRANCH  28  29
ENDBRANCH  27  28
ENDBRANCH  26  27
ENDBRANCH  25  26
ENDBRANCH  24  25
ENDBRANCH  23  24
ENDBRANCH  22  23
ENDBRANCH  21  22
ENDBRANCH  20  21
ENDBRANCH  19  20
ENDBRANCH  18  19
ENDBRANCH  17  18
ENDBRANCH   1  17
TORSDOF 26
ENDMDL
MODEL 6
REMARK VINA RESULT:    -4.469      2.821      7.489
REMARK INTER + INTRA:         -15.328
REMARK INTER:                 -12.073
REMARK INTRA:                  -3.255
REMARK UNBOUND:                -4.066
REMARK SMILES CCCCCCCCCCCCCCCCCCCCCCCCCCCC(=O)[O-]
REMARK SMILES IDX 15 1 16 2 17 3 18 4 19 5 20 6 21 7 22 8 23 9 24 10 25 11
REMARK SMILES IDX 26 12 27 13 28 14 29 15 30 16 14 17 13 18 12 19 11 20 10 21
REMARK SMILES IDX 9 22 8 23 7 24 6 25 5 26 4 27 3 28 2 29 1 30
REMARK H PARENT
REMARK Flexibility Score: inf
ROOT
ATOM      1  C   UNL     1      62.925 151.758   3.118  1.00  0.00     0.000 C 
ENDROOT
BRANCH   1   2
ATOM      2  C   UNL     1      63.638 152.192   4.412  1.00  0.00     0.000 C 
BRANCH   2   3
ATOM      3  C   UNL     1      65.027 151.552   4.558  1.00  0.00     0.000 C 
BRANCH   3   4
ATOM      4  C   UNL     1      65.137 150.199   3.832  1.00  0.00     0.000 C 
BRANCH   4   5
ATOM      5  C   UNL     1      64.566 149.031   4.656  1.00  0.00     0.000 C 
BRANCH   5   6
ATOM      6  C   UNL     1      64.222 149.378   6.116  1.00  0.00     0.000 C 
BRANCH   6   7
ATOM      7  C   UNL     1      62.713 149.314   6.405  1.00  0.00     0.000 C 
BRANCH   7   8
ATOM      8  C   UNL     1      62.382 149.623   7.873  1.00  0.00     0.000 C 
BRANCH   8   9
ATOM      9  C   UNL     1      61.264 150.669   8.016  1.00  0.00     0.000 C 
BRANCH   9  10
ATOM     10  C   UNL     1      60.044 150.367   7.130  1.00  0.00     0.000 C 
BRANCH  10  11
ATOM     11  C   UNL     1      58.698 150.477   7.874  1.00  0.00     0.000 C 
BRANCH  11  12
ATOM     12  C   UNL     1      57.875 149.179   7.786  1.00  0.00     0.006 C 
BRANCH  12  13
ATOM     13  C   UNL     1      58.115 148.258   8.989  1.00  0.00     0.053 C 
BRANCH  13  14
ATOM     14  C   UNL     1      58.962 147.078   8.621  1.00  0.00     0.041 C 
ATOM     15  O   UNL     1      58.623 145.917   8.978  1.00  0.00    -0.550 OA
ATOM     16  O   UNL     1      60.141 147.261   7.910  1.00  0.00    -0.550 OA
ENDBRANCH  13  14
ENDBRANCH  12  13
ENDBRANCH  11  12
ENDBRANCH  10  11
ENDBRANCH   9  10
ENDBRANCH   8   9
ENDBRANCH   7   8
ENDBRANCH   6   7
ENDBRANCH   5   6
ENDBRANCH   4   5
ENDBRANCH   3   4
ENDBRANCH   2   3
ENDBRANCH   1   2
BRANCH   1  17
ATOM     17  C   UNL     1      61.419 152.064   3.143  1.00  0.00     0.000 C 
BRANCH  17  18
ATOM     18  C   UNL     1      60.797 152.098   1.736  1.00  0.00     0.000 C 
BRANCH  18  19
ATOM     19  C   UNL     1      60.937 153.470   1.051  1.00  0.00     0.000 C 
BRANCH  19  20
ATOM     20  C   UNL     1      59.607 154.160   0.697  1.00  0.00     0.000 C 
BRANCH  20  21
ATOM     21  C   UNL     1      58.468 153.797   1.664  1.00  0.00     0.000 C 
BRANCH  21  22
ATOM     22  C   UNL     1      57.920 155.015   2.429  1.00  0.00    -0.000 C 
BRANCH  22  23
ATOM     23  C   UNL     1      58.520 155.234   3.834  1.00  0.00    -0.000 C 
BRANCH  23  24
ATOM     24  C   UNL     1      58.957 153.949   4.565  1.00  0.00    -0.000 C 
BRANCH  24  25
ATOM     25  C   UNL     1      58.015 153.497   5.698  1.00  0.00    -0.000 C 
BRANCH  25  26
ATOM     26  C   UNL     1      57.918 154.468   6.891  1.00  0.00    -0.000 C 
BRANCH  26  27
ATOM     27  C   UNL     1      59.180 154.558   7.768  1.00  0.00    -0.000 C 
BRANCH  27  28
ATOM     28  C   UNL     1      60.132 155.684   7.329  1.00  0.00    -0.000 C 
BRANCH  28  29
ATOM     29  C   UNL     1      61.597 155.226   7.269  1.00  0.00    -0.003 C 
ATOM     30  C   UNL     1      61.745 153.763   6.846  1.00  0.00     0.004 C 
ENDBRANCH  28  29
ENDBRANCH  27  28
ENDBRANCH  26  27
ENDBRANCH  25  26
ENDBRANCH  24  25
ENDBRANCH  23  24
ENDBRANCH  22  23
ENDBRANCH  21  22
ENDBRANCH  20  21
ENDBRANCH  19  20
ENDBRANCH  18  19
ENDBRANCH  17  18
ENDBRANCH   1  17
TORSDOF 26
ENDMDL
MODEL 7
REMARK VINA RESULT:    -4.442      2.019      4.001
REMARK INTER + INTRA:         -15.259
REMARK INTER:                 -12.230
REMARK INTRA:                  -3.029
REMARK UNBOUND:                -4.066
REMARK SMILES CCCCCCCCCCCCCCCCCCCCCCCCCCCC(=O)[O-]
REMARK SMILES IDX 15 1 16 2 17 3 18 4 19 5 20 6 21 7 22 8 23 9 24 10 25 11
REMARK SMILES IDX 26 12 27 13 28 14 29 15 30 16 14 17 13 18 12 19 11 20 10 21
REMARK SMILES IDX 9 22 8 23 7 24 6 25 5 26 4 27 3 28 2 29 1 30
REMARK H PARENT
REMARK Flexibility Score: inf
ROOT
ATOM      1  C   UNL     1      61.047 152.192   2.608  1.00  0.00     0.000 C 
ENDROOT
BRANCH   1   2
ATOM      2  C   UNL     1      61.497 153.191   1.527  1.00  0.00     0.000 C 
BRANCH   2   3
ATOM      3  C   UNL     1      60.316 153.754   0.721  1.00  0.00     0.000 C 
BRANCH   3   4
ATOM      4  C   UNL     1      59.016 153.825   1.542  1.00  0.00     0.000 C 
BRANCH   4   5
ATOM      5  C   UNL     1      58.069 154.941   1.065  1.00  0.00     0.000 C 
BRANCH   5   6
ATOM      6  C   UNL     1      57.913 156.117   2.045  1.00  0.00     0.000 C 
BRANCH   6   7
ATOM      7  C   UNL     1      57.877 155.668   3.516  1.00  0.00     0.000 C 
BRANCH   7   8
ATOM      8  C   UNL     1      58.112 156.831   4.492  1.00  0.00     0.000 C 
BRANCH   8   9
ATOM      9  C   UNL     1      57.875 156.425   5.956  1.00  0.00     0.000 C 
BRANCH   9  10
ATOM     10  C   UNL     1      59.054 155.643   6.559  1.00  0.00     0.000 C 
BRANCH  10  11
ATOM     11  C   UNL     1      58.826 154.119   6.603  1.00  0.00     0.000 C 
BRANCH  11  12
ATOM     12  C   UNL     1      60.051 153.332   6.107  1.00  0.00     0.006 C 
BRANCH  12  13
ATOM     13  C   UNL     1      61.142 153.220   7.180  1.00  0.00     0.053 C 
BRANCH  13  14
ATOM     14  C   UNL     1      62.243 154.211   6.955  1.00  0.00     0.041 C 
ATOM     15  O   UNL     1      63.309 153.856   6.383  1.00  0.00    -0.550 OA
ATOM     16  O   UNL     1      62.106 155.518   7.403  1.00  0.00    -0.550 OA
ENDBRANCH  13  14
ENDBRANCH  12  13
ENDBRANCH  11  12
ENDBRANCH  10  11
ENDBRANCH   9  10
ENDBRANCH   8   9
ENDBRANCH   7   8
ENDBRANCH   6   7
ENDBRANCH   5   6
ENDBRANCH   4   5
ENDBRANCH   3   4
ENDBRANCH   2   3
ENDBRANCH   1   2
BRANCH   1  17
ATOM     17  C   UNL     1      62.214 151.363   3.167  1.00  0.00     0.000 C 
BRANCH  17  18
ATOM     18  C   UNL     1      63.387 152.238   3.647  1.00  0.00     0.000 C 
BRANCH  18  19
ATOM     19  C   UNL     1      64.598 151.411   4.117  1.00  0.00     0.000 C 
BRANCH  19  20
ATOM     20  C   UNL     1      64.823 150.094   3.354  1.00  0.00     0.000 C 
BRANCH  20  21
ATOM     21  C   UNL     1      65.214 148.926   4.276  1.00  0.00     0.000 C 
BRANCH  21  22
ATOM     22  C   UNL     1      65.121 149.286   5.770  1.00  0.00    -0.000 C 
BRANCH  22  23
ATOM     23  C   UNL     1      63.843 148.799   6.486  1.00  0.00    -0.000 C 
BRANCH  23  24
ATOM     24  C   UNL     1      62.623 149.732   6.352  1.00  0.00    -0.000 C 
BRANCH  24  25
ATOM     25  C   UNL     1      61.326 149.041   5.889  1.00  0.00    -0.000 C 
BRANCH  25  26
ATOM     26  C   UNL     1      60.027 149.638   6.464  1.00  0.00    -0.000 C 
BRANCH  26  27
ATOM     27  C   UNL     1      59.706 149.234   7.915  1.00  0.00    -0.000 C 
BRANCH  27  28
ATOM     28  C   UNL     1      60.330 147.886   8.312  1.00  0.00    -0.000 C 
BRANCH  28  29
ATOM     29  C   UNL     1      59.272 146.811   8.605  1.00  0.00    -0.003 C 
ATOM     30  C   UNL     1      59.585 145.472   7.936  1.00  0.00     0.004 C 
ENDBRANCH  28  29
ENDBRANCH  27  28
ENDBRANCH  26  27
ENDBRANCH  25  26
ENDBRANCH  24  25
ENDBRANCH  23  24
ENDBRANCH  22  23
ENDBRANCH  21  22
ENDBRANCH  20  21
ENDBRANCH  19  20
ENDBRANCH  18  19
ENDBRANCH  17  18
ENDBRANCH   1  17
TORSDOF 26
ENDMDL
MODEL 8
REMARK VINA RESULT:    -4.314      2.392      6.915
REMARK INTER + INTRA:         -14.938
REMARK INTER:                 -10.959
REMARK INTRA:                  -3.978
REMARK UNBOUND:                -4.066
REMARK SMILES CCCCCCCCCCCCCCCCCCCCCCCCCCCC(=O)[O-]
REMARK SMILES IDX 15 1 16 2 17 3 18 4 19 5 20 6 21 7 22 8 23 9 24 10 25 11
REMARK SMILES IDX 26 12 27 13 28 14 29 15 30 16 14 17 13 18 12 19 11 20 10 21
REMARK SMILES IDX 9 22 8 23 7 24 6 25 5 26 4 27 3 28 2 29 1 30
REMARK H PARENT
REMARK Flexibility Score: inf
ROOT
ATOM      1  C   UNL     1      59.784 153.769   0.477  1.00  0.00     0.000 C 
ENDROOT
BRANCH   1   2
ATOM      2  C   UNL     1      60.913 153.447   1.473  1.00  0.00     0.000 C 
BRANCH   2   3
ATOM      3  C   UNL     1      60.694 152.108   2.193  1.00  0.00     0.000 C 
BRANCH   3   4
ATOM      4  C   UNL     1      59.680 152.211   3.346  1.00  0.00     0.000 C 
BRANCH   4   5
ATOM      5  C   UNL     1      60.325 152.011   4.730  1.00  0.00     0.000 C 
BRANCH   5   6
ATOM      6  C   UNL     1      59.427 152.388   5.921  1.00  0.00     0.000 C 
BRANCH   6   7
ATOM      7  C   UNL     1      58.107 151.598   5.947  1.00  0.00     0.000 C 
BRANCH   7   8
ATOM      8  C   UNL     1      58.113 150.479   7.000  1.00  0.00     0.000 C 
BRANCH   8   9
ATOM      9  C   UNL     1      59.047 150.788   8.181  1.00  0.00     0.000 C 
BRANCH   9  10
ATOM     10  C   UNL     1      60.124 149.710   8.392  1.00  0.00     0.000 C 
BRANCH  10  11
ATOM     11  C   UNL     1      61.561 150.270   8.419  1.00  0.00     0.000 C 
BRANCH  11  12
ATOM     12  C   UNL     1      62.430 149.697   7.285  1.00  0.00     0.006 C 
BRANCH  12  13
ATOM     13  C   UNL     1      61.590 149.002   6.206  1.00  0.00     0.053 C 
BRANCH  13  14
ATOM     14  C   UNL     1      62.357 147.908   5.527  1.00  0.00     0.041 C 
ATOM     15  O   UNL     1      63.479 148.148   5.007  1.00  0.00    -0.550 OA
ATOM     16  O   UNL     1      61.820 146.630   5.444  1.00  0.00    -0.550 OA
ENDBRANCH  13  14
ENDBRANCH  12  13
ENDBRANCH  11  12
ENDBRANCH  10  11
ENDBRANCH   9  10
ENDBRANCH   8   9
ENDBRANCH   7   8
ENDBRANCH   6   7
ENDBRANCH   5   6
ENDBRANCH   4   5
ENDBRANCH   3   4
ENDBRANCH   2   3
ENDBRANCH   1   2
BRANCH   1  17
ATOM     17  C   UNL     1      58.960 154.997   0.895  1.00  0.00     0.000 C 
BRANCH  17  18
ATOM     18  C   UNL     1      57.943 154.678   2.005  1.00  0.00     0.000 C 
BRANCH  18  19
ATOM     19  C   UNL     1      57.888 155.762   3.098  1.00  0.00     0.000 C 
BRANCH  19  20
ATOM     20  C   UNL     1      58.392 155.316   4.483  1.00  0.00     0.000 C 
BRANCH  20  21
ATOM     21  C   UNL     1      58.705 156.499   5.415  1.00  0.00     0.000 C 
BRANCH  21  22
ATOM     22  C   UNL     1      59.985 156.285   6.244  1.00  0.00    -0.000 C 
BRANCH  22  23
ATOM     23  C   UNL     1      59.892 155.188   7.326  1.00  0.00    -0.000 C 
BRANCH  23  24
ATOM     24  C   UNL     1      61.243 154.740   7.919  1.00  0.00    -0.000 C 
BRANCH  24  25
ATOM     25  C   UNL     1      62.410 154.702   6.913  1.00  0.00    -0.000 C 
BRANCH  25  26
ATOM     26  C   UNL     1      62.898 153.289   6.534  1.00  0.00    -0.000 C 
BRANCH  26  27
ATOM     27  C   UNL     1      64.098 153.247   5.570  1.00  0.00    -0.000 C 
BRANCH  27  28
ATOM     28  C   UNL     1      64.963 151.988   5.749  1.00  0.00    -0.000 C 
BRANCH  28  29
ATOM     29  C   UNL     1      64.922 151.067   4.520  1.00  0.00    -0.003 C 
ATOM     30  C   UNL     1      63.830 151.456   3.522  1.00  0.00     0.004 C 
ENDBRANCH  28  29
ENDBRANCH  27  28
ENDBRANCH  26  27
ENDBRANCH  25  26
ENDBRANCH  24  25
ENDBRANCH  23  24
ENDBRANCH  22  23
ENDBRANCH  21  22
ENDBRANCH  20  21
ENDBRANCH  19  20
ENDBRANCH  18  19
ENDBRANCH  17  18
ENDBRANCH   1  17
TORSDOF 26
ENDMDL
MODEL 9
REMARK VINA RESULT:    -4.136      1.626      7.478
REMARK INTER + INTRA:         -14.490
REMARK INTER:                 -11.405
REMARK INTRA:                  -3.084
REMARK UNBOUND:                -4.066
REMARK SMILES CCCCCCCCCCCCCCCCCCCCCCCCCCCC(=O)[O-]
REMARK SMILES IDX 15 1 16 2 17 3 18 4 19 5 20 6 21 7 22 8 23 9 24 10 25 11
REMARK SMILES IDX 26 12 27 13 28 14 29 15 30 16 14 17 13 18 12 19 11 20 10 21
REMARK SMILES IDX 9 22 8 23 7 24 6 25 5 26 4 27 3 28 2 29 1 30
REMARK H PARENT
REMARK Flexibility Score: inf
ROOT
ATOM      1  C   UNL     1      61.027 151.112   5.500  1.00  0.00     0.000 C 
ENDROOT
BRANCH   1   2
ATOM      2  C   UNL     1      60.719 150.670   6.942  1.00  0.00     0.000 C 
BRANCH   2   3
ATOM      3  C   UNL     1      59.211 150.630   7.233  1.00  0.00     0.000 C 
BRANCH   3   4
ATOM      4  C   UNL     1      58.899 150.342   8.712  1.00  0.00     0.000 C 
BRANCH   4   5
ATOM      5  C   UNL     1      59.184 148.881   9.109  1.00  0.00     0.000 C 
BRANCH   5   6
ATOM      6  C   UNL     1      58.828 147.840   8.033  1.00  0.00     0.000 C 
BRANCH   6   7
ATOM      7  C   UNL     1      59.562 146.502   8.231  1.00  0.00     0.000 C 
BRANCH   7   8
ATOM      8  C   UNL     1      60.560 146.207   7.100  1.00  0.00     0.000 C 
BRANCH   8   9
ATOM      9  C   UNL     1      60.762 147.411   6.166  1.00  0.00     0.000 C 
BRANCH   9  10
ATOM     10  C   UNL     1      62.091 147.354   5.395  1.00  0.00     0.000 C 
BRANCH  10  11
ATOM     11  C   UNL     1      63.162 148.323   5.937  1.00  0.00     0.000 C 
BRANCH  11  12
ATOM     12  C   UNL     1      63.994 148.961   4.810  1.00  0.00     0.006 C 
BRANCH  12  13
ATOM     13  C   UNL     1      65.016 149.972   5.346  1.00  0.00     0.053 C 
BRANCH  13  14
ATOM     14  C   UNL     1      64.876 151.307   4.679  1.00  0.00     0.041 C 
ATOM     15  O   UNL     1      65.332 152.343   5.233  1.00  0.00    -0.550 OA
ATOM     16  O   UNL     1      64.217 151.411   3.461  1.00  0.00    -0.550 OA
ENDBRANCH  13  14
ENDBRANCH  12  13
ENDBRANCH  11  12
ENDBRANCH  10  11
ENDBRANCH   9  10
ENDBRANCH   8   9
ENDBRANCH   7   8
ENDBRANCH   6   7
ENDBRANCH   5   6
ENDBRANCH   4   5
ENDBRANCH   3   4
ENDBRANCH   2   3
ENDBRANCH   1   2
BRANCH   1  17
ATOM     17  C   UNL     1      61.590 152.540   5.428  1.00  0.00     0.000 C 
BRANCH  17  18
ATOM     18  C   UNL     1      61.519 153.274   6.779  1.00  0.00     0.000 C 
BRANCH  18  19
ATOM     19  C   UNL     1      62.509 154.450   6.874  1.00  0.00     0.000 C 
BRANCH  19  20
ATOM     20  C   UNL     1      61.915 155.758   7.429  1.00  0.00     0.000 C 
BRANCH  20  21
ATOM     21  C   UNL     1      60.377 155.779   7.397  1.00  0.00     0.000 C 
BRANCH  21  22
ATOM     22  C   UNL     1      59.812 156.795   6.388  1.00  0.00    -0.000 C 
BRANCH  22  23
ATOM     23  C   UNL     1      58.349 156.556   5.962  1.00  0.00    -0.000 C 
BRANCH  23  24
ATOM     24  C   UNL     1      57.993 157.043   4.543  1.00  0.00    -0.000 C 
BRANCH  24  25
ATOM     25  C   UNL     1      58.000 155.944   3.461  1.00  0.00    -0.000 C 
BRANCH  25  26
ATOM     26  C   UNL     1      58.347 154.531   3.969  1.00  0.00    -0.000 C 
BRANCH  26  27
ATOM     27  C   UNL     1      59.312 153.732   3.075  1.00  0.00    -0.000 C 
BRANCH  27  28
ATOM     28  C   UNL     1      58.721 153.415   1.691  1.00  0.00    -0.000 C 
BRANCH  28  29
ATOM     29  C   UNL     1      59.472 154.124   0.554  1.00  0.00    -0.003 C 
ATOM     30  C   UNL     1      60.965 153.794   0.533  1.00  0.00     0.004 C 
ENDBRANCH  28  29
ENDBRANCH  27  28
ENDBRANCH  26  27
ENDBRANCH  25  26
ENDBRANCH  24  25
ENDBRANCH  23  24
ENDBRANCH  22  23
ENDBRANCH  21  22
ENDBRANCH  20  21
ENDBRANCH  19  20
ENDBRANCH  18  19
ENDBRANCH  17  18
ENDBRANCH   1  17
TORSDOF 26
ENDMDL
