MODEL 1
REMARK VINA RESULT:    -3.943      0.000      0.000
REMARK INTER + INTRA:         -12.246
REMARK INTER:                  -8.553
REMARK INTRA:                  -3.692
REMARK UNBOUND:                -3.692
REMARK SMILES CCCCCCCCCCCCCCCCCCCCCC(=O)[O-]
REMARK SMILES IDX 12 1 11 2 10 3 9 4 8 5 7 6 6 7 5 8 4 9 3 10 2 11 1 12 13 13
REMARK SMILES IDX 14 14 15 15 16 16 17 17 18 18 19 19 20 20 21 21 22 22 23 23
REMARK SMILES IDX 24 24
REMARK H PARENT
REMARK Flexibility Score: inf
ROOT
ATOM      1  C   UNL     1     195.849 192.779 198.832  1.00  0.00     0.000 C 
ENDROOT
BRANCH   1   2
ATOM      2  C   UNL     1     196.355 192.011 200.064  1.00  0.00     0.000 C 
BRANCH   2   3
ATOM      3  C   UNL     1     195.215 191.589 201.007  1.00  0.00     0.000 C 
BRANCH   3   4
ATOM      4  C   UNL     1     195.263 190.094 201.360  1.00  0.00    -0.000 C 
BRANCH   4   5
ATOM      5  C   UNL     1     193.916 189.389 201.140  1.00  0.00    -0.000 C 
BRANCH   5   6
ATOM      6  C   UNL     1     193.263 189.853 199.829  1.00  0.00    -0.000 C 
BRANCH   6   7
ATOM      7  C   UNL     1     193.630 188.961 198.634  1.00  0.00    -0.000 C 
BRANCH   7   8
ATOM      8  C   UNL     1     194.281 189.747 197.485  1.00  0.00    -0.000 C 
BRANCH   8   9
ATOM      9  C   UNL     1     195.738 189.309 197.276  1.00  0.00    -0.000 C 
BRANCH   9  10
ATOM     10  C   UNL     1     196.132 188.119 198.167  1.00  0.00    -0.000 C 
BRANCH  10  11
ATOM     11  C   UNL     1     197.395 188.397 198.996  1.00  0.00    -0.003 C 
ATOM     12  C   UNL     1     197.916 187.118 199.648  1.00  0.00     0.004 C 
ENDBRANCH  10  11
ENDBRANCH   9  10
ENDBRANCH   8   9
ENDBRANCH   7   8
ENDBRANCH   6   7
ENDBRANCH   5   6
ENDBRANCH   4   5
ENDBRANCH   3   4
ENDBRANCH   2   3
ENDBRANCH   1   2
BRANCH   1  13
ATOM     13  C   UNL     1     196.851 193.834 198.337  1.00  0.00     0.000 C 
BRANCH  13  14
ATOM     14  C   UNL     1     198.224 193.636 198.995  1.00  0.00     0.000 C 
BRANCH  14  15
ATOM     15  C   UNL     1     198.788 194.930 199.608  1.00  0.00     0.000 C 
BRANCH  15  16
ATOM     16  C   UNL     1     198.261 195.271 201.017  1.00  0.00     0.000 C 
BRANCH  16  17
ATOM     17  C   UNL     1     197.822 196.733 201.215  1.00  0.00     0.000 C 
BRANCH  17  18
ATOM     18  C   UNL     1     196.298 196.887 201.329  1.00  0.00     0.000 C 
BRANCH  18  19
ATOM     19  C   UNL     1     195.617 195.516 201.461  1.00  0.00     0.000 C 
BRANCH  19  20
ATOM     20  C   UNL     1     194.184 195.511 200.905  1.00  0.00     0.006 C 
BRANCH  20  21
ATOM     21  C   UNL     1     194.103 196.059 199.474  1.00  0.00     0.053 C 
BRANCH  21  22
ATOM     22  C   UNL     1     193.129 197.192 199.403  1.00  0.00     0.041 C 
ATOM     23  O   UNL     1     191.917 196.970 199.143  1.00  0.00    -0.550 OA
ATOM     24  O   UNL     1     193.550 198.488 199.674  1.00  0.00    -0.550 OA
ENDBRANCH  21  22
ENDBRANCH  20  21
ENDBRANCH  19  20
ENDBRANCH  18  19
ENDBRANCH  17  18
ENDBRANCH  16  17
ENDBRANCH  15  16
ENDBRANCH  14  15
ENDBRANCH  13  14
ENDBRANCH   1  13
TORSDOF 20
ENDMDL
MODEL 2
REMARK VINA RESULT:    -3.814     11.402     14.378
REMARK INTER + INTRA:         -11.965
REMARK INTER:                  -8.690
REMARK INTRA:                  -3.275
REMARK UNBOUND:                -3.692
REMARK SMILES CCCCCCCCCCCCCCCCCCCCCC(=O)[O-]
REMARK SMILES IDX 12 1 11 2 10 3 9 4 8 5 7 6 6 7 5 8 4 9 3 10 2 11 1 12 13 13
REMARK SMILES IDX 14 14 15 15 16 16 17 17 18 18 19 19 20 20 21 21 22 22 23 23
REMARK SMILES IDX 24 24
REMARK H PARENT
REMARK Flexibility Score: inf
ROOT
ATOM      1  C   UNL     1     186.354 182.478 198.306  1.00  0.00     0.000 C 
ENDROOT
BRANCH   1   2
ATOM      2  C   UNL     1     187.117 181.495 199.210  1.00  0.00     0.000 C 
BRANCH   2   3
ATOM      3  C   UNL     1     187.813 182.196 200.389  1.00  0.00     0.000 C 
BRANCH   3   4
ATOM      4  C   UNL     1     187.571 181.479 201.728  1.00  0.00    -0.000 C 
BRANCH   4   5
ATOM      5  C   UNL     1     186.088 181.448 202.124  1.00  0.00    -0.000 C 
BRANCH   5   6
ATOM      6  C   UNL     1     185.473 180.071 201.836  1.00  0.00    -0.000 C 
BRANCH   6   7
ATOM      7  C   UNL     1     184.045 180.163 201.275  1.00  0.00    -0.000 C 
BRANCH   7   8
ATOM      8  C   UNL     1     183.258 181.352 201.849  1.00  0.00    -0.000 C 
BRANCH   8   9
ATOM      9  C   UNL     1     181.939 181.554 201.090  1.00  0.00    -0.000 C 
BRANCH   9  10
ATOM     10  C   UNL     1     181.180 182.813 201.543  1.00  0.00    -0.000 C 
BRANCH  10  11
ATOM     11  C   UNL     1     182.122 183.963 201.928  1.00  0.00    -0.003 C 
ATOM     12  C   UNL     1     181.751 185.247 201.190  1.00  0.00     0.004 C 
ENDBRANCH  10  11
ENDBRANCH   9  10
ENDBRANCH   8   9
ENDBRANCH   7   8
ENDBRANCH   6   7
ENDBRANCH   5   6
ENDBRANCH   4   5
ENDBRANCH   3   4
ENDBRANCH   2   3
ENDBRANCH   1   2
BRANCH   1  13
ATOM     13  C   UNL     1     185.005 182.908 198.902  1.00  0.00     0.000 C 
BRANCH  13  14
ATOM     14  C   UNL     1     184.854 184.436 198.871  1.00  0.00     0.000 C 
BRANCH  14  15
ATOM     15  C   UNL     1     185.399 185.118 200.139  1.00  0.00     0.000 C 
BRANCH  15  16
ATOM     16  C   UNL     1     186.248 186.381 199.890  1.00  0.00     0.000 C 
BRANCH  16  17
ATOM     17  C   UNL     1     186.819 186.515 198.467  1.00  0.00     0.000 C 
BRANCH  17  18
ATOM     18  C   UNL     1     186.464 187.854 197.804  1.00  0.00     0.000 C 
BRANCH  18  19
ATOM     19  C   UNL     1     185.170 187.732 196.983  1.00  0.00     0.000 C 
BRANCH  19  20
ATOM     20  C   UNL     1     184.023 188.576 197.560  1.00  0.00     0.006 C 
BRANCH  20  21
ATOM     21  C   UNL     1     183.012 187.738 198.353  1.00  0.00     0.053 C 
BRANCH  21  22
ATOM     22  C   UNL     1     182.485 188.518 199.516  1.00  0.00     0.041 C 
ATOM     23  O   UNL     1     181.358 189.076 199.446  1.00  0.00    -0.550 OA
ATOM     24  O   UNL     1     183.216 188.587 200.695  1.00  0.00    -0.550 OA
ENDBRANCH  21  22
ENDBRANCH  20  21
ENDBRANCH  19  20
ENDBRANCH  18  19
ENDBRANCH  17  18
ENDBRANCH  16  17
ENDBRANCH  15  16
ENDBRANCH  14  15
ENDBRANCH  13  14
ENDBRANCH   1  13
TORSDOF 20
ENDMDL
MODEL 3
REMARK VINA RESULT:    -3.778      8.445     12.760
REMARK INTER + INTRA:         -11.888
REMARK INTER:                  -8.904
REMARK INTRA:                  -2.984
REMARK UNBOUND:                -3.692
REMARK SMILES CCCCCCCCCCCCCCCCCCCCCC(=O)[O-]
REMARK SMILES IDX 12 1 11 2 10 3 9 4 8 5 7 6 6 7 5 8 4 9 3 10 2 11 1 12 13 13
REMARK SMILES IDX 14 14 15 15 16 16 17 17 18 18 19 19 20 20 21 21 22 22 23 23
REMARK SMILES IDX 24 24
REMARK H PARENT
REMARK Flexibility Score: inf
ROOT
ATOM      1  C   UNL     1     188.713 183.313 201.367  1.00  0.00     0.000 C 
ENDROOT
BRANCH   1   2
ATOM      2  C   UNL     1     190.111 182.778 201.716  1.00  0.00     0.000 C 
BRANCH   2   3
ATOM      3  C   UNL     1     191.166 183.894 201.802  1.00  0.00     0.000 C 
BRANCH   3   4
ATOM      4  C   UNL     1     190.540 185.298 201.833  1.00  0.00    -0.000 C 
BRANCH   4   5
ATOM      5  C   UNL     1     190.950 186.157 200.628  1.00  0.00    -0.000 C 
BRANCH   5   6
ATOM      6  C   UNL     1     191.513 187.510 201.087  1.00  0.00    -0.000 C 
BRANCH   6   7
ATOM      7  C   UNL     1     192.224 188.271 199.957  1.00  0.00    -0.000 C 
BRANCH   7   8
ATOM      8  C   UNL     1     191.522 189.590 199.596  1.00  0.00    -0.000 C 
BRANCH   8   9
ATOM      9  C   UNL     1     190.430 189.358 198.541  1.00  0.00    -0.000 C 
BRANCH   9  10
ATOM     10  C   UNL     1     189.011 189.488 199.119  1.00  0.00    -0.000 C 
BRANCH  10  11
ATOM     11  C   UNL     1     188.279 188.140 199.194  1.00  0.00    -0.003 C 
ATOM     12  C   UNL     1     187.550 187.985 200.527  1.00  0.00     0.004 C 
ENDBRANCH  10  11
ENDBRANCH   9  10
ENDBRANCH   8   9
ENDBRANCH   7   8
ENDBRANCH   6   7
ENDBRANCH   5   6
ENDBRANCH   4   5
ENDBRANCH   3   4
ENDBRANCH   2   3
ENDBRANCH   1   2
BRANCH   1  13
ATOM     13  C   UNL     1     187.597 182.300 201.667  1.00  0.00     0.000 C 
BRANCH  13  14
ATOM     14  C   UNL     1     187.260 181.471 200.419  1.00  0.00     0.000 C 
BRANCH  14  15
ATOM     15  C   UNL     1     185.761 181.143 200.304  1.00  0.00     0.000 C 
BRANCH  15  16
ATOM     16  C   UNL     1     184.875 181.723 201.426  1.00  0.00     0.000 C 
BRANCH  16  17
ATOM     17  C   UNL     1     183.656 182.531 200.944  1.00  0.00     0.000 C 
BRANCH  17  18
ATOM     18  C   UNL     1     183.977 183.439 199.748  1.00  0.00     0.000 C 
BRANCH  18  19
ATOM     19  C   UNL     1     184.756 184.684 200.200  1.00  0.00     0.000 C 
BRANCH  19  20
ATOM     20  C   UNL     1     186.041 184.905 199.385  1.00  0.00     0.006 C 
BRANCH  20  21
ATOM     21  C   UNL     1     186.042 184.132 198.060  1.00  0.00     0.053 C 
BRANCH  21  22
ATOM     22  C   UNL     1     186.245 185.067 196.910  1.00  0.00     0.041 C 
ATOM     23  O   UNL     1     186.675 184.633 195.809  1.00  0.00    -0.550 OA
ATOM     24  O   UNL     1     185.912 186.409 197.038  1.00  0.00    -0.550 OA
ENDBRANCH  21  22
ENDBRANCH  20  21
ENDBRANCH  19  20
ENDBRANCH  18  19
ENDBRANCH  17  18
ENDBRANCH  16  17
ENDBRANCH  15  16
ENDBRANCH  14  15
ENDBRANCH  13  14
ENDBRANCH   1  13
TORSDOF 20
ENDMDL
MODEL 4
REMARK VINA RESULT:    -3.758     11.698     15.058
REMARK INTER + INTRA:         -11.843
REMARK INTER:                  -8.041
REMARK INTRA:                  -3.802
REMARK UNBOUND:                -3.692
REMARK SMILES CCCCCCCCCCCCCCCCCCCCCC(=O)[O-]
REMARK SMILES IDX 12 1 11 2 10 3 9 4 8 5 7 6 6 7 5 8 4 9 3 10 2 11 1 12 13 13
REMARK SMILES IDX 14 14 15 15 16 16 17 17 18 18 19 19 20 20 21 21 22 22 23 23
REMARK SMILES IDX 24 24
REMARK H PARENT
REMARK Flexibility Score: inf
ROOT
ATOM      1  C   UNL     1     186.591 181.735 198.852  1.00  0.00     0.000 C 
ENDROOT
BRANCH   1   2
ATOM      2  C   UNL     1     185.897 183.107 198.847  1.00  0.00     0.000 C 
BRANCH   2   3
ATOM      3  C   UNL     1     186.424 184.041 199.949  1.00  0.00     0.000 C 
BRANCH   3   4
ATOM      4  C   UNL     1     186.089 185.518 199.682  1.00  0.00    -0.000 C 
BRANCH   4   5
ATOM      5  C   UNL     1     186.381 185.940 198.235  1.00  0.00    -0.000 C 
BRANCH   5   6
ATOM      6  C   UNL     1     186.679 187.445 198.154  1.00  0.00    -0.000 C 
BRANCH   6   7
ATOM      7  C   UNL     1     185.866 188.267 199.166  1.00  0.00    -0.000 C 
BRANCH   7   8
ATOM      8  C   UNL     1     184.632 188.931 198.535  1.00  0.00    -0.000 C 
BRANCH   8   9
ATOM      9  C   UNL     1     184.677 188.829 197.003  1.00  0.00    -0.000 C 
BRANCH   9  10
ATOM     10  C   UNL     1     183.369 188.283 196.407  1.00  0.00    -0.000 C 
BRANCH  10  11
ATOM     11  C   UNL     1     183.547 186.901 195.760  1.00  0.00    -0.003 C 
ATOM     12  C   UNL     1     184.824 186.847 194.925  1.00  0.00     0.004 C 
ENDBRANCH  10  11
ENDBRANCH   9  10
ENDBRANCH   8   9
ENDBRANCH   7   8
ENDBRANCH   6   7
ENDBRANCH   5   6
ENDBRANCH   4   5
ENDBRANCH   3   4
ENDBRANCH   2   3
ENDBRANCH   1   2
BRANCH   1  13
ATOM     13  C   UNL     1     186.554 181.055 200.229  1.00  0.00     0.000 C 
BRANCH  13  14
ATOM     14  C   UNL     1     185.360 180.095 200.333  1.00  0.00     0.000 C 
BRANCH  14  15
ATOM     15  C   UNL     1     184.402 180.453 201.483  1.00  0.00     0.000 C 
BRANCH  15  16
ATOM     16  C   UNL     1     183.324 181.500 201.137  1.00  0.00     0.000 C 
BRANCH  16  17
ATOM     17  C   UNL     1     183.336 182.765 202.013  1.00  0.00     0.000 C 
BRANCH  17  18
ATOM     18  C   UNL     1     182.968 184.036 201.232  1.00  0.00     0.000 C 
BRANCH  18  19
ATOM     19  C   UNL     1     182.283 183.682 199.903  1.00  0.00     0.000 C 
BRANCH  19  20
ATOM     20  C   UNL     1     182.595 184.694 198.789  1.00  0.00     0.006 C 
BRANCH  20  21
ATOM     21  C   UNL     1     182.382 186.147 199.232  1.00  0.00     0.053 C 
BRANCH  21  22
ATOM     22  C   UNL     1     180.984 186.586 198.930  1.00  0.00     0.041 C 
ATOM     23  O   UNL     1     180.262 187.072 199.840  1.00  0.00    -0.550 OA
ATOM     24  O   UNL     1     180.497 186.506 197.632  1.00  0.00    -0.550 OA
ENDBRANCH  21  22
ENDBRANCH  20  21
ENDBRANCH  19  20
ENDBRANCH  18  19
ENDBRANCH  17  18
ENDBRANCH  16  17
ENDBRANCH  15  16
ENDBRANCH  14  15
ENDBRANCH  13  14
ENDBRANCH   1  13
TORSDOF 20
ENDMDL
MODEL 5
REMARK VINA RESULT:    -3.747      1.486      3.501
REMARK INTER + INTRA:         -11.819
REMARK INTER:                  -7.897
REMARK INTRA:                  -3.923
REMARK UNBOUND:                -3.692
REMARK SMILES CCCCCCCCCCCCCCCCCCCCCC(=O)[O-]
REMARK SMILES IDX 12 1 11 2 10 3 9 4 8 5 7 6 6 7 5 8 4 9 3 10 2 11 1 12 13 13
REMARK SMILES IDX 14 14 15 15 16 16 17 17 18 18 19 19 20 20 21 21 22 22 23 23
REMARK SMILES IDX 24 24
REMARK H PARENT
REMARK Flexibility Score: inf
ROOT
ATOM      1  C   UNL     1     195.402 192.756 197.384  1.00  0.00     0.000 C 
ENDROOT
BRANCH   1   2
ATOM      2  C   UNL     1     194.063 192.057 197.092  1.00  0.00     0.000 C 
BRANCH   2   3
ATOM      3  C   UNL     1     194.222 190.543 196.876  1.00  0.00     0.000 C 
BRANCH   3   4
ATOM      4  C   UNL     1     195.658 190.148 196.496  1.00  0.00    -0.000 C 
BRANCH   4   5
ATOM      5  C   UNL     1     196.195 188.982 197.339  1.00  0.00    -0.000 C 
BRANCH   5   6
ATOM      6  C   UNL     1     197.345 189.446 198.246  1.00  0.00    -0.000 C 
BRANCH   6   7
ATOM      7  C   UNL     1     196.850 190.068 199.561  1.00  0.00    -0.000 C 
BRANCH   7   8
ATOM      8  C   UNL     1     195.951 189.117 200.365  1.00  0.00    -0.000 C 
BRANCH   8   9
ATOM      9  C   UNL     1     194.568 189.740 200.604  1.00  0.00    -0.000 C 
BRANCH   9  10
ATOM     10  C   UNL     1     193.431 188.919 199.975  1.00  0.00    -0.000 C 
BRANCH  10  11
ATOM     11  C   UNL     1     192.110 189.699 199.903  1.00  0.00    -0.003 C 
ATOM     12  C   UNL     1     192.116 190.878 200.873  1.00  0.00     0.004 C 
ENDBRANCH  10  11
ENDBRANCH   9  10
ENDBRANCH   8   9
ENDBRANCH   7   8
ENDBRANCH   6   7
ENDBRANCH   5   6
ENDBRANCH   4   5
ENDBRANCH   3   4
ENDBRANCH   2   3
ENDBRANCH   1   2
BRANCH   1  13
ATOM     13  C   UNL     1     195.284 193.836 198.470  1.00  0.00     0.000 C 
BRANCH  13  14
ATOM     14  C   UNL     1     194.593 193.280 199.724  1.00  0.00     0.000 C 
BRANCH  14  15
ATOM     15  C   UNL     1     195.497 193.305 200.969  1.00  0.00     0.000 C 
BRANCH  15  16
ATOM     16  C   UNL     1     196.973 193.663 200.699  1.00  0.00     0.000 C 
BRANCH  16  17
ATOM     17  C   UNL     1     197.627 194.577 201.750  1.00  0.00     0.000 C 
BRANCH  17  18
ATOM     18  C   UNL     1     197.615 196.058 201.344  1.00  0.00     0.000 C 
BRANCH  18  19
ATOM     19  C   UNL     1     196.469 196.808 202.040  1.00  0.00     0.000 C 
BRANCH  19  20
ATOM     20  C   UNL     1     195.356 197.224 201.065  1.00  0.00     0.006 C 
BRANCH  20  21
ATOM     21  C   UNL     1     193.971 196.730 201.503  1.00  0.00     0.053 C 
BRANCH  21  22
ATOM     22  C   UNL     1     193.071 196.578 200.317  1.00  0.00     0.041 C 
ATOM     23  O   UNL     1     193.500 196.828 199.160  1.00  0.00    -0.550 OA
ATOM     24  O   UNL     1     191.773 196.112 200.485  1.00  0.00    -0.550 OA
ENDBRANCH  21  22
ENDBRANCH  20  21
ENDBRANCH  19  20
ENDBRANCH  18  19
ENDBRANCH  17  18
ENDBRANCH  16  17
ENDBRANCH  15  16
ENDBRANCH  14  15
ENDBRANCH  13  14
ENDBRANCH   1  13
TORSDOF 20
ENDMDL
MODEL 6
REMARK VINA RESULT:    -3.737      2.025      3.841
REMARK INTER + INTRA:         -11.799
REMARK INTER:                  -7.536
REMARK INTRA:                  -4.263
REMARK UNBOUND:                -3.692
REMARK SMILES CCCCCCCCCCCCCCCCCCCCCC(=O)[O-]
REMARK SMILES IDX 12 1 11 2 10 3 9 4 8 5 7 6 6 7 5 8 4 9 3 10 2 11 1 12 13 13
REMARK SMILES IDX 14 14 15 15 16 16 17 17 18 18 19 19 20 20 21 21 22 22 23 23
REMARK SMILES IDX 24 24
REMARK H PARENT
REMARK Flexibility Score: inf
ROOT
ATOM      1  C   UNL     1     191.661 192.297 198.308  1.00  0.00     0.000 C 
ENDROOT
BRANCH   1   2
ATOM      2  C   UNL     1     191.733 192.562 199.821  1.00  0.00     0.000 C 
BRANCH   2   3
ATOM      3  C   UNL     1     190.598 191.872 200.596  1.00  0.00     0.000 C 
BRANCH   3   4
ATOM      4  C   UNL     1     189.896 190.782 199.770  1.00  0.00    -0.000 C 
BRANCH   4   5
ATOM      5  C   UNL     1     190.308 189.363 200.188  1.00  0.00    -0.000 C 
BRANCH   5   6
ATOM      6  C   UNL     1     191.281 188.752 199.168  1.00  0.00    -0.000 C 
BRANCH   6   7
ATOM      7  C   UNL     1     192.684 188.523 199.750  1.00  0.00    -0.000 C 
BRANCH   7   8
ATOM      8  C   UNL     1     192.716 188.629 201.282  1.00  0.00    -0.000 C 
BRANCH   8   9
ATOM      9  C   UNL     1     193.803 189.612 201.741  1.00  0.00    -0.000 C 
BRANCH   9  10
ATOM     10  C   UNL     1     194.429 190.392 200.573  1.00  0.00    -0.000 C 
BRANCH  10  11
ATOM     11  C   UNL     1     195.958 190.257 200.525  1.00  0.00    -0.003 C 
ATOM     12  C   UNL     1     196.372 188.816 200.237  1.00  0.00     0.004 C 
ENDBRANCH  10  11
ENDBRANCH   9  10
ENDBRANCH   8   9
ENDBRANCH   7   8
ENDBRANCH   6   7
ENDBRANCH   5   6
ENDBRANCH   4   5
ENDBRANCH   3   4
ENDBRANCH   2   3
ENDBRANCH   1   2
BRANCH   1  13
ATOM     13  C   UNL     1     193.010 192.506 197.603  1.00  0.00     0.000 C 
BRANCH  13  14
ATOM     14  C   UNL     1     193.646 191.161 197.226  1.00  0.00     0.000 C 
BRANCH  14  15
ATOM     15  C   UNL     1     195.160 191.263 196.972  1.00  0.00     0.000 C 
BRANCH  15  16
ATOM     16  C   UNL     1     195.714 192.700 196.884  1.00  0.00     0.000 C 
BRANCH  16  17
ATOM     17  C   UNL     1     196.754 193.067 197.958  1.00  0.00     0.000 C 
BRANCH  17  18
ATOM     18  C   UNL     1     196.329 194.269 198.814  1.00  0.00     0.000 C 
BRANCH  18  19
ATOM     19  C   UNL     1     195.231 193.869 199.812  1.00  0.00     0.000 C 
BRANCH  19  20
ATOM     20  C   UNL     1     194.539 195.085 200.449  1.00  0.00     0.006 C 
BRANCH  20  21
ATOM     21  C   UNL     1     194.192 196.172 199.424  1.00  0.00     0.053 C 
BRANCH  21  22
ATOM     22  C   UNL     1     192.745 196.096 199.051  1.00  0.00     0.041 C 
ATOM     23  O   UNL     1     191.856 196.202 199.936  1.00  0.00    -0.550 OA
ATOM     24  O   UNL     1     192.377 195.960 197.718  1.00  0.00    -0.550 OA
ENDBRANCH  21  22
ENDBRANCH  20  21
ENDBRANCH  19  20
ENDBRANCH  18  19
ENDBRANCH  17  18
ENDBRANCH  16  17
ENDBRANCH  15  16
ENDBRANCH  14  15
ENDBRANCH  13  14
ENDBRANCH   1  13
TORSDOF 20
ENDMDL
MODEL 7
REMARK VINA RESULT:    -3.658      1.659      3.860
REMARK INTER + INTRA:         -11.627
REMARK INTER:                  -7.929
REMARK INTRA:                  -3.699
REMARK UNBOUND:                -3.692
REMARK SMILES CCCCCCCCCCCCCCCCCCCCCC(=O)[O-]
REMARK SMILES IDX 12 1 11 2 10 3 9 4 8 5 7 6 6 7 5 8 4 9 3 10 2 11 1 12 13 13
REMARK SMILES IDX 14 14 15 15 16 16 17 17 18 18 19 19 20 20 21 21 22 22 23 23
REMARK SMILES IDX 24 24
REMARK H PARENT
REMARK Flexibility Score: inf
ROOT
ATOM      1  C   UNL     1     197.155 188.970 196.125  1.00  0.00     0.000 C 
ENDROOT
BRANCH   1   2
ATOM      2  C   UNL     1     196.416 188.238 197.257  1.00  0.00     0.000 C 
BRANCH   2   3
ATOM      3  C   UNL     1     197.330 187.927 198.455  1.00  0.00     0.000 C 
BRANCH   3   4
ATOM      4  C   UNL     1     196.710 188.352 199.796  1.00  0.00    -0.000 C 
BRANCH   4   5
ATOM      5  C   UNL     1     196.499 189.870 199.898  1.00  0.00    -0.000 C 
BRANCH   5   6
ATOM      6  C   UNL     1     195.014 190.205 200.103  1.00  0.00    -0.000 C 
BRANCH   6   7
ATOM      7  C   UNL     1     194.121 188.954 200.128  1.00  0.00    -0.000 C 
BRANCH   7   8
ATOM      8  C   UNL     1     192.965 189.031 199.118  1.00  0.00    -0.000 C 
BRANCH   8   9
ATOM      9  C   UNL     1     193.183 190.178 198.121  1.00  0.00    -0.000 C 
BRANCH   9  10
ATOM     10  C   UNL     1     191.976 191.127 198.036  1.00  0.00    -0.000 C 
BRANCH  10  11
ATOM     11  C   UNL     1     192.349 192.584 198.347  1.00  0.00    -0.003 C 
ATOM     12  C   UNL     1     192.331 192.846 199.851  1.00  0.00     0.004 C 
ENDBRANCH  10  11
ENDBRANCH   9  10
ENDBRANCH   8   9
ENDBRANCH   7   8
ENDBRANCH   6   7
ENDBRANCH   5   6
ENDBRANCH   4   5
ENDBRANCH   3   4
ENDBRANCH   2   3
ENDBRANCH   1   2
BRANCH   1  13
ATOM     13  C   UNL     1     197.225 190.489 196.346  1.00  0.00     0.000 C 
BRANCH  13  14
ATOM     14  C   UNL     1     195.983 191.184 195.770  1.00  0.00     0.000 C 
BRANCH  14  15
ATOM     15  C   UNL     1     195.588 192.450 196.551  1.00  0.00     0.000 C 
BRANCH  15  16
ATOM     16  C   UNL     1     196.525 192.818 197.719  1.00  0.00     0.000 C 
BRANCH  16  17
ATOM     17  C   UNL     1     196.051 193.994 198.592  1.00  0.00     0.000 C 
BRANCH  17  18
ATOM     18  C   UNL     1     195.956 193.631 200.082  1.00  0.00     0.000 C 
BRANCH  18  19
ATOM     19  C   UNL     1     196.380 194.817 200.962  1.00  0.00     0.000 C 
BRANCH  19  20
ATOM     20  C   UNL     1     195.674 196.125 200.573  1.00  0.00     0.006 C 
BRANCH  20  21
ATOM     21  C   UNL     1     194.161 196.078 200.824  1.00  0.00     0.053 C 
BRANCH  21  22
ATOM     22  C   UNL     1     193.444 196.970 199.860  1.00  0.00     0.041 C 
ATOM     23  O   UNL     1     192.539 196.504 199.119  1.00  0.00    -0.550 OA
ATOM     24  O   UNL     1     193.740 198.326 199.817  1.00  0.00    -0.550 OA
ENDBRANCH  21  22
ENDBRANCH  20  21
ENDBRANCH  19  20
ENDBRANCH  18  19
ENDBRANCH  17  18
ENDBRANCH  16  17
ENDBRANCH  15  16
ENDBRANCH  14  15
ENDBRANCH  13  14
ENDBRANCH   1  13
TORSDOF 20
ENDMDL
MODEL 8
REMARK VINA RESULT:    -3.647     11.601     14.724
REMARK INTER + INTRA:         -11.604
REMARK INTER:                  -8.423
REMARK INTRA:                  -3.181
REMARK UNBOUND:                -3.692
REMARK SMILES CCCCCCCCCCCCCCCCCCCCCC(=O)[O-]
REMARK SMILES IDX 12 1 11 2 10 3 9 4 8 5 7 6 6 7 5 8 4 9 3 10 2 11 1 12 13 13
REMARK SMILES IDX 14 14 15 15 16 16 17 17 18 18 19 19 20 20 21 21 22 22 23 23
REMARK SMILES IDX 24 24
REMARK H PARENT
REMARK Flexibility Score: inf
ROOT
ATOM      1  C   UNL     1     185.980 183.387 198.373  1.00  0.00     0.000 C 
ENDROOT
BRANCH   1   2
ATOM      2  C   UNL     1     186.465 182.018 198.878  1.00  0.00     0.000 C 
BRANCH   2   3
ATOM      3  C   UNL     1     187.238 182.117 200.204  1.00  0.00     0.000 C 
BRANCH   3   4
ATOM      4  C   UNL     1     186.774 181.078 201.237  1.00  0.00    -0.000 C 
BRANCH   4   5
ATOM      5  C   UNL     1     185.405 181.417 201.846  1.00  0.00    -0.000 C 
BRANCH   5   6
ATOM      6  C   UNL     1     184.313 180.492 201.288  1.00  0.00    -0.000 C 
BRANCH   6   7
ATOM      7  C   UNL     1     182.956 181.197 201.137  1.00  0.00    -0.000 C 
BRANCH   7   8
ATOM      8  C   UNL     1     182.864 182.489 201.963  1.00  0.00    -0.000 C 
BRANCH   8   9
ATOM      9  C   UNL     1     181.468 183.118 201.843  1.00  0.00    -0.000 C 
BRANCH   9  10
ATOM     10  C   UNL     1     181.512 184.654 201.802  1.00  0.00    -0.000 C 
BRANCH  10  11
ATOM     11  C   UNL     1     180.808 185.232 200.565  1.00  0.00    -0.003 C 
ATOM     12  C   UNL     1     180.988 184.318 199.355  1.00  0.00     0.004 C 
ENDBRANCH  10  11
ENDBRANCH   9  10
ENDBRANCH   8   9
ENDBRANCH   7   8
ENDBRANCH   6   7
ENDBRANCH   5   6
ENDBRANCH   4   5
ENDBRANCH   3   4
ENDBRANCH   2   3
ENDBRANCH   1   2
BRANCH   1  13
ATOM     13  C   UNL     1     184.716 183.874 199.097  1.00  0.00     0.000 C 
BRANCH  13  14
ATOM     14  C   UNL     1     185.072 184.868 200.212  1.00  0.00     0.000 C 
BRANCH  14  15
ATOM     15  C   UNL     1     184.261 186.174 200.133  1.00  0.00     0.000 C 
BRANCH  15  16
ATOM     16  C   UNL     1     185.087 187.441 199.826  1.00  0.00     0.000 C 
BRANCH  16  17
ATOM     17  C   UNL     1     186.406 187.194 199.070  1.00  0.00     0.000 C 
BRANCH  17  18
ATOM     18  C   UNL     1     186.409 187.805 197.661  1.00  0.00     0.000 C 
BRANCH  18  19
ATOM     19  C   UNL     1     185.092 187.501 196.930  1.00  0.00     0.000 C 
BRANCH  19  20
ATOM     20  C   UNL     1     185.175 186.235 196.063  1.00  0.00     0.006 C 
BRANCH  20  21
ATOM     21  C   UNL     1     184.455 186.391 194.717  1.00  0.00     0.053 C 
BRANCH  21  22
ATOM     22  C   UNL     1     185.335 185.931 193.597  1.00  0.00     0.041 C 
ATOM     23  O   UNL     1     186.187 186.712 193.100  1.00  0.00    -0.550 OA
ATOM     24  O   UNL     1     185.248 184.623 193.138  1.00  0.00    -0.550 OA
ENDBRANCH  21  22
ENDBRANCH  20  21
ENDBRANCH  19  20
ENDBRANCH  18  19
ENDBRANCH  17  18
ENDBRANCH  16  17
ENDBRANCH  15  16
ENDBRANCH  14  15
ENDBRANCH  13  14
ENDBRANCH   1  13
TORSDOF 20
ENDMDL
MODEL 9
REMARK VINA RESULT:    -3.626      2.745      6.598
REMARK INTER + INTRA:         -11.557
REMARK INTER:                  -7.397
REMARK INTRA:                  -4.160
REMARK UNBOUND:                -3.692
REMARK SMILES CCCCCCCCCCCCCCCCCCCCCC(=O)[O-]
REMARK SMILES IDX 12 1 11 2 10 3 9 4 8 5 7 6 6 7 5 8 4 9 3 10 2 11 1 12 13 13
REMARK SMILES IDX 14 14 15 15 16 16 17 17 18 18 19 19 20 20 21 21 22 22 23 23
REMARK SMILES IDX 24 24
REMARK H PARENT
REMARK Flexibility Score: inf
ROOT
ATOM      1  C   UNL     1     195.079 189.407 199.526  1.00  0.00     0.000 C 
ENDROOT
BRANCH   1   2
ATOM      2  C   UNL     1     196.422 189.848 198.919  1.00  0.00     0.000 C 
BRANCH   2   3
ATOM      3  C   UNL     1     197.050 191.033 199.673  1.00  0.00     0.000 C 
BRANCH   3   4
ATOM      4  C   UNL     1     196.130 191.588 200.772  1.00  0.00    -0.000 C 
BRANCH   4   5
ATOM      5  C   UNL     1     196.495 193.022 201.183  1.00  0.00    -0.000 C 
BRANCH   5   6
ATOM      6  C   UNL     1     197.253 193.739 200.055  1.00  0.00    -0.000 C 
BRANCH   6   7
ATOM      7  C   UNL     1     196.956 195.246 200.003  1.00  0.00    -0.000 C 
BRANCH   7   8
ATOM      8  C   UNL     1     196.368 195.780 201.319  1.00  0.00    -0.000 C 
BRANCH   8   9
ATOM      9  C   UNL     1     195.246 196.792 201.047  1.00  0.00    -0.000 C 
BRANCH   9  10
ATOM     10  C   UNL     1     194.218 196.278 200.025  1.00  0.00    -0.000 C 
BRANCH  10  11
ATOM     11  C   UNL     1     192.877 195.904 200.674  1.00  0.00    -0.003 C 
ATOM     12  C   UNL     1     191.735 196.729 200.086  1.00  0.00     0.004 C 
ENDBRANCH  10  11
ENDBRANCH   9  10
ENDBRANCH   8   9
ENDBRANCH   7   8
ENDBRANCH   6   7
ENDBRANCH   5   6
ENDBRANCH   4   5
ENDBRANCH   3   4
ENDBRANCH   2   3
ENDBRANCH   1   2
BRANCH   1  13
ATOM     13  C   UNL     1     194.023 189.084 198.458  1.00  0.00     0.000 C 
BRANCH  13  14
ATOM     14  C   UNL     1     192.648 189.634 198.864  1.00  0.00     0.000 C 
BRANCH  14  15
ATOM     15  C   UNL     1     192.673 190.377 200.212  1.00  0.00     0.000 C 
BRANCH  15  16
ATOM     16  C   UNL     1     192.638 191.916 200.113  1.00  0.00     0.000 C 
BRANCH  16  17
ATOM     17  C   UNL     1     191.720 192.479 199.012  1.00  0.00     0.000 C 
BRANCH  17  18
ATOM     18  C   UNL     1     192.496 193.189 197.894  1.00  0.00     0.000 C 
BRANCH  18  19
ATOM     19  C   UNL     1     193.993 193.269 198.231  1.00  0.00     0.000 C 
BRANCH  19  20
ATOM     20  C   UNL     1     194.884 192.738 197.098  1.00  0.00     0.006 C 
BRANCH  20  21
ATOM     21  C   UNL     1     194.088 191.998 196.016  1.00  0.00     0.053 C 
BRANCH  21  22
ATOM     22  C   UNL     1     194.249 192.675 194.692  1.00  0.00     0.041 C 
ATOM     23  O   UNL     1     193.418 193.545 194.320  1.00  0.00    -0.550 OA
ATOM     24  O   UNL     1     195.346 192.383 193.891  1.00  0.00    -0.550 OA
ENDBRANCH  21  22
ENDBRANCH  20  21
ENDBRANCH  19  20
ENDBRANCH  18  19
ENDBRANCH  17  18
ENDBRANCH  16  17
ENDBRANCH  15  16
ENDBRANCH  14  15
ENDBRANCH  13  14
ENDBRANCH   1  13
TORSDOF 20
ENDMDL
