MODEL 1
REMARK VINA RESULT:    -8.065      0.000      0.000
REMARK INTER + INTRA:          -9.770
REMARK INTER:                  -9.480
REMARK INTRA:                  -0.290
REMARK UNBOUND:                -0.290
REMARK SMILES O=c1cc(-c2ccc(O)c(O)c2)oc2cc(O)cc(O)c12
REMARK SMILES IDX 4 1 3 2 2 3 1 4 21 5 19 6 18 7 16 8 15 9 14 10 13 11 5 12
REMARK SMILES IDX 6 13 7 14 8 15 12 16 10 17 9 18 11 20 20 22 17 24
REMARK H PARENT 9 19 11 21 20 23 17 25
REMARK Flexibility Score: inf
ROOT
ATOM      1  C   UNL     1      44.044  -5.055  25.185  1.00  0.00     0.138 A 
ATOM      2  C   UNL     1      44.584  -3.900  25.769  1.00  0.00     0.100 A 
ATOM      3  C   UNL     1      45.282  -2.989  24.977  1.00  0.00     0.197 A 
ATOM      4  O   UNL     1      45.701  -1.932  25.517  1.00  0.00    -0.289 OA
ATOM      5  C   UNL     1      45.466  -3.251  23.599  1.00  0.00     0.107 A 
ATOM      6  C   UNL     1      46.196  -2.413  22.703  1.00  0.00     0.134 A 
ATOM      7  C   UNL     1      46.214  -2.715  21.335  1.00  0.00     0.093 A 
ATOM      8  C   UNL     1      45.580  -3.855  20.841  1.00  0.00     0.123 A 
ATOM      9  C   UNL     1      44.910  -4.711  21.717  1.00  0.00     0.094 A 
ATOM     10  C   UNL     1      44.845  -4.418  23.081  1.00  0.00     0.146 A 
ATOM     11  O   UNL     1      44.185  -5.251  23.879  1.00  0.00    -0.456 OA
ENDROOT
BRANCH   1  12
ATOM     12  C   UNL     1      43.293  -6.059  25.982  1.00  0.00     0.021 A 
ATOM     13  C   UNL     1      43.082  -7.369  25.511  1.00  0.00     0.016 A 
ATOM     14  C   UNL     1      42.363  -8.290  26.276  1.00  0.00     0.051 A 
ATOM     15  C   UNL     1      41.836  -7.922  27.517  1.00  0.00     0.157 A 
ATOM     16  C   UNL     1      42.749  -5.691  27.225  1.00  0.00     0.062 A 
ATOM     17  C   UNL     1      42.027  -6.615  27.994  1.00  0.00     0.158 A 
BRANCH  15  18
ATOM     18  O   UNL     1      41.124  -8.864  28.258  1.00  0.00    -0.504 OA
ATOM     19  H   UNL     1      40.292  -8.619  28.783  1.00  0.00     0.293 HD
ENDBRANCH  15  18
BRANCH  17  20
ATOM     20  O   UNL     1      41.501  -6.239  29.229  1.00  0.00    -0.504 OA
ATOM     21  H   UNL     1      41.850  -5.431  29.731  1.00  0.00     0.293 HD
ENDBRANCH  17  20
ENDBRANCH   1  12
BRANCH   6  22
ATOM     22  O   UNL     1      46.934  -1.296  23.105  1.00  0.00    -0.507 OA
ATOM     23  H   UNL     1      47.645  -1.301  23.820  1.00  0.00     0.293 HD
ENDBRANCH   6  22
BRANCH   8  24
ATOM     24  O   UNL     1      45.632  -4.133  19.477  1.00  0.00    -0.508 OA
ATOM     25  H   UNL     1      44.795  -4.348  18.947  1.00  0.00     0.293 HD
ENDBRANCH   8  24
TORSDOF 5
ENDMDL
MODEL 2
REMARK VINA RESULT:    -7.867      9.627     12.462
REMARK INTER + INTRA:          -9.537
REMARK INTER:                  -9.247
REMARK INTRA:                  -0.290
REMARK UNBOUND:                -0.290
REMARK SMILES O=c1cc(-c2ccc(O)c(O)c2)oc2cc(O)cc(O)c12
REMARK SMILES IDX 4 1 3 2 2 3 1 4 21 5 19 6 18 7 16 8 15 9 14 10 13 11 5 12
REMARK SMILES IDX 6 13 7 14 8 15 12 16 10 17 9 18 11 20 20 22 17 24
REMARK H PARENT 9 19 11 21 20 23 17 25
REMARK Flexibility Score: inf
ROOT
ATOM      1  C   UNL     1      43.951   4.525  19.425  1.00  0.00     0.138 A 
ATOM      2  C   UNL     1      43.608   5.667  20.163  1.00  0.00     0.100 A 
ATOM      3  C   UNL     1      42.393   5.707  20.845  1.00  0.00     0.197 A 
ATOM      4  O   UNL     1      42.140   6.719  21.550  1.00  0.00    -0.289 OA
ATOM      5  C   UNL     1      41.502   4.610  20.762  1.00  0.00     0.107 A 
ATOM      6  C   UNL     1      40.218   4.558  21.383  1.00  0.00     0.134 A 
ATOM      7  C   UNL     1      39.472   3.373  21.327  1.00  0.00     0.093 A 
ATOM      8  C   UNL     1      39.937   2.262  20.625  1.00  0.00     0.123 A 
ATOM      9  C   UNL     1      41.167   2.321  19.968  1.00  0.00     0.094 A 
ATOM     10  C   UNL     1      41.950   3.477  20.034  1.00  0.00     0.146 A 
ATOM     11  O   UNL     1      43.121   3.487  19.407  1.00  0.00    -0.456 OA
ENDROOT
BRANCH   1  12
ATOM     12  C   UNL     1      45.232   4.429  18.678  1.00  0.00     0.021 A 
ATOM     13  C   UNL     1      45.797   3.186  18.335  1.00  0.00     0.016 A 
ATOM     14  C   UNL     1      47.008   3.125  17.643  1.00  0.00     0.051 A 
ATOM     15  C   UNL     1      47.680   4.297  17.286  1.00  0.00     0.157 A 
ATOM     16  C   UNL     1      45.920   5.604  18.328  1.00  0.00     0.062 A 
ATOM     17  C   UNL     1      47.135   5.544  17.632  1.00  0.00     0.158 A 
BRANCH  15  18
ATOM     18  O   UNL     1      48.886   4.203  16.593  1.00  0.00    -0.504 OA
ATOM     19  H   UNL     1      49.135   4.852  15.856  1.00  0.00     0.293 HD
ENDBRANCH  15  18
BRANCH  17  20
ATOM     20  O   UNL     1      47.802   6.717  17.283  1.00  0.00    -0.504 OA
ATOM     21  H   UNL     1      47.637   7.178  16.395  1.00  0.00     0.293 HD
ENDBRANCH  17  20
ENDBRANCH   1  12
BRANCH   6  22
ATOM     22  O   UNL     1      39.623   5.639  22.040  1.00  0.00    -0.507 OA
ATOM     23  H   UNL     1      40.060   6.536  22.188  1.00  0.00     0.293 HD
ENDBRANCH   6  22
BRANCH   8  24
ATOM     24  O   UNL     1      39.162   1.105  20.577  1.00  0.00    -0.508 OA
ATOM     25  H   UNL     1      39.302   0.346  21.233  1.00  0.00     0.293 HD
ENDBRANCH   8  24
TORSDOF 5
ENDMDL
MODEL 3
REMARK VINA RESULT:    -7.774      8.316     11.319
REMARK INTER + INTRA:          -9.428
REMARK INTER:                  -9.166
REMARK INTRA:                  -0.262
REMARK UNBOUND:                -0.290
REMARK SMILES O=c1cc(-c2ccc(O)c(O)c2)oc2cc(O)cc(O)c12
REMARK SMILES IDX 4 1 3 2 2 3 1 4 21 5 19 6 18 7 16 8 15 9 14 10 13 11 5 12
REMARK SMILES IDX 6 13 7 14 8 15 12 16 10 17 9 18 11 20 20 22 17 24
REMARK H PARENT 9 19 11 21 20 23 17 25
REMARK Flexibility Score: inf
ROOT
ATOM      1  C   UNL     1      38.053  -6.936  18.988  1.00  0.00     0.138 A 
ATOM      2  C   UNL     1      38.599  -8.034  19.668  1.00  0.00     0.100 A 
ATOM      3  C   UNL     1      38.004  -8.479  20.849  1.00  0.00     0.197 A 
ATOM      4  O   UNL     1      38.478  -9.504  21.403  1.00  0.00    -0.289 OA
ATOM      5  C   UNL     1      36.876  -7.800  21.367  1.00  0.00     0.107 A 
ATOM      6  C   UNL     1      36.213  -8.139  22.585  1.00  0.00     0.134 A 
ATOM      7  C   UNL     1      35.035  -7.468  22.939  1.00  0.00     0.093 A 
ATOM      8  C   UNL     1      34.532  -6.432  22.152  1.00  0.00     0.123 A 
ATOM      9  C   UNL     1      35.203  -6.056  20.988  1.00  0.00     0.094 A 
ATOM     10  C   UNL     1      36.361  -6.729  20.589  1.00  0.00     0.146 A 
ATOM     11  O   UNL     1      36.961  -6.350  19.467  1.00  0.00    -0.456 OA
ENDROOT
BRANCH   1  12
ATOM     12  C   UNL     1      38.647  -6.421  17.727  1.00  0.00     0.021 A 
ATOM     13  C   UNL     1      39.503  -5.303  17.715  1.00  0.00     0.016 A 
ATOM     14  C   UNL     1      40.038  -4.833  16.514  1.00  0.00     0.051 A 
ATOM     15  C   UNL     1      39.725  -5.462  15.305  1.00  0.00     0.157 A 
ATOM     16  C   UNL     1      38.326  -7.040  16.506  1.00  0.00     0.062 A 
ATOM     17  C   UNL     1      38.863  -6.569  15.300  1.00  0.00     0.158 A 
BRANCH  15  18
ATOM     18  O   UNL     1      40.277  -4.970  14.123  1.00  0.00    -0.504 OA
ATOM     19  H   UNL     1      40.205  -3.993  13.861  1.00  0.00     0.293 HD
ENDBRANCH  15  18
BRANCH  17  20
ATOM     20  O   UNL     1      38.544  -7.199  14.098  1.00  0.00    -0.504 OA
ATOM     21  H   UNL     1      37.593  -7.226  13.748  1.00  0.00     0.293 HD
ENDBRANCH  17  20
ENDBRANCH   1  12
BRANCH   6  22
ATOM     22  O   UNL     1      36.678  -9.101  23.486  1.00  0.00    -0.507 OA
ATOM     23  H   UNL     1      37.381  -9.794  23.278  1.00  0.00     0.293 HD
ENDBRANCH   6  22
BRANCH   8  24
ATOM     24  O   UNL     1      33.366  -5.777  22.543  1.00  0.00    -0.508 OA
ATOM     25  H   UNL     1      33.070  -5.755  23.512  1.00  0.00     0.293 HD
ENDBRANCH   8  24
TORSDOF 5
ENDMDL
MODEL 4
REMARK VINA RESULT:    -7.709      7.413     11.947
REMARK INTER + INTRA:          -9.351
REMARK INTER:                  -9.065
REMARK INTRA:                  -0.286
REMARK UNBOUND:                -0.290
REMARK SMILES O=c1cc(-c2ccc(O)c(O)c2)oc2cc(O)cc(O)c12
REMARK SMILES IDX 4 1 3 2 2 3 1 4 21 5 19 6 18 7 16 8 15 9 14 10 13 11 5 12
REMARK SMILES IDX 6 13 7 14 8 15 12 16 10 17 9 18 11 20 20 22 17 24
REMARK H PARENT 9 19 11 21 20 23 17 25
REMARK Flexibility Score: inf
ROOT
ATOM      1  C   UNL     1      44.719   3.275  19.289  1.00  0.00     0.138 A 
ATOM      2  C   UNL     1      45.367   2.159  19.837  1.00  0.00     0.100 A 
ATOM      3  C   UNL     1      44.615   1.151  20.438  1.00  0.00     0.197 A 
ATOM      4  O   UNL     1      45.219   0.133  20.866  1.00  0.00    -0.289 OA
ATOM      5  C   UNL     1      43.207   1.276  20.518  1.00  0.00     0.107 A 
ATOM      6  C   UNL     1      42.342   0.329  21.145  1.00  0.00     0.134 A 
ATOM      7  C   UNL     1      40.954   0.502  21.061  1.00  0.00     0.093 A 
ATOM      8  C   UNL     1      40.404   1.615  20.427  1.00  0.00     0.123 A 
ATOM      9  C   UNL     1      41.242   2.574  19.858  1.00  0.00     0.094 A 
ATOM     10  C   UNL     1      42.630   2.413  19.895  1.00  0.00     0.146 A 
ATOM     11  O   UNL     1      43.392   3.342  19.329  1.00  0.00    -0.456 OA
ENDROOT
BRANCH   1  12
ATOM     12  C   UNL     1      45.471   4.379  18.638  1.00  0.00     0.021 A 
ATOM     13  C   UNL     1      44.967   5.692  18.593  1.00  0.00     0.016 A 
ATOM     14  C   UNL     1      45.691   6.708  17.965  1.00  0.00     0.051 A 
ATOM     15  C   UNL     1      46.923   6.433  17.366  1.00  0.00     0.157 A 
ATOM     16  C   UNL     1      46.705   4.106  18.022  1.00  0.00     0.062 A 
ATOM     17  C   UNL     1      47.433   5.125  17.392  1.00  0.00     0.158 A 
BRANCH  15  18
ATOM     18  O   UNL     1      47.622   7.470  16.748  1.00  0.00    -0.504 OA
ATOM     19  H   UNL     1      48.626   7.570  16.840  1.00  0.00     0.293 HD
ENDBRANCH  15  18
BRANCH  17  20
ATOM     20  O   UNL     1      48.660   4.844  16.793  1.00  0.00    -0.504 OA
ATOM     21  H   UNL     1      49.479   4.614  17.344  1.00  0.00     0.293 HD
ENDBRANCH  17  20
ENDBRANCH   1  12
BRANCH   6  22
ATOM     22  O   UNL     1      42.790  -0.774  21.877  1.00  0.00    -0.507 OA
ATOM     23  H   UNL     1      43.691  -1.213  21.764  1.00  0.00     0.293 HD
ENDBRANCH   6  22
BRANCH   8  24
ATOM     24  O   UNL     1      39.019   1.761  20.375  1.00  0.00    -0.508 OA
ATOM     25  H   UNL     1      38.514   2.276  21.087  1.00  0.00     0.293 HD
ENDBRANCH   8  24
TORSDOF 5
ENDMDL
MODEL 5
REMARK VINA RESULT:    -7.557      2.321      7.002
REMARK INTER + INTRA:          -9.172
REMARK INTER:                  -8.855
REMARK INTRA:                  -0.317
REMARK UNBOUND:                -0.290
REMARK SMILES O=c1cc(-c2ccc(O)c(O)c2)oc2cc(O)cc(O)c12
REMARK SMILES IDX 4 1 3 2 2 3 1 4 21 5 19 6 18 7 16 8 15 9 14 10 13 11 5 12
REMARK SMILES IDX 6 13 7 14 8 15 12 16 10 17 9 18 11 20 20 22 17 24
REMARK H PARENT 9 19 11 21 20 23 17 25
REMARK Flexibility Score: inf
ROOT
ATOM      1  C   UNL     1      44.973  -4.579  21.384  1.00  0.00     0.138 A 
ATOM      2  C   UNL     1      45.565  -3.428  21.924  1.00  0.00     0.100 A 
ATOM      3  C   UNL     1      45.467  -3.180  23.293  1.00  0.00     0.197 A 
ATOM      4  O   UNL     1      46.060  -2.173  23.758  1.00  0.00    -0.289 OA
ATOM      5  C   UNL     1      44.746  -4.074  24.120  1.00  0.00     0.107 A 
ATOM      6  C   UNL     1      44.545  -3.900  25.522  1.00  0.00     0.134 A 
ATOM      7  C   UNL     1      43.913  -4.910  26.259  1.00  0.00     0.093 A 
ATOM      8  C   UNL     1      43.421  -6.056  25.636  1.00  0.00     0.123 A 
ATOM      9  C   UNL     1      43.563  -6.211  24.256  1.00  0.00     0.094 A 
ATOM     10  C   UNL     1      44.221  -5.238  23.499  1.00  0.00     0.146 A 
ATOM     11  O   UNL     1      44.348  -5.430  22.191  1.00  0.00    -0.456 OA
ENDROOT
BRANCH   1  12
ATOM     12  C   UNL     1      45.046  -4.891  19.933  1.00  0.00     0.021 A 
ATOM     13  C   UNL     1      45.807  -4.108  19.045  1.00  0.00     0.016 A 
ATOM     14  C   UNL     1      45.849  -4.418  17.684  1.00  0.00     0.051 A 
ATOM     15  C   UNL     1      45.130  -5.507  17.183  1.00  0.00     0.157 A 
ATOM     16  C   UNL     1      44.315  -5.977  19.421  1.00  0.00     0.062 A 
ATOM     17  C   UNL     1      44.357  -6.290  18.055  1.00  0.00     0.158 A 
BRANCH  15  18
ATOM     18  O   UNL     1      45.194  -5.792  15.820  1.00  0.00    -0.504 OA
ATOM     19  H   UNL     1      44.579  -5.348  15.148  1.00  0.00     0.293 HD
ENDBRANCH  15  18
BRANCH  17  20
ATOM     20  O   UNL     1      43.634  -7.375  17.562  1.00  0.00    -0.504 OA
ATOM     21  H   UNL     1      43.720  -7.677  16.598  1.00  0.00     0.293 HD
ENDBRANCH  17  20
ENDBRANCH   1  12
BRANCH   6  22
ATOM     22  O   UNL     1      44.923  -2.755  26.230  1.00  0.00    -0.507 OA
ATOM     23  H   UNL     1      45.856  -2.372  26.252  1.00  0.00     0.293 HD
ENDBRANCH   6  22
BRANCH   8  24
ATOM     24  O   UNL     1      42.784  -7.033  26.398  1.00  0.00    -0.508 OA
ATOM     25  H   UNL     1      42.985  -7.152  27.384  1.00  0.00     0.293 HD
ENDBRANCH   8  24
TORSDOF 5
ENDMDL
MODEL 6
REMARK VINA RESULT:    -7.401      3.697      8.757
REMARK INTER + INTRA:          -8.990
REMARK INTER:                  -8.696
REMARK INTRA:                  -0.294
REMARK UNBOUND:                -0.290
REMARK SMILES O=c1cc(-c2ccc(O)c(O)c2)oc2cc(O)cc(O)c12
REMARK SMILES IDX 4 1 3 2 2 3 1 4 21 5 19 6 18 7 16 8 15 9 14 10 13 11 5 12
REMARK SMILES IDX 6 13 7 14 8 15 12 16 10 17 9 18 11 20 20 22 17 24
REMARK H PARENT 9 19 11 21 20 23 17 25
REMARK Flexibility Score: inf
ROOT
ATOM      1  C   UNL     1      44.947  -0.675  21.299  1.00  0.00     0.138 A 
ATOM      2  C   UNL     1      44.868  -1.731  20.381  1.00  0.00     0.100 A 
ATOM      3  C   UNL     1      44.730  -3.039  20.845  1.00  0.00     0.197 A 
ATOM      4  O   UNL     1      44.600  -3.960  19.997  1.00  0.00    -0.289 OA
ATOM      5  C   UNL     1      44.701  -3.292  22.237  1.00  0.00     0.107 A 
ATOM      6  C   UNL     1      44.605  -4.590  22.825  1.00  0.00     0.134 A 
ATOM      7  C   UNL     1      44.469  -4.709  24.214  1.00  0.00     0.093 A 
ATOM      8  C   UNL     1      44.486  -3.585  25.039  1.00  0.00     0.123 A 
ATOM      9  C   UNL     1      44.634  -2.316  24.478  1.00  0.00     0.094 A 
ATOM     10  C   UNL     1      44.737  -2.161  23.094  1.00  0.00     0.146 A 
ATOM     11  O   UNL     1      44.863  -0.934  22.599  1.00  0.00    -0.456 OA
ENDROOT
BRANCH   1  12
ATOM     12  C   UNL     1      45.095   0.737  20.859  1.00  0.00     0.021 A 
ATOM     13  C   UNL     1      44.977   1.809  21.763  1.00  0.00     0.016 A 
ATOM     14  C   UNL     1      45.111   3.127  21.321  1.00  0.00     0.051 A 
ATOM     15  C   UNL     1      45.357   3.400  19.973  1.00  0.00     0.157 A 
ATOM     16  C   UNL     1      45.329   1.019  19.502  1.00  0.00     0.062 A 
ATOM     17  C   UNL     1      45.464   2.341  19.057  1.00  0.00     0.158 A 
BRANCH  15  18
ATOM     18  O   UNL     1      45.487   4.726  19.562  1.00  0.00    -0.504 OA
ATOM     19  H   UNL     1      46.373   5.110  19.257  1.00  0.00     0.293 HD
ENDBRANCH  15  18
BRANCH  17  20
ATOM     20  O   UNL     1      45.705   2.606  17.710  1.00  0.00    -0.504 OA
ATOM     21  H   UNL     1      44.952   2.828  17.069  1.00  0.00     0.293 HD
ENDBRANCH  17  20
ENDBRANCH   1  12
BRANCH   6  22
ATOM     22  O   UNL     1      44.663  -5.783  22.099  1.00  0.00    -0.507 OA
ATOM     23  H   UNL     1      45.105  -5.889  21.199  1.00  0.00     0.293 HD
ENDBRANCH   6  22
BRANCH   8  24
ATOM     24  O   UNL     1      44.363  -3.743  26.418  1.00  0.00    -0.508 OA
ATOM     25  H   UNL     1      43.495  -4.048  26.842  1.00  0.00     0.293 HD
ENDBRANCH   8  24
TORSDOF 5
ENDMDL
MODEL 7
REMARK VINA RESULT:    -7.295      8.461     10.172
REMARK INTER + INTRA:          -8.864
REMARK INTER:                  -8.594
REMARK INTRA:                  -0.270
REMARK UNBOUND:                -0.290
REMARK SMILES O=c1cc(-c2ccc(O)c(O)c2)oc2cc(O)cc(O)c12
REMARK SMILES IDX 4 1 3 2 2 3 1 4 21 5 19 6 18 7 16 8 15 9 14 10 13 11 5 12
REMARK SMILES IDX 6 13 7 14 8 15 12 16 10 17 9 18 11 20 20 22 17 24
REMARK H PARENT 9 19 11 21 20 23 17 25
REMARK Flexibility Score: inf
ROOT
ATOM      1  C   UNL     1      44.207   4.236  24.355  1.00  0.00     0.138 A 
ATOM      2  C   UNL     1      43.610   3.123  23.748  1.00  0.00     0.100 A 
ATOM      3  C   UNL     1      44.107   2.650  22.534  1.00  0.00     0.197 A 
ATOM      4  O   UNL     1      43.591   1.612  22.044  1.00  0.00    -0.289 OA
ATOM      5  C   UNL     1      45.188   3.316  21.909  1.00  0.00     0.107 A 
ATOM      6  C   UNL     1      45.750   2.948  20.650  1.00  0.00     0.134 A 
ATOM      7  C   UNL     1      46.894   3.611  20.185  1.00  0.00     0.093 A 
ATOM      8  C   UNL     1      47.458   4.664  20.903  1.00  0.00     0.123 A 
ATOM      9  C   UNL     1      46.884   5.068  22.109  1.00  0.00     0.094 A 
ATOM     10  C   UNL     1      45.764   4.405  22.616  1.00  0.00     0.146 A 
ATOM     11  O   UNL     1      45.256   4.811  23.775  1.00  0.00    -0.456 OA
ENDROOT
BRANCH   1  12
ATOM     12  C   UNL     1      43.718   4.782  25.648  1.00  0.00     0.021 A 
ATOM     13  C   UNL     1      43.919   4.098  26.862  1.00  0.00     0.016 A 
ATOM     14  C   UNL     1      43.439   4.629  28.061  1.00  0.00     0.051 A 
ATOM     15  C   UNL     1      42.746   5.843  28.072  1.00  0.00     0.157 A 
ATOM     16  C   UNL     1      43.009   5.996  25.663  1.00  0.00     0.062 A 
ATOM     17  C   UNL     1      42.527   6.529  26.867  1.00  0.00     0.158 A 
BRANCH  15  18
ATOM     18  O   UNL     1      42.280   6.347  29.286  1.00  0.00    -0.504 OA
ATOM     19  H   UNL     1      42.907   6.713  29.992  1.00  0.00     0.293 HD
ENDBRANCH  15  18
BRANCH  17  20
ATOM     20  O   UNL     1      41.833   7.739  26.869  1.00  0.00    -0.504 OA
ATOM     21  H   UNL     1      42.135   8.523  27.436  1.00  0.00     0.293 HD
ENDBRANCH  17  20
ENDBRANCH   1  12
BRANCH   6  22
ATOM     22  O   UNL     1      45.215   1.965  19.812  1.00  0.00    -0.507 OA
ATOM     23  H   UNL     1      44.806   2.139  18.907  1.00  0.00     0.293 HD
ENDBRANCH   6  22
BRANCH   8  24
ATOM     24  O   UNL     1      48.587   5.310  20.403  1.00  0.00    -0.508 OA
ATOM     25  H   UNL     1      48.809   6.265  20.660  1.00  0.00     0.293 HD
ENDBRANCH   8  24
TORSDOF 5
ENDMDL
MODEL 8
REMARK VINA RESULT:    -7.228      9.192     12.509
REMARK INTER + INTRA:          -8.786
REMARK INTER:                  -8.522
REMARK INTRA:                  -0.263
REMARK UNBOUND:                -0.290
REMARK SMILES O=c1cc(-c2ccc(O)c(O)c2)oc2cc(O)cc(O)c12
REMARK SMILES IDX 4 1 3 2 2 3 1 4 21 5 19 6 18 7 16 8 15 9 14 10 13 11 5 12
REMARK SMILES IDX 6 13 7 14 8 15 12 16 10 17 9 18 11 20 20 22 17 24
REMARK H PARENT 9 19 11 21 20 23 17 25
REMARK Flexibility Score: inf
ROOT
ATOM      1  C   UNL     1      43.484   4.108  19.633  1.00  0.00     0.138 A 
ATOM      2  C   UNL     1      43.192   2.737  19.631  1.00  0.00     0.100 A 
ATOM      3  C   UNL     1      42.022   2.281  20.238  1.00  0.00     0.197 A 
ATOM      4  O   UNL     1      41.755   1.053  20.167  1.00  0.00    -0.289 OA
ATOM      5  C   UNL     1      41.156   3.200  20.877  1.00  0.00     0.107 A 
ATOM      6  C   UNL     1      39.957   2.843  21.564  1.00  0.00     0.134 A 
ATOM      7  C   UNL     1      39.119   3.852  22.059  1.00  0.00     0.093 A 
ATOM      8  C   UNL     1      39.466   5.197  21.944  1.00  0.00     0.123 A 
ATOM      9  C   UNL     1      40.664   5.554  21.323  1.00  0.00     0.094 A 
ATOM     10  C   UNL     1      41.504   4.574  20.789  1.00  0.00     0.146 A 
ATOM     11  O   UNL     1      42.628   4.956  20.192  1.00  0.00    -0.456 OA
ENDROOT
BRANCH   1  12
ATOM     12  C   UNL     1      44.716   4.648  19.002  1.00  0.00     0.021 A 
ATOM     13  C   UNL     1      44.661   5.516  17.895  1.00  0.00     0.016 A 
ATOM     14  C   UNL     1      45.835   6.001  17.315  1.00  0.00     0.051 A 
ATOM     15  C   UNL     1      47.082   5.624  17.821  1.00  0.00     0.157 A 
ATOM     16  C   UNL     1      45.974   4.263  19.497  1.00  0.00     0.062 A 
ATOM     17  C   UNL     1      47.153   4.749  18.916  1.00  0.00     0.158 A 
BRANCH  15  18
ATOM     18  O   UNL     1      48.237   6.126  17.221  1.00  0.00    -0.504 OA
ATOM     19  H   UNL     1      48.314   7.093  16.928  1.00  0.00     0.293 HD
ENDBRANCH  15  18
BRANCH  17  20
ATOM     20  O   UNL     1      48.395   4.366  19.423  1.00  0.00    -0.504 OA
ATOM     21  H   UNL     1      48.586   3.408  19.692  1.00  0.00     0.293 HD
ENDBRANCH  17  20
ENDBRANCH   1  12
BRANCH   6  22
ATOM     22  O   UNL     1      39.558   1.526  21.807  1.00  0.00    -0.507 OA
ATOM     23  H   UNL     1      39.376   0.837  21.093  1.00  0.00     0.293 HD
ENDBRANCH   6  22
BRANCH   8  24
ATOM     24  O   UNL     1      38.617   6.173  22.462  1.00  0.00    -0.508 OA
ATOM     25  H   UNL     1      38.962   6.912  23.063  1.00  0.00     0.293 HD
ENDBRANCH   8  24
TORSDOF 5
ENDMDL
MODEL 9
REMARK VINA RESULT:    -7.216      9.273     11.272
REMARK INTER + INTRA:          -8.771
REMARK INTER:                  -8.503
REMARK INTRA:                  -0.268
REMARK UNBOUND:                -0.290
REMARK SMILES O=c1cc(-c2ccc(O)c(O)c2)oc2cc(O)cc(O)c12
REMARK SMILES IDX 4 1 3 2 2 3 1 4 21 5 19 6 18 7 16 8 15 9 14 10 13 11 5 12
REMARK SMILES IDX 6 13 7 14 8 15 12 16 10 17 9 18 11 20 20 22 17 24
REMARK H PARENT 9 19 11 21 20 23 17 25
REMARK Flexibility Score: inf
ROOT
ATOM      1  C   UNL     1      43.674   4.783  20.394  1.00  0.00     0.138 A 
ATOM      2  C   UNL     1      44.316   5.114  21.595  1.00  0.00     0.100 A 
ATOM      3  C   UNL     1      45.471   5.895  21.568  1.00  0.00     0.197 A 
ATOM      4  O   UNL     1      45.990   6.228  22.666  1.00  0.00    -0.289 OA
ATOM      5  C   UNL     1      46.004   6.321  20.328  1.00  0.00     0.107 A 
ATOM      6  C   UNL     1      47.199   7.086  20.177  1.00  0.00     0.134 A 
ATOM      7  C   UNL     1      47.566   7.549  18.907  1.00  0.00     0.093 A 
ATOM      8  C   UNL     1      46.816   7.224  17.777  1.00  0.00     0.123 A 
ATOM      9  C   UNL     1      45.676   6.430  17.907  1.00  0.00     0.094 A 
ATOM     10  C   UNL     1      45.264   5.982  19.164  1.00  0.00     0.146 A 
ATOM     11  O   UNL     1      44.164   5.241  19.246  1.00  0.00    -0.456 OA
ENDROOT
BRANCH   1  12
ATOM     12  C   UNL     1      42.442   3.954  20.365  1.00  0.00     0.021 A 
ATOM     13  C   UNL     1      41.194   4.470  20.760  1.00  0.00     0.016 A 
ATOM     14  C   UNL     1      40.053   3.665  20.733  1.00  0.00     0.051 A 
ATOM     15  C   UNL     1      40.137   2.332  20.319  1.00  0.00     0.157 A 
ATOM     16  C   UNL     1      42.522   2.609  19.962  1.00  0.00     0.062 A 
ATOM     17  C   UNL     1      41.377   1.800  19.934  1.00  0.00     0.158 A 
BRANCH  15  18
ATOM     18  O   UNL     1      38.980   1.554  20.302  1.00  0.00    -0.504 OA
ATOM     19  H   UNL     1      38.529   1.242  21.154  1.00  0.00     0.293 HD
ENDBRANCH  15  18
BRANCH  17  20
ATOM     20  O   UNL     1      41.469   0.471  19.523  1.00  0.00    -0.504 OA
ATOM     21  H   UNL     1      41.681   0.225  18.563  1.00  0.00     0.293 HD
ENDBRANCH  17  20
ENDBRANCH   1  12
BRANCH   6  22
ATOM     22  O   UNL     1      48.066   7.396  21.229  1.00  0.00    -0.507 OA
ATOM     23  H   UNL     1      48.524   6.718  21.818  1.00  0.00     0.293 HD
ENDBRANCH   6  22
BRANCH   8  24
ATOM     24  O   UNL     1      47.220   7.688  16.527  1.00  0.00    -0.508 OA
ATOM     25  H   UNL     1      48.180   7.960  16.347  1.00  0.00     0.293 HD
ENDBRANCH   8  24
TORSDOF 5
ENDMDL
