MODEL 1
REMARK VINA RESULT:     4.490      0.000      0.000
REMARK INTER + INTRA:           4.638
REMARK INTER:                   5.934
REMARK INTRA:                  -1.295
REMARK UNBOUND:                -1.295
REMARK SMILES CC[C@H](C=C[C@@H](C)[C@@H]1CC[C@H]2C3=CC[C@H]4C[C@H](O)CC[C@@]4(C)[C@@H]3CC[C@]21C)C(C)C
REMARK SMILES IDX 6 1 7 2 5 3 4 4 3 5 2 6 1 7 28 8 29 9 30 10 8 11 9 12 26 13
REMARK SMILES IDX 10 14 11 15 25 16 27 17 12 18 24 19 23 20 13 21 21 22 14 23
REMARK SMILES IDX 15 24 20 25 22 26 16 27 19 28 17 29 18 30
REMARK H PARENT 18 31
REMARK Flexibility Score: inf
ROOT
ATOM      1  C   UNL     1     138.746 126.250 145.934  1.00  0.00     0.012 C 
ATOM      2  C   UNL     1     138.323 127.305 146.975  1.00  0.00     0.012 C 
ENDROOT
BRANCH   1   3
ATOM      3  C   UNL     1     139.998 126.717 145.221  1.00  0.00    -0.028 C 
ATOM      4  C   UNL     1     140.364 126.244 144.015  1.00  0.00    -0.027 C 
BRANCH   4   5
ATOM      5  C   UNL     1     141.585 126.769 143.285  1.00  0.00     0.014 C 
BRANCH   5   6
ATOM      6  C   UNL     1     142.688 127.145 144.310  1.00  0.00     0.004 C 
ATOM      7  C   UNL     1     143.787 128.063 143.764  1.00  0.00     0.004 C 
ENDBRANCH   5   6
BRANCH   5   8
ATOM      8  C   UNL     1     142.047 125.764 142.185  1.00  0.00    -0.011 C 
ATOM      9  C   UNL     1     143.320 125.015 142.616  1.00  0.00     0.008 C 
ATOM     10  C   UNL     1     140.952 124.735 141.848  1.00  0.00     0.008 C 
ENDBRANCH   5   8
ENDBRANCH   4   5
ENDBRANCH   1   3
BRANCH   1  11
ATOM     11  C   UNL     1     137.594 125.909 144.932  1.00  0.00     0.002 C 
ATOM     12  C   UNL     1     136.518 126.997 144.893  1.00  0.00     0.005 C 
ATOM     13  C   UNL     1     136.791 124.586 145.178  1.00  0.00    -0.023 C 
ATOM     14  C   UNL     1     135.269 126.354 144.307  1.00  0.00     0.009 C 
ATOM     15  C   UNL     1     135.398 124.838 144.510  1.00  0.00     0.021 C 
ATOM     16  C   UNL     1     137.483 123.326 144.573  1.00  0.00     0.008 C 
ATOM     17  C   UNL     1     136.573 124.327 146.692  1.00  0.00     0.012 C 
ATOM     18  C   UNL     1     135.263 124.099 143.183  1.00  0.00    -0.067 C 
ATOM     19  C   UNL     1     137.611 123.325 143.028  1.00  0.00     0.009 C 
ATOM     20  C   UNL     1     136.478 124.099 142.291  1.00  0.00     0.021 C 
ATOM     21  C   UNL     1     134.235 123.257 142.977  1.00  0.00    -0.027 C 
ATOM     22  C   UNL     1     136.188 123.629 140.819  1.00  0.00    -0.023 C 
ATOM     23  C   UNL     1     134.061 122.446 141.724  1.00  0.00     0.031 C 
ATOM     24  C   UNL     1     135.329 122.328 140.834  1.00  0.00     0.002 C 
ATOM     25  C   UNL     1     135.400 124.747 140.067  1.00  0.00     0.010 C 
ATOM     26  C   UNL     1     137.547 123.398 140.089  1.00  0.00     0.012 C 
ATOM     27  C   UNL     1     134.937 121.888 139.401  1.00  0.00     0.036 C 
ATOM     28  C   UNL     1     134.979 124.349 138.639  1.00  0.00     0.032 C 
ATOM     29  C   UNL     1     134.229 123.002 138.593  1.00  0.00     0.114 C 
BRANCH  29  30
ATOM     30  O   UNL     1     134.039 122.592 137.262  1.00  0.00    -0.393 OA
ATOM     31  H   UNL     1     134.931 122.555 136.828  1.00  0.00     0.210 HD
ENDBRANCH  29  30
ENDBRANCH   1  11
TORSDOF 6
ENDMDL
MODEL 2
REMARK VINA RESULT:     6.451      3.583      7.205
REMARK INTER + INTRA:           7.230
REMARK INTER:                   5.330
REMARK INTRA:                   1.901
REMARK UNBOUND:                -1.295
REMARK SMILES CC[C@H](C=C[C@@H](C)[C@@H]1CC[C@H]2C3=CC[C@H]4C[C@H](O)CC[C@@]4(C)[C@@H]3CC[C@]21C)C(C)C
REMARK SMILES IDX 6 1 7 2 5 3 4 4 3 5 2 6 1 7 28 8 29 9 30 10 8 11 9 12 26 13
REMARK SMILES IDX 10 14 11 15 25 16 27 17 12 18 24 19 23 20 13 21 21 22 14 23
REMARK SMILES IDX 15 24 20 25 22 26 16 27 19 28 17 29 18 30
REMARK H PARENT 18 31
REMARK Flexibility Score: inf
ROOT
ATOM      1  C   UNL     1     134.277 121.871 140.626  1.00  0.00     0.012 C 
ATOM      2  C   UNL     1     134.907 120.497 140.922  1.00  0.00     0.012 C 
ENDROOT
BRANCH   1   3
ATOM      3  C   UNL     1     134.948 122.485 139.415  1.00  0.00    -0.028 C 
ATOM      4  C   UNL     1     136.152 122.078 138.970  1.00  0.00    -0.027 C 
BRANCH   4   5
ATOM      5  C   UNL     1     136.782 122.659 137.719  1.00  0.00     0.014 C 
BRANCH   5   6
ATOM      6  C   UNL     1     135.682 123.281 136.818  1.00  0.00     0.004 C 
ATOM      7  C   UNL     1     134.843 124.374 137.490  1.00  0.00     0.004 C 
ENDBRANCH   5   6
BRANCH   5   8
ATOM      8  C   UNL     1     137.941 123.636 138.085  1.00  0.00    -0.011 C 
ATOM      9  C   UNL     1     137.398 125.024 138.470  1.00  0.00     0.008 C 
ATOM     10  C   UNL     1     138.804 123.099 139.242  1.00  0.00     0.008 C 
ENDBRANCH   5   8
ENDBRANCH   4   5
ENDBRANCH   1   3
BRANCH   1  11
ATOM     11  C   UNL     1     134.320 122.824 141.866  1.00  0.00     0.002 C 
ATOM     12  C   UNL     1     132.951 122.968 142.535  1.00  0.00     0.005 C 
ATOM     13  C   UNL     1     134.786 124.300 141.627  1.00  0.00    -0.023 C 
ATOM     14  C   UNL     1     133.003 124.243 143.364  1.00  0.00     0.009 C 
ATOM     15  C   UNL     1     134.125 125.118 142.787  1.00  0.00     0.021 C 
ATOM     16  C   UNL     1     136.337 124.466 141.639  1.00  0.00     0.008 C 
ATOM     17  C   UNL     1     134.261 124.850 140.275  1.00  0.00     0.012 C 
ATOM     18  C   UNL     1     135.135 125.488 143.867  1.00  0.00    -0.067 C 
ATOM     19  C   UNL     1     137.021 124.143 142.992  1.00  0.00     0.009 C 
ATOM     20  C   UNL     1     136.135 124.424 144.241  1.00  0.00     0.021 C 
ATOM     21  C   UNL     1     135.302 126.773 144.228  1.00  0.00    -0.027 C 
ATOM     22  C   UNL     1     136.920 124.725 145.570  1.00  0.00    -0.023 C 
ATOM     23  C   UNL     1     136.316 127.229 145.239  1.00  0.00     0.031 C 
ATOM     24  C   UNL     1     137.432 126.198 145.565  1.00  0.00     0.002 C 
ATOM     25  C   UNL     1     135.965 124.526 146.789  1.00  0.00     0.010 C 
ATOM     26  C   UNL     1     138.104 123.718 145.693  1.00  0.00     0.012 C 
ATOM     27  C   UNL     1     138.124 126.566 146.902  1.00  0.00     0.036 C 
ATOM     28  C   UNL     1     136.609 124.889 148.141  1.00  0.00     0.032 C 
ATOM     29  C   UNL     1     137.236 126.298 148.142  1.00  0.00     0.114 C 
BRANCH  29  30
ATOM     30  O   UNL     1     137.973 126.506 149.321  1.00  0.00    -0.393 OA
ATOM     31  H   UNL     1     138.734 125.868 149.317  1.00  0.00     0.210 HD
ENDBRANCH  29  30
ENDBRANCH   1  11
TORSDOF 6
ENDMDL
