MODEL 1
REMARK VINA RESULT:    -4.674      0.000      0.000
REMARK INTER + INTRA:          -5.212
REMARK INTER:                  -5.631
REMARK INTRA:                   0.418
REMARK UNBOUND:                 0.418
REMARK SMILES O=c1c(O)c(-c2ccc(O)c(O)c2)oc2cc(O)cc(O)c12
REMARK SMILES IDX 5 1 3 2 2 3 1 4 22 5 20 6 19 7 17 8 16 9 15 10 14 11 6 12
REMARK SMILES IDX 7 13 8 14 9 15 13 16 11 17 10 18 12 20 4 22 21 24 18 26
REMARK H PARENT 10 19 12 21 4 23 21 25 18 27
REMARK Flexibility Score: inf
ROOT
ATOM      1  C   UNL     1      32.272  11.509  36.461  1.00  0.00     0.180 A 
ATOM      2  C   UNL     1      31.369  10.735  37.214  1.00  0.00     0.208 A 
ATOM      3  C   UNL     1      31.001  11.178  38.496  1.00  0.00     0.238 A 
ATOM      4  O   UNL     1      30.184  10.499  39.175  1.00  0.00    -0.285 OA
ATOM      5  C   UNL     1      31.555  12.370  39.007  1.00  0.00     0.111 A 
ATOM      6  C   UNL     1      31.239  12.882  40.288  1.00  0.00     0.134 A 
ATOM      7  C   UNL     1      31.839  14.071  40.729  1.00  0.00     0.093 A 
ATOM      8  C   UNL     1      32.746  14.755  39.917  1.00  0.00     0.123 A 
ATOM      9  C   UNL     1      33.061  14.254  38.650  1.00  0.00     0.094 A 
ATOM     10  C   UNL     1      32.473  13.072  38.191  1.00  0.00     0.146 A 
ATOM     11  O   UNL     1      32.786  12.621  36.982  1.00  0.00    -0.452 OA
ENDROOT
BRANCH   1  12
ATOM     12  C   UNL     1      32.694  11.119  35.096  1.00  0.00     0.025 A 
ATOM     13  C   UNL     1      33.744  11.810  34.475  1.00  0.00     0.016 A 
ATOM     14  C   UNL     1      34.145  11.472  33.182  1.00  0.00     0.051 A 
ATOM     15  C   UNL     1      33.498  10.451  32.478  1.00  0.00     0.157 A 
ATOM     16  C   UNL     1      32.027  10.109  34.384  1.00  0.00     0.062 A 
ATOM     17  C   UNL     1      32.419   9.764  33.085  1.00  0.00     0.158 A 
BRANCH  15  18
ATOM     18  O   UNL     1      33.950  10.156  31.190  1.00  0.00    -0.504 OA
ATOM     19  H   UNL     1      34.721   9.536  30.991  1.00  0.00     0.293 HD
ENDBRANCH  15  18
BRANCH  17  20
ATOM     20  O   UNL     1      31.712   8.748  32.437  1.00  0.00    -0.504 OA
ATOM     21  H   UNL     1      31.035   8.152  32.893  1.00  0.00     0.293 HD
ENDBRANCH  17  20
ENDBRANCH   1  12
BRANCH   2  22
ATOM     22  O   UNL     1      30.873   9.533  36.704  1.00  0.00    -0.502 OA
ATOM     23  H   UNL     1      29.945   9.192  36.924  1.00  0.00     0.293 HD
ENDBRANCH   2  22
BRANCH   6  24
ATOM     24  O   UNL     1      30.337  12.222  41.124  1.00  0.00    -0.507 OA
ATOM     25  H   UNL     1      30.364  12.333  42.131  1.00  0.00     0.293 HD
ENDBRANCH   6  24
BRANCH   8  26
ATOM     26  O   UNL     1      33.329  15.933  40.379  1.00  0.00    -0.508 OA
ATOM     27  H   UNL     1      34.328  16.005  40.535  1.00  0.00     0.293 HD
ENDBRANCH   8  26
TORSDOF 6
ENDMDL
MODEL 2
REMARK VINA RESULT:    -3.864      1.020      6.704
REMARK INTER + INTRA:          -4.237
REMARK INTER:                  -4.638
REMARK INTRA:                   0.401
REMARK UNBOUND:                 0.418
REMARK SMILES O=c1c(O)c(-c2ccc(O)c(O)c2)oc2cc(O)cc(O)c12
REMARK SMILES IDX 5 1 3 2 2 3 1 4 22 5 20 6 19 7 17 8 16 9 15 10 14 11 6 12
REMARK SMILES IDX 7 13 8 14 9 15 13 16 11 17 10 18 12 20 4 22 21 24 18 26
REMARK H PARENT 10 19 12 21 4 23 21 25 18 27
REMARK Flexibility Score: inf
ROOT
ATOM      1  C   UNL     1      32.277  12.009  36.608  1.00  0.00     0.180 A 
ATOM      2  C   UNL     1      31.243  11.074  36.409  1.00  0.00     0.208 A 
ATOM      3  C   UNL     1      31.283  10.251  35.271  1.00  0.00     0.238 A 
ATOM      4  O   UNL     1      30.368   9.403  35.088  1.00  0.00    -0.285 OA
ATOM      5  C   UNL     1      32.339  10.391  34.347  1.00  0.00     0.111 A 
ATOM      6  C   UNL     1      32.449   9.604  33.175  1.00  0.00     0.134 A 
ATOM      7  C   UNL     1      33.526   9.810  32.299  1.00  0.00     0.093 A 
ATOM      8  C   UNL     1      34.490  10.783  32.570  1.00  0.00     0.123 A 
ATOM      9  C   UNL     1      34.385  11.563  33.727  1.00  0.00     0.094 A 
ATOM     10  C   UNL     1      33.322  11.372  34.613  1.00  0.00     0.146 A 
ATOM     11  O   UNL     1      33.249  12.122  35.707  1.00  0.00    -0.452 OA
ENDROOT
BRANCH   1  12
ATOM     12  C   UNL     1      32.316  12.898  37.792  1.00  0.00     0.025 A 
ATOM     13  C   UNL     1      33.213  13.974  37.817  1.00  0.00     0.016 A 
ATOM     14  C   UNL     1      33.280  14.813  38.930  1.00  0.00     0.051 A 
ATOM     15  C   UNL     1      32.466  14.586  40.045  1.00  0.00     0.157 A 
ATOM     16  C   UNL     1      31.513  12.653  38.918  1.00  0.00     0.062 A 
ATOM     17  C   UNL     1      31.575  13.486  40.042  1.00  0.00     0.158 A 
BRANCH  15  18
ATOM     18  O   UNL     1      32.577  15.465  41.124  1.00  0.00    -0.504 OA
ATOM     19  H   UNL     1      31.797  15.761  41.694  1.00  0.00     0.293 HD
ENDBRANCH  15  18
BRANCH  17  20
ATOM     20  O   UNL     1      30.746  13.185  41.125  1.00  0.00    -0.504 OA
ATOM     21  H   UNL     1      29.813  13.554  41.242  1.00  0.00     0.293 HD
ENDBRANCH  17  20
ENDBRANCH   1  12
BRANCH   2  22
ATOM     22  O   UNL     1      30.182  10.990  37.314  1.00  0.00    -0.502 OA
ATOM     23  H   UNL     1      29.292  10.574  37.070  1.00  0.00     0.293 HD
ENDBRANCH   2  22
BRANCH   6  24
ATOM     24  O   UNL     1      31.503   8.624  32.874  1.00  0.00    -0.507 OA
ATOM     25  H   UNL     1      31.062   8.569  31.963  1.00  0.00     0.293 HD
ENDBRANCH   6  24
BRANCH   8  26
ATOM     26  O   UNL     1      35.549  10.968  31.684  1.00  0.00    -0.508 OA
ATOM     27  H   UNL     1      36.068  10.182  31.308  1.00  0.00     0.293 HD
ENDBRANCH   8  26
TORSDOF 6
ENDMDL
MODEL 3
REMARK VINA RESULT:    -2.327      1.572      3.453
REMARK INTER + INTRA:          -2.385
REMARK INTER:                  -2.253
REMARK INTRA:                  -0.132
REMARK UNBOUND:                 0.418
REMARK SMILES O=c1c(O)c(-c2ccc(O)c(O)c2)oc2cc(O)cc(O)c12
REMARK SMILES IDX 5 1 3 2 2 3 1 4 22 5 20 6 19 7 17 8 16 9 15 10 14 11 6 12
REMARK SMILES IDX 7 13 8 14 9 15 13 16 11 17 10 18 12 20 4 22 21 24 18 26
REMARK H PARENT 10 19 12 21 4 23 21 25 18 27
REMARK Flexibility Score: inf
ROOT
ATOM      1  C   UNL     1      32.129  11.179  36.457  1.00  0.00     0.180 A 
ATOM      2  C   UNL     1      32.094  12.468  37.023  1.00  0.00     0.208 A 
ATOM      3  C   UNL     1      31.681  12.611  38.358  1.00  0.00     0.238 A 
ATOM      4  O   UNL     1      31.657  13.759  38.879  1.00  0.00    -0.285 OA
ATOM      5  C   UNL     1      31.293  11.472  39.094  1.00  0.00     0.111 A 
ATOM      6  C   UNL     1      30.862  11.532  40.441  1.00  0.00     0.134 A 
ATOM      7  C   UNL     1      30.483  10.354  41.101  1.00  0.00     0.093 A 
ATOM      8  C   UNL     1      30.526   9.122  40.445  1.00  0.00     0.123 A 
ATOM      9  C   UNL     1      30.952   9.058  39.115  1.00  0.00     0.094 A 
ATOM     10  C   UNL     1      31.336  10.219  38.438  1.00  0.00     0.146 A 
ATOM     11  O   UNL     1      31.741  10.129  37.177  1.00  0.00    -0.452 OA
ENDROOT
BRANCH   1  12
ATOM     12  C   UNL     1      32.570  10.944  35.063  1.00  0.00     0.025 A 
ATOM     13  C   UNL     1      31.713  10.286  34.170  1.00  0.00     0.016 A 
ATOM     14  C   UNL     1      32.117  10.036  32.858  1.00  0.00     0.051 A 
ATOM     15  C   UNL     1      33.386  10.425  32.415  1.00  0.00     0.157 A 
ATOM     16  C   UNL     1      33.854  11.315  34.629  1.00  0.00     0.062 A 
ATOM     17  C   UNL     1      34.269  11.066  33.315  1.00  0.00     0.158 A 
BRANCH  15  18
ATOM     18  O   UNL     1      33.726  10.152  31.088  1.00  0.00    -0.504 OA
ATOM     19  H   UNL     1      33.886  10.863  30.389  1.00  0.00     0.293 HD
ENDBRANCH  15  18
BRANCH  17  20
ATOM     20  O   UNL     1      35.558  11.465  32.952  1.00  0.00    -0.504 OA
ATOM     21  H   UNL     1      35.792  11.869  32.056  1.00  0.00     0.293 HD
ENDBRANCH  17  20
ENDBRANCH   1  12
BRANCH   2  22
ATOM     22  O   UNL     1      32.437  13.585  36.258  1.00  0.00    -0.502 OA
ATOM     23  H   UNL     1      32.069  14.509  36.451  1.00  0.00     0.293 HD
ENDBRANCH   2  22
BRANCH   6  24
ATOM     24  O   UNL     1      30.806  12.746  41.125  1.00  0.00    -0.507 OA
ATOM     25  H   UNL     1      30.661  12.788  42.127  1.00  0.00     0.293 HD
ENDBRANCH   6  24
BRANCH   8  26
ATOM     26  O   UNL     1      30.144   7.967  41.124  1.00  0.00    -0.508 OA
ATOM     27  H   UNL     1      30.490   7.054  40.853  1.00  0.00     0.293 HD
ENDBRANCH   8  26
TORSDOF 6
ENDMDL
MODEL 4
REMARK VINA RESULT:    -1.765     16.456     21.333
REMARK INTER + INTRA:          -1.708
REMARK INTER:                  -1.854
REMARK INTRA:                   0.146
REMARK UNBOUND:                 0.418
REMARK SMILES O=c1c(O)c(-c2ccc(O)c(O)c2)oc2cc(O)cc(O)c12
REMARK SMILES IDX 5 1 3 2 2 3 1 4 22 5 20 6 19 7 17 8 16 9 15 10 14 11 6 12
REMARK SMILES IDX 7 13 8 14 9 15 13 16 11 17 10 18 12 20 4 22 21 24 18 26
REMARK H PARENT 10 19 12 21 4 23 21 25 18 27
REMARK Flexibility Score: inf
ROOT
ATOM      1  C   UNL     1      44.939   3.291  23.570  1.00  0.00     0.180 A 
ATOM      2  C   UNL     1      45.440   2.059  23.108  1.00  0.00     0.208 A 
ATOM      3  C   UNL     1      46.638   2.045  22.375  1.00  0.00     0.238 A 
ATOM      4  O   UNL     1      47.101   0.946  21.966  1.00  0.00    -0.285 OA
ATOM      5  C   UNL     1      47.301   3.259  22.101  1.00  0.00     0.111 A 
ATOM      6  C   UNL     1      48.509   3.332  21.367  1.00  0.00     0.134 A 
ATOM      7  C   UNL     1      49.103   4.580  21.128  1.00  0.00     0.093 A 
ATOM      8  C   UNL     1      48.514   5.753  21.606  1.00  0.00     0.123 A 
ATOM      9  C   UNL     1      47.321   5.687  22.332  1.00  0.00     0.094 A 
ATOM     10  C   UNL     1      46.714   4.453  22.583  1.00  0.00     0.146 A 
ATOM     11  O   UNL     1      45.584   4.418  23.279  1.00  0.00    -0.452 OA
ENDROOT
BRANCH   1  12
ATOM     12  C   UNL     1      43.693   3.385  24.365  1.00  0.00     0.025 A 
ATOM     13  C   UNL     1      42.572   2.636  23.982  1.00  0.00     0.016 A 
ATOM     14  C   UNL     1      41.382   2.725  24.704  1.00  0.00     0.051 A 
ATOM     15  C   UNL     1      41.281   3.573  25.812  1.00  0.00     0.157 A 
ATOM     16  C   UNL     1      43.589   4.255  25.463  1.00  0.00     0.062 A 
ATOM     17  C   UNL     1      42.398   4.355  26.193  1.00  0.00     0.158 A 
BRANCH  15  18
ATOM     18  O   UNL     1      40.065   3.612  26.497  1.00  0.00    -0.504 OA
ATOM     19  H   UNL     1      39.983   3.726  27.497  1.00  0.00     0.293 HD
ENDBRANCH  15  18
BRANCH  17  20
ATOM     20  O   UNL     1      42.367   5.238  27.274  1.00  0.00    -0.504 OA
ATOM     21  H   UNL     1      43.132   5.366  27.921  1.00  0.00     0.293 HD
ENDBRANCH  17  20
ENDBRANCH   1  12
BRANCH   2  22
ATOM     22  O   UNL     1      44.738   0.875  23.351  1.00  0.00    -0.502 OA
ATOM     23  H   UNL     1      43.764   0.760  23.096  1.00  0.00     0.293 HD
ENDBRANCH   2  22
BRANCH   6  24
ATOM     24  O   UNL     1      49.122   2.179  20.875  1.00  0.00    -0.507 OA
ATOM     25  H   UNL     1      50.130   2.098  20.806  1.00  0.00     0.293 HD
ENDBRANCH   6  24
BRANCH   8  26
ATOM     26  O   UNL     1      49.125   6.980  21.354  1.00  0.00    -0.508 OA
ATOM     27  H   UNL     1      48.610   7.851  21.419  1.00  0.00     0.293 HD
ENDBRANCH   8  26
TORSDOF 6
ENDMDL
