MODEL 1
REMARK VINA RESULT:    -3.802      0.000      0.000
REMARK INTER + INTRA:          -4.025
REMARK INTER:                  -4.025
REMARK INTRA:                   0.000
REMARK UNBOUND:                 0.000
REMARK SMILES O=c1ccc2cc(O)c(O)cc2o1
REMARK SMILES IDX 4 1 3 2 2 3 1 4 13 5 12 6 11 7 9 8 7 9 6 10 5 11 8 12 10 14
REMARK H PARENT 8 13 10 15
REMARK Flexibility Score: inf
ROOT
ATOM      1  C   UNL     1      45.458  16.400   6.509  1.00  0.00     0.019 A 
ATOM      2  C   UNL     1      45.505  17.593   7.231  1.00  0.00     0.094 A 
ATOM      3  C   UNL     1      46.468  17.739   8.235  1.00  0.00     0.336 A 
ATOM      4  O   UNL     1      46.527  18.808   8.898  1.00  0.00    -0.246 OA
ATOM      5  O   UNL     1      47.324  16.755   8.497  1.00  0.00    -0.423 OA
ATOM      6  C   UNL     1      47.313  15.601   7.832  1.00  0.00     0.142 A 
ATOM      7  C   UNL     1      48.237  14.602   8.151  1.00  0.00     0.098 A 
ATOM      8  C   UNL     1      48.230  13.384   7.454  1.00  0.00     0.161 A 
ATOM      9  C   UNL     1      47.290  13.168   6.431  1.00  0.00     0.158 A 
ATOM     10  C   UNL     1      46.363  14.167   6.110  1.00  0.00     0.062 A 
ATOM     11  C   UNL     1      46.370  15.383   6.805  1.00  0.00     0.022 A 
ENDROOT
BRANCH   9  12
ATOM     12  O   UNL     1      47.262  11.966   5.722  1.00  0.00    -0.504 OA
ATOM     13  H   UNL     1      46.835  11.890   4.807  1.00  0.00     0.293 HD
ENDBRANCH   9  12
BRANCH   8  14
ATOM     14  O   UNL     1      49.154  12.391   7.775  1.00  0.00    -0.504 OA
ATOM     15  H   UNL     1      49.932  12.172   7.163  1.00  0.00     0.293 HD
ENDBRANCH   8  14
TORSDOF 2
ENDMDL
MODEL 2
REMARK VINA RESULT:    -3.800      2.039      4.060
REMARK INTER + INTRA:          -4.022
REMARK INTER:                  -4.022
REMARK INTRA:                   0.000
REMARK UNBOUND:                 0.000
REMARK SMILES O=c1ccc2cc(O)c(O)cc2o1
REMARK SMILES IDX 4 1 3 2 2 3 1 4 13 5 12 6 11 7 9 8 7 9 6 10 5 11 8 12 10 14
REMARK H PARENT 8 13 10 15
REMARK Flexibility Score: inf
ROOT
ATOM      1  C   UNL     1      45.388  15.115   5.626  1.00  0.00     0.019 A 
ATOM      2  C   UNL     1      44.653  14.493   4.617  1.00  0.00     0.094 A 
ATOM      3  C   UNL     1      44.971  13.179   4.259  1.00  0.00     0.336 A 
ATOM      4  O   UNL     1      44.319  12.600   3.351  1.00  0.00    -0.246 OA
ATOM      5  O   UNL     1      45.960  12.533   4.872  1.00  0.00    -0.423 OA
ATOM      6  C   UNL     1      46.686  13.090   5.840  1.00  0.00     0.142 A 
ATOM      7  C   UNL     1      47.714  12.365   6.449  1.00  0.00     0.098 A 
ATOM      8  C   UNL     1      48.482  12.945   7.468  1.00  0.00     0.161 A 
ATOM      9  C   UNL     1      48.218  14.264   7.881  1.00  0.00     0.158 A 
ATOM     10  C   UNL     1      47.190  14.994   7.272  1.00  0.00     0.062 A 
ATOM     11  C   UNL     1      46.421  14.414   6.254  1.00  0.00     0.022 A 
ENDROOT
BRANCH   9  12
ATOM     12  O   UNL     1      48.967  14.865   8.892  1.00  0.00    -0.504 OA
ATOM     13  H   UNL     1      49.310  14.345   9.691  1.00  0.00     0.293 HD
ENDBRANCH   9  12
BRANCH   8  14
ATOM     14  O   UNL     1      49.506  12.218   8.073  1.00  0.00    -0.504 OA
ATOM     15  H   UNL     1      50.361  12.663   8.385  1.00  0.00     0.293 HD
ENDBRANCH   8  14
TORSDOF 2
ENDMDL
MODEL 3
REMARK VINA RESULT:    -3.638      1.273      2.312
REMARK INTER + INTRA:          -3.851
REMARK INTER:                  -3.851
REMARK INTRA:                   0.000
REMARK UNBOUND:                 0.000
REMARK SMILES O=c1ccc2cc(O)c(O)cc2o1
REMARK SMILES IDX 4 1 3 2 2 3 1 4 13 5 12 6 11 7 9 8 7 9 6 10 5 11 8 12 10 14
REMARK H PARENT 8 13 10 15
REMARK Flexibility Score: inf
ROOT
ATOM      1  C   UNL     1      47.206  16.706   8.331  1.00  0.00     0.019 A 
ATOM      2  C   UNL     1      46.272  17.653   7.913  1.00  0.00     0.094 A 
ATOM      3  C   UNL     1      45.402  17.331   6.866  1.00  0.00     0.336 A 
ATOM      4  O   UNL     1      44.551  18.173   6.475  1.00  0.00    -0.246 OA
ATOM      5  O   UNL     1      45.467  16.139   6.278  1.00  0.00    -0.423 OA
ATOM      6  C   UNL     1      46.344  15.207   6.646  1.00  0.00     0.142 A 
ATOM      7  C   UNL     1      46.367  13.972   5.991  1.00  0.00     0.098 A 
ATOM      8  C   UNL     1      47.289  12.986   6.373  1.00  0.00     0.161 A 
ATOM      9  C   UNL     1      48.193  13.240   7.420  1.00  0.00     0.158 A 
ATOM     10  C   UNL     1      48.173  14.476   8.077  1.00  0.00     0.062 A 
ATOM     11  C   UNL     1      47.252  15.462   7.696  1.00  0.00     0.022 A 
ENDROOT
BRANCH   9  12
ATOM     12  O   UNL     1      49.120  12.277   7.820  1.00  0.00    -0.504 OA
ATOM     13  H   UNL     1      50.015  12.525   8.224  1.00  0.00     0.293 HD
ENDBRANCH   9  12
BRANCH   8  14
ATOM     14  O   UNL     1      47.308  11.756   5.718  1.00  0.00    -0.504 OA
ATOM     15  H   UNL     1      47.973  11.032   5.967  1.00  0.00     0.293 HD
ENDBRANCH   8  14
TORSDOF 2
ENDMDL
MODEL 4
REMARK VINA RESULT:    -3.625      3.193      5.218
REMARK INTER + INTRA:          -3.837
REMARK INTER:                  -3.837
REMARK INTRA:                   0.000
REMARK UNBOUND:                 0.000
REMARK SMILES O=c1ccc2cc(O)c(O)cc2o1
REMARK SMILES IDX 4 1 3 2 2 3 1 4 13 5 12 6 11 7 9 8 7 9 6 10 5 11 8 12 10 14
REMARK H PARENT 8 13 10 15
REMARK Flexibility Score: inf
ROOT
ATOM      1  C   UNL     1      45.806  20.102   5.052  1.00  0.00     0.019 A 
ATOM      2  C   UNL     1      45.763  19.443   3.823  1.00  0.00     0.094 A 
ATOM      3  C   UNL     1      46.050  18.075   3.777  1.00  0.00     0.336 A 
ATOM      4  O   UNL     1      46.016  17.462   2.678  1.00  0.00    -0.246 OA
ATOM      5  O   UNL     1      46.361  17.413   4.889  1.00  0.00    -0.423 OA
ATOM      6  C   UNL     1      46.414  18.004   6.082  1.00  0.00     0.142 A 
ATOM      7  C   UNL     1      46.747  17.259   7.216  1.00  0.00     0.098 A 
ATOM      8  C   UNL     1      46.805  17.875   8.475  1.00  0.00     0.161 A 
ATOM      9  C   UNL     1      46.526  19.249   8.597  1.00  0.00     0.158 A 
ATOM     10  C   UNL     1      46.194  19.998   7.462  1.00  0.00     0.062 A 
ATOM     11  C   UNL     1      46.135  19.382   6.204  1.00  0.00     0.022 A 
ENDROOT
BRANCH   9  12
ATOM     12  O   UNL     1      46.577  19.886   9.837  1.00  0.00    -0.504 OA
ATOM     13  H   UNL     1      46.584  20.895   9.924  1.00  0.00     0.293 HD
ENDBRANCH   9  12
BRANCH   8  14
ATOM     14  O   UNL     1      47.136  17.128   9.605  1.00  0.00    -0.504 OA
ATOM     15  H   UNL     1      46.774  17.363  10.522  1.00  0.00     0.293 HD
ENDBRANCH   8  14
TORSDOF 2
ENDMDL
MODEL 5
REMARK VINA RESULT:    -3.613      1.387      4.244
REMARK INTER + INTRA:          -3.824
REMARK INTER:                  -3.824
REMARK INTRA:                   0.000
REMARK UNBOUND:                 0.000
REMARK SMILES O=c1ccc2cc(O)c(O)cc2o1
REMARK SMILES IDX 4 1 3 2 2 3 1 4 13 5 12 6 11 7 9 8 7 9 6 10 5 11 8 12 10 14
REMARK H PARENT 8 13 10 15
REMARK Flexibility Score: inf
ROOT
ATOM      1  C   UNL     1      45.277  15.568   5.670  1.00  0.00     0.019 A 
ATOM      2  C   UNL     1      45.281  14.344   5.001  1.00  0.00     0.094 A 
ATOM      3  C   UNL     1      46.080  13.306   5.492  1.00  0.00     0.336 A 
ATOM      4  O   UNL     1      46.097  12.194   4.902  1.00  0.00    -0.246 OA
ATOM      5  O   UNL     1      46.824  13.485   6.581  1.00  0.00    -0.423 OA
ATOM      6  C   UNL     1      46.849  14.636   7.249  1.00  0.00     0.142 A 
ATOM      7  C   UNL     1      47.650  14.767   8.387  1.00  0.00     0.098 A 
ATOM      8  C   UNL     1      47.681  15.978   9.095  1.00  0.00     0.161 A 
ATOM      9  C   UNL     1      46.902  17.065   8.659  1.00  0.00     0.158 A 
ATOM     10  C   UNL     1      46.099  16.937   7.519  1.00  0.00     0.062 A 
ATOM     11  C   UNL     1      46.068  15.728   6.812  1.00  0.00     0.022 A 
ENDROOT
BRANCH   9  12
ATOM     12  O   UNL     1      46.915  18.280   9.345  1.00  0.00    -0.504 OA
ATOM     13  H   UNL     1      47.214  19.142   8.908  1.00  0.00     0.293 HD
ENDBRANCH   9  12
BRANCH   8  14
ATOM     14  O   UNL     1      48.481  16.103  10.230  1.00  0.00    -0.504 OA
ATOM     15  H   UNL     1      49.280  16.727  10.250  1.00  0.00     0.293 HD
ENDBRANCH   8  14
TORSDOF 2
ENDMDL
MODEL 6
REMARK VINA RESULT:    -3.596      1.920      4.399
REMARK INTER + INTRA:          -3.806
REMARK INTER:                  -3.806
REMARK INTRA:                   0.000
REMARK UNBOUND:                 0.000
REMARK SMILES O=c1ccc2cc(O)c(O)cc2o1
REMARK SMILES IDX 4 1 3 2 2 3 1 4 13 5 12 6 11 7 9 8 7 9 6 10 5 11 8 12 10 14
REMARK H PARENT 8 13 10 15
REMARK Flexibility Score: inf
ROOT
ATOM      1  C   UNL     1      46.863  13.380   6.519  1.00  0.00     0.019 A 
ATOM      2  C   UNL     1      46.077  13.276   5.372  1.00  0.00     0.094 A 
ATOM      3  C   UNL     1      45.339  14.388   4.953  1.00  0.00     0.336 A 
ATOM      4  O   UNL     1      44.624  14.314   3.919  1.00  0.00    -0.246 OA
ATOM      5  O   UNL     1      45.386  15.527   5.640  1.00  0.00    -0.423 OA
ATOM      6  C   UNL     1      46.123  15.668   6.740  1.00  0.00     0.142 A 
ATOM      7  C   UNL     1      46.135  16.888   7.421  1.00  0.00     0.098 A 
ATOM      8  C   UNL     1      46.908  17.044   8.581  1.00  0.00     0.161 A 
ATOM      9  C   UNL     1      47.677  15.968   9.060  1.00  0.00     0.158 A 
ATOM     10  C   UNL     1      47.667  14.744   8.380  1.00  0.00     0.062 A 
ATOM     11  C   UNL     1      46.894  14.588   7.221  1.00  0.00     0.022 A 
ENDROOT
BRANCH   9  12
ATOM     12  O   UNL     1      48.455  16.096  10.211  1.00  0.00    -0.504 OA
ATOM     13  H   UNL     1      48.052  16.071  11.140  1.00  0.00     0.293 HD
ENDBRANCH   9  12
BRANCH   8  14
ATOM     14  O   UNL     1      46.917  18.263   9.257  1.00  0.00    -0.504 OA
ATOM     15  H   UNL     1      47.427  18.385  10.125  1.00  0.00     0.293 HD
ENDBRANCH   8  14
TORSDOF 2
ENDMDL
MODEL 7
REMARK VINA RESULT:    -3.583      2.715      5.811
REMARK INTER + INTRA:          -3.793
REMARK INTER:                  -3.793
REMARK INTRA:                   0.000
REMARK UNBOUND:                 0.000
REMARK SMILES O=c1ccc2cc(O)c(O)cc2o1
REMARK SMILES IDX 4 1 3 2 2 3 1 4 13 5 12 6 11 7 9 8 7 9 6 10 5 11 8 12 10 14
REMARK H PARENT 8 13 10 15
REMARK Flexibility Score: inf
ROOT
ATOM      1  C   UNL     1      45.892  10.491   5.414  1.00  0.00     0.019 A 
ATOM      2  C   UNL     1      46.298   9.162   5.527  1.00  0.00     0.094 A 
ATOM      3  C   UNL     1      47.392   8.855   6.342  1.00  0.00     0.336 A 
ATOM      4  O   UNL     1      47.774   7.660   6.457  1.00  0.00    -0.246 OA
ATOM      5  O   UNL     1      48.034   9.817   6.999  1.00  0.00    -0.423 OA
ATOM      6  C   UNL     1      47.679  11.098   6.920  1.00  0.00     0.142 A 
ATOM      7  C   UNL     1      48.391  12.066   7.632  1.00  0.00     0.098 A 
ATOM      8  C   UNL     1      48.023  13.417   7.552  1.00  0.00     0.161 A 
ATOM      9  C   UNL     1      46.931  13.799   6.751  1.00  0.00     0.158 A 
ATOM     10  C   UNL     1      46.216  12.832   6.035  1.00  0.00     0.062 A 
ATOM     11  C   UNL     1      46.584  11.482   6.116  1.00  0.00     0.022 A 
ENDROOT
BRANCH   9  12
ATOM     12  O   UNL     1      46.544  15.136   6.654  1.00  0.00    -0.504 OA
ATOM     13  H   UNL     1      47.147  15.895   6.945  1.00  0.00     0.293 HD
ENDBRANCH   9  12
BRANCH   8  14
ATOM     14  O   UNL     1      48.735  14.380   8.265  1.00  0.00    -0.504 OA
ATOM     15  H   UNL     1      49.068  15.230   7.823  1.00  0.00     0.293 HD
ENDBRANCH   8  14
TORSDOF 2
ENDMDL
MODEL 8
REMARK VINA RESULT:    -3.505      2.296      3.401
REMARK INTER + INTRA:          -3.710
REMARK INTER:                  -3.710
REMARK INTRA:                   0.000
REMARK UNBOUND:                 0.000
REMARK SMILES O=c1ccc2cc(O)c(O)cc2o1
REMARK SMILES IDX 4 1 3 2 2 3 1 4 13 5 12 6 11 7 9 8 7 9 6 10 5 11 8 12 10 14
REMARK H PARENT 8 13 10 15
REMARK Flexibility Score: inf
ROOT
ATOM      1  C   UNL     1      46.851  18.593   7.286  1.00  0.00     0.019 A 
ATOM      2  C   UNL     1      46.476  18.861   5.970  1.00  0.00     0.094 A 
ATOM      3  C   UNL     1      46.096  17.798   5.144  1.00  0.00     0.336 A 
ATOM      4  O   UNL     1      45.753  18.020   3.953  1.00  0.00    -0.246 OA
ATOM      5  O   UNL     1      46.094  16.551   5.608  1.00  0.00    -0.423 OA
ATOM      6  C   UNL     1      46.445  16.252   6.857  1.00  0.00     0.142 A 
ATOM      7  C   UNL     1      46.424  14.923   7.290  1.00  0.00     0.098 A 
ATOM      8  C   UNL     1      46.793  14.601   8.605  1.00  0.00     0.161 A 
ATOM      9  C   UNL     1      47.185  15.620   9.492  1.00  0.00     0.158 A 
ATOM     10  C   UNL     1      47.208  16.952   9.061  1.00  0.00     0.062 A 
ATOM     11  C   UNL     1      46.839  17.274   7.747  1.00  0.00     0.022 A 
ENDROOT
BRANCH   9  12
ATOM     12  O   UNL     1      47.557  15.327  10.804  1.00  0.00    -0.504 OA
ATOM     13  H   UNL     1      47.486  16.010  11.549  1.00  0.00     0.293 HD
ENDBRANCH   9  12
BRANCH   8  14
ATOM     14  O   UNL     1      46.770  13.275   9.032  1.00  0.00    -0.504 OA
ATOM     15  H   UNL     1      46.190  12.977   9.809  1.00  0.00     0.293 HD
ENDBRANCH   8  14
TORSDOF 2
ENDMDL
MODEL 9
REMARK VINA RESULT:    -3.499      1.070      4.502
REMARK INTER + INTRA:          -3.703
REMARK INTER:                  -3.703
REMARK INTRA:                   0.000
REMARK UNBOUND:                 0.000
REMARK SMILES O=c1ccc2cc(O)c(O)cc2o1
REMARK SMILES IDX 4 1 3 2 2 3 1 4 13 5 12 6 11 7 9 8 7 9 6 10 5 11 8 12 10 14
REMARK H PARENT 8 13 10 15
REMARK Flexibility Score: inf
ROOT
ATOM      1  C   UNL     1      46.459  13.602   5.956  1.00  0.00     0.019 A 
ATOM      2  C   UNL     1      47.297  12.534   6.276  1.00  0.00     0.094 A 
ATOM      3  C   UNL     1      48.190  12.669   7.344  1.00  0.00     0.336 A 
ATOM      4  O   UNL     1      48.954  11.716   7.649  1.00  0.00    -0.246 OA
ATOM      5  O   UNL     1      48.238  13.800   8.044  1.00  0.00    -0.423 OA
ATOM      6  C   UNL     1      47.456  14.843   7.772  1.00  0.00     0.142 A 
ATOM      7  C   UNL     1      47.551  16.007   8.540  1.00  0.00     0.098 A 
ATOM      8  C   UNL     1      46.731  17.109   8.259  1.00  0.00     0.161 A 
ATOM      9  C   UNL     1      45.808  17.044   7.199  1.00  0.00     0.158 A 
ATOM     10  C   UNL     1      45.712  15.880   6.427  1.00  0.00     0.062 A 
ATOM     11  C   UNL     1      46.531  14.778   6.708  1.00  0.00     0.022 A 
ENDROOT
BRANCH   9  12
ATOM     12  O   UNL     1      44.981  18.126   6.898  1.00  0.00    -0.504 OA
ATOM     13  H   UNL     1      44.231  18.059   6.220  1.00  0.00     0.293 HD
ENDBRANCH   9  12
BRANCH   8  14
ATOM     14  O   UNL     1      46.828  18.267   9.028  1.00  0.00    -0.504 OA
ATOM     15  H   UNL     1      47.590  18.924   8.905  1.00  0.00     0.293 HD
ENDBRANCH   8  14
TORSDOF 2
ENDMDL
