MODEL 1
REMARK VINA RESULT:    -6.984      0.000      0.000
REMARK INTER + INTRA:          -8.319
REMARK INTER:                  -8.413
REMARK INTRA:                   0.093
REMARK UNBOUND:                 0.093
REMARK SMILES O=c1c(O)c(-c2ccc(O)c(O)c2)oc2cc(O)cc(O)c12
REMARK SMILES IDX 5 1 3 2 2 3 1 4 22 5 20 6 19 7 17 8 16 9 15 10 14 11 6 12
REMARK SMILES IDX 7 13 8 14 9 15 13 16 11 17 10 18 12 20 4 22 21 24 18 26
REMARK H PARENT 10 19 12 21 4 23 21 25 18 27
REMARK Flexibility Score: inf
ROOT
ATOM      1  C   UNL     1      20.732  49.573  45.770  1.00  0.00     0.180 A 
ATOM      2  C   UNL     1      19.756  50.039  44.868  1.00  0.00     0.208 A 
ATOM      3  C   UNL     1      19.306  49.180  43.853  1.00  0.00     0.238 A 
ATOM      4  O   UNL     1      18.440  49.590  43.032  1.00  0.00    -0.285 OA
ATOM      5  C   UNL     1      19.822  47.871  43.767  1.00  0.00     0.111 A 
ATOM      6  C   UNL     1      19.420  46.943  42.776  1.00  0.00     0.134 A 
ATOM      7  C   UNL     1      19.975  45.655  42.764  1.00  0.00     0.093 A 
ATOM      8  C   UNL     1      20.920  45.277  43.720  1.00  0.00     0.123 A 
ATOM      9  C   UNL     1      21.322  46.189  44.700  1.00  0.00     0.094 A 
ATOM     10  C   UNL     1      20.783  47.478  44.729  1.00  0.00     0.146 A 
ATOM     11  O   UNL     1      21.185  48.327  45.668  1.00  0.00    -0.452 OA
ENDROOT
BRANCH   1  12
ATOM     12  C   UNL     1      21.270  50.424  46.856  1.00  0.00     0.025 A 
ATOM     13  C   UNL     1      22.648  50.472  47.132  1.00  0.00     0.016 A 
ATOM     14  C   UNL     1      23.131  51.265  48.177  1.00  0.00     0.051 A 
ATOM     15  C   UNL     1      22.245  52.008  48.968  1.00  0.00     0.157 A 
ATOM     16  C   UNL     1      20.385  51.155  47.665  1.00  0.00     0.062 A 
ATOM     17  C   UNL     1      20.869  51.951  48.713  1.00  0.00     0.158 A 
BRANCH  15  18
ATOM     18  O   UNL     1      22.723  52.801  50.010  1.00  0.00    -0.504 OA
ATOM     19  H   UNL     1      23.705  53.041  50.085  1.00  0.00     0.293 HD
ENDBRANCH  15  18
BRANCH  17  20
ATOM     20  O   UNL     1      19.989  52.685  49.506  1.00  0.00    -0.504 OA
ATOM     21  H   UNL     1      20.286  53.104  50.379  1.00  0.00     0.293 HD
ENDBRANCH  17  20
ENDBRANCH   1  12
BRANCH   2  22
ATOM     22  O   UNL     1      19.224  51.324  45.004  1.00  0.00    -0.502 OA
ATOM     23  H   UNL     1      18.966  51.891  44.206  1.00  0.00     0.293 HD
ENDBRANCH   2  22
BRANCH   6  24
ATOM     24  O   UNL     1      18.477  47.290  41.808  1.00  0.00    -0.507 OA
ATOM     25  H   UNL     1      18.038  46.593  41.217  1.00  0.00     0.293 HD
ENDBRANCH   6  24
BRANCH   8  26
ATOM     26  O   UNL     1      21.454  43.990  43.686  1.00  0.00    -0.508 OA
ATOM     27  H   UNL     1      20.863  43.169  43.735  1.00  0.00     0.293 HD
ENDBRANCH   8  26
TORSDOF 6
ENDMDL
MODEL 2
REMARK VINA RESULT:    -6.856      2.444      4.235
REMARK INTER + INTRA:          -8.166
REMARK INTER:                  -7.962
REMARK INTRA:                  -0.204
REMARK UNBOUND:                 0.093
REMARK SMILES O=c1c(O)c(-c2ccc(O)c(O)c2)oc2cc(O)cc(O)c12
REMARK SMILES IDX 5 1 3 2 2 3 1 4 22 5 20 6 19 7 17 8 16 9 15 10 14 11 6 12
REMARK SMILES IDX 7 13 8 14 9 15 13 16 11 17 10 18 12 20 4 22 21 24 18 26
REMARK H PARENT 10 19 12 21 4 23 21 25 18 27
REMARK Flexibility Score: inf
ROOT
ATOM      1  C   UNL     1      19.852  48.398  43.772  1.00  0.00     0.180 A 
ATOM      2  C   UNL     1      20.015  47.083  43.296  1.00  0.00     0.208 A 
ATOM      3  C   UNL     1      19.014  46.527  42.483  1.00  0.00     0.238 A 
ATOM      4  O   UNL     1      19.144  45.346  42.059  1.00  0.00    -0.285 OA
ATOM      5  C   UNL     1      17.883  47.298  42.145  1.00  0.00     0.111 A 
ATOM      6  C   UNL     1      16.831  46.814  41.329  1.00  0.00     0.134 A 
ATOM      7  C   UNL     1      15.743  47.647  41.031  1.00  0.00     0.093 A 
ATOM      8  C   UNL     1      15.684  48.949  41.530  1.00  0.00     0.123 A 
ATOM      9  C   UNL     1      16.719  49.432  42.338  1.00  0.00     0.094 A 
ATOM     10  C   UNL     1      17.811  48.618  42.648  1.00  0.00     0.146 A 
ATOM     11  O   UNL     1      18.778  49.100  43.421  1.00  0.00    -0.452 OA
ENDROOT
BRANCH   1  12
ATOM     12  C   UNL     1      20.853  49.047  44.649  1.00  0.00     0.025 A 
ATOM     13  C   UNL     1      22.129  49.394  44.171  1.00  0.00     0.016 A 
ATOM     14  C   UNL     1      23.065  49.985  45.024  1.00  0.00     0.051 A 
ATOM     15  C   UNL     1      22.746  50.225  46.367  1.00  0.00     0.157 A 
ATOM     16  C   UNL     1      20.545  49.271  46.001  1.00  0.00     0.062 A 
ATOM     17  C   UNL     1      21.484  49.865  46.857  1.00  0.00     0.158 A 
BRANCH  15  18
ATOM     18  O   UNL     1      23.676  50.815  47.219  1.00  0.00    -0.504 OA
ATOM     19  H   UNL     1      23.391  51.437  47.966  1.00  0.00     0.293 HD
ENDBRANCH  15  18
BRANCH  17  20
ATOM     20  O   UNL     1      21.171  50.098  48.195  1.00  0.00    -0.504 OA
ATOM     21  H   UNL     1      20.713  50.951  48.491  1.00  0.00     0.293 HD
ENDBRANCH  17  20
ENDBRANCH   1  12
BRANCH   2  22
ATOM     22  O   UNL     1      21.168  46.358  43.604  1.00  0.00    -0.502 OA
ATOM     23  H   UNL     1      21.143  45.373  43.840  1.00  0.00     0.293 HD
ENDBRANCH   2  22
BRANCH   6  24
ATOM     24  O   UNL     1      16.862  45.517  40.813  1.00  0.00    -0.507 OA
ATOM     25  H   UNL     1      17.555  45.231  40.132  1.00  0.00     0.293 HD
ENDBRANCH   6  24
BRANCH   8  26
ATOM     26  O   UNL     1      14.592  49.756  41.218  1.00  0.00    -0.508 OA
ATOM     27  H   UNL     1      13.650  49.502  41.490  1.00  0.00     0.293 HD
ENDBRANCH   8  26
TORSDOF 6
ENDMDL
MODEL 3
REMARK VINA RESULT:    -6.746      4.936     10.063
REMARK INTER + INTRA:          -8.034
REMARK INTER:                  -7.834
REMARK INTRA:                  -0.199
REMARK UNBOUND:                 0.093
REMARK SMILES O=c1c(O)c(-c2ccc(O)c(O)c2)oc2cc(O)cc(O)c12
REMARK SMILES IDX 5 1 3 2 2 3 1 4 22 5 20 6 19 7 17 8 16 9 15 10 14 11 6 12
REMARK SMILES IDX 7 13 8 14 9 15 13 16 11 17 10 18 12 20 4 22 21 24 18 26
REMARK H PARENT 10 19 12 21 4 23 21 25 18 27
REMARK Flexibility Score: inf
ROOT
ATOM      1  C   UNL     1      17.521  45.933  39.637  1.00  0.00     0.180 A 
ATOM      2  C   UNL     1      18.425  45.251  40.473  1.00  0.00     0.208 A 
ATOM      3  C   UNL     1      18.614  45.710  41.785  1.00  0.00     0.238 A 
ATOM      4  O   UNL     1      19.430  45.113  42.540  1.00  0.00    -0.285 OA
ATOM      5  C   UNL     1      17.887  46.827  42.245  1.00  0.00     0.111 A 
ATOM      6  C   UNL     1      18.017  47.352  43.554  1.00  0.00     0.134 A 
ATOM      7  C   UNL     1      17.249  48.461  43.938  1.00  0.00     0.093 A 
ATOM      8  C   UNL     1      16.358  49.055  43.043  1.00  0.00     0.123 A 
ATOM      9  C   UNL     1      16.226  48.543  41.748  1.00  0.00     0.094 A 
ATOM     10  C   UNL     1      16.982  47.439  41.345  1.00  0.00     0.146 A 
ATOM     11  O   UNL     1      16.841  46.974  40.109  1.00  0.00    -0.452 OA
ENDROOT
BRANCH   1  12
ATOM     12  C   UNL     1      17.281  45.522  38.235  1.00  0.00     0.025 A 
ATOM     13  C   UNL     1      16.061  44.945  37.840  1.00  0.00     0.016 A 
ATOM     14  C   UNL     1      15.865  44.544  36.516  1.00  0.00     0.051 A 
ATOM     15  C   UNL     1      16.888  44.699  35.572  1.00  0.00     0.157 A 
ATOM     16  C   UNL     1      18.310  45.657  37.289  1.00  0.00     0.062 A 
ATOM     17  C   UNL     1      18.114  45.254  35.960  1.00  0.00     0.158 A 
BRANCH  15  18
ATOM     18  O   UNL     1      16.696  44.301  34.250  1.00  0.00    -0.504 OA
ATOM     19  H   UNL     1      15.768  44.181  33.863  1.00  0.00     0.293 HD
ENDBRANCH  15  18
BRANCH  17  20
ATOM     20  O   UNL     1      19.134  45.402  35.020  1.00  0.00    -0.504 OA
ATOM     21  H   UNL     1      19.883  44.725  34.941  1.00  0.00     0.293 HD
ENDBRANCH  17  20
ENDBRANCH   1  12
BRANCH   2  22
ATOM     22  O   UNL     1      19.097  44.117  40.009  1.00  0.00    -0.502 OA
ATOM     23  H   UNL     1      18.826  43.635  39.160  1.00  0.00     0.293 HD
ENDBRANCH   2  22
BRANCH   6  24
ATOM     24  O   UNL     1      18.898  46.779  44.472  1.00  0.00    -0.507 OA
ATOM     25  H   UNL     1      19.707  47.281  44.818  1.00  0.00     0.293 HD
ENDBRANCH   6  24
BRANCH   8  26
ATOM     26  O   UNL     1      15.606  50.155  43.450  1.00  0.00    -0.508 OA
ATOM     27  H   UNL     1      14.991  50.643  42.810  1.00  0.00     0.293 HD
ENDBRANCH   8  26
TORSDOF 6
ENDMDL
MODEL 4
REMARK VINA RESULT:    -6.668      1.635      2.105
REMARK INTER + INTRA:          -7.939
REMARK INTER:                  -7.614
REMARK INTRA:                  -0.325
REMARK UNBOUND:                 0.093
REMARK SMILES O=c1c(O)c(-c2ccc(O)c(O)c2)oc2cc(O)cc(O)c12
REMARK SMILES IDX 5 1 3 2 2 3 1 4 22 5 20 6 19 7 17 8 16 9 15 10 14 11 6 12
REMARK SMILES IDX 7 13 8 14 9 15 13 16 11 17 10 18 12 20 4 22 21 24 18 26
REMARK H PARENT 10 19 12 21 4 23 21 25 18 27
REMARK Flexibility Score: inf
ROOT
ATOM      1  C   UNL     1      19.980  49.432  45.605  1.00  0.00     0.180 A 
ATOM      2  C   UNL     1      19.092  50.337  44.993  1.00  0.00     0.208 A 
ATOM      3  C   UNL     1      18.373  49.922  43.861  1.00  0.00     0.238 A 
ATOM      4  O   UNL     1      17.582  50.728  43.298  1.00  0.00    -0.285 OA
ATOM      5  C   UNL     1      18.539  48.610  43.373  1.00  0.00     0.111 A 
ATOM      6  C   UNL     1      17.851  48.112  42.239  1.00  0.00     0.134 A 
ATOM      7  C   UNL     1      18.064  46.791  41.822  1.00  0.00     0.093 A 
ATOM      8  C   UNL     1      18.948  45.959  42.511  1.00  0.00     0.123 A 
ATOM      9  C   UNL     1      19.632  46.445  43.630  1.00  0.00     0.094 A 
ATOM     10  C   UNL     1      19.435  47.760  44.062  1.00  0.00     0.146 A 
ATOM     11  O   UNL     1      20.100  48.198  45.125  1.00  0.00    -0.452 OA
ENDROOT
BRANCH   1  12
ATOM     12  C   UNL     1      20.787  49.801  46.790  1.00  0.00     0.025 A 
ATOM     13  C   UNL     1      20.307  49.596  48.095  1.00  0.00     0.016 A 
ATOM     14  C   UNL     1      21.077  49.972  49.199  1.00  0.00     0.051 A 
ATOM     15  C   UNL     1      22.330  50.571  49.014  1.00  0.00     0.157 A 
ATOM     16  C   UNL     1      22.035  50.420  46.611  1.00  0.00     0.062 A 
ATOM     17  C   UNL     1      22.809  50.798  47.718  1.00  0.00     0.158 A 
BRANCH  15  18
ATOM     18  O   UNL     1      23.101  50.947  50.113  1.00  0.00    -0.504 OA
ATOM     19  H   UNL     1      23.535  51.861  50.168  1.00  0.00     0.293 HD
ENDBRANCH  15  18
BRANCH  17  20
ATOM     20  O   UNL     1      24.053  51.401  47.537  1.00  0.00    -0.504 OA
ATOM     21  H   UNL     1      24.622  51.206  46.722  1.00  0.00     0.293 HD
ENDBRANCH  17  20
ENDBRANCH   1  12
BRANCH   2  22
ATOM     22  O   UNL     1      18.908  51.616  45.526  1.00  0.00    -0.502 OA
ATOM     23  H   UNL     1      19.239  52.451  45.058  1.00  0.00     0.293 HD
ENDBRANCH   2  22
BRANCH   6  24
ATOM     24  O   UNL     1      16.959  48.918  41.530  1.00  0.00    -0.507 OA
ATOM     25  H   UNL     1      17.256  49.464  40.729  1.00  0.00     0.293 HD
ENDBRANCH   6  24
BRANCH   8  26
ATOM     26  O   UNL     1      19.141  44.649  42.076  1.00  0.00    -0.508 OA
ATOM     27  H   UNL     1      18.896  44.362  41.136  1.00  0.00     0.293 HD
ENDBRANCH   8  26
TORSDOF 6
ENDMDL
MODEL 5
REMARK VINA RESULT:    -6.643      3.528      6.255
REMARK INTER + INTRA:          -7.909
REMARK INTER:                  -7.588
REMARK INTRA:                  -0.321
REMARK UNBOUND:                 0.093
REMARK SMILES O=c1c(O)c(-c2ccc(O)c(O)c2)oc2cc(O)cc(O)c12
REMARK SMILES IDX 5 1 3 2 2 3 1 4 22 5 20 6 19 7 17 8 16 9 15 10 14 11 6 12
REMARK SMILES IDX 7 13 8 14 9 15 13 16 11 17 10 18 12 20 4 22 21 24 18 26
REMARK H PARENT 10 19 12 21 4 23 21 25 18 27
REMARK Flexibility Score: inf
ROOT
ATOM      1  C   UNL     1      17.200  48.711  44.710  1.00  0.00     0.180 A 
ATOM      2  C   UNL     1      17.944  49.780  45.243  1.00  0.00     0.208 A 
ATOM      3  C   UNL     1      19.339  49.659  45.330  1.00  0.00     0.238 A 
ATOM      4  O   UNL     1      20.015  50.607  45.817  1.00  0.00    -0.285 OA
ATOM      5  C   UNL     1      19.968  48.485  44.867  1.00  0.00     0.111 A 
ATOM      6  C   UNL     1      21.369  48.285  44.916  1.00  0.00     0.134 A 
ATOM      7  C   UNL     1      21.918  47.091  44.426  1.00  0.00     0.093 A 
ATOM      8  C   UNL     1      21.098  46.097  43.890  1.00  0.00     0.123 A 
ATOM      9  C   UNL     1      19.713  46.288  43.839  1.00  0.00     0.094 A 
ATOM     10  C   UNL     1      19.146  47.469  44.324  1.00  0.00     0.146 A 
ATOM     11  O   UNL     1      17.828  47.624  44.269  1.00  0.00    -0.452 OA
ENDROOT
BRANCH   1  12
ATOM     12  C   UNL     1      15.724  48.754  44.602  1.00  0.00     0.025 A 
ATOM     13  C   UNL     1      14.901  48.192  45.593  1.00  0.00     0.016 A 
ATOM     14  C   UNL     1      13.510  48.224  45.459  1.00  0.00     0.051 A 
ATOM     15  C   UNL     1      12.923  48.806  44.328  1.00  0.00     0.157 A 
ATOM     16  C   UNL     1      15.131  49.318  43.460  1.00  0.00     0.062 A 
ATOM     17  C   UNL     1      13.735  49.351  43.325  1.00  0.00     0.158 A 
BRANCH  15  18
ATOM     18  O   UNL     1      11.537  48.842  44.191  1.00  0.00    -0.504 OA
ATOM     19  H   UNL     1      10.961  49.424  44.787  1.00  0.00     0.293 HD
ENDBRANCH  15  18
BRANCH  17  20
ATOM     20  O   UNL     1      13.149  49.923  42.197  1.00  0.00    -0.504 OA
ATOM     21  H   UNL     1      13.668  50.542  41.586  1.00  0.00     0.293 HD
ENDBRANCH  17  20
ENDBRANCH   1  12
BRANCH   2  22
ATOM     22  O   UNL     1      17.302  50.953  45.650  1.00  0.00    -0.502 OA
ATOM     23  H   UNL     1      16.297  51.070  45.592  1.00  0.00     0.293 HD
ENDBRANCH   2  22
BRANCH   6  24
ATOM     24  O   UNL     1      22.215  49.260  45.445  1.00  0.00    -0.507 OA
ATOM     25  H   UNL     1      21.953  49.810  46.255  1.00  0.00     0.293 HD
ENDBRANCH   6  24
BRANCH   8  26
ATOM     26  O   UNL     1      21.669  44.920  43.408  1.00  0.00    -0.508 OA
ATOM     27  H   UNL     1      22.569  44.595  43.739  1.00  0.00     0.293 HD
ENDBRANCH   8  26
TORSDOF 6
ENDMDL
MODEL 6
REMARK VINA RESULT:    -6.623      2.871      7.628
REMARK INTER + INTRA:          -7.884
REMARK INTER:                  -7.556
REMARK INTRA:                  -0.328
REMARK UNBOUND:                 0.093
REMARK SMILES O=c1c(O)c(-c2ccc(O)c(O)c2)oc2cc(O)cc(O)c12
REMARK SMILES IDX 5 1 3 2 2 3 1 4 22 5 20 6 19 7 17 8 16 9 15 10 14 11 6 12
REMARK SMILES IDX 7 13 8 14 9 15 13 16 11 17 10 18 12 20 4 22 21 24 18 26
REMARK H PARENT 10 19 12 21 4 23 21 25 18 27
REMARK Flexibility Score: inf
ROOT
ATOM      1  C   UNL     1      17.910  47.681  43.185  1.00  0.00     0.180 A 
ATOM      2  C   UNL     1      17.910  49.039  42.814  1.00  0.00     0.208 A 
ATOM      3  C   UNL     1      18.316  49.999  43.756  1.00  0.00     0.238 A 
ATOM      4  O   UNL     1      18.310  51.220  43.439  1.00  0.00    -0.285 OA
ATOM      5  C   UNL     1      18.730  49.586  45.038  1.00  0.00     0.111 A 
ATOM      6  C   UNL     1      19.156  50.488  46.043  1.00  0.00     0.134 A 
ATOM      7  C   UNL     1      19.561  49.997  47.293  1.00  0.00     0.093 A 
ATOM      8  C   UNL     1      19.551  48.626  47.557  1.00  0.00     0.123 A 
ATOM      9  C   UNL     1      19.130  47.730  46.569  1.00  0.00     0.094 A 
ATOM     10  C   UNL     1      18.720  48.199  45.318  1.00  0.00     0.146 A 
ATOM     11  O   UNL     1      18.321  47.327  44.399  1.00  0.00    -0.452 OA
ENDROOT
BRANCH   1  12
ATOM     12  C   UNL     1      17.479  46.612  42.256  1.00  0.00     0.025 A 
ATOM     13  C   UNL     1      16.122  46.271  42.112  1.00  0.00     0.016 A 
ATOM     14  C   UNL     1      15.741  45.243  41.246  1.00  0.00     0.051 A 
ATOM     15  C   UNL     1      16.708  44.532  40.524  1.00  0.00     0.157 A 
ATOM     16  C   UNL     1      18.446  45.883  41.545  1.00  0.00     0.062 A 
ATOM     17  C   UNL     1      18.064  44.850  40.675  1.00  0.00     0.158 A 
BRANCH  15  18
ATOM     18  O   UNL     1      16.331  43.507  39.658  1.00  0.00    -0.504 OA
ATOM     19  H   UNL     1      15.357  43.274  39.505  1.00  0.00     0.293 HD
ENDBRANCH  15  18
BRANCH  17  20
ATOM     20  O   UNL     1      19.025  44.137  39.961  1.00  0.00    -0.504 OA
ATOM     21  H   UNL     1      19.566  43.398  40.393  1.00  0.00     0.293 HD
ENDBRANCH  17  20
ENDBRANCH   1  12
BRANCH   2  22
ATOM     22  O   UNL     1      17.542  49.419  41.521  1.00  0.00    -0.502 OA
ATOM     23  H   UNL     1      17.143  48.766  40.857  1.00  0.00     0.293 HD
ENDBRANCH   2  22
BRANCH   6  24
ATOM     24  O   UNL     1      19.179  51.864  45.809  1.00  0.00    -0.507 OA
ATOM     25  H   UNL     1      19.002  52.534  46.549  1.00  0.00     0.293 HD
ENDBRANCH   6  24
BRANCH   8  26
ATOM     26  O   UNL     1      19.960  48.164  48.806  1.00  0.00    -0.508 OA
ATOM     27  H   UNL     1      19.933  47.179  49.042  1.00  0.00     0.293 HD
ENDBRANCH   8  26
TORSDOF 6
ENDMDL
MODEL 7
REMARK VINA RESULT:    -6.610      2.061      3.216
REMARK INTER + INTRA:          -7.869
REMARK INTER:                  -7.700
REMARK INTRA:                  -0.169
REMARK UNBOUND:                 0.093
REMARK SMILES O=c1c(O)c(-c2ccc(O)c(O)c2)oc2cc(O)cc(O)c12
REMARK SMILES IDX 5 1 3 2 2 3 1 4 22 5 20 6 19 7 17 8 16 9 15 10 14 11 6 12
REMARK SMILES IDX 7 13 8 14 9 15 13 16 11 17 10 18 12 20 4 22 21 24 18 26
REMARK H PARENT 10 19 12 21 4 23 21 25 18 27
REMARK Flexibility Score: inf
ROOT
ATOM      1  C   UNL     1      20.966  50.113  47.509  1.00  0.00     0.180 A 
ATOM      2  C   UNL     1      20.047  49.385  48.288  1.00  0.00     0.208 A 
ATOM      3  C   UNL     1      19.369  48.303  47.704  1.00  0.00     0.238 A 
ATOM      4  O   UNL     1      18.535  47.650  48.389  1.00  0.00    -0.285 OA
ATOM      5  C   UNL     1      19.634  47.956  46.363  1.00  0.00     0.111 A 
ATOM      6  C   UNL     1      18.997  46.878  45.701  1.00  0.00     0.134 A 
ATOM      7  C   UNL     1      19.323  46.592  44.367  1.00  0.00     0.093 A 
ATOM      8  C   UNL     1      20.270  47.357  43.685  1.00  0.00     0.123 A 
ATOM      9  C   UNL     1      20.902  48.423  44.333  1.00  0.00     0.094 A 
ATOM     10  C   UNL     1      20.590  48.727  45.661  1.00  0.00     0.146 A 
ATOM     11  O   UNL     1      21.201  49.748  46.252  1.00  0.00    -0.452 OA
ENDROOT
BRANCH   1  12
ATOM     12  C   UNL     1      21.705  51.277  48.046  1.00  0.00     0.025 A 
ATOM     13  C   UNL     1      21.033  52.434  48.480  1.00  0.00     0.016 A 
ATOM     14  C   UNL     1      21.754  53.530  48.963  1.00  0.00     0.051 A 
ATOM     15  C   UNL     1      23.153  53.492  49.005  1.00  0.00     0.157 A 
ATOM     16  C   UNL     1      23.109  51.252  48.072  1.00  0.00     0.062 A 
ATOM     17  C   UNL     1      23.833  52.352  48.556  1.00  0.00     0.158 A 
BRANCH  15  18
ATOM     18  O   UNL     1      23.875  54.582  49.486  1.00  0.00    -0.504 OA
ATOM     19  H   UNL     1      23.579  55.535  49.308  1.00  0.00     0.293 HD
ENDBRANCH  15  18
BRANCH  17  20
ATOM     20  O   UNL     1      25.226  52.320  48.592  1.00  0.00    -0.504 OA
ATOM     21  H   UNL     1      25.735  52.361  49.467  1.00  0.00     0.293 HD
ENDBRANCH  17  20
ENDBRANCH   1  12
BRANCH   2  22
ATOM     22  O   UNL     1      19.838  49.718  49.629  1.00  0.00    -0.502 OA
ATOM     23  H   UNL     1      18.993  50.177  49.949  1.00  0.00     0.293 HD
ENDBRANCH   2  22
BRANCH   6  24
ATOM     24  O   UNL     1      18.048  46.094  46.357  1.00  0.00    -0.507 OA
ATOM     25  H   UNL     1      17.850  46.211  47.344  1.00  0.00     0.293 HD
ENDBRANCH   6  24
BRANCH   8  26
ATOM     26  O   UNL     1      20.576  47.050  42.360  1.00  0.00    -0.508 OA
ATOM     27  H   UNL     1      20.591  47.763  41.641  1.00  0.00     0.293 HD
ENDBRANCH   8  26
TORSDOF 6
ENDMDL
MODEL 8
REMARK VINA RESULT:    -6.605      1.499      6.876
REMARK INTER + INTRA:          -7.864
REMARK INTER:                  -7.685
REMARK INTRA:                  -0.179
REMARK UNBOUND:                 0.093
REMARK SMILES O=c1c(O)c(-c2ccc(O)c(O)c2)oc2cc(O)cc(O)c12
REMARK SMILES IDX 5 1 3 2 2 3 1 4 22 5 20 6 19 7 17 8 16 9 15 10 14 11 6 12
REMARK SMILES IDX 7 13 8 14 9 15 13 16 11 17 10 18 12 20 4 22 21 24 18 26
REMARK H PARENT 10 19 12 21 4 23 21 25 18 27
REMARK Flexibility Score: inf
ROOT
ATOM      1  C   UNL     1      20.326  48.602  46.032  1.00  0.00     0.180 A 
ATOM      2  C   UNL     1      19.325  48.875  46.984  1.00  0.00     0.208 A 
ATOM      3  C   UNL     1      19.607  49.770  48.027  1.00  0.00     0.238 A 
ATOM      4  O   UNL     1      18.722  50.015  48.892  1.00  0.00    -0.285 OA
ATOM      5  C   UNL     1      20.872  50.390  48.092  1.00  0.00     0.111 A 
ATOM      6  C   UNL     1      21.236  51.306  49.109  1.00  0.00     0.134 A 
ATOM      7  C   UNL     1      22.512  51.887  49.097  1.00  0.00     0.093 A 
ATOM      8  C   UNL     1      23.430  51.572  48.093  1.00  0.00     0.123 A 
ATOM      9  C   UNL     1      23.077  50.667  47.087  1.00  0.00     0.094 A 
ATOM     10  C   UNL     1      21.811  50.075  47.081  1.00  0.00     0.146 A 
ATOM     11  O   UNL     1      21.503  49.216  46.116  1.00  0.00    -0.452 OA
ENDROOT
BRANCH   1  12
ATOM     12  C   UNL     1      20.112  47.655  44.914  1.00  0.00     0.025 A 
ATOM     13  C   UNL     1      20.842  46.457  44.819  1.00  0.00     0.016 A 
ATOM     14  C   UNL     1      20.640  45.590  43.743  1.00  0.00     0.051 A 
ATOM     15  C   UNL     1      19.717  45.913  42.739  1.00  0.00     0.157 A 
ATOM     16  C   UNL     1      19.203  47.984  43.895  1.00  0.00     0.062 A 
ATOM     17  C   UNL     1      19.000  47.114  42.814  1.00  0.00     0.158 A 
BRANCH  15  18
ATOM     18  O   UNL     1      19.512  45.050  41.664  1.00  0.00    -0.504 OA
ATOM     19  H   UNL     1      19.564  44.045  41.775  1.00  0.00     0.293 HD
ENDBRANCH  15  18
BRANCH  17  20
ATOM     20  O   UNL     1      18.087  47.437  41.810  1.00  0.00    -0.504 OA
ATOM     21  H   UNL     1      18.277  48.170  41.138  1.00  0.00     0.293 HD
ENDBRANCH  17  20
ENDBRANCH   1  12
BRANCH   2  22
ATOM     22  O   UNL     1      18.063  48.286  46.870  1.00  0.00    -0.502 OA
ATOM     23  H   UNL     1      17.833  47.406  47.316  1.00  0.00     0.293 HD
ENDBRANCH   2  22
BRANCH   6  24
ATOM     24  O   UNL     1      20.340  51.642  50.125  1.00  0.00    -0.507 OA
ATOM     25  H   UNL     1      19.417  52.008  49.922  1.00  0.00     0.293 HD
ENDBRANCH   6  24
BRANCH   8  26
ATOM     26  O   UNL     1      24.691  52.164  48.104  1.00  0.00    -0.508 OA
ATOM     27  H   UNL     1      24.879  53.019  47.594  1.00  0.00     0.293 HD
ENDBRANCH   8  26
TORSDOF 6
ENDMDL
MODEL 9
REMARK VINA RESULT:    -6.600      2.593      3.937
REMARK INTER + INTRA:          -7.857
REMARK INTER:                  -7.606
REMARK INTRA:                  -0.251
REMARK UNBOUND:                 0.093
REMARK SMILES O=c1c(O)c(-c2ccc(O)c(O)c2)oc2cc(O)cc(O)c12
REMARK SMILES IDX 5 1 3 2 2 3 1 4 22 5 20 6 19 7 17 8 16 9 15 10 14 11 6 12
REMARK SMILES IDX 7 13 8 14 9 15 13 16 11 17 10 18 12 20 4 22 21 24 18 26
REMARK H PARENT 10 19 12 21 4 23 21 25 18 27
REMARK Flexibility Score: inf
ROOT
ATOM      1  C   UNL     1      19.165  48.332  43.399  1.00  0.00     0.180 A 
ATOM      2  C   UNL     1      17.989  49.068  43.160  1.00  0.00     0.208 A 
ATOM      3  C   UNL     1      17.006  48.521  42.320  1.00  0.00     0.238 A 
ATOM      4  O   UNL     1      15.953  49.176  42.090  1.00  0.00    -0.285 OA
ATOM      5  C   UNL     1      17.204  47.246  41.752  1.00  0.00     0.111 A 
ATOM      6  C   UNL     1      16.262  46.623  40.898  1.00  0.00     0.134 A 
ATOM      7  C   UNL     1      16.530  45.348  40.380  1.00  0.00     0.093 A 
ATOM      8  C   UNL     1      17.717  44.685  40.698  1.00  0.00     0.123 A 
ATOM      9  C   UNL     1      18.652  45.295  41.539  1.00  0.00     0.094 A 
ATOM     10  C   UNL     1      18.405  46.567  42.064  1.00  0.00     0.146 A 
ATOM     11  O   UNL     1      19.312  47.126  42.857  1.00  0.00    -0.452 OA
ENDROOT
BRANCH   1  12
ATOM     12  C   UNL     1      20.257  48.848  44.256  1.00  0.00     0.025 A 
ATOM     13  C   UNL     1      20.123  48.907  45.654  1.00  0.00     0.016 A 
ATOM     14  C   UNL     1      21.158  49.420  46.442  1.00  0.00     0.051 A 
ATOM     15  C   UNL     1      22.333  49.893  45.843  1.00  0.00     0.157 A 
ATOM     16  C   UNL     1      21.429  49.343  43.660  1.00  0.00     0.062 A 
ATOM     17  C   UNL     1      22.467  49.857  44.450  1.00  0.00     0.158 A 
BRANCH  15  18
ATOM     18  O   UNL     1      23.367  50.404  46.625  1.00  0.00    -0.504 OA
ATOM     19  H   UNL     1      23.221  51.186  47.252  1.00  0.00     0.293 HD
ENDBRANCH  15  18
BRANCH  17  20
ATOM     20  O   UNL     1      23.634  50.336  43.856  1.00  0.00    -0.504 OA
ATOM     21  H   UNL     1      23.607  50.999  43.091  1.00  0.00     0.293 HD
ENDBRANCH  17  20
ENDBRANCH   1  12
BRANCH   2  22
ATOM     22  O   UNL     1      17.795  50.308  43.774  1.00  0.00    -0.502 OA
ATOM     23  H   UNL     1      17.183  51.016  43.386  1.00  0.00     0.293 HD
ENDBRANCH   2  22
BRANCH   6  24
ATOM     24  O   UNL     1      15.065  47.260  40.565  1.00  0.00    -0.507 OA
ATOM     25  H   UNL     1      14.177  46.772  40.591  1.00  0.00     0.293 HD
ENDBRANCH   6  24
BRANCH   8  26
ATOM     26  O   UNL     1      17.958  43.418  40.170  1.00  0.00    -0.508 OA
ATOM     27  H   UNL     1      18.456  43.293  39.297  1.00  0.00     0.293 HD
ENDBRANCH   8  26
TORSDOF 6
ENDMDL
