MODEL 1
REMARK VINA RESULT:    -4.108      0.000      0.000
REMARK INTER + INTRA:         -12.079
REMARK INTER:                  -9.390
REMARK INTRA:                  -2.689
REMARK UNBOUND:                -2.689
REMARK SMILES CCCCCCCCCCCCCCCCCCCCCCCC(=O)[O-]
REMARK SMILES IDX 13 1 14 2 15 3 16 4 17 5 18 6 19 7 20 8 21 9 22 10 23 11
REMARK SMILES IDX 24 12 25 13 26 14 12 15 11 16 10 17 9 18 8 19 7 20 6 21 5 22
REMARK SMILES IDX 4 23 3 24 2 25 1 26
REMARK H PARENT
REMARK Flexibility Score: inf
ROOT
ATOM      1  C   UNL     1     -23.984  32.409  20.364  1.00  0.00     0.000 C 
ENDROOT
BRANCH   1   2
ATOM      2  C   UNL     1     -23.772  33.921  20.557  1.00  0.00     0.000 C 
BRANCH   2   3
ATOM      3  C   UNL     1     -22.450  34.418  19.947  1.00  0.00     0.000 C 
BRANCH   3   4
ATOM      4  C   UNL     1     -21.833  35.596  20.724  1.00  0.00     0.000 C 
BRANCH   4   5
ATOM      5  C   UNL     1     -22.721  36.187  21.835  1.00  0.00     0.000 C 
BRANCH   5   6
ATOM      6  C   UNL     1     -21.980  37.028  22.892  1.00  0.00     0.000 C 
BRANCH   6   7
ATOM      7  C   UNL     1     -22.337  38.530  22.858  1.00  0.00     0.000 C 
BRANCH   7   8
ATOM      8  C   UNL     1     -23.467  38.848  21.864  1.00  0.00     0.000 C 
BRANCH   8   9
ATOM      9  C   UNL     1     -23.174  40.093  21.013  1.00  0.00     0.000 C 
BRANCH   9  10
ATOM     10  C   UNL     1     -21.786  40.048  20.351  1.00  0.00     0.006 C 
BRANCH  10  11
ATOM     11  C   UNL     1     -21.135  41.435  20.276  1.00  0.00     0.053 C 
BRANCH  11  12
ATOM     12  C   UNL     1     -19.904  41.518  21.127  1.00  0.00     0.041 C 
ATOM     13  O   UNL     1     -19.887  40.991  22.271  1.00  0.00    -0.550 OA
ATOM     14  O   UNL     1     -18.764  42.144  20.640  1.00  0.00    -0.550 OA
ENDBRANCH  11  12
ENDBRANCH  10  11
ENDBRANCH   9  10
ENDBRANCH   8   9
ENDBRANCH   7   8
ENDBRANCH   6   7
ENDBRANCH   5   6
ENDBRANCH   4   5
ENDBRANCH   3   4
ENDBRANCH   2   3
ENDBRANCH   1   2
BRANCH   1  15
ATOM     15  C   UNL     1     -23.031  31.502  21.170  1.00  0.00     0.000 C 
BRANCH  15  16
ATOM     16  C   UNL     1     -23.265  29.992  20.995  1.00  0.00     0.000 C 
BRANCH  16  17
ATOM     17  C   UNL     1     -22.928  29.498  19.580  1.00  0.00     0.000 C 
BRANCH  17  18
ATOM     18  C   UNL     1     -21.833  28.422  19.620  1.00  0.00    -0.000 C 
BRANCH  18  19
ATOM     19  C   UNL     1     -20.463  28.954  19.170  1.00  0.00    -0.000 C 
BRANCH  19  20
ATOM     20  C   UNL     1     -19.777  29.808  20.251  1.00  0.00    -0.000 C 
BRANCH  20  21
ATOM     21  C   UNL     1     -19.091  28.957  21.334  1.00  0.00    -0.000 C 
BRANCH  21  22
ATOM     22  C   UNL     1     -19.850  28.936  22.679  1.00  0.00    -0.000 C 
BRANCH  22  23
ATOM     23  C   UNL     1     -20.150  30.352  23.201  1.00  0.00    -0.000 C 
BRANCH  23  24
ATOM     24  C   UNL     1     -18.877  31.082  23.679  1.00  0.00    -0.000 C 
BRANCH  24  25
ATOM     25  C   UNL     1     -18.918  32.604  23.465  1.00  0.00    -0.003 C 
ATOM     26  C   UNL     1     -20.320  33.129  23.160  1.00  0.00     0.004 C 
ENDBRANCH  24  25
ENDBRANCH  23  24
ENDBRANCH  22  23
ENDBRANCH  21  22
ENDBRANCH  20  21
ENDBRANCH  19  20
ENDBRANCH  18  19
ENDBRANCH  17  18
ENDBRANCH  16  17
ENDBRANCH  15  16
ENDBRANCH   1  15
TORSDOF 22
ENDMDL
MODEL 2
REMARK VINA RESULT:    -3.962      5.714     10.411
REMARK INTER + INTRA:         -11.747
REMARK INTER:                  -8.545
REMARK INTRA:                  -3.202
REMARK UNBOUND:                -2.689
REMARK SMILES CCCCCCCCCCCCCCCCCCCCCCCC(=O)[O-]
REMARK SMILES IDX 13 1 14 2 15 3 16 4 17 5 18 6 19 7 20 8 21 9 22 10 23 11
REMARK SMILES IDX 24 12 25 13 26 14 12 15 11 16 10 17 9 18 8 19 7 20 6 21 5 22
REMARK SMILES IDX 4 23 3 24 2 25 1 26
REMARK H PARENT
REMARK Flexibility Score: inf
ROOT
ATOM      1  C   UNL     1     -17.967  28.746  22.065  1.00  0.00     0.000 C 
ENDROOT
BRANCH   1   2
ATOM      2  C   UNL     1     -19.437  28.884  21.631  1.00  0.00     0.000 C 
BRANCH   2   3
ATOM      3  C   UNL     1     -19.598  29.661  20.313  1.00  0.00     0.000 C 
BRANCH   3   4
ATOM      4  C   UNL     1     -20.393  28.883  19.248  1.00  0.00     0.000 C 
BRANCH   4   5
ATOM      5  C   UNL     1     -21.924  28.923  19.410  1.00  0.00     0.000 C 
BRANCH   5   6
ATOM      6  C   UNL     1     -22.606  27.550  19.562  1.00  0.00     0.000 C 
BRANCH   6   7
ATOM      7  C   UNL     1     -22.535  26.973  20.993  1.00  0.00     0.000 C 
BRANCH   7   8
ATOM      8  C   UNL     1     -21.970  25.542  21.026  1.00  0.00     0.000 C 
BRANCH   8   9
ATOM      9  C   UNL     1     -20.436  25.511  20.936  1.00  0.00     0.000 C 
BRANCH   9  10
ATOM     10  C   UNL     1     -19.931  25.023  19.567  1.00  0.00     0.006 C 
BRANCH  10  11
ATOM     11  C   UNL     1     -19.461  23.563  19.610  1.00  0.00     0.053 C 
BRANCH  11  12
ATOM     12  C   UNL     1     -18.337  23.314  18.652  1.00  0.00     0.041 C 
ATOM     13  O   UNL     1     -18.547  23.319  17.410  1.00  0.00    -0.550 OA
ATOM     14  O   UNL     1     -17.048  23.112  19.130  1.00  0.00    -0.550 OA
ENDBRANCH  11  12
ENDBRANCH  10  11
ENDBRANCH   9  10
ENDBRANCH   8   9
ENDBRANCH   7   8
ENDBRANCH   6   7
ENDBRANCH   5   6
ENDBRANCH   4   5
ENDBRANCH   3   4
ENDBRANCH   2   3
ENDBRANCH   1   2
BRANCH   1  15
ATOM     15  C   UNL     1     -17.567  29.569  23.307  1.00  0.00     0.000 C 
BRANCH  15  16
ATOM     16  C   UNL     1     -18.709  30.374  23.950  1.00  0.00     0.000 C 
BRANCH  16  17
ATOM     17  C   UNL     1     -18.520  31.892  23.807  1.00  0.00     0.000 C 
BRANCH  17  18
ATOM     18  C   UNL     1     -19.875  32.614  23.782  1.00  0.00    -0.000 C 
BRANCH  18  19
ATOM     19  C   UNL     1     -20.781  32.132  22.638  1.00  0.00    -0.000 C 
BRANCH  19  20
ATOM     20  C   UNL     1     -22.066  31.456  23.146  1.00  0.00    -0.000 C 
BRANCH  20  21
ATOM     21  C   UNL     1     -23.285  31.745  22.252  1.00  0.00    -0.000 C 
BRANCH  21  22
ATOM     22  C   UNL     1     -22.915  32.308  20.863  1.00  0.00    -0.000 C 
BRANCH  22  23
ATOM     23  C   UNL     1     -23.547  33.688  20.607  1.00  0.00    -0.000 C 
BRANCH  23  24
ATOM     24  C   UNL     1     -22.524  34.709  20.064  1.00  0.00    -0.000 C 
BRANCH  24  25
ATOM     25  C   UNL     1     -22.248  35.879  21.024  1.00  0.00    -0.003 C 
ATOM     26  C   UNL     1     -22.199  35.453  22.490  1.00  0.00     0.004 C 
ENDBRANCH  24  25
ENDBRANCH  23  24
ENDBRANCH  22  23
ENDBRANCH  21  22
ENDBRANCH  20  21
ENDBRANCH  19  20
ENDBRANCH  18  19
ENDBRANCH  17  18
ENDBRANCH  16  17
ENDBRANCH  15  16
ENDBRANCH   1  15
TORSDOF 22
ENDMDL
MODEL 3
REMARK VINA RESULT:    -3.933      4.258      9.337
REMARK INTER + INTRA:         -11.679
REMARK INTER:                  -8.685
REMARK INTRA:                  -2.994
REMARK UNBOUND:                -2.689
REMARK SMILES CCCCCCCCCCCCCCCCCCCCCCCC(=O)[O-]
REMARK SMILES IDX 13 1 14 2 15 3 16 4 17 5 18 6 19 7 20 8 21 9 22 10 23 11
REMARK SMILES IDX 24 12 25 13 26 14 12 15 11 16 10 17 9 18 8 19 7 20 6 21 5 22
REMARK SMILES IDX 4 23 3 24 2 25 1 26
REMARK H PARENT
REMARK Flexibility Score: inf
ROOT
ATOM      1  C   UNL     1     -22.538  32.621  21.418  1.00  0.00     0.000 C 
ENDROOT
BRANCH   1   2
ATOM      2  C   UNL     1     -22.899  32.635  22.914  1.00  0.00     0.000 C 
BRANCH   2   3
ATOM      3  C   UNL     1     -21.775  33.212  23.792  1.00  0.00     0.000 C 
BRANCH   3   4
ATOM      4  C   UNL     1     -20.475  33.476  23.009  1.00  0.00     0.000 C 
BRANCH   4   5
ATOM      5  C   UNL     1     -19.262  32.634  23.446  1.00  0.00     0.000 C 
BRANCH   5   6
ATOM      6  C   UNL     1     -19.555  31.143  23.703  1.00  0.00     0.000 C 
BRANCH   6   7
ATOM      7  C   UNL     1     -19.073  30.207  22.572  1.00  0.00     0.000 C 
BRANCH   7   8
ATOM      8  C   UNL     1     -20.169  29.928  21.529  1.00  0.00     0.000 C 
BRANCH   8   9
ATOM      9  C   UNL     1     -19.597  29.663  20.127  1.00  0.00     0.000 C 
BRANCH   9  10
ATOM     10  C   UNL     1     -20.578  28.901  19.219  1.00  0.00     0.006 C 
BRANCH  10  11
ATOM     11  C   UNL     1     -22.009  28.917  19.772  1.00  0.00     0.053 C 
BRANCH  11  12
ATOM     12  C   UNL     1     -22.508  27.534  20.061  1.00  0.00     0.041 C 
ATOM     13  O   UNL     1     -23.207  26.921  19.211  1.00  0.00    -0.550 OA
ATOM     14  O   UNL     1     -22.168  26.908  21.254  1.00  0.00    -0.550 OA
ENDBRANCH  11  12
ENDBRANCH  10  11
ENDBRANCH   9  10
ENDBRANCH   8   9
ENDBRANCH   7   8
ENDBRANCH   6   7
ENDBRANCH   5   6
ENDBRANCH   4   5
ENDBRANCH   3   4
ENDBRANCH   2   3
ENDBRANCH   1   2
BRANCH   1  15
ATOM     15  C   UNL     1     -23.333  33.609  20.540  1.00  0.00     0.000 C 
BRANCH  15  16
ATOM     16  C   UNL     1     -22.518  34.791  19.987  1.00  0.00     0.000 C 
BRANCH  16  17
ATOM     17  C   UNL     1     -22.349  35.925  21.009  1.00  0.00     0.000 C 
BRANCH  17  18
ATOM     18  C   UNL     1     -23.616  36.091  21.860  1.00  0.00    -0.000 C 
BRANCH  18  19
ATOM     19  C   UNL     1     -23.355  36.856  23.168  1.00  0.00    -0.000 C 
BRANCH  19  20
ATOM     20  C   UNL     1     -21.919  37.400  23.257  1.00  0.00    -0.000 C 
BRANCH  20  21
ATOM     21  C   UNL     1     -21.870  38.930  23.406  1.00  0.00    -0.000 C 
BRANCH  21  22
ATOM     22  C   UNL     1     -22.795  39.679  22.420  1.00  0.00    -0.000 C 
BRANCH  22  23
ATOM     23  C   UNL     1     -22.236  39.681  20.986  1.00  0.00    -0.000 C 
BRANCH  23  24
ATOM     24  C   UNL     1     -21.729  41.074  20.558  1.00  0.00    -0.000 C 
BRANCH  24  25
ATOM     25  C   UNL     1     -20.618  41.633  21.464  1.00  0.00    -0.003 C 
ATOM     26  C   UNL     1     -19.242  41.625  20.799  1.00  0.00     0.004 C 
ENDBRANCH  24  25
ENDBRANCH  23  24
ENDBRANCH  22  23
ENDBRANCH  21  22
ENDBRANCH  20  21
ENDBRANCH  19  20
ENDBRANCH  18  19
ENDBRANCH  17  18
ENDBRANCH  16  17
ENDBRANCH  15  16
ENDBRANCH   1  15
TORSDOF 22
ENDMDL
MODEL 4
REMARK VINA RESULT:    -3.897      2.582      5.487
REMARK INTER + INTRA:         -11.597
REMARK INTER:                  -7.506
REMARK INTRA:                  -4.090
REMARK UNBOUND:                -2.689
REMARK SMILES CCCCCCCCCCCCCCCCCCCCCCCC(=O)[O-]
REMARK SMILES IDX 13 1 14 2 15 3 16 4 17 5 18 6 19 7 20 8 21 9 22 10 23 11
REMARK SMILES IDX 24 12 25 13 26 14 12 15 11 16 10 17 9 18 8 19 7 20 6 21 5 22
REMARK SMILES IDX 4 23 3 24 2 25 1 26
REMARK H PARENT
REMARK Flexibility Score: inf
ROOT
ATOM      1  C   UNL     1     -18.655  28.883  21.496  1.00  0.00     0.000 C 
ENDROOT
BRANCH   1   2
ATOM      2  C   UNL     1     -18.239  29.557  22.815  1.00  0.00     0.000 C 
BRANCH   2   3
ATOM      3  C   UNL     1     -19.327  30.489  23.375  1.00  0.00     0.000 C 
BRANCH   3   4
ATOM      4  C   UNL     1     -18.817  31.918  23.640  1.00  0.00     0.000 C 
BRANCH   4   5
ATOM      5  C   UNL     1     -19.820  33.044  23.328  1.00  0.00     0.000 C 
BRANCH   5   6
ATOM      6  C   UNL     1     -21.214  32.879  23.964  1.00  0.00     0.000 C 
BRANCH   6   7
ATOM      7  C   UNL     1     -22.326  32.529  22.950  1.00  0.00     0.000 C 
BRANCH   7   8
ATOM      8  C   UNL     1     -21.899  32.781  21.493  1.00  0.00     0.000 C 
BRANCH   8   9
ATOM      9  C   UNL     1     -23.091  33.088  20.572  1.00  0.00     0.000 C 
BRANCH   9  10
ATOM     10  C   UNL     1     -23.347  34.597  20.416  1.00  0.00     0.006 C 
BRANCH  10  11
ATOM     11  C   UNL     1     -22.079  35.427  20.653  1.00  0.00     0.053 C 
BRANCH  11  12
ATOM     12  C   UNL     1     -22.282  36.457  21.722  1.00  0.00     0.041 C 
ATOM     13  O   UNL     1     -22.068  36.170  22.930  1.00  0.00    -0.550 OA
ATOM     14  O   UNL     1     -22.672  37.746  21.380  1.00  0.00    -0.550 OA
ENDBRANCH  11  12
ENDBRANCH  10  11
ENDBRANCH   9  10
ENDBRANCH   8   9
ENDBRANCH   7   8
ENDBRANCH   6   7
ENDBRANCH   5   6
ENDBRANCH   4   5
ENDBRANCH   3   4
ENDBRANCH   2   3
ENDBRANCH   1   2
BRANCH   1  15
ATOM     15  C   UNL     1     -19.689  29.661  20.656  1.00  0.00     0.000 C 
BRANCH  15  16
ATOM     16  C   UNL     1     -20.236  28.905  19.433  1.00  0.00     0.000 C 
BRANCH  16  17
ATOM     17  C   UNL     1     -21.751  28.662  19.513  1.00  0.00     0.000 C 
BRANCH  17  18
ATOM     18  C   UNL     1     -22.338  29.269  20.797  1.00  0.00    -0.000 C 
BRANCH  18  19
ATOM     19  C   UNL     1     -22.916  28.205  21.744  1.00  0.00    -0.000 C 
BRANCH  19  20
ATOM     20  C   UNL     1     -22.056  28.006  23.004  1.00  0.00    -0.000 C 
BRANCH  20  21
ATOM     21  C   UNL     1     -21.169  26.751  22.926  1.00  0.00    -0.000 C 
BRANCH  21  22
ATOM     22  C   UNL     1     -21.578  25.770  21.807  1.00  0.00    -0.000 C 
BRANCH  22  23
ATOM     23  C   UNL     1     -20.441  24.802  21.436  1.00  0.00    -0.000 C 
BRANCH  23  24
ATOM     24  C   UNL     1     -19.329  25.492  20.618  1.00  0.00    -0.000 C 
BRANCH  24  25
ATOM     25  C   UNL     1     -17.906  25.129  21.078  1.00  0.00    -0.003 C 
ATOM     26  C   UNL     1     -17.607  25.574  22.508  1.00  0.00     0.004 C 
ENDBRANCH  24  25
ENDBRANCH  23  24
ENDBRANCH  22  23
ENDBRANCH  21  22
ENDBRANCH  20  21
ENDBRANCH  19  20
ENDBRANCH  18  19
ENDBRANCH  17  18
ENDBRANCH  16  17
ENDBRANCH  15  16
ENDBRANCH   1  15
TORSDOF 22
ENDMDL
MODEL 5
REMARK VINA RESULT:    -3.860      0.804      3.374
REMARK INTER + INTRA:         -11.512
REMARK INTER:                  -8.929
REMARK INTRA:                  -2.583
REMARK UNBOUND:                -2.689
REMARK SMILES CCCCCCCCCCCCCCCCCCCCCCCC(=O)[O-]
REMARK SMILES IDX 13 1 14 2 15 3 16 4 17 5 18 6 19 7 20 8 21 9 22 10 23 11
REMARK SMILES IDX 24 12 25 13 26 14 12 15 11 16 10 17 9 18 8 19 7 20 6 21 5 22
REMARK SMILES IDX 4 23 3 24 2 25 1 26
REMARK H PARENT
REMARK Flexibility Score: inf
ROOT
ATOM      1  C   UNL     1     -20.779  33.603  22.483  1.00  0.00     0.000 C 
ENDROOT
BRANCH   1   2
ATOM      2  C   UNL     1     -21.886  32.922  21.659  1.00  0.00     0.000 C 
BRANCH   2   3
ATOM      3  C   UNL     1     -22.495  33.854  20.597  1.00  0.00     0.000 C 
BRANCH   3   4
ATOM      4  C   UNL     1     -21.859  35.257  20.590  1.00  0.00     0.000 C 
BRANCH   4   5
ATOM      5  C   UNL     1     -22.761  36.390  21.113  1.00  0.00     0.000 C 
BRANCH   5   6
ATOM      6  C   UNL     1     -22.381  36.947  22.499  1.00  0.00     0.000 C 
BRANCH   6   7
ATOM      7  C   UNL     1     -22.336  38.490  22.560  1.00  0.00     0.000 C 
BRANCH   7   8
ATOM      8  C   UNL     1     -23.613  39.142  22.003  1.00  0.00     0.000 C 
BRANCH   8   9
ATOM      9  C   UNL     1     -23.316  40.213  20.941  1.00  0.00     0.000 C 
BRANCH   9  10
ATOM     10  C   UNL     1     -21.892  40.102  20.369  1.00  0.00     0.006 C 
BRANCH  10  11
ATOM     11  C   UNL     1     -21.171  41.456  20.346  1.00  0.00     0.053 C 
BRANCH  11  12
ATOM     12  C   UNL     1     -19.964  41.457  21.234  1.00  0.00     0.041 C 
ATOM     13  O   UNL     1     -20.045  41.026  22.415  1.00  0.00    -0.550 OA
ATOM     14  O   UNL     1     -18.741  41.900  20.745  1.00  0.00    -0.550 OA
ENDBRANCH  11  12
ENDBRANCH  10  11
ENDBRANCH   9  10
ENDBRANCH   8   9
ENDBRANCH   7   8
ENDBRANCH   6   7
ENDBRANCH   5   6
ENDBRANCH   4   5
ENDBRANCH   3   4
ENDBRANCH   2   3
ENDBRANCH   1   2
BRANCH   1  15
ATOM     15  C   UNL     1     -20.321  32.830  23.737  1.00  0.00     0.000 C 
BRANCH  15  16
ATOM     16  C   UNL     1     -18.813  32.536  23.807  1.00  0.00     0.000 C 
BRANCH  16  17
ATOM     17  C   UNL     1     -18.500  31.033  23.843  1.00  0.00     0.000 C 
BRANCH  17  18
ATOM     18  C   UNL     1     -19.761  30.203  23.557  1.00  0.00    -0.000 C 
BRANCH  18  19
ATOM     19  C   UNL     1     -19.449  28.885  22.828  1.00  0.00    -0.000 C 
BRANCH  19  20
ATOM     20  C   UNL     1     -18.836  29.111  21.436  1.00  0.00    -0.000 C 
BRANCH  20  21
ATOM     21  C   UNL     1     -19.780  29.869  20.486  1.00  0.00    -0.000 C 
BRANCH  21  22
ATOM     22  C   UNL     1     -20.206  29.048  19.249  1.00  0.00    -0.000 C 
BRANCH  22  23
ATOM     23  C   UNL     1     -20.952  27.759  19.636  1.00  0.00    -0.000 C 
BRANCH  23  24
ATOM     24  C   UNL     1     -22.485  27.943  19.619  1.00  0.00    -0.000 C 
BRANCH  24  25
ATOM     25  C   UNL     1     -23.103  28.116  21.017  1.00  0.00    -0.003 C 
ATOM     26  C   UNL     1     -23.315  29.579  21.402  1.00  0.00     0.004 C 
ENDBRANCH  24  25
ENDBRANCH  23  24
ENDBRANCH  22  23
ENDBRANCH  21  22
ENDBRANCH  20  21
ENDBRANCH  19  20
ENDBRANCH  18  19
ENDBRANCH  17  18
ENDBRANCH  16  17
ENDBRANCH  15  16
ENDBRANCH   1  15
TORSDOF 22
ENDMDL
MODEL 6
REMARK VINA RESULT:    -3.809      4.121      9.567
REMARK INTER + INTRA:         -11.397
REMARK INTER:                  -8.959
REMARK INTRA:                  -2.438
REMARK UNBOUND:                -2.689
REMARK SMILES CCCCCCCCCCCCCCCCCCCCCCCC(=O)[O-]
REMARK SMILES IDX 13 1 14 2 15 3 16 4 17 5 18 6 19 7 20 8 21 9 22 10 23 11
REMARK SMILES IDX 24 12 25 13 26 14 12 15 11 16 10 17 9 18 8 19 7 20 6 21 5 22
REMARK SMILES IDX 4 23 3 24 2 25 1 26
REMARK H PARENT
REMARK Flexibility Score: inf
ROOT
ATOM      1  C   UNL     1     -23.140  33.681  20.381  1.00  0.00     0.000 C 
ENDROOT
BRANCH   1   2
ATOM      2  C   UNL     1     -22.678  32.491  21.240  1.00  0.00     0.000 C 
BRANCH   2   3
ATOM      3  C   UNL     1     -22.993  32.677  22.734  1.00  0.00     0.000 C 
BRANCH   3   4
ATOM      4  C   UNL     1     -21.778  32.412  23.643  1.00  0.00     0.000 C 
BRANCH   4   5
ATOM      5  C   UNL     1     -20.424  32.894  23.090  1.00  0.00     0.000 C 
BRANCH   5   6
ATOM      6  C   UNL     1     -19.233  31.952  23.351  1.00  0.00     0.000 C 
BRANCH   6   7
ATOM      7  C   UNL     1     -19.607  30.453  23.334  1.00  0.00     0.000 C 
BRANCH   7   8
ATOM      8  C   UNL     1     -18.446  29.560  22.861  1.00  0.00     0.000 C 
BRANCH   8   9
ATOM      9  C   UNL     1     -18.590  29.131  21.392  1.00  0.00     0.000 C 
BRANCH   9  10
ATOM     10  C   UNL     1     -19.860  29.695  20.731  1.00  0.00     0.006 C 
BRANCH  10  11
ATOM     11  C   UNL     1     -20.345  28.818  19.569  1.00  0.00     0.053 C 
BRANCH  11  12
ATOM     12  C   UNL     1     -21.481  27.931  19.979  1.00  0.00     0.041 C 
ATOM     13  O   UNL     1     -21.443  27.320  21.081  1.00  0.00    -0.550 OA
ATOM     14  O   UNL     1     -22.598  27.809  19.162  1.00  0.00    -0.550 OA
ENDBRANCH  11  12
ENDBRANCH  10  11
ENDBRANCH   9  10
ENDBRANCH   8   9
ENDBRANCH   7   8
ENDBRANCH   6   7
ENDBRANCH   5   6
ENDBRANCH   4   5
ENDBRANCH   3   4
ENDBRANCH   2   3
ENDBRANCH   1   2
BRANCH   1  15
ATOM     15  C   UNL     1     -22.132  34.844  20.271  1.00  0.00     0.000 C 
BRANCH  15  16
ATOM     16  C   UNL     1     -22.509  36.110  21.059  1.00  0.00     0.000 C 
BRANCH  16  17
ATOM     17  C   UNL     1     -21.917  36.126  22.477  1.00  0.00     0.000 C 
BRANCH  17  18
ATOM     18  C   UNL     1     -22.562  37.230  23.328  1.00  0.00    -0.000 C 
BRANCH  18  19
ATOM     19  C   UNL     1     -21.544  38.277  23.809  1.00  0.00    -0.000 C 
BRANCH  19  20
ATOM     20  C   UNL     1     -21.821  39.677  23.236  1.00  0.00    -0.000 C 
BRANCH  20  21
ATOM     21  C   UNL     1     -22.855  39.660  22.097  1.00  0.00    -0.000 C 
BRANCH  21  22
ATOM     22  C   UNL     1     -22.243  39.912  20.701  1.00  0.00    -0.000 C 
BRANCH  22  23
ATOM     23  C   UNL     1     -21.660  41.330  20.568  1.00  0.00    -0.000 C 
BRANCH  23  24
ATOM     24  C   UNL     1     -20.149  41.313  20.251  1.00  0.00    -0.000 C 
BRANCH  24  25
ATOM     25  C   UNL     1     -19.310  42.202  21.185  1.00  0.00    -0.003 C 
ATOM     26  C   UNL     1     -18.827  41.469  22.435  1.00  0.00     0.004 C 
ENDBRANCH  24  25
ENDBRANCH  23  24
ENDBRANCH  22  23
ENDBRANCH  21  22
ENDBRANCH  20  21
ENDBRANCH  19  20
ENDBRANCH  18  19
ENDBRANCH  17  18
ENDBRANCH  16  17
ENDBRANCH  15  16
ENDBRANCH   1  15
TORSDOF 22
ENDMDL
MODEL 7
REMARK VINA RESULT:    -3.805      6.335     10.769
REMARK INTER + INTRA:         -11.387
REMARK INTER:                  -7.603
REMARK INTRA:                  -3.784
REMARK UNBOUND:                -2.689
REMARK SMILES CCCCCCCCCCCCCCCCCCCCCCCC(=O)[O-]
REMARK SMILES IDX 13 1 14 2 15 3 16 4 17 5 18 6 19 7 20 8 21 9 22 10 23 11
REMARK SMILES IDX 24 12 25 13 26 14 12 15 11 16 10 17 9 18 8 19 7 20 6 21 5 22
REMARK SMILES IDX 4 23 3 24 2 25 1 26
REMARK H PARENT
REMARK Flexibility Score: inf
ROOT
ATOM      1  C   UNL     1     -19.634  29.702  20.358  1.00  0.00     0.000 C 
ENDROOT
BRANCH   1   2
ATOM      2  C   UNL     1     -19.509  29.112  21.774  1.00  0.00     0.000 C 
BRANCH   2   3
ATOM      3  C   UNL     1     -18.079  28.650  22.103  1.00  0.00     0.000 C 
BRANCH   3   4
ATOM      4  C   UNL     1     -18.005  27.168  22.517  1.00  0.00     0.000 C 
BRANCH   4   5
ATOM      5  C   UNL     1     -19.269  26.611  23.196  1.00  0.00     0.000 C 
BRANCH   5   6
ATOM      6  C   UNL     1     -19.806  25.292  22.607  1.00  0.00     0.000 C 
BRANCH   6   7
ATOM      7  C   UNL     1     -18.716  24.405  21.966  1.00  0.00     0.000 C 
BRANCH   7   8
ATOM      8  C   UNL     1     -19.253  23.558  20.799  1.00  0.00     0.000 C 
BRANCH   8   9
ATOM      9  C   UNL     1     -18.693  24.003  19.439  1.00  0.00     0.000 C 
BRANCH   9  10
ATOM     10  C   UNL     1     -19.705  23.824  18.293  1.00  0.00     0.006 C 
BRANCH  10  11
ATOM     11  C   UNL     1     -19.041  23.305  17.011  1.00  0.00     0.053 C 
BRANCH  11  12
ATOM     12  C   UNL     1     -19.816  23.694  15.789  1.00  0.00     0.041 C 
ATOM     13  O   UNL     1     -21.057  23.484  15.730  1.00  0.00    -0.550 OA
ATOM     14  O   UNL     1     -19.173  24.322  14.729  1.00  0.00    -0.550 OA
ENDBRANCH  11  12
ENDBRANCH  10  11
ENDBRANCH   9  10
ENDBRANCH   8   9
ENDBRANCH   7   8
ENDBRANCH   6   7
ENDBRANCH   5   6
ENDBRANCH   4   5
ENDBRANCH   3   4
ENDBRANCH   2   3
ENDBRANCH   1   2
BRANCH   1  15
ATOM     15  C   UNL     1     -20.398  28.826  19.344  1.00  0.00     0.000 C 
BRANCH  15  16
ATOM     16  C   UNL     1     -20.361  27.315  19.632  1.00  0.00     0.000 C 
BRANCH  16  17
ATOM     17  C   UNL     1     -21.762  26.712  19.822  1.00  0.00     0.000 C 
BRANCH  17  18
ATOM     18  C   UNL     1     -22.740  27.759  20.374  1.00  0.00    -0.000 C 
BRANCH  18  19
ATOM     19  C   UNL     1     -22.983  27.604  21.884  1.00  0.00    -0.000 C 
BRANCH  19  20
ATOM     20  C   UNL     1     -23.034  28.955  22.617  1.00  0.00    -0.000 C 
BRANCH  20  21
ATOM     21  C   UNL     1     -23.189  30.147  21.656  1.00  0.00    -0.000 C 
BRANCH  21  22
ATOM     22  C   UNL     1     -22.888  31.514  22.310  1.00  0.00    -0.000 C 
BRANCH  22  23
ATOM     23  C   UNL     1     -21.728  32.249  21.614  1.00  0.00    -0.000 C 
BRANCH  23  24
ATOM     24  C   UNL     1     -21.318  33.535  22.363  1.00  0.00    -0.000 C 
BRANCH  24  25
ATOM     25  C   UNL     1     -20.545  33.272  23.667  1.00  0.00    -0.003 C 
ATOM     26  C   UNL     1     -19.171  32.645  23.433  1.00  0.00     0.004 C 
ENDBRANCH  24  25
ENDBRANCH  23  24
ENDBRANCH  22  23
ENDBRANCH  21  22
ENDBRANCH  20  21
ENDBRANCH  19  20
ENDBRANCH  18  19
ENDBRANCH  17  18
ENDBRANCH  16  17
ENDBRANCH  15  16
ENDBRANCH   1  15
TORSDOF 22
ENDMDL
MODEL 8
REMARK VINA RESULT:    -3.728      3.859      7.367
REMARK INTER + INTRA:         -11.212
REMARK INTER:                  -7.188
REMARK INTRA:                  -4.024
REMARK UNBOUND:                -2.689
REMARK SMILES CCCCCCCCCCCCCCCCCCCCCCCC(=O)[O-]
REMARK SMILES IDX 13 1 14 2 15 3 16 4 17 5 18 6 19 7 20 8 21 9 22 10 23 11
REMARK SMILES IDX 24 12 25 13 26 14 12 15 11 16 10 17 9 18 8 19 7 20 6 21 5 22
REMARK SMILES IDX 4 23 3 24 2 25 1 26
REMARK H PARENT
REMARK Flexibility Score: inf
ROOT
ATOM      1  C   UNL     1     -18.208  28.760  21.784  1.00  0.00     0.000 C 
ENDROOT
BRANCH   1   2
ATOM      2  C   UNL     1     -19.618  29.355  21.619  1.00  0.00     0.000 C 
BRANCH   2   3
ATOM      3  C   UNL     1     -19.877  29.884  20.198  1.00  0.00     0.000 C 
BRANCH   3   4
ATOM      4  C   UNL     1     -20.408  28.800  19.240  1.00  0.00     0.000 C 
BRANCH   4   5
ATOM      5  C   UNL     1     -21.875  28.388  19.462  1.00  0.00     0.000 C 
BRANCH   5   6
ATOM      6  C   UNL     1     -22.921  29.467  19.122  1.00  0.00     0.000 C 
BRANCH   6   7
ATOM      7  C   UNL     1     -23.921  29.750  20.265  1.00  0.00     0.000 C 
BRANCH   7   8
ATOM      8  C   UNL     1     -23.353  29.393  21.650  1.00  0.00     0.000 C 
BRANCH   8   9
ATOM      9  C   UNL     1     -23.022  30.636  22.491  1.00  0.00     0.000 C 
BRANCH   9  10
ATOM     10  C   UNL     1     -23.144  31.945  21.690  1.00  0.00     0.006 C 
BRANCH  10  11
ATOM     11  C   UNL     1     -21.838  32.751  21.696  1.00  0.00     0.053 C 
BRANCH  11  12
ATOM     12  C   UNL     1     -22.029  34.121  21.120  1.00  0.00     0.041 C 
ATOM     13  O   UNL     1     -21.381  35.098  21.578  1.00  0.00    -0.550 OA
ATOM     14  O   UNL     1     -22.896  34.310  20.050  1.00  0.00    -0.550 OA
ENDBRANCH  11  12
ENDBRANCH  10  11
ENDBRANCH   9  10
ENDBRANCH   8   9
ENDBRANCH   7   8
ENDBRANCH   6   7
ENDBRANCH   5   6
ENDBRANCH   4   5
ENDBRANCH   3   4
ENDBRANCH   2   3
ENDBRANCH   1   2
BRANCH   1  15
ATOM     15  C   UNL     1     -17.697  28.671  23.237  1.00  0.00     0.000 C 
BRANCH  15  16
ATOM     16  C   UNL     1     -17.368  27.250  23.726  1.00  0.00     0.000 C 
BRANCH  16  17
ATOM     17  C   UNL     1     -17.339  26.221  22.586  1.00  0.00     0.000 C 
BRANCH  17  18
ATOM     18  C   UNL     1     -17.339  24.788  23.140  1.00  0.00    -0.000 C 
BRANCH  18  19
ATOM     19  C   UNL     1     -16.966  23.743  22.077  1.00  0.00    -0.000 C 
BRANCH  19  20
ATOM     20  C   UNL     1     -17.275  24.219  20.647  1.00  0.00    -0.000 C 
BRANCH  20  21
ATOM     21  C   UNL     1     -18.342  23.356  19.950  1.00  0.00    -0.000 C 
BRANCH  21  22
ATOM     22  C   UNL     1     -19.514  24.174  19.365  1.00  0.00    -0.000 C 
BRANCH  22  23
ATOM     23  C   UNL     1     -19.865  25.394  20.235  1.00  0.00    -0.000 C 
BRANCH  23  24
ATOM     24  C   UNL     1     -20.757  25.018  21.437  1.00  0.00    -0.000 C 
BRANCH  24  25
ATOM     25  C   UNL     1     -21.270  26.232  22.231  1.00  0.00    -0.003 C 
ATOM     26  C   UNL     1     -20.909  26.174  23.714  1.00  0.00     0.004 C 
ENDBRANCH  24  25
ENDBRANCH  23  24
ENDBRANCH  22  23
ENDBRANCH  21  22
ENDBRANCH  20  21
ENDBRANCH  19  20
ENDBRANCH  18  19
ENDBRANCH  17  18
ENDBRANCH  16  17
ENDBRANCH  15  16
ENDBRANCH   1  15
TORSDOF 22
ENDMDL
MODEL 9
REMARK VINA RESULT:    -3.670      5.568      9.998
REMARK INTER + INTRA:         -11.077
REMARK INTER:                  -6.790
REMARK INTRA:                  -4.287
REMARK UNBOUND:                -2.689
REMARK SMILES CCCCCCCCCCCCCCCCCCCCCCCC(=O)[O-]
REMARK SMILES IDX 13 1 14 2 15 3 16 4 17 5 18 6 19 7 20 8 21 9 22 10 23 11
REMARK SMILES IDX 24 12 25 13 26 14 12 15 11 16 10 17 9 18 8 19 7 20 6 21 5 22
REMARK SMILES IDX 4 23 3 24 2 25 1 26
REMARK H PARENT
REMARK Flexibility Score: inf
ROOT
ATOM      1  C   UNL     1     -19.702  29.608  20.020  1.00  0.00     0.000 C 
ENDROOT
BRANCH   1   2
ATOM      2  C   UNL     1     -20.560  28.434  19.514  1.00  0.00     0.000 C 
BRANCH   2   3
ATOM      3  C   UNL     1     -22.011  28.846  19.211  1.00  0.00     0.000 C 
BRANCH   3   4
ATOM      4  C   UNL     1     -23.046  27.823  19.719  1.00  0.00     0.000 C 
BRANCH   4   5
ATOM      5  C   UNL     1     -22.540  26.372  19.821  1.00  0.00     0.000 C 
BRANCH   5   6
ATOM      6  C   UNL     1     -22.559  25.767  21.238  1.00  0.00     0.000 C 
BRANCH   6   7
ATOM      7  C   UNL     1     -22.589  26.822  22.367  1.00  0.00     0.000 C 
BRANCH   7   8
ATOM      8  C   UNL     1     -21.272  26.878  23.161  1.00  0.00     0.000 C 
BRANCH   8   9
ATOM      9  C   UNL     1     -20.356  25.678  22.871  1.00  0.00     0.000 C 
BRANCH   9  10
ATOM     10  C   UNL     1     -19.016  26.092  22.239  1.00  0.00     0.006 C 
BRANCH  10  11
ATOM     11  C   UNL     1     -18.833  25.502  20.835  1.00  0.00     0.053 C 
BRANCH  11  12
ATOM     12  C   UNL     1     -18.133  24.178  20.877  1.00  0.00     0.041 C 
ATOM     13  O   UNL     1     -18.346  23.318  19.981  1.00  0.00    -0.550 OA
ATOM     14  O   UNL     1     -17.215  23.908  21.885  1.00  0.00    -0.550 OA
ENDBRANCH  11  12
ENDBRANCH  10  11
ENDBRANCH   9  10
ENDBRANCH   8   9
ENDBRANCH   7   8
ENDBRANCH   6   7
ENDBRANCH   5   6
ENDBRANCH   4   5
ENDBRANCH   3   4
ENDBRANCH   2   3
ENDBRANCH   1   2
BRANCH   1  15
ATOM     15  C   UNL     1     -19.589  29.727  21.553  1.00  0.00     0.000 C 
BRANCH  15  16
ATOM     16  C   UNL     1     -20.363  30.902  22.174  1.00  0.00     0.000 C 
BRANCH  16  17
ATOM     17  C   UNL     1     -21.638  30.455  22.906  1.00  0.00     0.000 C 
BRANCH  17  18
ATOM     18  C   UNL     1     -22.894  30.909  22.148  1.00  0.00    -0.000 C 
BRANCH  18  19
ATOM     19  C   UNL     1     -22.591  31.982  21.090  1.00  0.00    -0.000 C 
BRANCH  19  20
ATOM     20  C   UNL     1     -23.856  32.715  20.612  1.00  0.00    -0.000 C 
BRANCH  20  21
ATOM     21  C   UNL     1     -23.618  34.215  20.365  1.00  0.00    -0.000 C 
BRANCH  21  22
ATOM     22  C   UNL     1     -22.127  34.619  20.396  1.00  0.00    -0.000 C 
BRANCH  22  23
ATOM     23  C   UNL     1     -21.804  35.561  21.570  1.00  0.00    -0.000 C 
BRANCH  23  24
ATOM     24  C   UNL     1     -22.845  35.458  22.706  1.00  0.00    -0.000 C 
BRANCH  24  25
ATOM     25  C   UNL     1     -22.316  34.752  23.967  1.00  0.00    -0.003 C 
ATOM     26  C   UNL     1     -20.942  34.116  23.766  1.00  0.00     0.004 C 
ENDBRANCH  24  25
ENDBRANCH  23  24
ENDBRANCH  22  23
ENDBRANCH  21  22
ENDBRANCH  20  21
ENDBRANCH  19  20
ENDBRANCH  18  19
ENDBRANCH  17  18
ENDBRANCH  16  17
ENDBRANCH  15  16
ENDBRANCH   1  15
TORSDOF 22
ENDMDL
