MODEL 1
REMARK VINA RESULT:    -4.413      0.000      0.000
REMARK INTER + INTRA:         -10.875
REMARK INTER:                  -8.282
REMARK INTRA:                  -2.593
REMARK UNBOUND:                -2.593
REMARK SMILES CCCCCCCCC=CCCCCCCCC(=O)[O-]
REMARK SMILES IDX 10 1 9 2 11 3 12 4 13 5 14 6 15 7 16 8 17 9 18 10 19 11
REMARK SMILES IDX 20 12 8 13 7 14 6 15 5 16 4 17 3 18 2 19 1 20
REMARK H PARENT
REMARK Flexibility Score: inf
ROOT
ATOM      1  C   UNL     1     109.671 116.311 125.059  1.00  0.00    -0.031 C 
ATOM      2  C   UNL     1     110.248 116.622 126.228  1.00  0.00    -0.031 C 
ENDROOT
BRANCH   1   3
ATOM      3  C   UNL     1     110.487 115.965 123.842  1.00  0.00     0.027 C 
BRANCH   3   4
ATOM      4  C   UNL     1     110.076 116.778 122.599  1.00  0.00     0.004 C 
BRANCH   4   5
ATOM      5  C   UNL     1     109.021 117.863 122.881  1.00  0.00     0.000 C 
BRANCH   5   6
ATOM      6  C   UNL     1     109.611 119.284 122.859  1.00  0.00     0.000 C 
BRANCH   6   7
ATOM      7  C   UNL     1     109.355 120.049 124.171  1.00  0.00     0.000 C 
BRANCH   7   8
ATOM      8  C   UNL     1     110.572 120.119 125.114  1.00  0.00     0.006 C 
BRANCH   8   9
ATOM      9  C   UNL     1     111.906 119.926 124.378  1.00  0.00     0.053 C 
BRANCH   9  10
ATOM     10  C   UNL     1     112.591 121.242 124.181  1.00  0.00     0.041 C 
ATOM     11  O   UNL     1     112.318 122.218 124.929  1.00  0.00    -0.550 OA
ATOM     12  O   UNL     1     113.570 121.375 123.205  1.00  0.00    -0.550 OA
ENDBRANCH   9  10
ENDBRANCH   8   9
ENDBRANCH   7   8
ENDBRANCH   6   7
ENDBRANCH   5   6
ENDBRANCH   4   5
ENDBRANCH   3   4
ENDBRANCH   1   3
BRANCH   2  13
ATOM     13  C   UNL     1     109.412 116.992 127.423  1.00  0.00     0.027 C 
BRANCH  13  14
ATOM     14  C   UNL     1     109.449 115.889 128.486  1.00  0.00     0.004 C 
BRANCH  14  15
ATOM     15  C   UNL     1     109.946 116.433 129.831  1.00  0.00     0.000 C 
BRANCH  15  16
ATOM     16  C   UNL     1     111.305 115.824 130.203  1.00  0.00     0.000 C 
BRANCH  16  17
ATOM     17  C   UNL     1     112.413 116.885 130.164  1.00  0.00    -0.000 C 
BRANCH  17  18
ATOM     18  C   UNL     1     113.456 116.622 129.065  1.00  0.00    -0.000 C 
BRANCH  18  19
ATOM     19  C   UNL     1     113.343 117.583 127.861  1.00  0.00    -0.003 C 
ATOM     20  C   UNL     1     112.520 118.829 128.187  1.00  0.00     0.004 C 
ENDBRANCH  18  19
ENDBRANCH  17  18
ENDBRANCH  16  17
ENDBRANCH  15  16
ENDBRANCH  14  15
ENDBRANCH  13  14
ENDBRANCH   2  13
TORSDOF 15
ENDMDL
MODEL 2
REMARK VINA RESULT:    -4.404      1.374      2.325
REMARK INTER + INTRA:         -10.859
REMARK INTER:                  -7.865
REMARK INTRA:                  -2.994
REMARK UNBOUND:                -2.593
REMARK SMILES CCCCCCCCC=CCCCCCCCC(=O)[O-]
REMARK SMILES IDX 10 1 9 2 11 3 12 4 13 5 14 6 15 7 16 8 17 9 18 10 19 11
REMARK SMILES IDX 20 12 8 13 7 14 6 15 5 16 4 17 3 18 2 19 1 20
REMARK H PARENT
REMARK Flexibility Score: inf
ROOT
ATOM      1  C   UNL     1     109.566 116.729 126.362  1.00  0.00    -0.031 C 
ATOM      2  C   UNL     1     109.912 115.837 127.301  1.00  0.00    -0.031 C 
ENDROOT
BRANCH   1   3
ATOM      3  C   UNL     1     110.062 116.616 124.944  1.00  0.00     0.027 C 
BRANCH   3   4
ATOM      4  C   UNL     1     109.920 117.934 124.158  1.00  0.00     0.004 C 
BRANCH   4   5
ATOM      5  C   UNL     1     109.487 119.134 125.019  1.00  0.00     0.000 C 
BRANCH   5   6
ATOM      6  C   UNL     1     110.361 120.378 124.784  1.00  0.00     0.000 C 
BRANCH   6   7
ATOM      7  C   UNL     1     111.608 120.072 123.934  1.00  0.00     0.000 C 
BRANCH   7   8
ATOM      8  C   UNL     1     112.728 121.125 124.045  1.00  0.00     0.006 C 
BRANCH   8   9
ATOM      9  C   UNL     1     112.543 122.065 125.245  1.00  0.00     0.053 C 
BRANCH   9  10
ATOM     10  C   UNL     1     112.400 123.483 124.783  1.00  0.00     0.041 C 
ATOM     11  O   UNL     1     113.304 124.016 124.087  1.00  0.00    -0.550 OA
ATOM     12  O   UNL     1     111.246 124.195 125.078  1.00  0.00    -0.550 OA
ENDBRANCH   9  10
ENDBRANCH   8   9
ENDBRANCH   7   8
ENDBRANCH   6   7
ENDBRANCH   5   6
ENDBRANCH   4   5
ENDBRANCH   3   4
ENDBRANCH   1   3
BRANCH   2  13
ATOM     13  C   UNL     1     109.427 115.986 128.717  1.00  0.00     0.027 C 
BRANCH  13  14
ATOM     14  C   UNL     1     110.593 115.915 129.710  1.00  0.00     0.004 C 
BRANCH  14  15
ATOM     15  C   UNL     1     110.984 117.312 130.206  1.00  0.00     0.000 C 
BRANCH  15  16
ATOM     16  C   UNL     1     112.229 117.828 129.473  1.00  0.00     0.000 C 
BRANCH  16  17
ATOM     17  C   UNL     1     111.848 118.848 128.391  1.00  0.00    -0.000 C 
BRANCH  17  18
ATOM     18  C   UNL     1     112.807 118.831 127.188  1.00  0.00    -0.000 C 
BRANCH  18  19
ATOM     19  C   UNL     1     113.270 117.415 126.785  1.00  0.00    -0.003 C 
ATOM     20  C   UNL     1     113.698 117.338 125.319  1.00  0.00     0.004 C 
ENDBRANCH  18  19
ENDBRANCH  17  18
ENDBRANCH  16  17
ENDBRANCH  15  16
ENDBRANCH  14  15
ENDBRANCH  13  14
ENDBRANCH   2  13
TORSDOF 15
ENDMDL
MODEL 3
REMARK VINA RESULT:    -4.392      1.656      3.875
REMARK INTER + INTRA:         -10.836
REMARK INTER:                  -8.289
REMARK INTRA:                  -2.547
REMARK UNBOUND:                -2.593
REMARK SMILES CCCCCCCCC=CCCCCCCCC(=O)[O-]
REMARK SMILES IDX 10 1 9 2 11 3 12 4 13 5 14 6 15 7 16 8 17 9 18 10 19 11
REMARK SMILES IDX 20 12 8 13 7 14 6 15 5 16 4 17 3 18 2 19 1 20
REMARK H PARENT
REMARK Flexibility Score: inf
ROOT
ATOM      1  C   UNL     1     113.075 117.806 128.532  1.00  0.00    -0.031 C 
ATOM      2  C   UNL     1     112.444 117.844 129.714  1.00  0.00    -0.031 C 
ENDROOT
BRANCH   1   3
ATOM      3  C   UNL     1     113.161 119.018 127.642  1.00  0.00     0.027 C 
BRANCH   3   4
ATOM      4  C   UNL     1     111.914 119.918 127.742  1.00  0.00     0.004 C 
BRANCH   4   5
ATOM      5  C   UNL     1     111.797 120.955 126.611  1.00  0.00     0.000 C 
BRANCH   5   6
ATOM      6  C   UNL     1     111.092 120.395 125.363  1.00  0.00     0.000 C 
BRANCH   6   7
ATOM      7  C   UNL     1     112.076 120.073 124.224  1.00  0.00     0.000 C 
BRANCH   7   8
ATOM      8  C   UNL     1     113.464 120.724 124.379  1.00  0.00     0.006 C 
BRANCH   8   9
ATOM      9  C   UNL     1     113.777 121.729 123.259  1.00  0.00     0.053 C 
BRANCH   9  10
ATOM     10  C   UNL     1     113.921 123.110 123.819  1.00  0.00     0.041 C 
ATOM     11  O   UNL     1     112.973 123.635 124.462  1.00  0.00    -0.550 OA
ATOM     12  O   UNL     1     115.120 123.795 123.678  1.00  0.00    -0.550 OA
ENDBRANCH   9  10
ENDBRANCH   8   9
ENDBRANCH   7   8
ENDBRANCH   6   7
ENDBRANCH   5   6
ENDBRANCH   4   5
ENDBRANCH   3   4
ENDBRANCH   1   3
BRANCH   2  13
ATOM     13  C   UNL     1     112.347 116.612 130.572  1.00  0.00     0.027 C 
BRANCH  13  14
ATOM     14  C   UNL     1     111.307 115.633 130.018  1.00  0.00     0.004 C 
BRANCH  14  15
ATOM     15  C   UNL     1     109.959 116.328 129.790  1.00  0.00     0.000 C 
BRANCH  15  16
ATOM     16  C   UNL     1     109.422 116.041 128.382  1.00  0.00     0.000 C 
BRANCH  16  17
ATOM     17  C   UNL     1     109.428 117.311 127.521  1.00  0.00    -0.000 C 
BRANCH  17  18
ATOM     18  C   UNL     1     109.542 117.014 126.015  1.00  0.00    -0.000 C 
BRANCH  18  19
ATOM     19  C   UNL     1     110.438 115.799 125.690  1.00  0.00    -0.003 C 
ATOM     20  C   UNL     1     111.902 116.191 125.494  1.00  0.00     0.004 C 
ENDBRANCH  18  19
ENDBRANCH  17  18
ENDBRANCH  16  17
ENDBRANCH  15  16
ENDBRANCH  14  15
ENDBRANCH  13  14
ENDBRANCH   2  13
TORSDOF 15
ENDMDL
MODEL 4
REMARK VINA RESULT:    -4.349      1.495      2.263
REMARK INTER + INTRA:         -10.755
REMARK INTER:                  -7.808
REMARK INTRA:                  -2.948
REMARK UNBOUND:                -2.593
REMARK SMILES CCCCCCCCC=CCCCCCCCC(=O)[O-]
REMARK SMILES IDX 10 1 9 2 11 3 12 4 13 5 14 6 15 7 16 8 17 9 18 10 19 11
REMARK SMILES IDX 20 12 8 13 7 14 6 15 5 16 4 17 3 18 2 19 1 20
REMARK H PARENT
REMARK Flexibility Score: inf
ROOT
ATOM      1  C   UNL     1     110.448 116.164 123.846  1.00  0.00    -0.031 C 
ATOM      2  C   UNL     1     109.712 116.375 124.947  1.00  0.00    -0.031 C 
ENDROOT
BRANCH   1   3
ATOM      3  C   UNL     1     110.106 116.814 122.531  1.00  0.00     0.027 C 
BRANCH   3   4
ATOM      4  C   UNL     1     109.189 118.041 122.694  1.00  0.00     0.004 C 
BRANCH   4   5
ATOM      5  C   UNL     1     109.904 119.389 122.494  1.00  0.00     0.000 C 
BRANCH   5   6
ATOM      6  C   UNL     1     110.928 119.689 123.603  1.00  0.00     0.000 C 
BRANCH   6   7
ATOM      7  C   UNL     1     110.451 120.795 124.562  1.00  0.00     0.000 C 
BRANCH   7   8
ATOM      8  C   UNL     1     111.576 121.709 125.088  1.00  0.00     0.006 C 
BRANCH   8   9
ATOM      9  C   UNL     1     112.969 121.270 124.613  1.00  0.00     0.053 C 
BRANCH   9  10
ATOM     10  C   UNL     1     113.601 122.341 123.780  1.00  0.00     0.041 C 
ATOM     11  O   UNL     1     114.333 122.035 122.801  1.00  0.00    -0.550 OA
ATOM     12  O   UNL     1     113.337 123.677 124.051  1.00  0.00    -0.550 OA
ENDBRANCH   9  10
ENDBRANCH   8   9
ENDBRANCH   7   8
ENDBRANCH   6   7
ENDBRANCH   5   6
ENDBRANCH   4   5
ENDBRANCH   3   4
ENDBRANCH   1   3
BRANCH   2  13
ATOM     13  C   UNL     1     110.056 115.693 126.243  1.00  0.00     0.027 C 
BRANCH  13  14
ATOM     14  C   UNL     1     109.688 116.571 127.444  1.00  0.00     0.004 C 
BRANCH  14  15
ATOM     15  C   UNL     1     109.218 117.959 126.991  1.00  0.00     0.000 C 
BRANCH  15  16
ATOM     16  C   UNL     1     109.968 119.066 127.743  1.00  0.00     0.000 C 
BRANCH  16  17
ATOM     17  C   UNL     1     111.304 118.550 128.294  1.00  0.00    -0.000 C 
BRANCH  17  18
ATOM     18  C   UNL     1     112.497 118.877 127.379  1.00  0.00    -0.000 C 
BRANCH  18  19
ATOM     19  C   UNL     1     113.227 117.627 126.844  1.00  0.00    -0.003 C 
ATOM     20  C   UNL     1     113.402 117.659 125.326  1.00  0.00     0.004 C 
ENDBRANCH  18  19
ENDBRANCH  17  18
ENDBRANCH  16  17
ENDBRANCH  15  16
ENDBRANCH  14  15
ENDBRANCH  13  14
ENDBRANCH   2  13
TORSDOF 15
ENDMDL
MODEL 5
REMARK VINA RESULT:    -4.321      1.249      2.083
REMARK INTER + INTRA:         -10.703
REMARK INTER:                  -8.656
REMARK INTRA:                  -2.047
REMARK UNBOUND:                -2.593
REMARK SMILES CCCCCCCCC=CCCCCCCCC(=O)[O-]
REMARK SMILES IDX 10 1 9 2 11 3 12 4 13 5 14 6 15 7 16 8 17 9 18 10 19 11
REMARK SMILES IDX 20 12 8 13 7 14 6 15 5 16 4 17 3 18 2 19 1 20
REMARK H PARENT
REMARK Flexibility Score: inf
ROOT
ATOM      1  C   UNL     1     109.539 116.969 124.387  1.00  0.00    -0.031 C 
ATOM      2  C   UNL     1     110.670 116.491 124.926  1.00  0.00    -0.031 C 
ENDROOT
BRANCH   1   3
ATOM      3  C   UNL     1     109.497 117.501 122.979  1.00  0.00     0.027 C 
BRANCH   3   4
ATOM      4  C   UNL     1     109.989 118.958 122.880  1.00  0.00     0.004 C 
BRANCH   4   5
ATOM      5  C   UNL     1     109.546 119.851 124.052  1.00  0.00     0.000 C 
BRANCH   5   6
ATOM      6  C   UNL     1     110.734 120.496 124.788  1.00  0.00     0.000 C 
BRANCH   6   7
ATOM      7  C   UNL     1     112.087 119.902 124.359  1.00  0.00     0.000 C 
BRANCH   7   8
ATOM      8  C   UNL     1     113.280 120.868 124.497  1.00  0.00     0.006 C 
BRANCH   8   9
ATOM      9  C   UNL     1     113.627 121.577 123.179  1.00  0.00     0.053 C 
BRANCH   9  10
ATOM     10  C   UNL     1     114.532 122.742 123.432  1.00  0.00     0.041 C 
ATOM     11  O   UNL     1     114.071 123.811 123.913  1.00  0.00    -0.550 OA
ATOM     12  O   UNL     1     115.894 122.628 123.187  1.00  0.00    -0.550 OA
ENDBRANCH   9  10
ENDBRANCH   8   9
ENDBRANCH   7   8
ENDBRANCH   6   7
ENDBRANCH   5   6
ENDBRANCH   4   5
ENDBRANCH   3   4
ENDBRANCH   1   3
BRANCH   2  13
ATOM     13  C   UNL     1     110.694 115.991 126.344  1.00  0.00     0.027 C 
BRANCH  13  14
ATOM     14  C   UNL     1     109.650 116.713 127.202  1.00  0.00     0.004 C 
BRANCH  14  15
ATOM     15  C   UNL     1     109.299 115.896 128.451  1.00  0.00     0.000 C 
BRANCH  15  16
ATOM     16  C   UNL     1     110.477 115.857 129.433  1.00  0.00     0.000 C 
BRANCH  16  17
ATOM     17  C   UNL     1     110.580 117.169 130.222  1.00  0.00    -0.000 C 
BRANCH  17  18
ATOM     18  C   UNL     1     112.021 117.700 130.317  1.00  0.00    -0.000 C 
BRANCH  18  19
ATOM     19  C   UNL     1     112.758 117.733 128.961  1.00  0.00    -0.003 C 
ATOM     20  C   UNL     1     112.379 118.952 128.121  1.00  0.00     0.004 C 
ENDBRANCH  18  19
ENDBRANCH  17  18
ENDBRANCH  16  17
ENDBRANCH  15  16
ENDBRANCH  14  15
ENDBRANCH  13  14
ENDBRANCH   2  13
TORSDOF 15
ENDMDL
MODEL 6
REMARK VINA RESULT:    -4.316      1.253      1.953
REMARK INTER + INTRA:         -10.693
REMARK INTER:                  -8.290
REMARK INTRA:                  -2.404
REMARK UNBOUND:                -2.593
REMARK SMILES CCCCCCCCC=CCCCCCCCC(=O)[O-]
REMARK SMILES IDX 10 1 9 2 11 3 12 4 13 5 14 6 15 7 16 8 17 9 18 10 19 11
REMARK SMILES IDX 20 12 8 13 7 14 6 15 5 16 4 17 3 18 2 19 1 20
REMARK H PARENT
REMARK Flexibility Score: inf
ROOT
ATOM      1  C   UNL     1     109.572 116.743 124.227  1.00  0.00    -0.031 C 
ATOM      2  C   UNL     1     110.602 116.126 124.824  1.00  0.00    -0.031 C 
ENDROOT
BRANCH   1   3
ATOM      3  C   UNL     1     109.652 117.212 122.798  1.00  0.00     0.027 C 
BRANCH   3   4
ATOM      4  C   UNL     1     109.421 118.729 122.657  1.00  0.00     0.004 C 
BRANCH   4   5
ATOM      5  C   UNL     1     109.197 119.457 123.995  1.00  0.00     0.000 C 
BRANCH   5   6
ATOM      6  C   UNL     1     110.259 120.536 124.269  1.00  0.00     0.000 C 
BRANCH   6   7
ATOM      7  C   UNL     1     111.695 120.003 124.113  1.00  0.00     0.000 C 
BRANCH   7   8
ATOM      8  C   UNL     1     112.790 121.082 124.227  1.00  0.00     0.006 C 
BRANCH   8   9
ATOM      9  C   UNL     1     112.547 122.054 125.392  1.00  0.00     0.053 C 
BRANCH   9  10
ATOM     10  C   UNL     1     112.464 123.462 124.890  1.00  0.00     0.041 C 
ATOM     11  O   UNL     1     111.609 124.255 125.366  1.00  0.00    -0.550 OA
ATOM     12  O   UNL     1     113.367 123.913 123.937  1.00  0.00    -0.550 OA
ENDBRANCH   9  10
ENDBRANCH   8   9
ENDBRANCH   7   8
ENDBRANCH   6   7
ENDBRANCH   5   6
ENDBRANCH   4   5
ENDBRANCH   3   4
ENDBRANCH   1   3
BRANCH   2  13
ATOM     13  C   UNL     1     110.509 115.692 126.261  1.00  0.00     0.027 C 
BRANCH  13  14
ATOM     14  C   UNL     1     109.510 116.557 127.036  1.00  0.00     0.004 C 
BRANCH  14  15
ATOM     15  C   UNL     1     109.349 116.059 128.478  1.00  0.00     0.000 C 
BRANCH  15  16
ATOM     16  C   UNL     1     110.689 116.092 129.224  1.00  0.00     0.000 C 
BRANCH  16  17
ATOM     17  C   UNL     1     111.135 117.536 129.492  1.00  0.00    -0.000 C 
BRANCH  17  18
ATOM     18  C   UNL     1     112.453 117.897 128.786  1.00  0.00    -0.000 C 
BRANCH  18  19
ATOM     19  C   UNL     1     112.305 119.014 127.731  1.00  0.00    -0.003 C 
ATOM     20  C   UNL     1     110.952 119.719 127.816  1.00  0.00     0.004 C 
ENDBRANCH  18  19
ENDBRANCH  17  18
ENDBRANCH  16  17
ENDBRANCH  15  16
ENDBRANCH  14  15
ENDBRANCH  13  14
ENDBRANCH   2  13
TORSDOF 15
ENDMDL
MODEL 7
REMARK VINA RESULT:    -4.291      1.993      3.794
REMARK INTER + INTRA:         -10.646
REMARK INTER:                  -7.972
REMARK INTRA:                  -2.674
REMARK UNBOUND:                -2.593
REMARK SMILES CCCCCCCCC=CCCCCCCCC(=O)[O-]
REMARK SMILES IDX 10 1 9 2 11 3 12 4 13 5 14 6 15 7 16 8 17 9 18 10 19 11
REMARK SMILES IDX 20 12 8 13 7 14 6 15 5 16 4 17 3 18 2 19 1 20
REMARK H PARENT
REMARK Flexibility Score: inf
ROOT
ATOM      1  C   UNL     1     111.812 119.323 128.120  1.00  0.00    -0.031 C 
ATOM      2  C   UNL     1     113.029 118.850 127.818  1.00  0.00    -0.031 C 
ENDROOT
BRANCH   1   3
ATOM      3  C   UNL     1     111.159 120.405 127.301  1.00  0.00     0.027 C 
BRANCH   3   4
ATOM      4  C   UNL     1     110.418 119.852 126.068  1.00  0.00     0.004 C 
BRANCH   4   5
ATOM      5  C   UNL     1     110.946 120.387 124.726  1.00  0.00     0.000 C 
BRANCH   5   6
ATOM      6  C   UNL     1     112.284 119.746 124.316  1.00  0.00     0.000 C 
BRANCH   6   7
ATOM      7  C   UNL     1     113.459 120.738 124.384  1.00  0.00     0.000 C 
BRANCH   7   8
ATOM      8  C   UNL     1     113.045 122.221 124.319  1.00  0.00     0.006 C 
BRANCH   8   9
ATOM      9  C   UNL     1     113.335 122.976 125.625  1.00  0.00     0.053 C 
BRANCH   9  10
ATOM     10  C   UNL     1     112.136 123.766 126.050  1.00  0.00     0.041 C 
ATOM     11  O   UNL     1     112.009 124.129 127.250  1.00  0.00    -0.550 OA
ATOM     12  O   UNL     1     111.188 124.149 125.111  1.00  0.00    -0.550 OA
ENDBRANCH   9  10
ENDBRANCH   8   9
ENDBRANCH   7   8
ENDBRANCH   6   7
ENDBRANCH   5   6
ENDBRANCH   4   5
ENDBRANCH   3   4
ENDBRANCH   1   3
BRANCH   2  13
ATOM     13  C   UNL     1     113.673 117.788 128.668  1.00  0.00     0.027 C 
BRANCH  13  14
ATOM     14  C   UNL     1     112.832 117.492 129.914  1.00  0.00     0.004 C 
BRANCH  14  15
ATOM     15  C   UNL     1     112.672 115.982 130.128  1.00  0.00     0.000 C 
BRANCH  15  16
ATOM     16  C   UNL     1     111.272 115.647 130.658  1.00  0.00     0.000 C 
BRANCH  16  17
ATOM     17  C   UNL     1     110.215 116.583 130.055  1.00  0.00    -0.000 C 
BRANCH  17  18
ATOM     18  C   UNL     1     109.408 115.925 128.922  1.00  0.00    -0.000 C 
BRANCH  18  19
ATOM     19  C   UNL     1     109.522 116.663 127.571  1.00  0.00    -0.003 C 
ATOM     20  C   UNL     1     110.601 116.063 126.670  1.00  0.00     0.004 C 
ENDBRANCH  18  19
ENDBRANCH  17  18
ENDBRANCH  16  17
ENDBRANCH  15  16
ENDBRANCH  14  15
ENDBRANCH  13  14
ENDBRANCH   2  13
TORSDOF 15
ENDMDL
MODEL 8
REMARK VINA RESULT:    -4.277      1.942      2.775
REMARK INTER + INTRA:         -10.620
REMARK INTER:                  -7.515
REMARK INTRA:                  -3.105
REMARK UNBOUND:                -2.593
REMARK SMILES CCCCCCCCC=CCCCCCCCC(=O)[O-]
REMARK SMILES IDX 10 1 9 2 11 3 12 4 13 5 14 6 15 7 16 8 17 9 18 10 19 11
REMARK SMILES IDX 20 12 8 13 7 14 6 15 5 16 4 17 3 18 2 19 1 20
REMARK H PARENT
REMARK Flexibility Score: inf
ROOT
ATOM      1  C   UNL     1     109.835 115.919 126.409  1.00  0.00    -0.031 C 
ATOM      2  C   UNL     1     109.506 116.605 127.512  1.00  0.00    -0.031 C 
ENDROOT
BRANCH   1   3
ATOM      3  C   UNL     1     109.849 116.567 125.049  1.00  0.00     0.027 C 
BRANCH   3   4
ATOM      4  C   UNL     1     109.637 118.092 125.116  1.00  0.00     0.004 C 
BRANCH   4   5
ATOM      5  C   UNL     1     110.737 118.910 124.418  1.00  0.00     0.000 C 
BRANCH   5   6
ATOM      6  C   UNL     1     111.149 120.157 125.220  1.00  0.00     0.000 C 
BRANCH   6   7
ATOM      7  C   UNL     1     110.669 120.102 126.682  1.00  0.00     0.000 C 
BRANCH   7   8
ATOM      8  C   UNL     1     111.600 120.814 127.684  1.00  0.00     0.006 C 
BRANCH   8   9
ATOM      9  C   UNL     1     112.594 121.764 127.000  1.00  0.00     0.053 C 
BRANCH   9  10
ATOM     10  C   UNL     1     112.159 123.187 127.168  1.00  0.00     0.041 C 
ATOM     11  O   UNL     1     112.210 123.736 128.300  1.00  0.00    -0.550 OA
ATOM     12  O   UNL     1     111.750 123.922 126.063  1.00  0.00    -0.550 OA
ENDBRANCH   9  10
ENDBRANCH   8   9
ENDBRANCH   7   8
ENDBRANCH   6   7
ENDBRANCH   5   6
ENDBRANCH   4   5
ENDBRANCH   3   4
ENDBRANCH   1   3
BRANCH   2  13
ATOM     13  C   UNL     1     109.471 115.929 128.856  1.00  0.00     0.027 C 
BRANCH  13  14
ATOM     14  C   UNL     1     110.804 116.098 129.593  1.00  0.00     0.004 C 
BRANCH  14  15
ATOM     15  C   UNL     1     111.289 117.551 129.533  1.00  0.00     0.000 C 
BRANCH  15  16
ATOM     16  C   UNL     1     112.806 117.616 129.310  1.00  0.00     0.000 C 
BRANCH  16  17
ATOM     17  C   UNL     1     113.224 116.756 128.110  1.00  0.00    -0.000 C 
BRANCH  17  18
ATOM     18  C   UNL     1     113.377 117.570 126.813  1.00  0.00    -0.000 C 
BRANCH  18  19
ATOM     19  C   UNL     1     113.409 116.702 125.537  1.00  0.00    -0.003 C 
ATOM     20  C   UNL     1     113.826 115.260 125.824  1.00  0.00     0.004 C 
ENDBRANCH  18  19
ENDBRANCH  17  18
ENDBRANCH  16  17
ENDBRANCH  15  16
ENDBRANCH  14  15
ENDBRANCH  13  14
ENDBRANCH   2  13
TORSDOF 15
ENDMDL
MODEL 9
REMARK VINA RESULT:    -4.263      2.075      5.331
REMARK INTER + INTRA:         -10.595
REMARK INTER:                  -7.752
REMARK INTRA:                  -2.843
REMARK UNBOUND:                -2.593
REMARK SMILES CCCCCCCCC=CCCCCCCCC(=O)[O-]
REMARK SMILES IDX 10 1 9 2 11 3 12 4 13 5 14 6 15 7 16 8 17 9 18 10 19 11
REMARK SMILES IDX 20 12 8 13 7 14 6 15 5 16 4 17 3 18 2 19 1 20
REMARK H PARENT
REMARK Flexibility Score: inf
ROOT
ATOM      1  C   UNL     1     110.396 116.019 124.783  1.00  0.00    -0.031 C 
ATOM      2  C   UNL     1     109.301 116.529 124.203  1.00  0.00    -0.031 C 
ENDROOT
BRANCH   1   3
ATOM      3  C   UNL     1     110.407 115.614 126.234  1.00  0.00     0.027 C 
BRANCH   3   4
ATOM      4  C   UNL     1     109.608 116.583 127.127  1.00  0.00     0.004 C 
BRANCH   4   5
ATOM      5  C   UNL     1     109.263 116.016 128.515  1.00  0.00     0.000 C 
BRANCH   5   6
ATOM      6  C   UNL     1     110.471 116.005 129.469  1.00  0.00     0.000 C 
BRANCH   6   7
ATOM      7  C   UNL     1     111.009 117.419 129.756  1.00  0.00     0.000 C 
BRANCH   7   8
ATOM      8  C   UNL     1     112.547 117.521 129.781  1.00  0.00     0.006 C 
BRANCH   8   9
ATOM      9  C   UNL     1     113.202 116.940 128.519  1.00  0.00     0.053 C 
BRANCH   9  10
ATOM     10  C   UNL     1     114.344 117.801 128.077  1.00  0.00     0.041 C 
ATOM     11  O   UNL     1     114.385 119.017 128.402  1.00  0.00    -0.550 OA
ATOM     12  O   UNL     1     115.390 117.246 127.351  1.00  0.00    -0.550 OA
ENDBRANCH   9  10
ENDBRANCH   8   9
ENDBRANCH   7   8
ENDBRANCH   6   7
ENDBRANCH   5   6
ENDBRANCH   4   5
ENDBRANCH   3   4
ENDBRANCH   1   3
BRANCH   2  13
ATOM     13  C   UNL     1     109.323 116.953 122.759  1.00  0.00     0.027 C 
BRANCH  13  14
ATOM     14  C   UNL     1     109.828 118.393 122.615  1.00  0.00     0.004 C 
BRANCH  14  15
ATOM     15  C   UNL     1     108.984 119.363 123.450  1.00  0.00     0.000 C 
BRANCH  15  16
ATOM     16  C   UNL     1     109.870 120.222 124.360  1.00  0.00     0.000 C 
BRANCH  16  17
ATOM     17  C   UNL     1     111.327 119.740 124.324  1.00  0.00    -0.000 C 
BRANCH  17  18
ATOM     18  C   UNL     1     111.868 119.364 125.714  1.00  0.00    -0.000 C 
BRANCH  18  19
ATOM     19  C   UNL     1     110.964 119.828 126.877  1.00  0.00    -0.003 C 
ATOM     20  C   UNL     1     111.582 120.978 127.671  1.00  0.00     0.004 C 
ENDBRANCH  18  19
ENDBRANCH  17  18
ENDBRANCH  16  17
ENDBRANCH  15  16
ENDBRANCH  14  15
ENDBRANCH  13  14
ENDBRANCH   2  13
TORSDOF 15
ENDMDL
