MODEL 1
REMARK VINA RESULT:    -5.509      0.000      0.000
REMARK INTER + INTRA:          -8.998
REMARK INTER:                  -7.924
REMARK INTRA:                  -1.074
REMARK UNBOUND:                -1.074
REMARK SMILES O=c1cc(-c2ccc(O)c(O)c2)oc2cc(O[C@@H]3O[C@H](CO)[C@H](O)[C@@H](O)[C@H]3O)cc(O)c12
REMARK SMILES IDX 17 1 16 2 4 3 3 4 13 5 2 6 14 7 1 8 32 9 15 10 30 11 29 12
REMARK SMILES IDX 5 13 6 14 7 15 8 16 12 17 10 18 9 19 11 21 31 23 18 25 27 26
REMARK SMILES IDX 19 27 25 28 20 29 23 30 28 31 26 33 21 35 22 36 24 38
REMARK H PARENT 9 20 11 22 31 24 28 32 26 34 22 37 24 39
REMARK Flexibility Score: inf
ROOT
ATOM      1  O   UNL     1       3.104  12.834  26.810  1.00  0.00    -0.462 OA
ENDROOT
BRANCH   1   2
ATOM      2  C   UNL     1       2.419  13.980  26.370  1.00  0.00     0.130 A 
ATOM      3  C   UNL     1       0.279  18.049  27.639  1.00  0.00     0.138 A 
ATOM      4  C   UNL     1       0.089  18.437  26.303  1.00  0.00     0.100 A 
ATOM      5  O   UNL     1       0.862  16.881  27.902  1.00  0.00    -0.456 OA
ATOM      6  C   UNL     1       0.514  17.595  25.274  1.00  0.00     0.197 A 
ATOM      7  C   UNL     1       1.284  16.045  26.958  1.00  0.00     0.146 A 
ATOM      8  O   UNL     1       0.357  17.964  24.078  1.00  0.00    -0.289 OA
ATOM      9  C   UNL     1       1.128  16.366  25.590  1.00  0.00     0.107 A 
ATOM     10  C   UNL     1       1.909  14.852  27.333  1.00  0.00     0.094 A 
ATOM     11  C   UNL     1       1.609  15.467  24.610  1.00  0.00     0.134 A 
ATOM     12  C   UNL     1       2.240  14.280  25.006  1.00  0.00     0.093 A 
BRANCH   3  13
ATOM     13  C   UNL     1      -0.115  18.922  28.777  1.00  0.00     0.021 A 
ATOM     14  C   UNL     1      -0.796  20.139  28.583  1.00  0.00     0.016 A 
ATOM     15  C   UNL     1      -1.125  20.949  29.672  1.00  0.00     0.051 A 
ATOM     16  C   UNL     1      -0.787  20.558  30.975  1.00  0.00     0.157 A 
ATOM     17  C   UNL     1       0.197  18.524  30.090  1.00  0.00     0.062 A 
ATOM     18  C   UNL     1      -0.131  19.336  31.184  1.00  0.00     0.158 A 
BRANCH  16  19
ATOM     19  O   UNL     1      -1.102  21.378  32.058  1.00  0.00    -0.504 OA
ATOM     20  H   UNL     1      -1.964  21.264  32.575  1.00  0.00     0.293 HD
ENDBRANCH  16  19
BRANCH  18  21
ATOM     21  O   UNL     1       0.211  18.912  32.468  1.00  0.00    -0.504 OA
ATOM     22  H   UNL     1       1.047  19.238  32.937  1.00  0.00     0.293 HD
ENDBRANCH  18  21
ENDBRANCH   3  13
BRANCH  11  23
ATOM     23  O   UNL     1       1.490  15.756  23.252  1.00  0.00    -0.507 OA
ATOM     24  H   UNL     1       1.782  16.650  22.868  1.00  0.00     0.293 HD
ENDBRANCH  11  23
ENDBRANCH   1   2
BRANCH   1  25
ATOM     25  C   UNL     1       2.979  11.524  26.247  1.00  0.00     0.339 C 
ATOM     26  C   UNL     1       4.292  11.073  25.564  1.00  0.00     0.214 C 
ATOM     27  O   UNL     1       2.546  10.597  27.233  1.00  0.00    -0.332 OA
ATOM     28  C   UNL     1       5.396  10.859  26.610  1.00  0.00     0.180 C 
ATOM     29  C   UNL     1       3.504  10.322  28.252  1.00  0.00     0.179 C 
ATOM     30  C   UNL     1       4.905   9.916  27.715  1.00  0.00     0.177 C 
BRANCH  26  31
ATOM     31  O   UNL     1       4.096   9.922  24.774  1.00  0.00    -0.384 OA
ATOM     32  H   UNL     1       3.703   9.213  25.346  1.00  0.00     0.211 HD
ENDBRANCH  26  31
BRANCH  28  33
ATOM     33  O   UNL     1       6.542  10.312  26.005  1.00  0.00    -0.387 OA
ATOM     34  H   UNL     1       6.844   9.567  26.586  1.00  0.00     0.211 HD
ENDBRANCH  28  33
BRANCH  29  35
ATOM     35  C   UNL     1       3.489  11.380  29.384  1.00  0.00     0.191 C 
BRANCH  35  36
ATOM     36  O   UNL     1       2.244  12.014  29.510  1.00  0.00    -0.394 OA
ATOM     37  H   UNL     1       1.601  11.533  28.924  1.00  0.00     0.210 HD
ENDBRANCH  35  36
ENDBRANCH  29  35
BRANCH  30  38
ATOM     38  O   UNL     1       5.851   9.875  28.754  1.00  0.00    -0.387 OA
ATOM     39  H   UNL     1       5.360   9.621  29.580  1.00  0.00     0.211 HD
ENDBRANCH  30  38
ENDBRANCH   1  25
TORSDOF 11
ENDMDL
MODEL 2
REMARK VINA RESULT:    -5.066      1.618      2.232
REMARK INTER + INTRA:          -8.362
REMARK INTER:                  -7.897
REMARK INTRA:                  -0.465
REMARK UNBOUND:                -1.074
REMARK SMILES O=c1cc(-c2ccc(O)c(O)c2)oc2cc(O[C@@H]3O[C@H](CO)[C@H](O)[C@@H](O)[C@H]3O)cc(O)c12
REMARK SMILES IDX 17 1 16 2 4 3 3 4 13 5 2 6 14 7 1 8 32 9 15 10 30 11 29 12
REMARK SMILES IDX 5 13 6 14 7 15 8 16 12 17 10 18 9 19 11 21 31 23 18 25 27 26
REMARK SMILES IDX 19 27 25 28 20 29 23 30 28 31 26 33 21 35 22 36 24 38
REMARK H PARENT 9 20 11 22 31 24 28 32 26 34 22 37 24 39
REMARK Flexibility Score: inf
ROOT
ATOM      1  O   UNL     1       2.103  13.265  27.925  1.00  0.00    -0.462 OA
ENDROOT
BRANCH   1   2
ATOM      2  C   UNL     1       1.679  14.350  27.139  1.00  0.00     0.130 A 
ATOM      3  C   UNL     1       0.200  18.884  27.112  1.00  0.00     0.138 A 
ATOM      4  C   UNL     1       0.206  18.942  25.708  1.00  0.00     0.100 A 
ATOM      5  O   UNL     1       0.537  17.748  27.719  1.00  0.00    -0.456 OA
ATOM      6  C   UNL     1       0.565  17.810  24.974  1.00  0.00     0.197 A 
ATOM      7  C   UNL     1       0.886  16.644  27.065  1.00  0.00     0.146 A 
ATOM      8  O   UNL     1       0.587  17.880  23.715  1.00  0.00    -0.289 OA
ATOM      9  C   UNL     1       0.915  16.625  25.651  1.00  0.00     0.107 A 
ATOM     10  C   UNL     1       1.249  15.507  27.791  1.00  0.00     0.094 A 
ATOM     11  C   UNL     1       1.314  15.443  24.985  1.00  0.00     0.134 A 
ATOM     12  C   UNL     1       1.682  14.315  25.731  1.00  0.00     0.093 A 
BRANCH   3  13
ATOM     13  C   UNL     1      -0.132  20.068  27.948  1.00  0.00     0.021 A 
ATOM     14  C   UNL     1      -0.751  19.943  29.207  1.00  0.00     0.016 A 
ATOM     15  C   UNL     1      -1.076  21.079  29.953  1.00  0.00     0.051 A 
ATOM     16  C   UNL     1      -0.783  22.358  29.461  1.00  0.00     0.157 A 
ATOM     17  C   UNL     1       0.182  21.356  27.474  1.00  0.00     0.062 A 
ATOM     18  C   UNL     1      -0.144  22.495  28.220  1.00  0.00     0.158 A 
BRANCH  16  19
ATOM     19  O   UNL     1      -1.125  23.489  30.202  1.00  0.00    -0.504 OA
ATOM     20  H   UNL     1      -2.039  23.590  30.624  1.00  0.00     0.293 HD
ENDBRANCH  16  19
BRANCH  18  21
ATOM     21  O   UNL     1       0.171  23.753  27.707  1.00  0.00    -0.504 OA
ATOM     22  H   UNL     1      -0.494  24.295  27.169  1.00  0.00     0.293 HD
ENDBRANCH  18  21
ENDBRANCH   3  13
BRANCH  11  23
ATOM     23  O   UNL     1       1.374  15.389  23.594  1.00  0.00    -0.507 OA
ATOM     24  H   UNL     1       1.607  14.532  23.101  1.00  0.00     0.293 HD
ENDBRANCH  11  23
ENDBRANCH   1   2
BRANCH   1  25
ATOM     25  C   UNL     1       1.834  11.885  27.652  1.00  0.00     0.339 C 
ATOM     26  C   UNL     1       3.106  11.142  27.178  1.00  0.00     0.214 C 
ATOM     27  O   UNL     1       1.241  11.261  28.782  1.00  0.00    -0.332 OA
ATOM     28  C   UNL     1       4.126  11.040  28.322  1.00  0.00     0.180 C 
ATOM     29  C   UNL     1       2.110  11.111  29.902  1.00  0.00     0.179 C 
ATOM     30  C   UNL     1       3.468  10.433  29.567  1.00  0.00     0.177 C 
BRANCH  26  31
ATOM     31  O   UNL     1       2.796   9.875  26.645  1.00  0.00    -0.384 OA
ATOM     32  H   UNL     1       3.587   9.541  26.150  1.00  0.00     0.211 HD
ENDBRANCH  26  31
BRANCH  28  33
ATOM     33  O   UNL     1       5.216  10.241  27.933  1.00  0.00    -0.387 OA
ATOM     34  H   UNL     1       4.898   9.668  27.187  1.00  0.00     0.211 HD
ENDBRANCH  28  33
BRANCH  29  35
ATOM     35  C   UNL     1       2.184  12.389  30.774  1.00  0.00     0.191 C 
BRANCH  35  36
ATOM     36  O   UNL     1       3.482  12.646  31.240  1.00  0.00    -0.394 OA
ATOM     37  H   UNL     1       4.118  12.201  30.619  1.00  0.00     0.210 HD
ENDBRANCH  35  36
ENDBRANCH  29  35
BRANCH  30  38
ATOM     38  O   UNL     1       4.355  10.516  30.654  1.00  0.00    -0.387 OA
ATOM     39  H   UNL     1       4.953   9.724  30.599  1.00  0.00     0.211 HD
ENDBRANCH  30  38
ENDBRANCH   1  25
TORSDOF 11
ENDMDL
MODEL 3
REMARK VINA RESULT:    -3.579      1.379      2.417
REMARK INTER + INTRA:          -6.222
REMARK INTER:                  -5.266
REMARK INTRA:                  -0.956
REMARK UNBOUND:                -1.074
REMARK SMILES O=c1cc(-c2ccc(O)c(O)c2)oc2cc(O[C@@H]3O[C@H](CO)[C@H](O)[C@@H](O)[C@H]3O)cc(O)c12
REMARK SMILES IDX 17 1 16 2 4 3 3 4 13 5 2 6 14 7 1 8 32 9 15 10 30 11 29 12
REMARK SMILES IDX 5 13 6 14 7 15 8 16 12 17 10 18 9 19 11 21 31 23 18 25 27 26
REMARK SMILES IDX 19 27 25 28 20 29 23 30 28 31 26 33 21 35 22 36 24 38
REMARK H PARENT 9 20 11 22 31 24 28 32 26 34 22 37 24 39
REMARK Flexibility Score: inf
ROOT
ATOM      1  O   UNL     1       2.049  13.709  25.627  1.00  0.00    -0.462 OA
ENDROOT
BRANCH   1   2
ATOM      2  C   UNL     1       1.449  14.975  25.513  1.00  0.00     0.130 A 
ATOM      3  C   UNL     1      -0.180  18.811  27.832  1.00  0.00     0.138 A 
ATOM      4  C   UNL     1      -0.432  19.503  26.635  1.00  0.00     0.100 A 
ATOM      5  O   UNL     1       0.304  17.571  27.779  1.00  0.00    -0.456 OA
ATOM      6  C   UNL     1      -0.170  18.883  25.413  1.00  0.00     0.197 A 
ATOM      7  C   UNL     1       0.569  16.938  26.640  1.00  0.00     0.146 A 
ATOM      8  O   UNL     1      -0.380  19.522  24.346  1.00  0.00    -0.289 OA
ATOM      9  C   UNL     1       0.342  17.570  25.395  1.00  0.00     0.107 A 
ATOM     10  C   UNL     1       1.101  15.646  26.686  1.00  0.00     0.094 A 
ATOM     11  C   UNL     1       0.657  16.878  24.203  1.00  0.00     0.134 A 
ATOM     12  C   UNL     1       1.197  15.587  24.269  1.00  0.00     0.093 A 
BRANCH   3  13
ATOM     13  C   UNL     1      -0.400  19.434  29.164  1.00  0.00     0.021 A 
ATOM     14  C   UNL     1      -0.960  20.719  29.303  1.00  0.00     0.016 A 
ATOM     15  C   UNL     1      -1.125  21.287  30.569  1.00  0.00     0.051 A 
ATOM     16  C   UNL     1      -0.741  20.582  31.718  1.00  0.00     0.157 A 
ATOM     17  C   UNL     1      -0.042  18.724  30.325  1.00  0.00     0.062 A 
ATOM     18  C   UNL     1      -0.205  19.292  31.594  1.00  0.00     0.158 A 
BRANCH  16  19
ATOM     19  O   UNL     1      -0.891  21.160  32.978  1.00  0.00    -0.504 OA
ATOM     20  H   UNL     1      -1.577  21.885  33.151  1.00  0.00     0.293 HD
ENDBRANCH  16  19
BRANCH  18  21
ATOM     21  O   UNL     1       0.178  18.560  32.718  1.00  0.00    -0.504 OA
ATOM     22  H   UNL     1       1.135  18.268  32.869  1.00  0.00     0.293 HD
ENDBRANCH  18  21
ENDBRANCH   3  13
BRANCH  11  23
ATOM     23  O   UNL     1       0.465  17.473  22.957  1.00  0.00    -0.507 OA
ATOM     24  H   UNL     1       0.676  16.984  22.093  1.00  0.00     0.293 HD
ENDBRANCH  11  23
ENDBRANCH   1   2
BRANCH   1  25
ATOM     25  C   UNL     1       2.507  13.113  26.845  1.00  0.00     0.339 C 
ATOM     26  C   UNL     1       2.687  11.583  26.695  1.00  0.00     0.214 C 
ATOM     27  O   UNL     1       3.696  13.749  27.293  1.00  0.00    -0.332 OA
ATOM     28  C   UNL     1       3.848  11.270  25.739  1.00  0.00     0.180 C 
ATOM     29  C   UNL     1       4.840  13.515  26.476  1.00  0.00     0.179 C 
ATOM     30  C   UNL     1       5.115  12.014  26.180  1.00  0.00     0.177 C 
BRANCH  26  31
ATOM     31  O   UNL     1       2.863  10.958  27.946  1.00  0.00    -0.384 OA
ATOM     32  H   UNL     1       3.707  10.438  27.920  1.00  0.00     0.211 HD
ENDBRANCH  26  31
BRANCH  28  33
ATOM     33  O   UNL     1       4.103   9.887  25.717  1.00  0.00    -0.387 OA
ATOM     34  H   UNL     1       4.953   9.746  26.209  1.00  0.00     0.211 HD
ENDBRANCH  28  33
BRANCH  29  35
ATOM     35  C   UNL     1       4.907  14.472  25.259  1.00  0.00     0.191 C 
BRANCH  35  36
ATOM     36  O   UNL     1       6.226  14.781  24.892  1.00  0.00    -0.394 OA
ATOM     37  H   UNL     1       6.267  15.759  24.717  1.00  0.00     0.210 HD
ENDBRANCH  35  36
ENDBRANCH  29  35
BRANCH  30  38
ATOM     38  O   UNL     1       6.111  11.868  25.200  1.00  0.00    -0.387 OA
ATOM     39  H   UNL     1       5.645  11.752  24.330  1.00  0.00     0.211 HD
ENDBRANCH  30  38
ENDBRANCH   1  25
TORSDOF 11
ENDMDL
