MODEL 1
REMARK VINA RESULT:    -4.082      0.000      0.000
REMARK INTER + INTRA:         -14.184
REMARK INTER:                 -10.285
REMARK INTRA:                  -3.899
REMARK UNBOUND:                -3.899
REMARK SMILES CCCCCCCCCCCCCCCCCCCCCCCCCCCC(=O)[O-]
REMARK SMILES IDX 15 1 16 2 17 3 18 4 19 5 20 6 21 7 22 8 23 9 24 10 25 11
REMARK SMILES IDX 26 12 27 13 28 14 29 15 30 16 14 17 13 18 12 19 11 20 10 21
REMARK SMILES IDX 9 22 8 23 7 24 6 25 5 26 4 27 3 28 2 29 1 30
REMARK H PARENT
REMARK Flexibility Score: inf
ROOT
ATOM      1  C   UNL     1      16.624 -37.291   5.565  1.00  0.00     0.000 C 
ENDROOT
BRANCH   1   2
ATOM      2  C   UNL     1      18.040 -37.860   5.388  1.00  0.00     0.000 C 
BRANCH   2   3
ATOM      3  C   UNL     1      18.041 -39.333   4.941  1.00  0.00     0.000 C 
BRANCH   3   4
ATOM      4  C   UNL     1      19.266 -39.692   4.084  1.00  0.00     0.000 C 
BRANCH   4   5
ATOM      5  C   UNL     1      20.426 -40.271   4.914  1.00  0.00     0.000 C 
BRANCH   5   6
ATOM      6  C   UNL     1      21.487 -39.208   5.262  1.00  0.00     0.000 C 
BRANCH   6   7
ATOM      7  C   UNL     1      22.318 -39.542   6.514  1.00  0.00     0.000 C 
BRANCH   7   8
ATOM      8  C   UNL     1      22.330 -38.400   7.543  1.00  0.00     0.000 C 
BRANCH   8   9
ATOM      9  C   UNL     1      21.089 -37.493   7.453  1.00  0.00     0.000 C 
BRANCH   9  10
ATOM     10  C   UNL     1      20.005 -37.748   8.521  1.00  0.00     0.000 C 
BRANCH  10  11
ATOM     11  C   UNL     1      19.510 -36.493   9.269  1.00  0.00     0.000 C 
BRANCH  11  12
ATOM     12  C   UNL     1      18.834 -35.435   8.380  1.00  0.00     0.006 C 
BRANCH  12  13
ATOM     13  C   UNL     1      18.986 -34.011   8.930  1.00  0.00     0.053 C 
BRANCH  13  14
ATOM     14  C   UNL     1      20.433 -33.659   9.070  1.00  0.00     0.041 C 
ATOM     15  O   UNL     1      21.169 -33.580   8.051  1.00  0.00    -0.550 OA
ATOM     16  O   UNL     1      20.983 -33.461  10.331  1.00  0.00    -0.550 OA
ENDBRANCH  13  14
ENDBRANCH  12  13
ENDBRANCH  11  12
ENDBRANCH  10  11
ENDBRANCH   9  10
ENDBRANCH   8   9
ENDBRANCH   7   8
ENDBRANCH   6   7
ENDBRANCH   5   6
ENDBRANCH   4   5
ENDBRANCH   3   4
ENDBRANCH   2   3
ENDBRANCH   1   2
BRANCH   1  17
ATOM     17  C   UNL     1      16.584 -35.757   5.500  1.00  0.00     0.000 C 
BRANCH  17  18
ATOM     18  C   UNL     1      15.774 -35.280   4.285  1.00  0.00     0.000 C 
BRANCH  18  19
ATOM     19  C   UNL     1      16.630 -35.175   3.011  1.00  0.00     0.000 C 
BRANCH  19  20
ATOM     20  C   UNL     1      16.122 -36.105   1.896  1.00  0.00     0.000 C 
BRANCH  20  21
ATOM     21  C   UNL     1      17.003 -37.351   1.714  1.00  0.00     0.000 C 
BRANCH  21  22
ATOM     22  C   UNL     1      18.392 -37.020   1.144  1.00  0.00    -0.000 C 
BRANCH  22  23
ATOM     23  C   UNL     1      18.813 -38.054   0.088  1.00  0.00    -0.000 C 
BRANCH  23  24
ATOM     24  C   UNL     1      17.699 -38.327  -0.946  1.00  0.00    -0.000 C 
BRANCH  24  25
ATOM     25  C   UNL     1      17.834 -37.494  -2.234  1.00  0.00    -0.000 C 
BRANCH  25  26
ATOM     26  C   UNL     1      16.901 -36.271  -2.257  1.00  0.00    -0.000 C 
BRANCH  26  27
ATOM     27  C   UNL     1      17.662 -34.944  -2.114  1.00  0.00    -0.000 C 
BRANCH  27  28
ATOM     28  C   UNL     1      17.192 -34.122  -0.904  1.00  0.00    -0.000 C 
BRANCH  28  29
ATOM     29  C   UNL     1      15.743 -33.655  -1.088  1.00  0.00    -0.003 C 
ATOM     30  C   UNL     1      15.610 -32.738  -2.301  1.00  0.00     0.004 C 
ENDBRANCH  28  29
ENDBRANCH  27  28
ENDBRANCH  26  27
ENDBRANCH  25  26
ENDBRANCH  24  25
ENDBRANCH  23  24
ENDBRANCH  22  23
ENDBRANCH  21  22
ENDBRANCH  20  21
ENDBRANCH  19  20
ENDBRANCH  18  19
ENDBRANCH  17  18
ENDBRANCH   1  17
TORSDOF 26
ENDMDL
MODEL 2
REMARK VINA RESULT:    -4.052      3.226      8.771
REMARK INTER + INTRA:         -14.109
REMARK INTER:                  -9.728
REMARK INTRA:                  -4.381
REMARK UNBOUND:                -3.899
REMARK SMILES CCCCCCCCCCCCCCCCCCCCCCCCCCCC(=O)[O-]
REMARK SMILES IDX 15 1 16 2 17 3 18 4 19 5 20 6 21 7 22 8 23 9 24 10 25 11
REMARK SMILES IDX 26 12 27 13 28 14 29 15 30 16 14 17 13 18 12 19 11 20 10 21
REMARK SMILES IDX 9 22 8 23 7 24 6 25 5 26 4 27 3 28 2 29 1 30
REMARK H PARENT
REMARK Flexibility Score: inf
ROOT
ATOM      1  C   UNL     1      14.679 -33.407  -0.844  1.00  0.00     0.000 C 
ENDROOT
BRANCH   1   2
ATOM      2  C   UNL     1      15.647 -32.907  -1.929  1.00  0.00     0.000 C 
BRANCH   2   3
ATOM      3  C   UNL     1      16.937 -33.742  -2.008  1.00  0.00     0.000 C 
BRANCH   3   4
ATOM      4  C   UNL     1      17.342 -34.340  -0.651  1.00  0.00     0.000 C 
BRANCH   4   5
ATOM      5  C   UNL     1      17.510 -35.870  -0.700  1.00  0.00     0.000 C 
BRANCH   5   6
ATOM      6  C   UNL     1      17.690 -36.395  -2.139  1.00  0.00     0.000 C 
BRANCH   6   7
ATOM      7  C   UNL     1      17.105 -37.800  -2.368  1.00  0.00     0.000 C 
BRANCH   7   8
ATOM      8  C   UNL     1      15.569 -37.800  -2.443  1.00  0.00     0.000 C 
BRANCH   8   9
ATOM      9  C   UNL     1      14.937 -39.089  -1.887  1.00  0.00     0.000 C 
BRANCH   9  10
ATOM     10  C   UNL     1      15.801 -39.865  -0.871  1.00  0.00     0.000 C 
BRANCH  10  11
ATOM     11  C   UNL     1      15.176 -40.039   0.528  1.00  0.00     0.000 C 
BRANCH  11  12
ATOM     12  C   UNL     1      16.151 -39.840   1.701  1.00  0.00     0.006 C 
BRANCH  12  13
ATOM     13  C   UNL     1      17.050 -38.610   1.524  1.00  0.00     0.053 C 
BRANCH  13  14
ATOM     14  C   UNL     1      18.488 -39.019   1.461  1.00  0.00     0.041 C 
ATOM     15  O   UNL     1      19.098 -39.358   2.510  1.00  0.00    -0.550 OA
ATOM     16  O   UNL     1      19.170 -38.984   0.251  1.00  0.00    -0.550 OA
ENDBRANCH  13  14
ENDBRANCH  12  13
ENDBRANCH  11  12
ENDBRANCH  10  11
ENDBRANCH   9  10
ENDBRANCH   8   9
ENDBRANCH   7   8
ENDBRANCH   6   7
ENDBRANCH   5   6
ENDBRANCH   4   5
ENDBRANCH   3   4
ENDBRANCH   2   3
ENDBRANCH   1   2
BRANCH   1  17
ATOM     17  C   UNL     1      13.981 -34.720  -1.227  1.00  0.00     0.000 C 
BRANCH  17  18
ATOM     18  C   UNL     1      13.266 -35.335  -0.015  1.00  0.00     0.000 C 
BRANCH  18  19
ATOM     19  C   UNL     1      14.053 -36.502   0.605  1.00  0.00     0.000 C 
BRANCH  19  20
ATOM     20  C   UNL     1      14.316 -36.289   2.105  1.00  0.00     0.000 C 
BRANCH  20  21
ATOM     21  C   UNL     1      15.091 -34.994   2.395  1.00  0.00     0.000 C 
BRANCH  21  22
ATOM     22  C   UNL     1      16.356 -35.232   3.235  1.00  0.00    -0.000 C 
BRANCH  22  23
ATOM     23  C   UNL     1      16.171 -36.431   4.179  1.00  0.00    -0.000 C 
BRANCH  23  24
ATOM     24  C   UNL     1      16.935 -36.257   5.509  1.00  0.00    -0.000 C 
BRANCH  24  25
ATOM     25  C   UNL     1      16.637 -34.926   6.224  1.00  0.00    -0.000 C 
BRANCH  25  26
ATOM     26  C   UNL     1      17.150 -34.898   7.674  1.00  0.00    -0.000 C 
BRANCH  26  27
ATOM     27  C   UNL     1      18.278 -35.911   7.922  1.00  0.00    -0.000 C 
BRANCH  27  28
ATOM     28  C   UNL     1      19.122 -35.563   9.159  1.00  0.00    -0.000 C 
BRANCH  28  29
ATOM     29  C   UNL     1      20.564 -35.224   8.761  1.00  0.00    -0.003 C 
ATOM     30  C   UNL     1      20.736 -33.723   8.544  1.00  0.00     0.004 C 
ENDBRANCH  28  29
ENDBRANCH  27  28
ENDBRANCH  26  27
ENDBRANCH  25  26
ENDBRANCH  24  25
ENDBRANCH  23  24
ENDBRANCH  22  23
ENDBRANCH  21  22
ENDBRANCH  20  21
ENDBRANCH  19  20
ENDBRANCH  18  19
ENDBRANCH  17  18
ENDBRANCH   1  17
TORSDOF 26
ENDMDL
MODEL 3
REMARK VINA RESULT:    -4.019      1.963      4.366
REMARK INTER + INTRA:         -14.026
REMARK INTER:                 -10.105
REMARK INTRA:                  -3.921
REMARK UNBOUND:                -3.899
REMARK SMILES CCCCCCCCCCCCCCCCCCCCCCCCCCCC(=O)[O-]
REMARK SMILES IDX 15 1 16 2 17 3 18 4 19 5 20 6 21 7 22 8 23 9 24 10 25 11
REMARK SMILES IDX 26 12 27 13 28 14 29 15 30 16 14 17 13 18 12 19 11 20 10 21
REMARK SMILES IDX 9 22 8 23 7 24 6 25 5 26 4 27 3 28 2 29 1 30
REMARK H PARENT
REMARK Flexibility Score: inf
ROOT
ATOM      1  C   UNL     1      16.579 -37.266   1.936  1.00  0.00     0.000 C 
ENDROOT
BRANCH   1   2
ATOM      2  C   UNL     1      16.997 -35.789   2.006  1.00  0.00     0.000 C 
BRANCH   2   3
ATOM      3  C   UNL     1      16.617 -35.123   3.341  1.00  0.00     0.000 C 
BRANCH   3   4
ATOM      4  C   UNL     1      16.079 -36.128   4.373  1.00  0.00     0.000 C 
BRANCH   4   5
ATOM      5  C   UNL     1      16.942 -36.195   5.647  1.00  0.00     0.000 C 
BRANCH   5   6
ATOM      6  C   UNL     1      17.566 -37.590   5.860  1.00  0.00     0.000 C 
BRANCH   6   7
ATOM      7  C   UNL     1      18.369 -37.719   7.167  1.00  0.00     0.000 C 
BRANCH   7   8
ATOM      8  C   UNL     1      19.878 -37.881   6.925  1.00  0.00     0.000 C 
BRANCH   8   9
ATOM      9  C   UNL     1      20.733 -36.922   7.774  1.00  0.00     0.000 C 
BRANCH   9  10
ATOM     10  C   UNL     1      19.944 -36.010   8.738  1.00  0.00     0.000 C 
BRANCH  10  11
ATOM     11  C   UNL     1      20.603 -34.651   9.046  1.00  0.00     0.000 C 
BRANCH  11  12
ATOM     12  C   UNL     1      19.651 -33.587   9.620  1.00  0.00     0.006 C 
BRANCH  12  13
ATOM     13  C   UNL     1      18.196 -33.791   9.180  1.00  0.00     0.053 C 
BRANCH  13  14
ATOM     14  C   UNL     1      17.842 -32.834   8.086  1.00  0.00     0.041 C 
ATOM     15  O   UNL     1      16.749 -32.949   7.471  1.00  0.00    -0.550 OA
ATOM     16  O   UNL     1      18.739 -31.841   7.711  1.00  0.00    -0.550 OA
ENDBRANCH  13  14
ENDBRANCH  12  13
ENDBRANCH  11  12
ENDBRANCH  10  11
ENDBRANCH   9  10
ENDBRANCH   8   9
ENDBRANCH   7   8
ENDBRANCH   6   7
ENDBRANCH   5   6
ENDBRANCH   4   5
ENDBRANCH   3   4
ENDBRANCH   2   3
ENDBRANCH   1   2
BRANCH   1  17
ATOM     17  C   UNL     1      17.267 -38.027   0.793  1.00  0.00     0.000 C 
BRANCH  17  18
ATOM     18  C   UNL     1      18.123 -37.079  -0.060  1.00  0.00     0.000 C 
BRANCH  18  19
ATOM     19  C   UNL     1      17.910 -37.289  -1.569  1.00  0.00     0.000 C 
BRANCH  19  20
ATOM     20  C   UNL     1      17.298 -36.051  -2.244  1.00  0.00     0.000 C 
BRANCH  20  21
ATOM     21  C   UNL     1      17.658 -34.742  -1.523  1.00  0.00     0.000 C 
BRANCH  21  22
ATOM     22  C   UNL     1      16.706 -33.587  -1.874  1.00  0.00    -0.000 C 
BRANCH  22  23
ATOM     23  C   UNL     1      15.255 -34.083  -1.975  1.00  0.00    -0.000 C 
BRANCH  23  24
ATOM     24  C   UNL     1      14.689 -34.528  -0.609  1.00  0.00    -0.000 C 
BRANCH  24  25
ATOM     25  C   UNL     1      13.886 -35.839  -0.671  1.00  0.00    -0.000 C 
BRANCH  25  26
ATOM     26  C   UNL     1      13.451 -36.209  -2.099  1.00  0.00    -0.000 C 
BRANCH  26  27
ATOM     27  C   UNL     1      14.028 -37.556  -2.563  1.00  0.00    -0.000 C 
BRANCH  27  28
ATOM     28  C   UNL     1      14.393 -38.477  -1.388  1.00  0.00    -0.000 C 
BRANCH  28  29
ATOM     29  C   UNL     1      15.104 -39.742  -1.884  1.00  0.00    -0.003 C 
ATOM     30  C   UNL     1      15.513 -39.605  -3.348  1.00  0.00     0.004 C 
ENDBRANCH  28  29
ENDBRANCH  27  28
ENDBRANCH  26  27
ENDBRANCH  25  26
ENDBRANCH  24  25
ENDBRANCH  23  24
ENDBRANCH  22  23
ENDBRANCH  21  22
ENDBRANCH  20  21
ENDBRANCH  19  20
ENDBRANCH  18  19
ENDBRANCH  17  18
ENDBRANCH   1  17
TORSDOF 26
ENDMDL
MODEL 4
REMARK VINA RESULT:    -4.017      1.450      5.929
REMARK INTER + INTRA:         -14.022
REMARK INTER:                 -10.245
REMARK INTRA:                  -3.777
REMARK UNBOUND:                -3.899
REMARK SMILES CCCCCCCCCCCCCCCCCCCCCCCCCCCC(=O)[O-]
REMARK SMILES IDX 15 1 16 2 17 3 18 4 19 5 20 6 21 7 22 8 23 9 24 10 25 11
REMARK SMILES IDX 26 12 27 13 28 14 29 15 30 16 14 17 13 18 12 19 11 20 10 21
REMARK SMILES IDX 9 22 8 23 7 24 6 25 5 26 4 27 3 28 2 29 1 30
REMARK H PARENT
REMARK Flexibility Score: inf
ROOT
ATOM      1  C   UNL     1      17.389 -34.322  -1.025  1.00  0.00     0.000 C 
ENDROOT
BRANCH   1   2
ATOM      2  C   UNL     1      17.699 -34.791   0.406  1.00  0.00     0.000 C 
BRANCH   2   3
ATOM      3  C   UNL     1      16.434 -35.164   1.199  1.00  0.00     0.000 C 
BRANCH   3   4
ATOM      4  C   UNL     1      16.712 -35.370   2.697  1.00  0.00     0.000 C 
BRANCH   4   5
ATOM      5  C   UNL     1      15.903 -36.533   3.300  1.00  0.00     0.000 C 
BRANCH   5   6
ATOM      6  C   UNL     1      16.643 -37.221   4.465  1.00  0.00     0.000 C 
BRANCH   6   7
ATOM      7  C   UNL     1      16.276 -36.664   5.851  1.00  0.00     0.000 C 
BRANCH   7   8
ATOM      8  C   UNL     1      17.463 -35.983   6.552  1.00  0.00     0.000 C 
BRANCH   8   9
ATOM      9  C   UNL     1      18.593 -36.963   6.918  1.00  0.00     0.000 C 
BRANCH   9  10
ATOM     10  C   UNL     1      19.178 -36.798   8.336  1.00  0.00     0.000 C 
BRANCH  10  11
ATOM     11  C   UNL     1      20.501 -36.008   8.414  1.00  0.00     0.000 C 
BRANCH  11  12
ATOM     12  C   UNL     1      20.492 -34.830   9.404  1.00  0.00     0.006 C 
BRANCH  12  13
ATOM     13  C   UNL     1      20.472 -33.465   8.703  1.00  0.00     0.053 C 
BRANCH  13  14
ATOM     14  C   UNL     1      19.066 -32.981   8.544  1.00  0.00     0.041 C 
ATOM     15  O   UNL     1      18.803 -32.050   7.737  1.00  0.00    -0.550 OA
ATOM     16  O   UNL     1      18.049 -33.526   9.319  1.00  0.00    -0.550 OA
ENDBRANCH  13  14
ENDBRANCH  12  13
ENDBRANCH  11  12
ENDBRANCH  10  11
ENDBRANCH   9  10
ENDBRANCH   8   9
ENDBRANCH   7   8
ENDBRANCH   6   7
ENDBRANCH   5   6
ENDBRANCH   4   5
ENDBRANCH   3   4
ENDBRANCH   2   3
ENDBRANCH   1   2
BRANCH   1  17
ATOM     17  C   UNL     1      16.726 -35.413  -1.879  1.00  0.00     0.000 C 
BRANCH  17  18
ATOM     18  C   UNL     1      17.774 -36.390  -2.431  1.00  0.00     0.000 C 
BRANCH  18  19
ATOM     19  C   UNL     1      17.343 -37.860  -2.285  1.00  0.00     0.000 C 
BRANCH  19  20
ATOM     20  C   UNL     1      16.324 -38.053  -1.150  1.00  0.00     0.000 C 
BRANCH  20  21
ATOM     21  C   UNL     1      16.924 -38.767   0.073  1.00  0.00     0.000 C 
BRANCH  21  22
ATOM     22  C   UNL     1      18.268 -38.166   0.513  1.00  0.00    -0.000 C 
BRANCH  22  23
ATOM     23  C   UNL     1      18.755 -38.810   1.821  1.00  0.00    -0.000 C 
BRANCH  23  24
ATOM     24  C   UNL     1      18.160 -40.217   2.042  1.00  0.00    -0.000 C 
BRANCH  24  25
ATOM     25  C   UNL     1      18.798 -40.981   3.216  1.00  0.00    -0.000 C 
BRANCH  25  26
ATOM     26  C   UNL     1      18.296 -40.498   4.588  1.00  0.00    -0.000 C 
BRANCH  26  27
ATOM     27  C   UNL     1      19.433 -39.996   5.491  1.00  0.00    -0.000 C 
BRANCH  27  28
ATOM     28  C   UNL     1      20.706 -39.653   4.701  1.00  0.00    -0.000 C 
BRANCH  28  29
ATOM     29  C   UNL     1      21.959 -39.882   5.555  1.00  0.00    -0.003 C 
ATOM     30  C   UNL     1      22.049 -38.860   6.685  1.00  0.00     0.004 C 
ENDBRANCH  28  29
ENDBRANCH  27  28
ENDBRANCH  26  27
ENDBRANCH  25  26
ENDBRANCH  24  25
ENDBRANCH  23  24
ENDBRANCH  22  23
ENDBRANCH  21  22
ENDBRANCH  20  21
ENDBRANCH  19  20
ENDBRANCH  18  19
ENDBRANCH  17  18
ENDBRANCH   1  17
TORSDOF 26
ENDMDL
MODEL 5
REMARK VINA RESULT:    -4.014      1.691      4.719
REMARK INTER + INTRA:         -14.015
REMARK INTER:                  -9.730
REMARK INTRA:                  -4.285
REMARK UNBOUND:                -3.899
REMARK SMILES CCCCCCCCCCCCCCCCCCCCCCCCCCCC(=O)[O-]
REMARK SMILES IDX 15 1 16 2 17 3 18 4 19 5 20 6 21 7 22 8 23 9 24 10 25 11
REMARK SMILES IDX 26 12 27 13 28 14 29 15 30 16 14 17 13 18 12 19 11 20 10 21
REMARK SMILES IDX 9 22 8 23 7 24 6 25 5 26 4 27 3 28 2 29 1 30
REMARK H PARENT
REMARK Flexibility Score: inf
ROOT
ATOM      1  C   UNL     1      18.026 -37.515  -1.381  1.00  0.00     0.000 C 
ENDROOT
BRANCH   1   2
ATOM      2  C   UNL     1      18.201 -37.159   0.104  1.00  0.00     0.000 C 
BRANCH   2   3
ATOM      3  C   UNL     1      18.896 -38.273   0.907  1.00  0.00     0.000 C 
BRANCH   3   4
ATOM      4  C   UNL     1      17.899 -39.250   1.553  1.00  0.00     0.000 C 
BRANCH   4   5
ATOM      5  C   UNL     1      17.899 -39.172   3.091  1.00  0.00     0.000 C 
BRANCH   5   6
ATOM      6  C   UNL     1      16.473 -39.121   3.676  1.00  0.00     0.000 C 
BRANCH   6   7
ATOM      7  C   UNL     1      16.426 -38.771   5.174  1.00  0.00     0.000 C 
BRANCH   7   8
ATOM      8  C   UNL     1      17.788 -38.313   5.721  1.00  0.00     0.000 C 
BRANCH   8   9
ATOM      9  C   UNL     1      17.763 -36.879   6.281  1.00  0.00     0.000 C 
BRANCH   9  10
ATOM     10  C   UNL     1      18.493 -36.682   7.627  1.00  0.00     0.000 C 
BRANCH  10  11
ATOM     11  C   UNL     1      20.016 -36.925   7.591  1.00  0.00     0.000 C 
BRANCH  11  12
ATOM     12  C   UNL     1      20.811 -36.201   8.692  1.00  0.00     0.006 C 
BRANCH  12  13
ATOM     13  C   UNL     1      20.575 -34.686   8.697  1.00  0.00     0.053 C 
BRANCH  13  14
ATOM     14  C   UNL     1      20.349 -34.198  10.093  1.00  0.00     0.041 C 
ATOM     15  O   UNL     1      20.698 -33.033  10.422  1.00  0.00    -0.550 OA
ATOM     16  O   UNL     1      19.794 -35.044  11.046  1.00  0.00    -0.550 OA
ENDBRANCH  13  14
ENDBRANCH  12  13
ENDBRANCH  11  12
ENDBRANCH  10  11
ENDBRANCH   9  10
ENDBRANCH   8   9
ENDBRANCH   7   8
ENDBRANCH   6   7
ENDBRANCH   5   6
ENDBRANCH   4   5
ENDBRANCH   3   4
ENDBRANCH   2   3
ENDBRANCH   1   2
BRANCH   1  17
ATOM     17  C   UNL     1      17.579 -36.317  -2.232  1.00  0.00     0.000 C 
BRANCH  17  18
ATOM     18  C   UNL     1      17.213 -35.119  -1.344  1.00  0.00     0.000 C 
BRANCH  18  19
ATOM     19  C   UNL     1      17.361 -33.775  -2.077  1.00  0.00     0.000 C 
BRANCH  19  20
ATOM     20  C   UNL     1      16.043 -32.983  -2.102  1.00  0.00     0.000 C 
BRANCH  20  21
ATOM     21  C   UNL     1      14.967 -33.589  -1.186  1.00  0.00     0.000 C 
BRANCH  21  22
ATOM     22  C   UNL     1      13.728 -34.068  -1.957  1.00  0.00    -0.000 C 
BRANCH  22  23
ATOM     23  C   UNL     1      13.759 -35.592  -2.154  1.00  0.00    -0.000 C 
BRANCH  23  24
ATOM     24  C   UNL     1      13.357 -36.360  -0.877  1.00  0.00    -0.000 C 
BRANCH  24  25
ATOM     25  C   UNL     1      14.395 -37.404  -0.430  1.00  0.00    -0.000 C 
BRANCH  25  26
ATOM     26  C   UNL     1      14.698 -37.340   1.077  1.00  0.00    -0.000 C 
BRANCH  26  27
ATOM     27  C   UNL     1      14.853 -35.900   1.589  1.00  0.00    -0.000 C 
BRANCH  27  28
ATOM     28  C   UNL     1      16.145 -35.696   2.396  1.00  0.00    -0.000 C 
BRANCH  28  29
ATOM     29  C   UNL     1      15.875 -34.879   3.665  1.00  0.00    -0.003 C 
ATOM     30  C   UNL     1      14.779 -35.522   4.511  1.00  0.00     0.004 C 
ENDBRANCH  28  29
ENDBRANCH  27  28
ENDBRANCH  26  27
ENDBRANCH  25  26
ENDBRANCH  24  25
ENDBRANCH  23  24
ENDBRANCH  22  23
ENDBRANCH  21  22
ENDBRANCH  20  21
ENDBRANCH  19  20
ENDBRANCH  18  19
ENDBRANCH  17  18
ENDBRANCH   1  17
TORSDOF 26
ENDMDL
MODEL 6
REMARK VINA RESULT:    -4.004      4.791      9.502
REMARK INTER + INTRA:         -13.988
REMARK INTER:                  -8.540
REMARK INTRA:                  -5.448
REMARK UNBOUND:                -3.899
REMARK SMILES CCCCCCCCCCCCCCCCCCCCCCCCCCCC(=O)[O-]
REMARK SMILES IDX 15 1 16 2 17 3 18 4 19 5 20 6 21 7 22 8 23 9 24 10 25 11
REMARK SMILES IDX 26 12 27 13 28 14 29 15 30 16 14 17 13 18 12 19 11 20 10 21
REMARK SMILES IDX 9 22 8 23 7 24 6 25 5 26 4 27 3 28 2 29 1 30
REMARK H PARENT
REMARK Flexibility Score: inf
ROOT
ATOM      1  C   UNL     1      15.469 -35.263   1.628  1.00  0.00     0.000 C 
ENDROOT
BRANCH   1   2
ATOM      2  C   UNL     1      14.631 -36.494   1.248  1.00  0.00     0.000 C 
BRANCH   2   3
ATOM      3  C   UNL     1      13.482 -36.159   0.281  1.00  0.00     0.000 C 
BRANCH   3   4
ATOM      4  C   UNL     1      13.515 -34.697  -0.196  1.00  0.00     0.000 C 
BRANCH   4   5
ATOM      5  C   UNL     1      13.145 -34.546  -1.683  1.00  0.00     0.000 C 
BRANCH   5   6
ATOM      6  C   UNL     1      14.105 -33.601  -2.434  1.00  0.00     0.000 C 
BRANCH   6   7
ATOM      7  C   UNL     1      15.265 -33.077  -1.569  1.00  0.00     0.000 C 
BRANCH   7   8
ATOM      8  C   UNL     1      16.644 -33.346  -2.195  1.00  0.00     0.000 C 
BRANCH   8   9
ATOM      9  C   UNL     1      17.436 -34.444  -1.462  1.00  0.00     0.000 C 
BRANCH   9  10
ATOM     10  C   UNL     1      17.485 -35.812  -2.175  1.00  0.00     0.000 C 
BRANCH  10  11
ATOM     11  C   UNL     1      16.212 -36.671  -2.038  1.00  0.00     0.000 C 
BRANCH  11  12
ATOM     12  C   UNL     1      16.357 -38.123  -2.525  1.00  0.00     0.006 C 
BRANCH  12  13
ATOM     13  C   UNL     1      15.025 -38.883  -2.535  1.00  0.00     0.053 C 
BRANCH  13  14
ATOM     14  C   UNL     1      14.992 -39.864  -3.665  1.00  0.00     0.041 C 
ATOM     15  O   UNL     1      13.932 -40.492  -3.929  1.00  0.00    -0.550 OA
ATOM     16  O   UNL     1      16.143 -40.120  -4.399  1.00  0.00    -0.550 OA
ENDBRANCH  13  14
ENDBRANCH  12  13
ENDBRANCH  11  12
ENDBRANCH  10  11
ENDBRANCH   9  10
ENDBRANCH   8   9
ENDBRANCH   7   8
ENDBRANCH   6   7
ENDBRANCH   5   6
ENDBRANCH   4   5
ENDBRANCH   3   4
ENDBRANCH   2   3
ENDBRANCH   1   2
BRANCH   1  17
ATOM     17  C   UNL     1      16.937 -35.609   1.920  1.00  0.00     0.000 C 
BRANCH  17  18
ATOM     18  C   UNL     1      17.236 -37.074   1.571  1.00  0.00     0.000 C 
BRANCH  18  19
ATOM     19  C   UNL     1      18.590 -37.247   0.864  1.00  0.00     0.000 C 
BRANCH  19  20
ATOM     20  C   UNL     1      18.729 -38.635   0.214  1.00  0.00     0.000 C 
BRANCH  20  21
ATOM     21  C   UNL     1      17.611 -39.603   0.635  1.00  0.00     0.000 C 
BRANCH  21  22
ATOM     22  C   UNL     1      18.150 -40.936   1.177  1.00  0.00    -0.000 C 
BRANCH  22  23
ATOM     23  C   UNL     1      17.681 -41.171   2.622  1.00  0.00    -0.000 C 
BRANCH  23  24
ATOM     24  C   UNL     1      18.846 -41.130   3.633  1.00  0.00    -0.000 C 
BRANCH  24  25
ATOM     25  C   UNL     1      19.432 -39.723   3.846  1.00  0.00    -0.000 C 
BRANCH  25  26
ATOM     26  C   UNL     1      19.647 -39.381   5.330  1.00  0.00    -0.000 C 
BRANCH  26  27
ATOM     27  C   UNL     1      18.421 -38.707   5.966  1.00  0.00    -0.000 C 
BRANCH  27  28
ATOM     28  C   UNL     1      17.399 -38.235   4.919  1.00  0.00    -0.000 C 
BRANCH  28  29
ATOM     29  C   UNL     1      15.973 -38.614   5.337  1.00  0.00    -0.003 C 
ATOM     30  C   UNL     1      15.044 -38.676   4.128  1.00  0.00     0.004 C 
ENDBRANCH  28  29
ENDBRANCH  27  28
ENDBRANCH  26  27
ENDBRANCH  25  26
ENDBRANCH  24  25
ENDBRANCH  23  24
ENDBRANCH  22  23
ENDBRANCH  21  22
ENDBRANCH  20  21
ENDBRANCH  19  20
ENDBRANCH  18  19
ENDBRANCH  17  18
ENDBRANCH   1  17
TORSDOF 26
ENDMDL
MODEL 7
REMARK VINA RESULT:    -3.955      5.763      9.984
REMARK INTER + INTRA:         -13.865
REMARK INTER:                  -8.135
REMARK INTRA:                  -5.730
REMARK UNBOUND:                -3.899
REMARK SMILES CCCCCCCCCCCCCCCCCCCCCCCCCCCC(=O)[O-]
REMARK SMILES IDX 15 1 16 2 17 3 18 4 19 5 20 6 21 7 22 8 23 9 24 10 25 11
REMARK SMILES IDX 26 12 27 13 28 14 29 15 30 16 14 17 13 18 12 19 11 20 10 21
REMARK SMILES IDX 9 22 8 23 7 24 6 25 5 26 4 27 3 28 2 29 1 30
REMARK H PARENT
REMARK Flexibility Score: inf
ROOT
ATOM      1  C   UNL     1      17.633 -36.147  -2.490  1.00  0.00     0.000 C 
ENDROOT
BRANCH   1   2
ATOM      2  C   UNL     1      17.007 -35.224  -1.433  1.00  0.00     0.000 C 
BRANCH   2   3
ATOM      3  C   UNL     1      17.215 -33.731  -1.745  1.00  0.00     0.000 C 
BRANCH   3   4
ATOM      4  C   UNL     1      15.966 -33.072  -2.353  1.00  0.00     0.000 C 
BRANCH   4   5
ATOM      5  C   UNL     1      14.955 -32.614  -1.286  1.00  0.00     0.000 C 
BRANCH   5   6
ATOM      6  C   UNL     1      13.561 -33.242  -1.491  1.00  0.00     0.000 C 
BRANCH   6   7
ATOM      7  C   UNL     1      13.407 -33.995  -2.824  1.00  0.00     0.000 C 
BRANCH   7   8
ATOM      8  C   UNL     1      12.938 -35.447  -2.638  1.00  0.00     0.000 C 
BRANCH   8   9
ATOM      9  C   UNL     1      13.197 -35.988  -1.219  1.00  0.00     0.000 C 
BRANCH   9  10
ATOM     10  C   UNL     1      13.957 -37.329  -1.152  1.00  0.00     0.000 C 
BRANCH  10  11
ATOM     11  C   UNL     1      14.529 -37.830  -2.494  1.00  0.00     0.000 C 
BRANCH  11  12
ATOM     12  C   UNL     1      14.602 -39.361  -2.633  1.00  0.00     0.006 C 
BRANCH  12  13
ATOM     13  C   UNL     1      15.846 -39.829  -3.399  1.00  0.00     0.053 C 
BRANCH  13  14
ATOM     14  C   UNL     1      15.460 -40.380  -4.735  1.00  0.00     0.041 C 
ATOM     15  O   UNL     1      16.323 -40.935  -5.466  1.00  0.00    -0.550 OA
ATOM     16  O   UNL     1      14.157 -40.241  -5.196  1.00  0.00    -0.550 OA
ENDBRANCH  13  14
ENDBRANCH  12  13
ENDBRANCH  11  12
ENDBRANCH  10  11
ENDBRANCH   9  10
ENDBRANCH   8   9
ENDBRANCH   7   8
ENDBRANCH   6   7
ENDBRANCH   5   6
ENDBRANCH   4   5
ENDBRANCH   3   4
ENDBRANCH   2   3
ENDBRANCH   1   2
BRANCH   1  17
ATOM     17  C   UNL     1      18.149 -37.468  -1.898  1.00  0.00     0.000 C 
BRANCH  17  18
ATOM     18  C   UNL     1      17.630 -37.667  -0.466  1.00  0.00     0.000 C 
BRANCH  18  19
ATOM     19  C   UNL     1      18.659 -38.361   0.442  1.00  0.00     0.000 C 
BRANCH  19  20
ATOM     20  C   UNL     1      18.061 -39.578   1.168  1.00  0.00     0.000 C 
BRANCH  20  21
ATOM     21  C   UNL     1      16.894 -40.215   0.397  1.00  0.00     0.000 C 
BRANCH  21  22
ATOM     22  C   UNL     1      15.673 -40.493   1.288  1.00  0.00    -0.000 C 
BRANCH  22  23
ATOM     23  C   UNL     1      15.165 -39.199   1.944  1.00  0.00    -0.000 C 
BRANCH  23  24
ATOM     24  C   UNL     1      14.784 -39.399   3.426  1.00  0.00    -0.000 C 
BRANCH  24  25
ATOM     25  C   UNL     1      15.234 -38.246   4.341  1.00  0.00    -0.000 C 
BRANCH  25  26
ATOM     26  C   UNL     1      16.543 -37.586   3.873  1.00  0.00    -0.000 C 
BRANCH  26  27
ATOM     27  C   UNL     1      16.385 -36.079   3.614  1.00  0.00    -0.000 C 
BRANCH  27  28
ATOM     28  C   UNL     1      16.345 -35.740   2.116  1.00  0.00    -0.000 C 
BRANCH  28  29
ATOM     29  C   UNL     1      15.089 -34.930   1.770  1.00  0.00    -0.003 C 
ATOM     30  C   UNL     1      13.854 -35.513   2.451  1.00  0.00     0.004 C 
ENDBRANCH  28  29
ENDBRANCH  27  28
ENDBRANCH  26  27
ENDBRANCH  25  26
ENDBRANCH  24  25
ENDBRANCH  23  24
ENDBRANCH  22  23
ENDBRANCH  21  22
ENDBRANCH  20  21
ENDBRANCH  19  20
ENDBRANCH  18  19
ENDBRANCH  17  18
ENDBRANCH   1  17
TORSDOF 26
ENDMDL
MODEL 8
REMARK VINA RESULT:    -3.934      2.370      6.192
REMARK INTER + INTRA:         -13.813
REMARK INTER:                  -9.632
REMARK INTRA:                  -4.181
REMARK UNBOUND:                -3.899
REMARK SMILES CCCCCCCCCCCCCCCCCCCCCCCCCCCC(=O)[O-]
REMARK SMILES IDX 15 1 16 2 17 3 18 4 19 5 20 6 21 7 22 8 23 9 24 10 25 11
REMARK SMILES IDX 26 12 27 13 28 14 29 15 30 16 14 17 13 18 12 19 11 20 10 21
REMARK SMILES IDX 9 22 8 23 7 24 6 25 5 26 4 27 3 28 2 29 1 30
REMARK H PARENT
REMARK Flexibility Score: inf
ROOT
ATOM      1  C   UNL     1      17.336 -33.755  -1.683  1.00  0.00     0.000 C 
ENDROOT
BRANCH   1   2
ATOM      2  C   UNL     1      17.331 -35.290  -1.771  1.00  0.00     0.000 C 
BRANCH   2   3
ATOM      3  C   UNL     1      17.736 -35.965  -0.448  1.00  0.00     0.000 C 
BRANCH   3   4
ATOM      4  C   UNL     1      17.213 -35.213   0.786  1.00  0.00     0.000 C 
BRANCH   4   5
ATOM      5  C   UNL     1      15.720 -35.477   1.057  1.00  0.00     0.000 C 
BRANCH   5   6
ATOM      6  C   UNL     1      15.370 -35.384   2.556  1.00  0.00     0.000 C 
BRANCH   6   7
ATOM      7  C   UNL     1      16.592 -35.468   3.487  1.00  0.00     0.000 C 
BRANCH   7   8
ATOM      8  C   UNL     1      16.491 -36.622   4.499  1.00  0.00     0.000 C 
BRANCH   8   9
ATOM      9  C   UNL     1      16.968 -36.231   5.910  1.00  0.00     0.000 C 
BRANCH   9  10
ATOM     10  C   UNL     1      17.745 -37.326   6.672  1.00  0.00     0.000 C 
BRANCH  10  11
ATOM     11  C   UNL     1      19.124 -36.898   7.215  1.00  0.00     0.000 C 
BRANCH  11  12
ATOM     12  C   UNL     1      20.071 -38.060   7.561  1.00  0.00     0.006 C 
BRANCH  12  13
ATOM     13  C   UNL     1      20.458 -38.897   6.335  1.00  0.00     0.053 C 
BRANCH  13  14
ATOM     14  C   UNL     1      21.944 -39.044   6.252  1.00  0.00     0.041 C 
ATOM     15  O   UNL     1      22.458 -39.841   5.423  1.00  0.00    -0.550 OA
ATOM     16  O   UNL     1      22.764 -38.334   7.120  1.00  0.00    -0.550 OA
ENDBRANCH  13  14
ENDBRANCH  12  13
ENDBRANCH  11  12
ENDBRANCH  10  11
ENDBRANCH   9  10
ENDBRANCH   8   9
ENDBRANCH   7   8
ENDBRANCH   6   7
ENDBRANCH   5   6
ENDBRANCH   4   5
ENDBRANCH   3   4
ENDBRANCH   2   3
ENDBRANCH   1   2
BRANCH   1  17
ATOM     17  C   UNL     1      16.205 -33.108  -2.496  1.00  0.00     0.000 C 
BRANCH  17  18
ATOM     18  C   UNL     1      15.096 -32.584  -1.572  1.00  0.00     0.000 C 
BRANCH  18  19
ATOM     19  C   UNL     1      13.937 -33.583  -1.417  1.00  0.00     0.000 C 
BRANCH  19  20
ATOM     20  C   UNL     1      13.471 -34.142  -2.771  1.00  0.00     0.000 C 
BRANCH  20  21
ATOM     21  C   UNL     1      13.003 -35.604  -2.682  1.00  0.00     0.000 C 
BRANCH  21  22
ATOM     22  C   UNL     1      14.062 -36.532  -2.066  1.00  0.00    -0.000 C 
BRANCH  22  23
ATOM     23  C   UNL     1      14.070 -37.898  -2.770  1.00  0.00    -0.000 C 
BRANCH  23  24
ATOM     24  C   UNL     1      15.162 -38.839  -2.217  1.00  0.00    -0.000 C 
BRANCH  24  25
ATOM     25  C   UNL     1      15.398 -38.691  -0.703  1.00  0.00    -0.000 C 
BRANCH  25  26
ATOM     26  C   UNL     1      16.604 -39.504  -0.203  1.00  0.00    -0.000 C 
BRANCH  26  27
ATOM     27  C   UNL     1      16.671 -39.579   1.330  1.00  0.00    -0.000 C 
BRANCH  27  28
ATOM     28  C   UNL     1      17.774 -38.685   1.918  1.00  0.00    -0.000 C 
BRANCH  28  29
ATOM     29  C   UNL     1      18.573 -39.434   2.992  1.00  0.00    -0.003 C 
ATOM     30  C   UNL     1      17.645 -40.084   4.014  1.00  0.00     0.004 C 
ENDBRANCH  28  29
ENDBRANCH  27  28
ENDBRANCH  26  27
ENDBRANCH  25  26
ENDBRANCH  24  25
ENDBRANCH  23  24
ENDBRANCH  22  23
ENDBRANCH  21  22
ENDBRANCH  20  21
ENDBRANCH  19  20
ENDBRANCH  18  19
ENDBRANCH  17  18
ENDBRANCH   1  17
TORSDOF 26
ENDMDL
MODEL 9
REMARK VINA RESULT:    -3.915      1.936      7.543
REMARK INTER + INTRA:         -13.765
REMARK INTER:                  -9.087
REMARK INTRA:                  -4.678
REMARK UNBOUND:                -3.899
REMARK SMILES CCCCCCCCCCCCCCCCCCCCCCCCCCCC(=O)[O-]
REMARK SMILES IDX 15 1 16 2 17 3 18 4 19 5 20 6 21 7 22 8 23 9 24 10 25 11
REMARK SMILES IDX 26 12 27 13 28 14 29 15 30 16 14 17 13 18 12 19 11 20 10 21
REMARK SMILES IDX 9 22 8 23 7 24 6 25 5 26 4 27 3 28 2 29 1 30
REMARK H PARENT
REMARK Flexibility Score: inf
ROOT
ATOM      1  C   UNL     1      16.629 -37.177  -1.972  1.00  0.00     0.000 C 
ENDROOT
BRANCH   1   2
ATOM      2  C   UNL     1      17.798 -36.229  -2.284  1.00  0.00     0.000 C 
BRANCH   2   3
ATOM      3  C   UNL     1      17.433 -34.747  -2.090  1.00  0.00     0.000 C 
BRANCH   3   4
ATOM      4  C   UNL     1      16.870 -34.453  -0.689  1.00  0.00     0.000 C 
BRANCH   4   5
ATOM      5  C   UNL     1      17.860 -34.803   0.437  1.00  0.00     0.000 C 
BRANCH   5   6
ATOM      6  C   UNL     1      17.151 -35.075   1.779  1.00  0.00     0.000 C 
BRANCH   6   7
ATOM      7  C   UNL     1      15.795 -35.788   1.633  1.00  0.00     0.000 C 
BRANCH   7   8
ATOM      8  C   UNL     1      14.628 -34.974   2.217  1.00  0.00     0.000 C 
BRANCH   8   9
ATOM      9  C   UNL     1      13.926 -35.680   3.391  1.00  0.00     0.000 C 
BRANCH   9  10
ATOM     10  C   UNL     1      14.706 -36.855   4.018  1.00  0.00     0.000 C 
BRANCH  10  11
ATOM     11  C   UNL     1      15.319 -36.571   5.405  1.00  0.00     0.000 C 
BRANCH  11  12
ATOM     12  C   UNL     1      16.550 -35.649   5.391  1.00  0.00     0.006 C 
BRANCH  12  13
ATOM     13  C   UNL     1      16.570 -34.666   6.569  1.00  0.00     0.053 C 
BRANCH  13  14
ATOM     14  C   UNL     1      16.405 -33.262   6.080  1.00  0.00     0.041 C 
ATOM     15  O   UNL     1      16.769 -32.293   6.798  1.00  0.00    -0.550 OA
ATOM     16  O   UNL     1      15.806 -33.018   4.850  1.00  0.00    -0.550 OA
ENDBRANCH  13  14
ENDBRANCH  12  13
ENDBRANCH  11  12
ENDBRANCH  10  11
ENDBRANCH   9  10
ENDBRANCH   8   9
ENDBRANCH   7   8
ENDBRANCH   6   7
ENDBRANCH   5   6
ENDBRANCH   4   5
ENDBRANCH   3   4
ENDBRANCH   2   3
ENDBRANCH   1   2
BRANCH   1  17
ATOM     17  C   UNL     1      16.980 -38.227  -0.907  1.00  0.00     0.000 C 
BRANCH  17  18
ATOM     18  C   UNL     1      18.494 -38.263  -0.650  1.00  0.00     0.000 C 
BRANCH  18  19
ATOM     19  C   UNL     1      18.836 -38.316   0.848  1.00  0.00     0.000 C 
BRANCH  19  20
ATOM     20  C   UNL     1      17.727 -38.994   1.670  1.00  0.00     0.000 C 
BRANCH  20  21
ATOM     21  C   UNL     1      17.691 -38.514   3.130  1.00  0.00     0.000 C 
BRANCH  21  22
ATOM     22  C   UNL     1      17.759 -39.671   4.140  1.00  0.00    -0.000 C 
BRANCH  22  23
ATOM     23  C   UNL     1      18.151 -39.159   5.535  1.00  0.00    -0.000 C 
BRANCH  23  24
ATOM     24  C   UNL     1      19.681 -39.050   5.715  1.00  0.00    -0.000 C 
BRANCH  24  25
ATOM     25  C   UNL     1      20.103 -38.123   6.868  1.00  0.00    -0.000 C 
BRANCH  25  26
ATOM     26  C   UNL     1      18.927 -37.721   7.775  1.00  0.00    -0.000 C 
BRANCH  26  27
ATOM     27  C   UNL     1      19.078 -36.302   8.346  1.00  0.00    -0.000 C 
BRANCH  27  28
ATOM     28  C   UNL     1      20.540 -35.828   8.370  1.00  0.00    -0.000 C 
BRANCH  28  29
ATOM     29  C   UNL     1      20.669 -34.486   9.100  1.00  0.00    -0.003 C 
ATOM     30  C   UNL     1      19.529 -33.544   8.724  1.00  0.00     0.004 C 
ENDBRANCH  28  29
ENDBRANCH  27  28
ENDBRANCH  26  27
ENDBRANCH  25  26
ENDBRANCH  24  25
ENDBRANCH  23  24
ENDBRANCH  22  23
ENDBRANCH  21  22
ENDBRANCH  20  21
ENDBRANCH  19  20
ENDBRANCH  18  19
ENDBRANCH  17  18
ENDBRANCH   1  17
TORSDOF 26
ENDMDL
