MODEL 1
REMARK VINA RESULT:    -5.411      0.000      0.000
REMARK INTER + INTRA:         -13.027
REMARK INTER:                 -11.737
REMARK INTRA:                  -1.291
REMARK UNBOUND:                -1.291
REMARK SMILES CCCCCCCCCCCCCCCCCCCCCC(=O)[O-]
REMARK SMILES IDX 12 1 11 2 10 3 9 4 8 5 7 6 6 7 5 8 4 9 3 10 2 11 1 12 13 13
REMARK SMILES IDX 14 14 15 15 16 16 17 17 18 18 19 19 20 20 21 21 22 22 23 23
REMARK SMILES IDX 24 24
REMARK H PARENT
REMARK Flexibility Score: inf
ROOT
ATOM      1  C   UNL     1      26.561   0.853  29.680  1.00  0.00     0.000 C 
ENDROOT
BRANCH   1   2
ATOM      2  C   UNL     1      27.125   1.998  28.808  1.00  0.00     0.000 C 
BRANCH   2   3
ATOM      3  C   UNL     1      27.675   3.169  29.639  1.00  0.00     0.000 C 
BRANCH   3   4
ATOM      4  C   UNL     1      27.309   4.539  29.044  1.00  0.00    -0.000 C 
BRANCH   4   5
ATOM      5  C   UNL     1      27.265   5.673  30.093  1.00  0.00    -0.000 C 
BRANCH   5   6
ATOM      6  C   UNL     1      28.151   6.883  29.735  1.00  0.00    -0.000 C 
BRANCH   6   7
ATOM      7  C   UNL     1      27.827   8.182  30.504  1.00  0.00    -0.000 C 
BRANCH   7   8
ATOM      8  C   UNL     1      26.533   8.897  30.076  1.00  0.00    -0.000 C 
BRANCH   8   9
ATOM      9  C   UNL     1      26.128  10.029  31.036  1.00  0.00    -0.000 C 
BRANCH   9  10
ATOM     10  C   UNL     1      26.381   9.675  32.509  1.00  0.00    -0.000 C 
BRANCH  10  11
ATOM     11  C   UNL     1      26.595  10.917  33.387  1.00  0.00    -0.003 C 
ATOM     12  C   UNL     1      26.283  10.618  34.850  1.00  0.00     0.004 C 
ENDBRANCH  10  11
ENDBRANCH   9  10
ENDBRANCH   8   9
ENDBRANCH   7   8
ENDBRANCH   6   7
ENDBRANCH   5   6
ENDBRANCH   4   5
ENDBRANCH   3   4
ENDBRANCH   2   3
ENDBRANCH   1   2
BRANCH   1  13
ATOM     13  C   UNL     1      26.953   0.952  31.166  1.00  0.00     0.000 C 
BRANCH  13  14
ATOM     14  C   UNL     1      27.861  -0.184  31.668  1.00  0.00     0.000 C 
BRANCH  14  15
ATOM     15  C   UNL     1      29.369   0.118  31.509  1.00  0.00     0.000 C 
BRANCH  15  16
ATOM     16  C   UNL     1      30.030  -0.756  30.434  1.00  0.00     0.000 C 
BRANCH  16  17
ATOM     17  C   UNL     1      29.056  -1.815  29.905  1.00  0.00     0.000 C 
BRANCH  17  18
ATOM     18  C   UNL     1      29.800  -3.097  29.515  1.00  0.00     0.000 C 
BRANCH  18  19
ATOM     19  C   UNL     1      29.295  -4.298  30.323  1.00  0.00     0.000 C 
BRANCH  19  20
ATOM     20  C   UNL     1      28.894  -5.454  29.397  1.00  0.00     0.006 C 
BRANCH  20  21
ATOM     21  C   UNL     1      27.890  -6.387  30.082  1.00  0.00     0.053 C 
BRANCH  21  22
ATOM     22  C   UNL     1      28.599  -7.511  30.768  1.00  0.00     0.041 C 
ATOM     23  O   UNL     1      28.470  -7.677  32.011  1.00  0.00    -0.550 OA
ATOM     24  O   UNL     1      29.427  -8.359  30.043  1.00  0.00    -0.550 OA
ENDBRANCH  21  22
ENDBRANCH  20  21
ENDBRANCH  19  20
ENDBRANCH  18  19
ENDBRANCH  17  18
ENDBRANCH  16  17
ENDBRANCH  15  16
ENDBRANCH  14  15
ENDBRANCH  13  14
ENDBRANCH   1  13
TORSDOF 20
ENDMDL
MODEL 2
REMARK VINA RESULT:    -5.400      5.565     12.469
REMARK INTER + INTRA:         -13.004
REMARK INTER:                 -11.555
REMARK INTRA:                  -1.449
REMARK UNBOUND:                -1.291
REMARK SMILES CCCCCCCCCCCCCCCCCCCCCC(=O)[O-]
REMARK SMILES IDX 12 1 11 2 10 3 9 4 8 5 7 6 6 7 5 8 4 9 3 10 2 11 1 12 13 13
REMARK SMILES IDX 14 14 15 15 16 16 17 17 18 18 19 19 20 20 21 21 22 22 23 23
REMARK SMILES IDX 24 24
REMARK H PARENT
REMARK Flexibility Score: inf
ROOT
ATOM      1  C   UNL     1      26.264   0.415  30.107  1.00  0.00     0.000 C 
ENDROOT
BRANCH   1   2
ATOM      2  C   UNL     1      26.911   0.687  31.484  1.00  0.00     0.000 C 
BRANCH   2   3
ATOM      3  C   UNL     1      27.915  -0.401  31.899  1.00  0.00     0.000 C 
BRANCH   3   4
ATOM      4  C   UNL     1      29.360  -0.054  31.502  1.00  0.00    -0.000 C 
BRANCH   4   5
ATOM      5  C   UNL     1      29.878  -0.867  30.294  1.00  0.00    -0.000 C 
BRANCH   5   6
ATOM      6  C   UNL     1      29.002  -2.086  29.946  1.00  0.00    -0.000 C 
BRANCH   6   7
ATOM      7  C   UNL     1      29.772  -3.410  29.741  1.00  0.00    -0.000 C 
BRANCH   7   8
ATOM      8  C   UNL     1      29.076  -4.669  30.287  1.00  0.00    -0.000 C 
BRANCH   8   9
ATOM      9  C   UNL     1      28.745  -5.694  29.189  1.00  0.00    -0.000 C 
BRANCH   9  10
ATOM     10  C   UNL     1      28.951  -7.144  29.652  1.00  0.00    -0.000 C 
BRANCH  10  11
ATOM     11  C   UNL     1      28.602  -7.347  31.134  1.00  0.00    -0.003 C 
ATOM     12  C   UNL     1      28.951  -8.758  31.594  1.00  0.00     0.004 C 
ENDBRANCH  10  11
ENDBRANCH   9  10
ENDBRANCH   8   9
ENDBRANCH   7   8
ENDBRANCH   6   7
ENDBRANCH   5   6
ENDBRANCH   4   5
ENDBRANCH   3   4
ENDBRANCH   2   3
ENDBRANCH   1   2
BRANCH   1  13
ATOM     13  C   UNL     1      27.063   0.986  28.921  1.00  0.00     0.000 C 
BRANCH  13  14
ATOM     14  C   UNL     1      27.687   2.370  29.172  1.00  0.00     0.000 C 
BRANCH  14  15
ATOM     15  C   UNL     1      26.826   3.539  28.643  1.00  0.00     0.000 C 
BRANCH  15  16
ATOM     16  C   UNL     1      27.451   4.908  28.943  1.00  0.00     0.000 C 
BRANCH  16  17
ATOM     17  C   UNL     1      27.498   5.177  30.452  1.00  0.00     0.000 C 
BRANCH  17  18
ATOM     18  C   UNL     1      28.234   6.487  30.752  1.00  0.00     0.000 C 
BRANCH  18  19
ATOM     19  C   UNL     1      27.576   7.670  30.032  1.00  0.00     0.000 C 
BRANCH  19  20
ATOM     20  C   UNL     1      28.370   8.963  30.258  1.00  0.00     0.006 C 
BRANCH  20  21
ATOM     21  C   UNL     1      27.536  10.194  29.890  1.00  0.00     0.053 C 
BRANCH  21  22
ATOM     22  C   UNL     1      26.669  10.607  31.037  1.00  0.00     0.041 C 
ATOM     23  O   UNL     1      27.144  10.660  32.203  1.00  0.00    -0.550 OA
ATOM     24  O   UNL     1      25.329  10.905  30.825  1.00  0.00    -0.550 OA
ENDBRANCH  21  22
ENDBRANCH  20  21
ENDBRANCH  19  20
ENDBRANCH  18  19
ENDBRANCH  17  18
ENDBRANCH  16  17
ENDBRANCH  15  16
ENDBRANCH  14  15
ENDBRANCH  13  14
ENDBRANCH   1  13
TORSDOF 20
ENDMDL
MODEL 3
REMARK VINA RESULT:    -5.354      5.641     12.559
REMARK INTER + INTRA:         -12.905
REMARK INTER:                 -11.532
REMARK INTRA:                  -1.373
REMARK UNBOUND:                -1.291
REMARK SMILES CCCCCCCCCCCCCCCCCCCCCC(=O)[O-]
REMARK SMILES IDX 12 1 11 2 10 3 9 4 8 5 7 6 6 7 5 8 4 9 3 10 2 11 1 12 13 13
REMARK SMILES IDX 14 14 15 15 16 16 17 17 18 18 19 19 20 20 21 21 22 22 23 23
REMARK SMILES IDX 24 24
REMARK H PARENT
REMARK Flexibility Score: inf
ROOT
ATOM      1  C   UNL     1      29.776   0.930  31.064  1.00  0.00     0.000 C 
ENDROOT
BRANCH   1   2
ATOM      2  C   UNL     1      29.423   1.004  29.561  1.00  0.00     0.000 C 
BRANCH   2   3
ATOM      3  C   UNL     1      28.679  -0.245  29.060  1.00  0.00     0.000 C 
BRANCH   3   4
ATOM      4  C   UNL     1      27.150  -0.098  29.149  1.00  0.00    -0.000 C 
BRANCH   4   5
ATOM      5  C   UNL     1      26.508  -1.000  30.227  1.00  0.00    -0.000 C 
BRANCH   5   6
ATOM      6  C   UNL     1      27.532  -1.779  31.075  1.00  0.00    -0.000 C 
BRANCH   6   7
ATOM      7  C   UNL     1      27.544  -3.307  30.848  1.00  0.00    -0.000 C 
BRANCH   7   8
ATOM      8  C   UNL     1      28.744  -3.846  30.050  1.00  0.00    -0.000 C 
BRANCH   8   9
ATOM      9  C   UNL     1      29.184  -5.248  30.505  1.00  0.00    -0.000 C 
BRANCH   9  10
ATOM     10  C   UNL     1      28.154  -6.334  30.155  1.00  0.00    -0.000 C 
BRANCH  10  11
ATOM     11  C   UNL     1      28.657  -7.749  30.475  1.00  0.00    -0.003 C 
ATOM     12  C   UNL     1      28.393  -8.704  29.315  1.00  0.00     0.004 C 
ENDBRANCH  10  11
ENDBRANCH   9  10
ENDBRANCH   8   9
ENDBRANCH   7   8
ENDBRANCH   6   7
ENDBRANCH   5   6
ENDBRANCH   4   5
ENDBRANCH   3   4
ENDBRANCH   2   3
ENDBRANCH   1   2
BRANCH   1  13
ATOM     13  C   UNL     1      28.989   1.923  31.938  1.00  0.00     0.000 C 
BRANCH  13  14
ATOM     14  C   UNL     1      28.237   3.014  31.154  1.00  0.00     0.000 C 
BRANCH  14  15
ATOM     15  C   UNL     1      28.500   4.443  31.681  1.00  0.00     0.000 C 
BRANCH  15  16
ATOM     16  C   UNL     1      27.424   5.439  31.229  1.00  0.00     0.000 C 
BRANCH  16  17
ATOM     17  C   UNL     1      27.830   6.142  29.928  1.00  0.00     0.000 C 
BRANCH  17  18
ATOM     18  C   UNL     1      28.048   7.641  30.161  1.00  0.00     0.000 C 
BRANCH  18  19
ATOM     19  C   UNL     1      26.778   8.308  30.701  1.00  0.00     0.000 C 
BRANCH  19  20
ATOM     20  C   UNL     1      26.530   9.657  30.014  1.00  0.00     0.006 C 
BRANCH  20  21
ATOM     21  C   UNL     1      25.943  10.677  30.995  1.00  0.00     0.053 C 
BRANCH  21  22
ATOM     22  C   UNL     1      26.802  10.793  32.214  1.00  0.00     0.041 C 
ATOM     23  O   UNL     1      28.024  11.079  32.102  1.00  0.00    -0.550 OA
ATOM     24  O   UNL     1      26.263  10.554  33.472  1.00  0.00    -0.550 OA
ENDBRANCH  21  22
ENDBRANCH  20  21
ENDBRANCH  19  20
ENDBRANCH  18  19
ENDBRANCH  17  18
ENDBRANCH  16  17
ENDBRANCH  15  16
ENDBRANCH  14  15
ENDBRANCH  13  14
ENDBRANCH   1  13
TORSDOF 20
ENDMDL
MODEL 4
REMARK VINA RESULT:    -5.347      1.797      2.469
REMARK INTER + INTRA:         -12.890
REMARK INTER:                 -11.390
REMARK INTRA:                  -1.500
REMARK UNBOUND:                -1.291
REMARK SMILES CCCCCCCCCCCCCCCCCCCCCC(=O)[O-]
REMARK SMILES IDX 12 1 11 2 10 3 9 4 8 5 7 6 6 7 5 8 4 9 3 10 2 11 1 12 13 13
REMARK SMILES IDX 14 14 15 15 16 16 17 17 18 18 19 19 20 20 21 21 22 22 23 23
REMARK SMILES IDX 24 24
REMARK H PARENT
REMARK Flexibility Score: inf
ROOT
ATOM      1  C   UNL     1      27.193   1.038  31.516  1.00  0.00     0.000 C 
ENDROOT
BRANCH   1   2
ATOM      2  C   UNL     1      26.319   0.762  30.271  1.00  0.00     0.000 C 
BRANCH   2   3
ATOM      3  C   UNL     1      26.897   1.378  28.986  1.00  0.00     0.000 C 
BRANCH   3   4
ATOM      4  C   UNL     1      27.707   2.657  29.256  1.00  0.00    -0.000 C 
BRANCH   4   5
ATOM      5  C   UNL     1      27.134   3.908  28.550  1.00  0.00    -0.000 C 
BRANCH   5   6
ATOM      6  C   UNL     1      26.902   5.102  29.496  1.00  0.00    -0.000 C 
BRANCH   6   7
ATOM      7  C   UNL     1      28.135   6.001  29.732  1.00  0.00    -0.000 C 
BRANCH   7   8
ATOM      8  C   UNL     1      27.910   7.196  30.675  1.00  0.00    -0.000 C 
BRANCH   8   9
ATOM      9  C   UNL     1      27.369   8.439  29.947  1.00  0.00    -0.000 C 
BRANCH   9  10
ATOM     10  C   UNL     1      28.368   9.605  29.943  1.00  0.00    -0.000 C 
BRANCH  10  11
ATOM     11  C   UNL     1      28.117  10.594  28.794  1.00  0.00    -0.003 C 
ATOM     12  C   UNL     1      26.679  11.102  28.809  1.00  0.00     0.004 C 
ENDBRANCH  10  11
ENDBRANCH   9  10
ENDBRANCH   8   9
ENDBRANCH   7   8
ENDBRANCH   6   7
ENDBRANCH   5   6
ENDBRANCH   4   5
ENDBRANCH   3   4
ENDBRANCH   2   3
ENDBRANCH   1   2
BRANCH   1  13
ATOM     13  C   UNL     1      28.197  -0.086  31.832  1.00  0.00     0.000 C 
BRANCH  13  14
ATOM     14  C   UNL     1      29.652   0.223  31.437  1.00  0.00     0.000 C 
BRANCH  14  15
ATOM     15  C   UNL     1      30.222  -0.748  30.378  1.00  0.00     0.000 C 
BRANCH  15  16
ATOM     16  C   UNL     1      29.122  -1.538  29.657  1.00  0.00     0.000 C 
BRANCH  16  17
ATOM     17  C   UNL     1      29.326  -3.049  29.821  1.00  0.00     0.000 C 
BRANCH  17  18
ATOM     18  C   UNL     1      28.078  -3.708  30.419  1.00  0.00     0.000 C 
BRANCH  18  19
ATOM     19  C   UNL     1      28.005  -5.194  30.047  1.00  0.00     0.000 C 
BRANCH  19  20
ATOM     20  C   UNL     1      28.646  -6.065  31.134  1.00  0.00     0.006 C 
BRANCH  20  21
ATOM     21  C   UNL     1      29.305  -7.308  30.528  1.00  0.00     0.053 C 
BRANCH  21  22
ATOM     22  C   UNL     1      28.565  -8.545  30.926  1.00  0.00     0.041 C 
ATOM     23  O   UNL     1      28.802  -9.096  32.035  1.00  0.00    -0.550 OA
ATOM     24  O   UNL     1      27.635  -9.109  30.062  1.00  0.00    -0.550 OA
ENDBRANCH  21  22
ENDBRANCH  20  21
ENDBRANCH  19  20
ENDBRANCH  18  19
ENDBRANCH  17  18
ENDBRANCH  16  17
ENDBRANCH  15  16
ENDBRANCH  14  15
ENDBRANCH  13  14
ENDBRANCH   1  13
TORSDOF 20
ENDMDL
MODEL 5
REMARK VINA RESULT:    -5.293      1.686      2.770
REMARK INTER + INTRA:         -12.772
REMARK INTER:                 -11.426
REMARK INTRA:                  -1.346
REMARK UNBOUND:                -1.291
REMARK SMILES CCCCCCCCCCCCCCCCCCCCCC(=O)[O-]
REMARK SMILES IDX 12 1 11 2 10 3 9 4 8 5 7 6 6 7 5 8 4 9 3 10 2 11 1 12 13 13
REMARK SMILES IDX 14 14 15 15 16 16 17 17 18 18 19 19 20 20 21 21 22 22 23 23
REMARK SMILES IDX 24 24
REMARK H PARENT
REMARK Flexibility Score: inf
ROOT
ATOM      1  C   UNL     1      29.686   1.061  30.499  1.00  0.00     0.000 C 
ENDROOT
BRANCH   1   2
ATOM      2  C   UNL     1      28.951   1.958  31.520  1.00  0.00     0.000 C 
BRANCH   2   3
ATOM      3  C   UNL     1      28.135   3.079  30.854  1.00  0.00     0.000 C 
BRANCH   3   4
ATOM      4  C   UNL     1      28.151   4.384  31.666  1.00  0.00    -0.000 C 
BRANCH   4   5
ATOM      5  C   UNL     1      28.274   5.652  30.791  1.00  0.00    -0.000 C 
BRANCH   5   6
ATOM      6  C   UNL     1      26.925   6.167  30.252  1.00  0.00    -0.000 C 
BRANCH   6   7
ATOM      7  C   UNL     1      26.856   7.690  30.005  1.00  0.00    -0.000 C 
BRANCH   7   8
ATOM      8  C   UNL     1      26.876   8.565  31.270  1.00  0.00    -0.000 C 
BRANCH   8   9
ATOM      9  C   UNL     1      26.742  10.066  30.962  1.00  0.00    -0.000 C 
BRANCH   9  10
ATOM     10  C   UNL     1      26.497  10.345  29.471  1.00  0.00    -0.000 C 
BRANCH  10  11
ATOM     11  C   UNL     1      27.676  11.070  28.805  1.00  0.00    -0.003 C 
ATOM     12  C   UNL     1      28.769  10.086  28.399  1.00  0.00     0.004 C 
ENDBRANCH  10  11
ENDBRANCH   9  10
ENDBRANCH   8   9
ENDBRANCH   7   8
ENDBRANCH   6   7
ENDBRANCH   5   6
ENDBRANCH   4   5
ENDBRANCH   3   4
ENDBRANCH   2   3
ENDBRANCH   1   2
BRANCH   1  13
ATOM     13  C   UNL     1      29.022   1.023  29.111  1.00  0.00     0.000 C 
BRANCH  13  14
ATOM     14  C   UNL     1      28.136  -0.208  28.856  1.00  0.00     0.000 C 
BRANCH  14  15
ATOM     15  C   UNL     1      26.712  -0.075  29.443  1.00  0.00     0.000 C 
BRANCH  15  16
ATOM     16  C   UNL     1      26.371  -1.212  30.414  1.00  0.00     0.000 C 
BRANCH  16  17
ATOM     17  C   UNL     1      27.631  -1.977  30.836  1.00  0.00     0.000 C 
BRANCH  17  18
ATOM     18  C   UNL     1      27.378  -3.489  30.840  1.00  0.00     0.000 C 
BRANCH  18  19
ATOM     19  C   UNL     1      28.525  -4.243  30.156  1.00  0.00     0.000 C 
BRANCH  19  20
ATOM     20  C   UNL     1      28.208  -5.740  30.043  1.00  0.00     0.006 C 
BRANCH  20  21
ATOM     21  C   UNL     1      29.145  -6.571  30.925  1.00  0.00     0.053 C 
BRANCH  21  22
ATOM     22  C   UNL     1      29.024  -8.026  30.600  1.00  0.00     0.041 C 
ATOM     23  O   UNL     1      28.687  -8.390  29.442  1.00  0.00    -0.550 OA
ATOM     24  O   UNL     1      29.252  -8.980  31.583  1.00  0.00    -0.550 OA
ENDBRANCH  21  22
ENDBRANCH  20  21
ENDBRANCH  19  20
ENDBRANCH  18  19
ENDBRANCH  17  18
ENDBRANCH  16  17
ENDBRANCH  15  16
ENDBRANCH  14  15
ENDBRANCH  13  14
ENDBRANCH   1  13
TORSDOF 20
ENDMDL
MODEL 6
REMARK VINA RESULT:    -5.144      5.816     12.882
REMARK INTER + INTRA:         -12.450
REMARK INTER:                 -11.118
REMARK INTRA:                  -1.332
REMARK UNBOUND:                -1.291
REMARK SMILES CCCCCCCCCCCCCCCCCCCCCC(=O)[O-]
REMARK SMILES IDX 12 1 11 2 10 3 9 4 8 5 7 6 6 7 5 8 4 9 3 10 2 11 1 12 13 13
REMARK SMILES IDX 14 14 15 15 16 16 17 17 18 18 19 19 20 20 21 21 22 22 23 23
REMARK SMILES IDX 24 24
REMARK H PARENT
REMARK Flexibility Score: inf
ROOT
ATOM      1  C   UNL     1      26.776   1.427  29.074  1.00  0.00     0.000 C 
ENDROOT
BRANCH   1   2
ATOM      2  C   UNL     1      26.140   0.593  30.208  1.00  0.00     0.000 C 
BRANCH   2   3
ATOM      3  C   UNL     1      26.650  -0.857  30.244  1.00  0.00     0.000 C 
BRANCH   3   4
ATOM      4  C   UNL     1      28.018  -1.019  29.558  1.00  0.00    -0.000 C 
BRANCH   4   5
ATOM      5  C   UNL     1      29.017  -1.873  30.371  1.00  0.00    -0.000 C 
BRANCH   5   6
ATOM      6  C   UNL     1      29.628  -3.041  29.572  1.00  0.00    -0.000 C 
BRANCH   6   7
ATOM      7  C   UNL     1      28.893  -4.391  29.721  1.00  0.00    -0.000 C 
BRANCH   7   8
ATOM      8  C   UNL     1      29.543  -5.392  30.693  1.00  0.00    -0.000 C 
BRANCH   8   9
ATOM      9  C   UNL     1      28.611  -6.558  31.065  1.00  0.00    -0.000 C 
BRANCH   9  10
ATOM     10  C   UNL     1      29.189  -7.926  30.674  1.00  0.00    -0.000 C 
BRANCH  10  11
ATOM     11  C   UNL     1      28.463  -8.553  29.474  1.00  0.00    -0.003 C 
ATOM     12  C   UNL     1      29.299  -8.440  28.203  1.00  0.00     0.004 C 
ENDBRANCH  10  11
ENDBRANCH   9  10
ENDBRANCH   8   9
ENDBRANCH   7   8
ENDBRANCH   6   7
ENDBRANCH   5   6
ENDBRANCH   4   5
ENDBRANCH   3   4
ENDBRANCH   2   3
ENDBRANCH   1   2
BRANCH   1  13
ATOM     13  C   UNL     1      27.400   2.751  29.550  1.00  0.00     0.000 C 
BRANCH  13  14
ATOM     14  C   UNL     1      28.392   2.611  30.718  1.00  0.00     0.000 C 
BRANCH  14  15
ATOM     15  C   UNL     1      28.259   3.729  31.777  1.00  0.00     0.000 C 
BRANCH  15  16
ATOM     16  C   UNL     1      27.591   4.991  31.214  1.00  0.00     0.000 C 
BRANCH  16  17
ATOM     17  C   UNL     1      28.636   6.012  30.751  1.00  0.00     0.000 C 
BRANCH  17  18
ATOM     18  C   UNL     1      27.975   7.163  29.984  1.00  0.00     0.000 C 
BRANCH  18  19
ATOM     19  C   UNL     1      26.911   7.860  30.840  1.00  0.00     0.000 C 
BRANCH  19  20
ATOM     20  C   UNL     1      26.987   9.383  30.680  1.00  0.00     0.006 C 
BRANCH  20  21
ATOM     21  C   UNL     1      28.128   9.783  29.739  1.00  0.00     0.053 C 
BRANCH  21  22
ATOM     22  C   UNL     1      27.626  10.673  28.647  1.00  0.00     0.041 C 
ATOM     23  O   UNL     1      28.399  11.040  27.722  1.00  0.00    -0.550 OA
ATOM     24  O   UNL     1      26.312  11.125  28.666  1.00  0.00    -0.550 OA
ENDBRANCH  21  22
ENDBRANCH  20  21
ENDBRANCH  19  20
ENDBRANCH  18  19
ENDBRANCH  17  18
ENDBRANCH  16  17
ENDBRANCH  15  16
ENDBRANCH  14  15
ENDBRANCH  13  14
ENDBRANCH   1  13
TORSDOF 20
ENDMDL
MODEL 7
REMARK VINA RESULT:    -5.075      1.460      2.051
REMARK INTER + INTRA:         -12.300
REMARK INTER:                 -11.192
REMARK INTRA:                  -1.108
REMARK UNBOUND:                -1.291
REMARK SMILES CCCCCCCCCCCCCCCCCCCCCC(=O)[O-]
REMARK SMILES IDX 12 1 11 2 10 3 9 4 8 5 7 6 6 7 5 8 4 9 3 10 2 11 1 12 13 13
REMARK SMILES IDX 14 14 15 15 16 16 17 17 18 18 19 19 20 20 21 21 22 22 23 23
REMARK SMILES IDX 24 24
REMARK H PARENT
REMARK Flexibility Score: inf
ROOT
ATOM      1  C   UNL     1      28.932   1.864  31.441  1.00  0.00     0.000 C 
ENDROOT
BRANCH   1   2
ATOM      2  C   UNL     1      28.008   3.044  31.067  1.00  0.00     0.000 C 
BRANCH   2   3
ATOM      3  C   UNL     1      28.320   4.323  31.862  1.00  0.00     0.000 C 
BRANCH   3   4
ATOM      4  C   UNL     1      28.478   5.557  30.957  1.00  0.00    -0.000 C 
BRANCH   4   5
ATOM      5  C   UNL     1      27.243   5.829  30.067  1.00  0.00    -0.000 C 
BRANCH   5   6
ATOM      6  C   UNL     1      26.843   7.316  29.999  1.00  0.00    -0.000 C 
BRANCH   6   7
ATOM      7  C   UNL     1      28.024   8.309  29.920  1.00  0.00    -0.000 C 
BRANCH   7   8
ATOM      8  C   UNL     1      27.714   9.741  30.390  1.00  0.00    -0.000 C 
BRANCH   8   9
ATOM      9  C   UNL     1      26.452   9.823  31.267  1.00  0.00    -0.000 C 
BRANCH   9  10
ATOM     10  C   UNL     1      26.656  10.691  32.518  1.00  0.00    -0.000 C 
BRANCH  10  11
ATOM     11  C   UNL     1      26.207   9.985  33.806  1.00  0.00    -0.003 C 
ATOM     12  C   UNL     1      26.519  10.832  35.036  1.00  0.00     0.004 C 
ENDBRANCH  10  11
ENDBRANCH   9  10
ENDBRANCH   8   9
ENDBRANCH   7   8
ENDBRANCH   6   7
ENDBRANCH   5   6
ENDBRANCH   4   5
ENDBRANCH   3   4
ENDBRANCH   2   3
ENDBRANCH   1   2
BRANCH   1  13
ATOM     13  C   UNL     1      29.609   1.195  30.230  1.00  0.00     0.000 C 
BRANCH  13  14
ATOM     14  C   UNL     1      29.024  -0.175  29.843  1.00  0.00     0.000 C 
BRANCH  14  15
ATOM     15  C   UNL     1      27.517  -0.128  29.501  1.00  0.00     0.000 C 
BRANCH  15  16
ATOM     16  C   UNL     1      26.733  -1.272  30.157  1.00  0.00     0.000 C 
BRANCH  16  17
ATOM     17  C   UNL     1      27.679  -2.322  30.754  1.00  0.00     0.000 C 
BRANCH  17  18
ATOM     18  C   UNL     1      26.914  -3.594  31.136  1.00  0.00     0.000 C 
BRANCH  18  19
ATOM     19  C   UNL     1      27.199  -4.729  30.146  1.00  0.00     0.000 C 
BRANCH  19  20
ATOM     20  C   UNL     1      28.627  -5.261  30.316  1.00  0.00     0.006 C 
BRANCH  20  21
ATOM     21  C   UNL     1      28.631  -6.611  31.041  1.00  0.00     0.053 C 
BRANCH  21  22
ATOM     22  C   UNL     1      28.965  -7.718  30.092  1.00  0.00     0.041 C 
ATOM     23  O   UNL     1      29.046  -7.491  28.856  1.00  0.00    -0.550 OA
ATOM     24  O   UNL     1      29.156  -9.009  30.569  1.00  0.00    -0.550 OA
ENDBRANCH  21  22
ENDBRANCH  20  21
ENDBRANCH  19  20
ENDBRANCH  18  19
ENDBRANCH  17  18
ENDBRANCH  16  17
ENDBRANCH  15  16
ENDBRANCH  14  15
ENDBRANCH  13  14
ENDBRANCH   1  13
TORSDOF 20
ENDMDL
MODEL 8
REMARK VINA RESULT:    -5.051      5.517     13.138
REMARK INTER + INTRA:         -12.248
REMARK INTER:                 -11.161
REMARK INTRA:                  -1.087
REMARK UNBOUND:                -1.291
REMARK SMILES CCCCCCCCCCCCCCCCCCCCCC(=O)[O-]
REMARK SMILES IDX 12 1 11 2 10 3 9 4 8 5 7 6 6 7 5 8 4 9 3 10 2 11 1 12 13 13
REMARK SMILES IDX 14 14 15 15 16 16 17 17 18 18 19 19 20 20 21 21 22 22 23 23
REMARK SMILES IDX 24 24
REMARK H PARENT
REMARK Flexibility Score: inf
ROOT
ATOM      1  C   UNL     1      28.079   2.143  29.931  1.00  0.00     0.000 C 
ENDROOT
BRANCH   1   2
ATOM      2  C   UNL     1      27.040   1.453  29.018  1.00  0.00     0.000 C 
BRANCH   2   3
ATOM      3  C   UNL     1      27.168  -0.080  29.019  1.00  0.00     0.000 C 
BRANCH   3   4
ATOM      4  C   UNL     1      26.813  -0.702  30.379  1.00  0.00    -0.000 C 
BRANCH   4   5
ATOM      5  C   UNL     1      27.668  -1.941  30.731  1.00  0.00    -0.000 C 
BRANCH   5   6
ATOM      6  C   UNL     1      26.872  -3.261  30.737  1.00  0.00    -0.000 C 
BRANCH   6   7
ATOM      7  C   UNL     1      27.680  -4.510  31.156  1.00  0.00    -0.000 C 
BRANCH   7   8
ATOM      8  C   UNL     1      28.527  -5.151  30.043  1.00  0.00    -0.000 C 
BRANCH   8   9
ATOM      9  C   UNL     1      29.203  -6.461  30.485  1.00  0.00    -0.000 C 
BRANCH   9  10
ATOM     10  C   UNL     1      28.582  -7.700  29.822  1.00  0.00    -0.000 C 
BRANCH  10  11
ATOM     11  C   UNL     1      28.616  -8.936  30.733  1.00  0.00    -0.003 C 
ATOM     12  C   UNL     1      28.445  -8.545  32.198  1.00  0.00     0.004 C 
ENDBRANCH  10  11
ENDBRANCH   9  10
ENDBRANCH   8   9
ENDBRANCH   7   8
ENDBRANCH   6   7
ENDBRANCH   5   6
ENDBRANCH   4   5
ENDBRANCH   3   4
ENDBRANCH   2   3
ENDBRANCH   1   2
BRANCH   1  13
ATOM     13  C   UNL     1      27.655   3.545  30.407  1.00  0.00     0.000 C 
BRANCH  13  14
ATOM     14  C   UNL     1      27.435   4.568  29.279  1.00  0.00     0.000 C 
BRANCH  14  15
ATOM     15  C   UNL     1      28.348   5.810  29.388  1.00  0.00     0.000 C 
BRANCH  15  16
ATOM     16  C   UNL     1      27.997   6.690  30.595  1.00  0.00     0.000 C 
BRANCH  16  17
ATOM     17  C   UNL     1      26.810   7.609  30.284  1.00  0.00     0.000 C 
BRANCH  17  18
ATOM     18  C   UNL     1      26.701   8.733  31.321  1.00  0.00     0.000 C 
BRANCH  18  19
ATOM     19  C   UNL     1      26.243  10.044  30.671  1.00  0.00     0.000 C 
BRANCH  19  20
ATOM     20  C   UNL     1      27.432  10.804  30.071  1.00  0.00     0.006 C 
BRANCH  20  21
ATOM     21  C   UNL     1      27.202  11.107  28.587  1.00  0.00     0.053 C 
BRANCH  21  22
ATOM     22  C   UNL     1      28.228  10.422  27.742  1.00  0.00     0.041 C 
ATOM     23  O   UNL     1      28.379  10.752  26.536  1.00  0.00    -0.550 OA
ATOM     24  O   UNL     1      28.998   9.396  28.276  1.00  0.00    -0.550 OA
ENDBRANCH  21  22
ENDBRANCH  20  21
ENDBRANCH  19  20
ENDBRANCH  18  19
ENDBRANCH  17  18
ENDBRANCH  16  17
ENDBRANCH  15  16
ENDBRANCH  14  15
ENDBRANCH  13  14
ENDBRANCH   1  13
TORSDOF 20
ENDMDL
MODEL 9
REMARK VINA RESULT:    -5.009      1.323      2.075
REMARK INTER + INTRA:         -12.157
REMARK INTER:                 -11.106
REMARK INTRA:                  -1.051
REMARK UNBOUND:                -1.291
REMARK SMILES CCCCCCCCCCCCCCCCCCCCCC(=O)[O-]
REMARK SMILES IDX 12 1 11 2 10 3 9 4 8 5 7 6 6 7 5 8 4 9 3 10 2 11 1 12 13 13
REMARK SMILES IDX 14 14 15 15 16 16 17 17 18 18 19 19 20 20 21 21 22 22 23 23
REMARK SMILES IDX 24 24
REMARK H PARENT
REMARK Flexibility Score: inf
ROOT
ATOM      1  C   UNL     1      29.134   0.995  28.955  1.00  0.00     0.000 C 
ENDROOT
BRANCH   1   2
ATOM      2  C   UNL     1      28.493   2.309  29.456  1.00  0.00     0.000 C 
BRANCH   2   3
ATOM      3  C   UNL     1      27.105   2.567  28.848  1.00  0.00     0.000 C 
BRANCH   3   4
ATOM      4  C   UNL     1      26.821   4.064  28.638  1.00  0.00    -0.000 C 
BRANCH   4   5
ATOM      5  C   UNL     1      27.624   4.981  29.588  1.00  0.00    -0.000 C 
BRANCH   5   6
ATOM      6  C   UNL     1      26.870   6.262  29.998  1.00  0.00    -0.000 C 
BRANCH   6   7
ATOM      7  C   UNL     1      27.757   7.391  30.566  1.00  0.00    -0.000 C 
BRANCH   7   8
ATOM      8  C   UNL     1      28.281   8.402  29.530  1.00  0.00    -0.000 C 
BRANCH   8   9
ATOM      9  C   UNL     1      28.301   9.846  30.060  1.00  0.00    -0.000 C 
BRANCH   9  10
ATOM     10  C   UNL     1      26.948  10.555  29.897  1.00  0.00    -0.000 C 
BRANCH  10  11
ATOM     11  C   UNL     1      25.971  10.234  31.037  1.00  0.00    -0.003 C 
ATOM     12  C   UNL     1      26.490  10.760  32.372  1.00  0.00     0.004 C 
ENDBRANCH  10  11
ENDBRANCH   9  10
ENDBRANCH   8   9
ENDBRANCH   7   8
ENDBRANCH   6   7
ENDBRANCH   5   6
ENDBRANCH   4   5
ENDBRANCH   3   4
ENDBRANCH   2   3
ENDBRANCH   1   2
BRANCH   1  13
ATOM     13  C   UNL     1      29.865   0.200  30.052  1.00  0.00     0.000 C 
BRANCH  13  14
ATOM     14  C   UNL     1      29.269   0.356  31.463  1.00  0.00     0.000 C 
BRANCH  14  15
ATOM     15  C   UNL     1      28.010  -0.510  31.698  1.00  0.00     0.000 C 
BRANCH  15  16
ATOM     16  C   UNL     1      27.979  -1.754  30.801  1.00  0.00     0.000 C 
BRANCH  16  17
ATOM     17  C   UNL     1      26.579  -2.378  30.766  1.00  0.00     0.000 C 
BRANCH  17  18
ATOM     18  C   UNL     1      26.657  -3.904  30.894  1.00  0.00     0.000 C 
BRANCH  18  19
ATOM     19  C   UNL     1      28.031  -4.427  30.460  1.00  0.00     0.000 C 
BRANCH  19  20
ATOM     20  C   UNL     1      28.393  -5.712  31.215  1.00  0.00     0.006 C 
BRANCH  20  21
ATOM     21  C   UNL     1      29.015  -6.748  30.274  1.00  0.00     0.053 C 
BRANCH  21  22
ATOM     22  C   UNL     1      28.618  -8.133  30.676  1.00  0.00     0.041 C 
ATOM     23  O   UNL     1      28.413  -9.013  29.798  1.00  0.00    -0.550 OA
ATOM     24  O   UNL     1      28.443  -8.445  32.018  1.00  0.00    -0.550 OA
ENDBRANCH  21  22
ENDBRANCH  20  21
ENDBRANCH  19  20
ENDBRANCH  18  19
ENDBRANCH  17  18
ENDBRANCH  16  17
ENDBRANCH  15  16
ENDBRANCH  14  15
ENDBRANCH  13  14
ENDBRANCH   1  13
TORSDOF 20
ENDMDL
