MODEL 1
REMARK VINA RESULT:    -6.470      0.000      0.000
REMARK INTER + INTRA:          -7.733
REMARK INTER:                  -7.605
REMARK INTRA:                  -0.128
REMARK UNBOUND:                -0.128
REMARK SMILES O=C([O-])C=Cc1ccc(O)c(O)c1
REMARK SMILES IDX 6 1 13 2 7 3 11 4 8 5 9 6 5 7 4 8 2 9 1 10 3 11 12 12 10 14
REMARK H PARENT 12 13 10 15
REMARK Flexibility Score: inf
ROOT
ATOM      1  C   UNL     1     -21.703 -14.333 -11.395  1.00  0.00    -0.022 A 
ATOM      2  C   UNL     1     -20.811 -13.614 -12.208  1.00  0.00     0.058 A 
ATOM      3  C   UNL     1     -22.546 -15.292 -11.994  1.00  0.00     0.012 A 
ATOM      4  C   UNL     1     -20.741 -13.859 -13.587  1.00  0.00     0.157 A 
ATOM      5  C   UNL     1     -22.475 -15.535 -13.368  1.00  0.00     0.051 A 
ATOM      6  C   UNL     1     -21.572 -14.824 -14.167  1.00  0.00     0.157 A 
ENDROOT
BRANCH   1   7
ATOM      7  C   UNL     1     -21.746 -14.028  -9.944  1.00  0.00     0.010 C 
ATOM      8  C   UNL     1     -20.660 -13.972  -9.161  1.00  0.00     0.025 C 
BRANCH   8   9
ATOM      9  C   UNL     1     -20.741 -13.654  -7.726  1.00  0.00     0.064 C 
ATOM     10  O   UNL     1     -19.840 -14.022  -6.924  1.00  0.00    -0.545 OA
ATOM     11  O   UNL     1     -21.828 -12.936  -7.245  1.00  0.00    -0.545 OA
ENDBRANCH   8   9
ENDBRANCH   1   7
BRANCH   4  12
ATOM     12  O   UNL     1     -19.847 -13.148 -14.386  1.00  0.00    -0.504 OA
ATOM     13  H   UNL     1     -20.155 -12.391 -14.983  1.00  0.00     0.293 HD
ENDBRANCH   4  12
BRANCH   6  14
ATOM     14  O   UNL     1     -21.499 -15.067 -15.537  1.00  0.00    -0.504 OA
ATOM     15  H   UNL     1     -21.901 -15.901 -15.951  1.00  0.00     0.293 HD
ENDBRANCH   6  14
TORSDOF 4
ENDMDL
MODEL 2
REMARK VINA RESULT:    -6.140      2.654      5.133
REMARK INTER + INTRA:          -7.346
REMARK INTER:                  -7.215
REMARK INTRA:                  -0.130
REMARK UNBOUND:                -0.128
REMARK SMILES O=C([O-])C=Cc1ccc(O)c(O)c1
REMARK SMILES IDX 6 1 13 2 7 3 11 4 8 5 9 6 5 7 4 8 2 9 1 10 3 11 12 12 10 14
REMARK H PARENT 12 13 10 15
REMARK Flexibility Score: inf
ROOT
ATOM      1  C   UNL     1     -21.949 -15.064 -12.309  1.00  0.00    -0.022 A 
ATOM      2  C   UNL     1     -21.320 -14.442 -13.400  1.00  0.00     0.058 A 
ATOM      3  C   UNL     1     -21.330 -15.006 -11.044  1.00  0.00     0.012 A 
ATOM      4  C   UNL     1     -20.110 -13.753 -13.232  1.00  0.00     0.157 A 
ATOM      5  C   UNL     1     -20.125 -14.319 -10.878  1.00  0.00     0.051 A 
ATOM      6  C   UNL     1     -19.513 -13.689 -11.968  1.00  0.00     0.157 A 
ENDROOT
BRANCH   1   7
ATOM      7  C   UNL     1     -23.223 -15.789 -12.542  1.00  0.00     0.010 C 
ATOM      8  C   UNL     1     -23.531 -16.404 -13.693  1.00  0.00     0.025 C 
BRANCH   8   9
ATOM      9  C   UNL     1     -24.801 -17.123 -13.883  1.00  0.00     0.064 C 
ATOM     10  O   UNL     1     -25.095 -18.127 -13.179  1.00  0.00    -0.545 OA
ATOM     11  O   UNL     1     -25.693 -16.690 -14.856  1.00  0.00    -0.545 OA
ENDBRANCH   8   9
ENDBRANCH   1   7
BRANCH   4  12
ATOM     12  O   UNL     1     -19.497 -13.129 -14.317  1.00  0.00    -0.504 OA
ATOM     13  H   UNL     1     -19.854 -13.231 -15.259  1.00  0.00     0.293 HD
ENDBRANCH   4  12
BRANCH   6  14
ATOM     14  O   UNL     1     -18.312 -13.003 -11.803  1.00  0.00    -0.504 OA
ATOM     15  H   UNL     1     -18.057 -12.226 -12.402  1.00  0.00     0.293 HD
ENDBRANCH   6  14
TORSDOF 4
ENDMDL
MODEL 3
REMARK VINA RESULT:    -6.133      0.883      2.109
REMARK INTER + INTRA:          -7.337
REMARK INTER:                  -7.199
REMARK INTRA:                  -0.138
REMARK UNBOUND:                -0.128
REMARK SMILES O=C([O-])C=Cc1ccc(O)c(O)c1
REMARK SMILES IDX 6 1 13 2 7 3 11 4 8 5 9 6 5 7 4 8 2 9 1 10 3 11 12 12 10 14
REMARK H PARENT 12 13 10 15
REMARK Flexibility Score: inf
ROOT
ATOM      1  C   UNL     1     -21.620 -14.474 -11.681  1.00  0.00    -0.022 A 
ATOM      2  C   UNL     1     -22.303 -15.530 -12.306  1.00  0.00     0.058 A 
ATOM      3  C   UNL     1     -20.919 -13.549 -12.482  1.00  0.00     0.012 A 
ATOM      4  C   UNL     1     -22.311 -15.652 -13.702  1.00  0.00     0.157 A 
ATOM      5  C   UNL     1     -20.928 -13.671 -13.874  1.00  0.00     0.051 A 
ATOM      6  C   UNL     1     -21.625 -14.719 -14.488  1.00  0.00     0.157 A 
ENDROOT
BRANCH   1   7
ATOM      7  C   UNL     1     -21.634 -14.397 -10.199  1.00  0.00     0.010 C 
ATOM      8  C   UNL     1     -20.864 -13.560  -9.489  1.00  0.00     0.025 C 
BRANCH   8   9
ATOM      9  C   UNL     1     -20.913 -13.503  -8.019  1.00  0.00     0.064 C 
ATOM     10  O   UNL     1     -21.847 -12.907  -7.419  1.00  0.00    -0.545 OA
ATOM     11  O   UNL     1     -19.912 -14.118  -7.278  1.00  0.00    -0.545 OA
ENDBRANCH   8   9
ENDBRANCH   1   7
BRANCH   4  12
ATOM     12  O   UNL     1     -23.000 -16.697 -14.316  1.00  0.00    -0.504 OA
ATOM     13  H   UNL     1     -22.740 -17.664 -14.166  1.00  0.00     0.293 HD
ENDBRANCH   4  12
BRANCH   6  14
ATOM     14  O   UNL     1     -21.635 -14.841 -15.876  1.00  0.00    -0.504 OA
ATOM     15  H   UNL     1     -21.072 -14.239 -16.466  1.00  0.00     0.293 HD
ENDBRANCH   6  14
TORSDOF 4
ENDMDL
MODEL 4
REMARK VINA RESULT:    -6.018      2.020      6.190
REMARK INTER + INTRA:          -7.202
REMARK INTER:                  -7.076
REMARK INTRA:                  -0.126
REMARK UNBOUND:                -0.128
REMARK SMILES O=C([O-])C=Cc1ccc(O)c(O)c1
REMARK SMILES IDX 6 1 13 2 7 3 11 4 8 5 9 6 5 7 4 8 2 9 1 10 3 11 12 12 10 14
REMARK H PARENT 12 13 10 15
REMARK Flexibility Score: inf
ROOT
ATOM      1  C   UNL     1     -22.402 -14.999 -12.417  1.00  0.00    -0.022 A 
ATOM      2  C   UNL     1     -23.282 -14.431 -11.481  1.00  0.00     0.058 A 
ATOM      3  C   UNL     1     -21.035 -15.101 -12.089  1.00  0.00     0.012 A 
ATOM      4  C   UNL     1     -22.817 -13.994 -10.233  1.00  0.00     0.157 A 
ATOM      5  C   UNL     1     -20.572 -14.665 -10.845  1.00  0.00     0.051 A 
ATOM      6  C   UNL     1     -21.460 -14.114  -9.913  1.00  0.00     0.157 A 
ENDROOT
BRANCH   1   7
ATOM      7  C   UNL     1     -22.944 -15.436 -13.728  1.00  0.00     0.010 C 
ATOM      8  C   UNL     1     -23.638 -14.637 -14.551  1.00  0.00     0.025 C 
BRANCH   8   9
ATOM      9  C   UNL     1     -24.150 -15.103 -15.850  1.00  0.00     0.064 C 
ATOM     10  O   UNL     1     -25.344 -15.484 -15.983  1.00  0.00    -0.545 OA
ATOM     11  O   UNL     1     -23.303 -15.123 -16.951  1.00  0.00    -0.545 OA
ENDBRANCH   8   9
ENDBRANCH   1   7
BRANCH   4  12
ATOM     12  O   UNL     1     -23.698 -13.440  -9.305  1.00  0.00    -0.504 OA
ATOM     13  H   UNL     1     -23.365 -12.930  -8.496  1.00  0.00     0.293 HD
ENDBRANCH   4  12
BRANCH   6  14
ATOM     14  O   UNL     1     -21.000 -13.681  -8.671  1.00  0.00    -0.504 OA
ATOM     15  H   UNL     1     -20.068 -13.299  -8.554  1.00  0.00     0.293 HD
ENDBRANCH   6  14
TORSDOF 4
ENDMDL
MODEL 5
REMARK VINA RESULT:    -5.868      2.365      5.962
REMARK INTER + INTRA:          -7.025
REMARK INTER:                  -6.898
REMARK INTRA:                  -0.128
REMARK UNBOUND:                -0.128
REMARK SMILES O=C([O-])C=Cc1ccc(O)c(O)c1
REMARK SMILES IDX 6 1 13 2 7 3 11 4 8 5 9 6 5 7 4 8 2 9 1 10 3 11 12 12 10 14
REMARK H PARENT 12 13 10 15
REMARK Flexibility Score: inf
ROOT
ATOM      1  C   UNL     1     -22.302 -15.218 -13.136  1.00  0.00    -0.022 A 
ATOM      2  C   UNL     1     -20.952 -15.141 -13.518  1.00  0.00     0.058 A 
ATOM      3  C   UNL     1     -22.633 -15.067 -11.773  1.00  0.00     0.012 A 
ATOM      4  C   UNL     1     -19.952 -14.893 -12.568  1.00  0.00     0.157 A 
ATOM      5  C   UNL     1     -21.635 -14.820 -10.827  1.00  0.00     0.051 A 
ATOM      6  C   UNL     1     -20.294 -14.729 -11.220  1.00  0.00     0.157 A 
ENDROOT
BRANCH   1   7
ATOM      7  C   UNL     1     -23.321 -15.493 -14.179  1.00  0.00     0.010 C 
ATOM      8  C   UNL     1     -23.467 -14.759 -15.291  1.00  0.00     0.025 C 
BRANCH   8   9
ATOM      9  C   UNL     1     -24.483 -15.069 -16.309  1.00  0.00     0.064 C 
ATOM     10  O   UNL     1     -25.639 -15.452 -15.983  1.00  0.00    -0.545 OA
ATOM     11  O   UNL     1     -24.165 -14.937 -17.655  1.00  0.00    -0.545 OA
ENDBRANCH   8   9
ENDBRANCH   1   7
BRANCH   4  12
ATOM     12  O   UNL     1     -18.616 -14.808 -12.955  1.00  0.00    -0.504 OA
ATOM     13  H   UNL     1     -18.291 -15.201 -13.830  1.00  0.00     0.293 HD
ENDBRANCH   4  12
BRANCH   6  14
ATOM     14  O   UNL     1     -19.298 -14.482 -10.278  1.00  0.00    -0.504 OA
ATOM     15  H   UNL     1     -18.887 -15.229  -9.731  1.00  0.00     0.293 HD
ENDBRANCH   6  14
TORSDOF 4
ENDMDL
MODEL 6
REMARK VINA RESULT:    -5.796      2.743      5.804
REMARK INTER + INTRA:          -6.941
REMARK INTER:                  -6.805
REMARK INTRA:                  -0.136
REMARK UNBOUND:                -0.128
REMARK SMILES O=C([O-])C=Cc1ccc(O)c(O)c1
REMARK SMILES IDX 6 1 13 2 7 3 11 4 8 5 9 6 5 7 4 8 2 9 1 10 3 11 12 12 10 14
REMARK H PARENT 12 13 10 15
REMARK Flexibility Score: inf
ROOT
ATOM      1  C   UNL     1     -22.433 -15.394 -12.755  1.00  0.00    -0.022 A 
ATOM      2  C   UNL     1     -22.214 -15.070 -11.406  1.00  0.00     0.058 A 
ATOM      3  C   UNL     1     -21.342 -15.361 -13.647  1.00  0.00     0.012 A 
ATOM      4  C   UNL     1     -20.930 -14.743 -10.946  1.00  0.00     0.157 A 
ATOM      5  C   UNL     1     -20.063 -15.036 -13.189  1.00  0.00     0.051 A 
ATOM      6  C   UNL     1     -19.852 -14.729 -11.839  1.00  0.00     0.157 A 
ENDROOT
BRANCH   1   7
ATOM      7  C   UNL     1     -23.812 -15.722 -13.192  1.00  0.00     0.010 C 
ATOM      8  C   UNL     1     -24.100 -16.362 -14.334  1.00  0.00     0.025 C 
BRANCH   8   9
ATOM      9  C   UNL     1     -25.482 -16.680 -14.730  1.00  0.00     0.064 C 
ATOM     10  O   UNL     1     -26.252 -15.792 -15.184  1.00  0.00    -0.545 OA
ATOM     11  O   UNL     1     -25.946 -17.983 -14.602  1.00  0.00    -0.545 OA
ENDBRANCH   8   9
ENDBRANCH   1   7
BRANCH   4  12
ATOM     12  O   UNL     1     -20.718 -14.432  -9.604  1.00  0.00    -0.504 OA
ATOM     13  H   UNL     1     -21.471 -14.463  -8.927  1.00  0.00     0.293 HD
ENDBRANCH   4  12
BRANCH   6  14
ATOM     14  O   UNL     1     -18.577 -14.406 -11.380  1.00  0.00    -0.504 OA
ATOM     15  H   UNL     1     -18.057 -13.624 -11.762  1.00  0.00     0.293 HD
ENDBRANCH   6  14
TORSDOF 4
ENDMDL
MODEL 7
REMARK VINA RESULT:    -5.706      6.912      9.035
REMARK INTER + INTRA:          -6.836
REMARK INTER:                  -6.706
REMARK INTRA:                  -0.129
REMARK UNBOUND:                -0.128
REMARK SMILES O=C([O-])C=Cc1ccc(O)c(O)c1
REMARK SMILES IDX 6 1 13 2 7 3 11 4 8 5 9 6 5 7 4 8 2 9 1 10 3 11 12 12 10 14
REMARK H PARENT 12 13 10 15
REMARK Flexibility Score: inf
ROOT
ATOM      1  C   UNL     1     -24.385 -21.239 -13.323  1.00  0.00    -0.022 A 
ATOM      2  C   UNL     1     -24.653 -21.915 -14.524  1.00  0.00     0.058 A 
ATOM      3  C   UNL     1     -23.835 -21.962 -12.244  1.00  0.00     0.012 A 
ATOM      4  C   UNL     1     -24.358 -23.279 -14.661  1.00  0.00     0.157 A 
ATOM      5  C   UNL     1     -23.542 -23.321 -12.381  1.00  0.00     0.051 A 
ATOM      6  C   UNL     1     -23.798 -23.983 -13.588  1.00  0.00     0.157 A 
ENDROOT
BRANCH   1   7
ATOM      7  C   UNL     1     -24.725 -19.798 -13.226  1.00  0.00     0.010 C 
ATOM      8  C   UNL     1     -24.651 -18.943 -14.257  1.00  0.00     0.025 C 
BRANCH   8   9
ATOM      9  C   UNL     1     -25.008 -17.522 -14.126  1.00  0.00     0.064 C 
ATOM     10  O   UNL     1     -25.953 -17.021 -14.794  1.00  0.00    -0.545 OA
ATOM     11  O   UNL     1     -24.293 -16.716 -13.250  1.00  0.00    -0.545 OA
ENDBRANCH   8   9
ENDBRANCH   1   7
BRANCH   4  12
ATOM     12  O   UNL     1     -24.618 -23.941 -15.859  1.00  0.00    -0.504 OA
ATOM     13  H   UNL     1     -24.367 -24.913 -15.994  1.00  0.00     0.293 HD
ENDBRANCH   4  12
BRANCH   6  14
ATOM     14  O   UNL     1     -23.505 -25.338 -13.727  1.00  0.00    -0.504 OA
ATOM     15  H   UNL     1     -22.552 -25.666 -13.836  1.00  0.00     0.293 HD
ENDBRANCH   6  14
TORSDOF 4
ENDMDL
MODEL 8
REMARK VINA RESULT:    -5.669      7.038      9.185
REMARK INTER + INTRA:          -6.791
REMARK INTER:                  -6.657
REMARK INTRA:                  -0.134
REMARK UNBOUND:                -0.128
REMARK SMILES O=C([O-])C=Cc1ccc(O)c(O)c1
REMARK SMILES IDX 6 1 13 2 7 3 11 4 8 5 9 6 5 7 4 8 2 9 1 10 3 11 12 12 10 14
REMARK H PARENT 12 13 10 15
REMARK Flexibility Score: inf
ROOT
ATOM      1  C   UNL     1     -24.665 -21.060 -12.979  1.00  0.00    -0.022 A 
ATOM      2  C   UNL     1     -25.653 -21.889 -12.423  1.00  0.00     0.058 A 
ATOM      3  C   UNL     1     -23.395 -21.607 -13.256  1.00  0.00     0.012 A 
ATOM      4  C   UNL     1     -25.393 -23.243 -12.170  1.00  0.00     0.157 A 
ATOM      5  C   UNL     1     -23.137 -22.956 -13.003  1.00  0.00     0.051 A 
ATOM      6  C   UNL     1     -24.134 -23.779 -12.464  1.00  0.00     0.157 A 
ENDROOT
BRANCH   1   7
ATOM      7  C   UNL     1     -24.987 -19.631 -13.217  1.00  0.00     0.010 C 
ATOM      8  C   UNL     1     -24.434 -18.894 -14.191  1.00  0.00     0.025 C 
BRANCH   8   9
ATOM      9  C   UNL     1     -24.788 -17.482 -14.405  1.00  0.00     0.064 C 
ATOM     10  O   UNL     1     -23.930 -16.567 -14.273  1.00  0.00    -0.545 OA
ATOM     11  O   UNL     1     -26.089 -17.149 -14.758  1.00  0.00    -0.545 OA
ENDBRANCH   8   9
ENDBRANCH   1   7
BRANCH   4  12
ATOM     12  O   UNL     1     -26.381 -24.063 -11.627  1.00  0.00    -0.504 OA
ATOM     13  H   UNL     1     -26.153 -24.932 -11.160  1.00  0.00     0.293 HD
ENDBRANCH   4  12
BRANCH   6  14
ATOM     14  O   UNL     1     -23.878 -25.126 -12.213  1.00  0.00    -0.504 OA
ATOM     15  H   UNL     1     -24.570 -25.726 -11.781  1.00  0.00     0.293 HD
ENDBRANCH   6  14
TORSDOF 4
ENDMDL
MODEL 9
REMARK VINA RESULT:    -5.622      7.521      9.531
REMARK INTER + INTRA:          -6.737
REMARK INTER:                  -6.607
REMARK INTRA:                  -0.129
REMARK UNBOUND:                -0.128
REMARK SMILES O=C([O-])C=Cc1ccc(O)c(O)c1
REMARK SMILES IDX 6 1 13 2 7 3 11 4 8 5 9 6 5 7 4 8 2 9 1 10 3 11 12 12 10 14
REMARK H PARENT 12 13 10 15
REMARK Flexibility Score: inf
ROOT
ATOM      1  C   UNL     1     -24.887 -21.336 -11.313  1.00  0.00    -0.022 A 
ATOM      2  C   UNL     1     -24.674 -22.511 -12.053  1.00  0.00     0.058 A 
ATOM      3  C   UNL     1     -24.663 -21.360  -9.921  1.00  0.00     0.012 A 
ATOM      4  C   UNL     1     -24.222 -23.681 -11.426  1.00  0.00     0.157 A 
ATOM      5  C   UNL     1     -24.214 -22.527  -9.297  1.00  0.00     0.051 A 
ATOM      6  C   UNL     1     -23.989 -23.688 -10.047  1.00  0.00     0.157 A 
ENDROOT
BRANCH   1   7
ATOM      7  C   UNL     1     -25.375 -20.127 -12.022  1.00  0.00     0.010 C 
ATOM      8  C   UNL     1     -24.922 -19.732 -13.220  1.00  0.00     0.025 C 
BRANCH   8   9
ATOM      9  C   UNL     1     -25.439 -18.532 -13.898  1.00  0.00     0.064 C 
ATOM     10  O   UNL     1     -26.676 -18.303 -13.968  1.00  0.00    -0.545 OA
ATOM     11  O   UNL     1     -24.548 -17.635 -14.472  1.00  0.00    -0.545 OA
ENDBRANCH   8   9
ENDBRANCH   1   7
BRANCH   4  12
ATOM     12  O   UNL     1     -24.003 -24.840 -12.169  1.00  0.00    -0.504 OA
ATOM     13  H   UNL     1     -23.071 -25.205 -12.320  1.00  0.00     0.293 HD
ENDBRANCH   4  12
BRANCH   6  14
ATOM     14  O   UNL     1     -23.539 -24.852  -9.426  1.00  0.00    -0.504 OA
ATOM     15  H   UNL     1     -23.364 -25.700  -9.952  1.00  0.00     0.293 HD
ENDBRANCH   6  14
TORSDOF 4
ENDMDL
