MODEL 1
REMARK VINA RESULT:    -3.995      0.000      0.000
REMARK INTER + INTRA:          -8.939
REMARK INTER:                  -6.797
REMARK INTRA:                  -2.142
REMARK UNBOUND:                -2.142
REMARK SMILES CCCCCCCCCCCCCC(=O)[O-]
REMARK SMILES IDX 8 1 9 2 10 3 11 4 12 5 13 6 14 7 15 8 16 9 7 10 6 11 5 12
REMARK SMILES IDX 4 13 3 14 2 15 1 16
REMARK H PARENT
REMARK Flexibility Score: inf
ROOT
ATOM      1  C   UNL     1     208.714 205.184 156.214  1.00  0.00     0.000 C 
ENDROOT
BRANCH   1   2
ATOM      2  C   UNL     1     208.431 206.671 155.968  1.00  0.00     0.000 C 
BRANCH   2   3
ATOM      3  C   UNL     1     209.072 207.542 157.058  1.00  0.00     0.000 C 
BRANCH   3   4
ATOM      4  C   UNL     1     208.048 208.407 157.816  1.00  0.00     0.000 C 
BRANCH   4   5
ATOM      5  C   UNL     1     207.038 209.150 156.924  1.00  0.00     0.006 C 
BRANCH   5   6
ATOM      6  C   UNL     1     205.588 208.715 157.171  1.00  0.00     0.053 C 
BRANCH   6   7
ATOM      7  C   UNL     1     205.173 209.049 158.568  1.00  0.00     0.041 C 
ATOM      8  O   UNL     1     204.761 208.143 159.340  1.00  0.00    -0.550 OA
ATOM      9  O   UNL     1     205.192 210.368 159.003  1.00  0.00    -0.550 OA
ENDBRANCH   6   7
ENDBRANCH   5   6
ENDBRANCH   4   5
ENDBRANCH   3   4
ENDBRANCH   2   3
ENDBRANCH   1   2
BRANCH   1  10
ATOM     10  C   UNL     1     207.443 204.343 156.021  1.00  0.00     0.000 C 
BRANCH  10  11
ATOM     11  C   UNL     1     206.159 205.180 156.120  1.00  0.00    -0.000 C 
BRANCH  11  12
ATOM     12  C   UNL     1     205.466 205.044 157.484  1.00  0.00    -0.000 C 
BRANCH  12  13
ATOM     13  C   UNL     1     205.843 203.721 158.162  1.00  0.00    -0.000 C 
BRANCH  13  14
ATOM     14  C   UNL     1     206.367 203.960 159.584  1.00  0.00    -0.000 C 
BRANCH  14  15
ATOM     15  C   UNL     1     206.952 205.370 159.724  1.00  0.00    -0.003 C 
ATOM     16  C   UNL     1     208.467 205.323 159.894  1.00  0.00     0.004 C 
ENDBRANCH  14  15
ENDBRANCH  13  14
ENDBRANCH  12  13
ENDBRANCH  11  12
ENDBRANCH  10  11
ENDBRANCH   1  10
TORSDOF 12
ENDMDL
MODEL 2
REMARK VINA RESULT:    -3.970      2.389      4.370
REMARK INTER + INTRA:          -8.897
REMARK INTER:                  -6.718
REMARK INTRA:                  -2.180
REMARK UNBOUND:                -2.142
REMARK SMILES CCCCCCCCCCCCCC(=O)[O-]
REMARK SMILES IDX 8 1 9 2 10 3 11 4 12 5 13 6 14 7 15 8 16 9 7 10 6 11 5 12
REMARK SMILES IDX 4 13 3 14 2 15 1 16
REMARK H PARENT
REMARK Flexibility Score: inf
ROOT
ATOM      1  C   UNL     1     205.945 203.540 158.101  1.00  0.00     0.000 C 
ENDROOT
BRANCH   1   2
ATOM      2  C   UNL     1     206.367 203.774 159.557  1.00  0.00     0.000 C 
BRANCH   2   3
ATOM      3  C   UNL     1     206.783 205.235 159.781  1.00  0.00     0.000 C 
BRANCH   3   4
ATOM      4  C   UNL     1     208.224 205.526 159.324  1.00  0.00     0.000 C 
BRANCH   4   5
ATOM      5  C   UNL     1     208.345 206.494 158.134  1.00  0.00     0.006 C 
BRANCH   5   6
ATOM      6  C   UNL     1     208.657 205.779 156.812  1.00  0.00     0.053 C 
BRANCH   6   7
ATOM      7  C   UNL     1     208.915 206.777 155.727  1.00  0.00     0.041 C 
ATOM      8  O   UNL     1     207.991 207.107 154.939  1.00  0.00    -0.550 OA
ATOM      9  O   UNL     1     210.188 207.305 155.556  1.00  0.00    -0.550 OA
ENDBRANCH   6   7
ENDBRANCH   5   6
ENDBRANCH   4   5
ENDBRANCH   3   4
ENDBRANCH   2   3
ENDBRANCH   1   2
BRANCH   1  10
ATOM     10  C   UNL     1     204.822 204.506 157.692  1.00  0.00     0.000 C 
BRANCH  10  11
ATOM     11  C   UNL     1     205.133 205.257 156.388  1.00  0.00    -0.000 C 
BRANCH  11  12
ATOM     12  C   UNL     1     204.852 206.763 156.490  1.00  0.00    -0.000 C 
BRANCH  12  13
ATOM     13  C   UNL     1     204.528 207.165 157.934  1.00  0.00    -0.000 C 
BRANCH  13  14
ATOM     14  C   UNL     1     205.238 208.470 158.315  1.00  0.00    -0.000 C 
BRANCH  14  15
ATOM     15  C   UNL     1     205.702 209.229 157.067  1.00  0.00    -0.003 C 
ATOM     16  C   UNL     1     207.079 209.849 157.279  1.00  0.00     0.004 C 
ENDBRANCH  14  15
ENDBRANCH  13  14
ENDBRANCH  12  13
ENDBRANCH  11  12
ENDBRANCH  10  11
ENDBRANCH   1  10
TORSDOF 12
ENDMDL
MODEL 3
REMARK VINA RESULT:    -3.945      1.273      3.342
REMARK INTER + INTRA:          -8.854
REMARK INTER:                  -6.714
REMARK INTRA:                  -2.140
REMARK UNBOUND:                -2.142
REMARK SMILES CCCCCCCCCCCCCC(=O)[O-]
REMARK SMILES IDX 8 1 9 2 10 3 11 4 12 5 13 6 14 7 15 8 16 9 7 10 6 11 5 12
REMARK SMILES IDX 4 13 3 14 2 15 1 16
REMARK H PARENT
REMARK Flexibility Score: inf
ROOT
ATOM      1  C   UNL     1     205.260 204.104 156.732  1.00  0.00     0.000 C 
ENDROOT
BRANCH   1   2
ATOM      2  C   UNL     1     204.109 204.817 157.453  1.00  0.00     0.000 C 
BRANCH   2   3
ATOM      3  C   UNL     1     203.733 206.121 156.735  1.00  0.00     0.000 C 
BRANCH   3   4
ATOM      4  C   UNL     1     204.936 206.802 156.058  1.00  0.00     0.000 C 
BRANCH   4   5
ATOM      5  C   UNL     1     205.281 208.201 156.598  1.00  0.00     0.006 C 
BRANCH   5   6
ATOM      6  C   UNL     1     205.174 208.295 158.126  1.00  0.00     0.053 C 
BRANCH   6   7
ATOM      7  C   UNL     1     205.290 209.718 158.571  1.00  0.00     0.041 C 
ATOM      8  O   UNL     1     206.366 210.349 158.400  1.00  0.00    -0.550 OA
ATOM      9  O   UNL     1     204.227 210.333 159.220  1.00  0.00    -0.550 OA
ENDBRANCH   6   7
ENDBRANCH   5   6
ENDBRANCH   4   5
ENDBRANCH   3   4
ENDBRANCH   2   3
ENDBRANCH   1   2
BRANCH   1  10
ATOM     10  C   UNL     1     206.428 203.836 157.693  1.00  0.00     0.000 C 
BRANCH  10  11
ATOM     11  C   UNL     1     206.165 204.371 159.109  1.00  0.00    -0.000 C 
BRANCH  11  12
ATOM     12  C   UNL     1     207.206 205.409 159.554  1.00  0.00    -0.000 C 
BRANCH  12  13
ATOM     13  C   UNL     1     208.266 205.624 158.467  1.00  0.00    -0.000 C 
BRANCH  13  14
ATOM     14  C   UNL     1     208.641 207.107 158.348  1.00  0.00    -0.000 C 
BRANCH  14  15
ATOM     15  C   UNL     1     208.789 207.521 156.880  1.00  0.00    -0.003 C 
ATOM     16  C   UNL     1     208.741 206.307 155.958  1.00  0.00     0.004 C 
ENDBRANCH  14  15
ENDBRANCH  13  14
ENDBRANCH  12  13
ENDBRANCH  11  12
ENDBRANCH  10  11
ENDBRANCH   1  10
TORSDOF 12
ENDMDL
MODEL 4
REMARK VINA RESULT:    -3.928      3.196      5.452
REMARK INTER + INTRA:          -8.826
REMARK INTER:                  -6.961
REMARK INTRA:                  -1.865
REMARK UNBOUND:                -2.142
REMARK SMILES CCCCCCCCCCCCCC(=O)[O-]
REMARK SMILES IDX 8 1 9 2 10 3 11 4 12 5 13 6 14 7 15 8 16 9 7 10 6 11 5 12
REMARK SMILES IDX 4 13 3 14 2 15 1 16
REMARK H PARENT
REMARK Flexibility Score: inf
ROOT
ATOM      1  C   UNL     1     208.405 205.613 159.375  1.00  0.00     0.000 C 
ENDROOT
BRANCH   1   2
ATOM      2  C   UNL     1     206.937 205.429 159.779  1.00  0.00     0.000 C 
BRANCH   2   3
ATOM      3  C   UNL     1     206.379 204.105 159.238  1.00  0.00     0.000 C 
BRANCH   3   4
ATOM      4  C   UNL     1     205.294 204.304 158.164  1.00  0.00     0.000 C 
BRANCH   4   5
ATOM      5  C   UNL     1     205.780 204.146 156.712  1.00  0.00     0.006 C 
BRANCH   5   6
ATOM      6  C   UNL     1     207.201 203.577 156.616  1.00  0.00     0.053 C 
BRANCH   6   7
ATOM      7  C   UNL     1     207.187 202.253 155.918  1.00  0.00     0.041 C 
ATOM      8  O   UNL     1     206.450 201.323 156.338  1.00  0.00    -0.550 OA
ATOM      9  O   UNL     1     208.025 202.031 154.832  1.00  0.00    -0.550 OA
ENDBRANCH   6   7
ENDBRANCH   5   6
ENDBRANCH   4   5
ENDBRANCH   3   4
ENDBRANCH   2   3
ENDBRANCH   1   2
BRANCH   1  10
ATOM     10  C   UNL     1     208.611 206.950 158.647  1.00  0.00     0.000 C 
BRANCH  10  11
ATOM     11  C   UNL     1     208.538 206.809 157.118  1.00  0.00    -0.000 C 
BRANCH  11  12
ATOM     12  C   UNL     1     207.565 207.809 156.476  1.00  0.00    -0.000 C 
BRANCH  12  13
ATOM     13  C   UNL     1     206.792 208.588 157.547  1.00  0.00    -0.000 C 
BRANCH  13  14
ATOM     14  C   UNL     1     205.334 208.117 157.627  1.00  0.00    -0.000 C 
BRANCH  14  15
ATOM     15  C   UNL     1     204.806 208.204 159.063  1.00  0.00    -0.003 C 
ATOM     16  C   UNL     1     204.521 209.649 159.459  1.00  0.00     0.004 C 
ENDBRANCH  14  15
ENDBRANCH  13  14
ENDBRANCH  12  13
ENDBRANCH  11  12
ENDBRANCH  10  11
ENDBRANCH   1  10
TORSDOF 12
ENDMDL
MODEL 5
REMARK VINA RESULT:    -3.924      3.093      5.587
REMARK INTER + INTRA:          -8.818
REMARK INTER:                  -7.243
REMARK INTRA:                  -1.575
REMARK UNBOUND:                -2.142
REMARK SMILES CCCCCCCCCCCCCC(=O)[O-]
REMARK SMILES IDX 8 1 9 2 10 3 11 4 12 5 13 6 14 7 15 8 16 9 7 10 6 11 5 12
REMARK SMILES IDX 4 13 3 14 2 15 1 16
REMARK H PARENT
REMARK Flexibility Score: inf
ROOT
ATOM      1  C   UNL     1     204.716 206.809 155.742  1.00  0.00     0.000 C 
ENDROOT
BRANCH   1   2
ATOM      2  C   UNL     1     203.901 206.276 156.927  1.00  0.00     0.000 C 
BRANCH   2   3
ATOM      3  C   UNL     1     204.159 204.778 157.143  1.00  0.00     0.000 C 
BRANCH   3   4
ATOM      4  C   UNL     1     205.179 204.499 158.263  1.00  0.00     0.000 C 
BRANCH   4   5
ATOM      5  C   UNL     1     206.486 203.832 157.800  1.00  0.00     0.006 C 
BRANCH   5   6
ATOM      6  C   UNL     1     206.249 202.623 156.886  1.00  0.00     0.053 C 
BRANCH   6   7
ATOM      7  C   UNL     1     207.017 202.773 155.611  1.00  0.00     0.041 C 
ATOM      8  O   UNL     1     206.502 203.369 154.629  1.00  0.00    -0.550 OA
ATOM      9  O   UNL     1     208.282 202.213 155.491  1.00  0.00    -0.550 OA
ENDBRANCH   6   7
ENDBRANCH   5   6
ENDBRANCH   4   5
ENDBRANCH   3   4
ENDBRANCH   2   3
ENDBRANCH   1   2
BRANCH   1  10
ATOM     10  C   UNL     1     205.435 208.115 156.113  1.00  0.00     0.000 C 
BRANCH  10  11
ATOM     11  C   UNL     1     206.142 208.036 157.475  1.00  0.00    -0.000 C 
BRANCH  11  12
ATOM     12  C   UNL     1     207.648 208.320 157.379  1.00  0.00    -0.000 C 
BRANCH  12  13
ATOM     13  C   UNL     1     208.460 207.023 157.481  1.00  0.00    -0.000 C 
BRANCH  13  14
ATOM     14  C   UNL     1     208.670 206.393 156.098  1.00  0.00    -0.000 C 
BRANCH  14  15
ATOM     15  C   UNL     1     209.402 207.359 155.160  1.00  0.00    -0.003 C 
ATOM     16  C   UNL     1     210.870 206.972 155.008  1.00  0.00     0.004 C 
ENDBRANCH  14  15
ENDBRANCH  13  14
ENDBRANCH  12  13
ENDBRANCH  11  12
ENDBRANCH  10  11
ENDBRANCH   1  10
TORSDOF 12
ENDMDL
MODEL 6
REMARK VINA RESULT:    -3.917      1.350      3.956
REMARK INTER + INTRA:          -8.807
REMARK INTER:                  -6.954
REMARK INTRA:                  -1.854
REMARK UNBOUND:                -2.142
REMARK SMILES CCCCCCCCCCCCCC(=O)[O-]
REMARK SMILES IDX 8 1 9 2 10 3 11 4 12 5 13 6 14 7 15 8 16 9 7 10 6 11 5 12
REMARK SMILES IDX 4 13 3 14 2 15 1 16
REMARK H PARENT
REMARK Flexibility Score: inf
ROOT
ATOM      1  C   UNL     1     206.281 203.630 159.528  1.00  0.00     0.000 C 
ENDROOT
BRANCH   1   2
ATOM      2  C   UNL     1     205.639 203.546 158.138  1.00  0.00     0.000 C 
BRANCH   2   3
ATOM      3  C   UNL     1     204.600 204.660 157.943  1.00  0.00     0.000 C 
BRANCH   3   4
ATOM      4  C   UNL     1     204.676 205.316 156.553  1.00  0.00     0.000 C 
BRANCH   4   5
ATOM      5  C   UNL     1     204.594 206.853 156.554  1.00  0.00     0.006 C 
BRANCH   5   6
ATOM      6  C   UNL     1     204.985 207.471 157.902  1.00  0.00     0.053 C 
BRANCH   6   7
ATOM      7  C   UNL     1     205.385 208.901 157.725  1.00  0.00     0.041 C 
ATOM      8  O   UNL     1     205.923 209.280 156.651  1.00  0.00    -0.550 OA
ATOM      9  O   UNL     1     205.211 209.807 158.764  1.00  0.00    -0.550 OA
ENDBRANCH   6   7
ENDBRANCH   5   6
ENDBRANCH   4   5
ENDBRANCH   3   4
ENDBRANCH   2   3
ENDBRANCH   1   2
BRANCH   1  10
ATOM     10  C   UNL     1     206.767 205.057 159.823  1.00  0.00     0.000 C 
BRANCH  10  11
ATOM     11  C   UNL     1     208.215 205.296 159.369  1.00  0.00    -0.000 C 
BRANCH  11  12
ATOM     12  C   UNL     1     208.312 206.265 158.181  1.00  0.00    -0.000 C 
BRANCH  12  13
ATOM     13  C   UNL     1     208.490 205.502 156.863  1.00  0.00    -0.000 C 
BRANCH  13  14
ATOM     14  C   UNL     1     208.085 206.370 155.665  1.00  0.00    -0.000 C 
BRANCH  14  15
ATOM     15  C   UNL     1     208.986 207.605 155.551  1.00  0.00    -0.003 C 
ATOM     16  C   UNL     1     210.416 207.214 155.196  1.00  0.00     0.004 C 
ENDBRANCH  14  15
ENDBRANCH  13  14
ENDBRANCH  12  13
ENDBRANCH  11  12
ENDBRANCH  10  11
ENDBRANCH   1  10
TORSDOF 12
ENDMDL
MODEL 7
REMARK VINA RESULT:    -3.902      3.015      4.942
REMARK INTER + INTRA:          -8.781
REMARK INTER:                  -6.739
REMARK INTRA:                  -2.042
REMARK UNBOUND:                -2.142
REMARK SMILES CCCCCCCCCCCCCC(=O)[O-]
REMARK SMILES IDX 8 1 9 2 10 3 11 4 12 5 13 6 14 7 15 8 16 9 7 10 6 11 5 12
REMARK SMILES IDX 4 13 3 14 2 15 1 16
REMARK H PARENT
REMARK Flexibility Score: inf
ROOT
ATOM      1  C   UNL     1     208.471 205.551 156.896  1.00  0.00     0.000 C 
ENDROOT
BRANCH   1   2
ATOM      2  C   UNL     1     208.305 206.258 158.247  1.00  0.00     0.000 C 
BRANCH   2   3
ATOM      3  C   UNL     1     208.041 205.244 159.369  1.00  0.00     0.000 C 
BRANCH   3   4
ATOM      4  C   UNL     1     206.545 204.936 159.562  1.00  0.00     0.000 C 
BRANCH   4   5
ATOM      5  C   UNL     1     206.114 203.519 159.146  1.00  0.00     0.006 C 
BRANCH   5   6
ATOM      6  C   UNL     1     205.640 203.442 157.689  1.00  0.00     0.053 C 
BRANCH   6   7
ATOM      7  C   UNL     1     206.319 202.315 156.978  1.00  0.00     0.041 C 
ATOM      8  O   UNL     1     206.579 202.407 155.749  1.00  0.00    -0.550 OA
ATOM      9  O   UNL     1     206.622 201.143 157.660  1.00  0.00    -0.550 OA
ENDBRANCH   6   7
ENDBRANCH   5   6
ENDBRANCH   4   5
ENDBRANCH   3   4
ENDBRANCH   2   3
ENDBRANCH   1   2
BRANCH   1  10
ATOM     10  C   UNL     1     207.919 206.415 155.752  1.00  0.00     0.000 C 
BRANCH  10  11
ATOM     11  C   UNL     1     206.491 206.020 155.346  1.00  0.00    -0.000 C 
BRANCH  11  12
ATOM     12  C   UNL     1     205.478 207.153 155.563  1.00  0.00    -0.000 C 
BRANCH  12  13
ATOM     13  C   UNL     1     204.837 207.059 156.953  1.00  0.00    -0.000 C 
BRANCH  13  14
ATOM     14  C   UNL     1     205.321 208.197 157.861  1.00  0.00    -0.000 C 
BRANCH  14  15
ATOM     15  C   UNL     1     205.889 209.356 157.035  1.00  0.00    -0.003 C 
ATOM     16  C   UNL     1     207.046 210.034 157.760  1.00  0.00     0.004 C 
ENDBRANCH  14  15
ENDBRANCH  13  14
ENDBRANCH  12  13
ENDBRANCH  11  12
ENDBRANCH  10  11
ENDBRANCH   1  10
TORSDOF 12
ENDMDL
MODEL 8
REMARK VINA RESULT:    -3.893      1.121      2.686
REMARK INTER + INTRA:          -8.766
REMARK INTER:                  -6.856
REMARK INTRA:                  -1.910
REMARK UNBOUND:                -2.142
REMARK SMILES CCCCCCCCCCCCCC(=O)[O-]
REMARK SMILES IDX 8 1 9 2 10 3 11 4 12 5 13 6 14 7 15 8 16 9 7 10 6 11 5 12
REMARK SMILES IDX 4 13 3 14 2 15 1 16
REMARK H PARENT
REMARK Flexibility Score: inf
ROOT
ATOM      1  C   UNL     1     206.820 205.572 159.397  1.00  0.00     0.000 C 
ENDROOT
BRANCH   1   2
ATOM      2  C   UNL     1     208.308 205.802 159.105  1.00  0.00     0.000 C 
BRANCH   2   3
ATOM      3  C   UNL     1     208.518 207.092 158.299  1.00  0.00     0.000 C 
BRANCH   3   4
ATOM      4  C   UNL     1     207.755 207.096 156.961  1.00  0.00     0.000 C 
BRANCH   4   5
ATOM      5  C   UNL     1     206.845 208.315 156.735  1.00  0.00     0.006 C 
BRANCH   5   6
ATOM      6  C   UNL     1     205.427 208.113 157.286  1.00  0.00     0.053 C 
BRANCH   6   7
ATOM      7  C   UNL     1     205.224 208.933 158.520  1.00  0.00     0.041 C 
ATOM      8  O   UNL     1     204.488 208.507 159.449  1.00  0.00    -0.550 OA
ATOM      9  O   UNL     1     205.806 210.189 158.624  1.00  0.00    -0.550 OA
ENDBRANCH   6   7
ENDBRANCH   5   6
ENDBRANCH   4   5
ENDBRANCH   3   4
ENDBRANCH   2   3
ENDBRANCH   1   2
BRANCH   1  10
ATOM     10  C   UNL     1     206.545 204.094 159.715  1.00  0.00     0.000 C 
BRANCH  10  11
ATOM     11  C   UNL     1     205.618 203.429 158.686  1.00  0.00    -0.000 C 
BRANCH  11  12
ATOM     12  C   UNL     1     205.214 204.380 157.550  1.00  0.00    -0.000 C 
BRANCH  12  13
ATOM     13  C   UNL     1     205.861 203.958 156.225  1.00  0.00    -0.000 C 
BRANCH  13  14
ATOM     14  C   UNL     1     206.280 202.483 156.260  1.00  0.00    -0.000 C 
BRANCH  14  15
ATOM     15  C   UNL     1     207.747 202.318 155.847  1.00  0.00    -0.003 C 
ATOM     16  C   UNL     1     208.536 203.600 156.094  1.00  0.00     0.004 C 
ENDBRANCH  14  15
ENDBRANCH  13  14
ENDBRANCH  12  13
ENDBRANCH  11  12
ENDBRANCH  10  11
ENDBRANCH   1  10
TORSDOF 12
ENDMDL
MODEL 9
REMARK VINA RESULT:    -3.882      1.319      2.831
REMARK INTER + INTRA:          -8.747
REMARK INTER:                  -6.463
REMARK INTRA:                  -2.284
REMARK UNBOUND:                -2.142
REMARK SMILES CCCCCCCCCCCCCC(=O)[O-]
REMARK SMILES IDX 8 1 9 2 10 3 11 4 12 5 13 6 14 7 15 8 16 9 7 10 6 11 5 12
REMARK SMILES IDX 4 13 3 14 2 15 1 16
REMARK H PARENT
REMARK Flexibility Score: inf
ROOT
ATOM      1  C   UNL     1     208.625 206.943 157.358  1.00  0.00     0.000 C 
ENDROOT
BRANCH   1   2
ATOM      2  C   UNL     1     208.249 206.046 156.172  1.00  0.00     0.000 C 
BRANCH   2   3
ATOM      3  C   UNL     1     207.301 206.775 155.209  1.00  0.00     0.000 C 
BRANCH   3   4
ATOM      4  C   UNL     1     205.843 206.292 155.320  1.00  0.00     0.000 C 
BRANCH   4   5
ATOM      5  C   UNL     1     204.922 207.192 156.162  1.00  0.00     0.006 C 
BRANCH   5   6
ATOM      6  C   UNL     1     205.505 208.592 156.395  1.00  0.00     0.053 C 
BRANCH   6   7
ATOM      7  C   UNL     1     205.474 208.935 157.851  1.00  0.00     0.041 C 
ATOM      8  O   UNL     1     206.077 209.956 158.273  1.00  0.00    -0.550 OA
ATOM      9  O   UNL     1     204.822 208.099 158.749  1.00  0.00    -0.550 OA
ENDBRANCH   6   7
ENDBRANCH   5   6
ENDBRANCH   4   5
ENDBRANCH   3   4
ENDBRANCH   2   3
ENDBRANCH   1   2
BRANCH   1  10
ATOM     10  C   UNL     1     208.075 206.373 158.674  1.00  0.00     0.000 C 
BRANCH  10  11
ATOM     11  C   UNL     1     207.525 204.947 158.518  1.00  0.00    -0.000 C 
BRANCH  11  12
ATOM     12  C   UNL     1     206.050 204.831 158.931  1.00  0.00    -0.000 C 
BRANCH  12  13
ATOM     13  C   UNL     1     205.295 203.867 158.008  1.00  0.00    -0.000 C 
BRANCH  13  14
ATOM     14  C   UNL     1     206.222 202.761 157.488  1.00  0.00    -0.000 C 
BRANCH  14  15
ATOM     15  C   UNL     1     206.207 202.706 155.956  1.00  0.00    -0.003 C 
ATOM     16  C   UNL     1     207.601 202.432 155.401  1.00  0.00     0.004 C 
ENDBRANCH  14  15
ENDBRANCH  13  14
ENDBRANCH  12  13
ENDBRANCH  11  12
ENDBRANCH  10  11
ENDBRANCH   1  10
TORSDOF 12
ENDMDL
