MODEL 1
REMARK VINA RESULT:    -3.537      0.000      0.000
REMARK INTER + INTRA:          -8.190
REMARK INTER:                  -6.017
REMARK INTRA:                  -2.172
REMARK UNBOUND:                -2.172
REMARK SMILES CCCCCCCCCCCCCC(=O)[O-]
REMARK SMILES IDX 8 1 9 2 10 3 11 4 12 5 13 6 14 7 15 8 16 9 7 10 6 11 5 12
REMARK SMILES IDX 4 13 3 14 2 15 1 16
REMARK H PARENT
REMARK Flexibility Score: inf
ROOT
ATOM      1  C   UNL     1       1.321  18.326  31.277  1.00  0.00     0.000 C 
ENDROOT
BRANCH   1   2
ATOM      2  C   UNL     1       1.391  16.803  31.490  1.00  0.00     0.000 C 
BRANCH   2   3
ATOM      3  C   UNL     1       2.770  16.217  31.152  1.00  0.00     0.000 C 
BRANCH   3   4
ATOM      4  C   UNL     1       2.644  14.775  30.645  1.00  0.00     0.000 C 
BRANCH   4   5
ATOM      5  C   UNL     1       1.196  14.276  30.757  1.00  0.00     0.006 C 
BRANCH   5   6
ATOM      6  C   UNL     1       0.790  13.400  29.565  1.00  0.00     0.053 C 
BRANCH   6   7
ATOM      7  C   UNL     1      -0.663  13.042  29.608  1.00  0.00     0.041 C 
ATOM      8  O   UNL     1      -1.018  11.836  29.682  1.00  0.00    -0.550 OA
ATOM      9  O   UNL     1      -1.627  14.044  29.600  1.00  0.00    -0.550 OA
ENDBRANCH   6   7
ENDBRANCH   5   6
ENDBRANCH   4   5
ENDBRANCH   3   4
ENDBRANCH   2   3
ENDBRANCH   1   2
BRANCH   1  10
ATOM     10  C   UNL     1       0.437  18.777  30.096  1.00  0.00     0.000 C 
BRANCH  10  11
ATOM     11  C   UNL     1      -0.061  17.642  29.180  1.00  0.00    -0.000 C 
BRANCH  11  12
ATOM     12  C   UNL     1       0.536  17.641  27.761  1.00  0.00    -0.000 C 
BRANCH  12  13
ATOM     13  C   UNL     1       1.534  16.496  27.536  1.00  0.00    -0.000 C 
BRANCH  13  14
ATOM     14  C   UNL     1       2.981  17.012  27.585  1.00  0.00    -0.000 C 
BRANCH  14  15
ATOM     15  C   UNL     1       3.061  18.545  27.595  1.00  0.00    -0.003 C 
ATOM     16  C   UNL     1       3.929  19.084  28.732  1.00  0.00     0.004 C 
ENDBRANCH  14  15
ENDBRANCH  13  14
ENDBRANCH  12  13
ENDBRANCH  11  12
ENDBRANCH  10  11
ENDBRANCH   1  10
TORSDOF 12
ENDMDL
MODEL 2
REMARK VINA RESULT:    -3.486      1.743      3.789
REMARK INTER + INTRA:          -8.103
REMARK INTER:                  -6.858
REMARK INTRA:                  -1.244
REMARK UNBOUND:                -2.172
REMARK SMILES CCCCCCCCCCCCCC(=O)[O-]
REMARK SMILES IDX 8 1 9 2 10 3 11 4 12 5 13 6 14 7 15 8 16 9 7 10 6 11 5 12
REMARK SMILES IDX 4 13 3 14 2 15 1 16
REMARK H PARENT
REMARK Flexibility Score: inf
ROOT
ATOM      1  C   UNL     1       2.132  17.298  27.907  1.00  0.00     0.000 C 
ENDROOT
BRANCH   1   2
ATOM      2  C   UNL     1       0.596  17.385  27.858  1.00  0.00     0.000 C 
BRANCH   2   3
ATOM      3  C   UNL     1      -0.087  16.493  28.904  1.00  0.00     0.000 C 
BRANCH   3   4
ATOM      4  C   UNL     1       0.942  15.891  29.869  1.00  0.00     0.000 C 
BRANCH   4   5
ATOM      5  C   UNL     1       0.403  14.609  30.521  1.00  0.00     0.006 C 
BRANCH   5   6
ATOM      6  C   UNL     1      -0.748  13.990  29.717  1.00  0.00     0.053 C 
BRANCH   6   7
ATOM      7  C   UNL     1      -0.578  12.511  29.553  1.00  0.00     0.041 C 
ATOM      8  O   UNL     1      -1.291  11.712  30.216  1.00  0.00    -0.550 OA
ATOM      9  O   UNL     1       0.348  12.014  28.644  1.00  0.00    -0.550 OA
ENDBRANCH   6   7
ENDBRANCH   5   6
ENDBRANCH   4   5
ENDBRANCH   3   4
ENDBRANCH   2   3
ENDBRANCH   1   2
BRANCH   1  10
ATOM     10  C   UNL     1       2.854  18.645  28.108  1.00  0.00     0.000 C 
BRANCH  10  11
ATOM     11  C   UNL     1       2.871  19.170  29.557  1.00  0.00    -0.000 C 
BRANCH  11  12
ATOM     12  C   UNL     1       1.925  20.353  29.832  1.00  0.00    -0.000 C 
BRANCH  12  13
ATOM     13  C   UNL     1       0.827  20.012  30.851  1.00  0.00    -0.000 C 
BRANCH  13  14
ATOM     14  C   UNL     1      -0.554  19.981  30.177  1.00  0.00    -0.000 C 
BRANCH  14  15
ATOM     15  C   UNL     1      -1.275  21.335  30.245  1.00  0.00    -0.003 C 
ATOM     16  C   UNL     1      -2.785  21.212  30.037  1.00  0.00     0.004 C 
ENDBRANCH  14  15
ENDBRANCH  13  14
ENDBRANCH  12  13
ENDBRANCH  11  12
ENDBRANCH  10  11
ENDBRANCH   1  10
TORSDOF 12
ENDMDL
MODEL 3
REMARK VINA RESULT:    -3.476      1.809      3.048
REMARK INTER + INTRA:          -8.087
REMARK INTER:                  -6.977
REMARK INTRA:                  -1.110
REMARK UNBOUND:                -2.172
REMARK SMILES CCCCCCCCCCCCCC(=O)[O-]
REMARK SMILES IDX 8 1 9 2 10 3 11 4 12 5 13 6 14 7 15 8 16 9 7 10 6 11 5 12
REMARK SMILES IDX 4 13 3 14 2 15 1 16
REMARK H PARENT
REMARK Flexibility Score: inf
ROOT
ATOM      1  C   UNL     1       1.881  16.324  28.623  1.00  0.00     0.000 C 
ENDROOT
BRANCH   1   2
ATOM      2  C   UNL     1       1.071  15.118  29.131  1.00  0.00     0.000 C 
BRANCH   2   3
ATOM      3  C   UNL     1       1.108  14.976  30.660  1.00  0.00     0.000 C 
BRANCH   3   4
ATOM      4  C   UNL     1       0.184  13.847  31.130  1.00  0.00     0.000 C 
BRANCH   4   5
ATOM      5  C   UNL     1      -0.848  13.493  30.048  1.00  0.00     0.006 C 
BRANCH   5   6
ATOM      6  C   UNL     1      -1.027  11.978  29.890  1.00  0.00     0.053 C 
BRANCH   6   7
ATOM      7  C   UNL     1      -1.517  11.342  31.154  1.00  0.00     0.041 C 
ATOM      8  O   UNL     1      -0.807  10.491  31.753  1.00  0.00    -0.550 OA
ATOM      9  O   UNL     1      -2.743  11.715  31.691  1.00  0.00    -0.550 OA
ENDBRANCH   6   7
ENDBRANCH   5   6
ENDBRANCH   4   5
ENDBRANCH   3   4
ENDBRANCH   2   3
ENDBRANCH   1   2
BRANCH   1  10
ATOM     10  C   UNL     1       1.039  17.463  28.013  1.00  0.00     0.000 C 
BRANCH  10  11
ATOM     11  C   UNL     1      -0.463  17.426  28.362  1.00  0.00    -0.000 C 
BRANCH  11  12
ATOM     12  C   UNL     1      -0.961  18.605  29.216  1.00  0.00    -0.000 C 
BRANCH  12  13
ATOM     13  C   UNL     1       0.137  19.198  30.112  1.00  0.00    -0.000 C 
BRANCH  13  14
ATOM     14  C   UNL     1      -0.049  20.714  30.276  1.00  0.00    -0.000 C 
BRANCH  14  15
ATOM     15  C   UNL     1       1.283  21.478  30.255  1.00  0.00    -0.003 C 
ATOM     16  C   UNL     1       2.467  20.593  29.866  1.00  0.00     0.004 C 
ENDBRANCH  14  15
ENDBRANCH  13  14
ENDBRANCH  12  13
ENDBRANCH  11  12
ENDBRANCH  10  11
ENDBRANCH   1  10
TORSDOF 12
ENDMDL
MODEL 4
REMARK VINA RESULT:    -3.472      1.424      2.029
REMARK INTER + INTRA:          -8.079
REMARK INTER:                  -6.416
REMARK INTRA:                  -1.664
REMARK UNBOUND:                -2.172
REMARK SMILES CCCCCCCCCCCCCC(=O)[O-]
REMARK SMILES IDX 8 1 9 2 10 3 11 4 12 5 13 6 14 7 15 8 16 9 7 10 6 11 5 12
REMARK SMILES IDX 4 13 3 14 2 15 1 16
REMARK H PARENT
REMARK Flexibility Score: inf
ROOT
ATOM      1  C   UNL     1       2.096  19.200  31.273  1.00  0.00     0.000 C 
ENDROOT
BRANCH   1   2
ATOM      2  C   UNL     1       1.803  17.886  32.019  1.00  0.00     0.000 C 
BRANCH   2   3
ATOM      3  C   UNL     1       2.259  16.644  31.242  1.00  0.00     0.000 C 
BRANCH   3   4
ATOM      4  C   UNL     1       1.194  15.542  31.292  1.00  0.00     0.000 C 
BRANCH   4   5
ATOM      5  C   UNL     1       1.724  14.235  30.683  1.00  0.00     0.006 C 
BRANCH   5   6
ATOM      6  C   UNL     1       0.759  13.645  29.647  1.00  0.00     0.053 C 
BRANCH   6   7
ATOM      7  C   UNL     1       1.097  12.223  29.321  1.00  0.00     0.041 C 
ATOM      8  O   UNL     1       1.882  11.571  30.060  1.00  0.00    -0.550 OA
ATOM      9  O   UNL     1       0.520  11.606  28.218  1.00  0.00    -0.550 OA
ENDBRANCH   6   7
ENDBRANCH   5   6
ENDBRANCH   4   5
ENDBRANCH   3   4
ENDBRANCH   2   3
ENDBRANCH   1   2
BRANCH   1  10
ATOM     10  C   UNL     1       1.320  19.384  29.953  1.00  0.00     0.000 C 
BRANCH  10  11
ATOM     11  C   UNL     1      -0.215  19.400  30.092  1.00  0.00    -0.000 C 
BRANCH  11  12
ATOM     12  C   UNL     1      -0.973  18.604  29.015  1.00  0.00    -0.000 C 
BRANCH  12  13
ATOM     13  C   UNL     1      -0.339  17.235  28.728  1.00  0.00    -0.000 C 
BRANCH  13  14
ATOM     14  C   UNL     1       0.471  17.268  27.424  1.00  0.00    -0.000 C 
BRANCH  14  15
ATOM     15  C   UNL     1       1.726  16.385  27.484  1.00  0.00    -0.003 C 
ATOM     16  C   UNL     1       3.019  17.198  27.531  1.00  0.00     0.004 C 
ENDBRANCH  14  15
ENDBRANCH  13  14
ENDBRANCH  12  13
ENDBRANCH  11  12
ENDBRANCH  10  11
ENDBRANCH   1  10
TORSDOF 12
ENDMDL
MODEL 5
REMARK VINA RESULT:    -3.454      1.527      3.210
REMARK INTER + INTRA:          -8.049
REMARK INTER:                  -6.592
REMARK INTRA:                  -1.456
REMARK UNBOUND:                -2.172
REMARK SMILES CCCCCCCCCCCCCC(=O)[O-]
REMARK SMILES IDX 8 1 9 2 10 3 11 4 12 5 13 6 14 7 15 8 16 9 7 10 6 11 5 12
REMARK SMILES IDX 4 13 3 14 2 15 1 16
REMARK H PARENT
REMARK Flexibility Score: inf
ROOT
ATOM      1  C   UNL     1       1.736  16.398  27.304  1.00  0.00     0.000 C 
ENDROOT
BRANCH   1   2
ATOM      2  C   UNL     1       2.893  16.484  28.317  1.00  0.00     0.000 C 
BRANCH   2   3
ATOM      3  C   UNL     1       2.726  15.516  29.496  1.00  0.00     0.000 C 
BRANCH   3   4
ATOM      4  C   UNL     1       1.668  14.449  29.186  1.00  0.00     0.000 C 
BRANCH   4   5
ATOM      5  C   UNL     1       0.622  14.369  30.308  1.00  0.00     0.006 C 
BRANCH   5   6
ATOM      6  C   UNL     1      -0.779  14.046  29.773  1.00  0.00     0.053 C 
BRANCH   6   7
ATOM      7  C   UNL     1      -1.299  12.754  30.323  1.00  0.00     0.041 C 
ATOM      8  O   UNL     1      -1.966  12.741  31.390  1.00  0.00    -0.550 OA
ATOM      9  O   UNL     1      -1.073  11.566  29.638  1.00  0.00    -0.550 OA
ENDBRANCH   6   7
ENDBRANCH   5   6
ENDBRANCH   4   5
ENDBRANCH   3   4
ENDBRANCH   2   3
ENDBRANCH   1   2
BRANCH   1  10
ATOM     10  C   UNL     1       0.736  17.570  27.359  1.00  0.00     0.000 C 
BRANCH  10  11
ATOM     11  C   UNL     1      -0.444  17.380  28.334  1.00  0.00    -0.000 C 
BRANCH  11  12
ATOM     12  C   UNL     1      -0.618  18.503  29.371  1.00  0.00    -0.000 C 
BRANCH  12  13
ATOM     13  C   UNL     1       0.642  18.734  30.218  1.00  0.00    -0.000 C 
BRANCH  13  14
ATOM     14  C   UNL     1       0.875  20.233  30.457  1.00  0.00    -0.000 C 
BRANCH  14  15
ATOM     15  C   UNL     1      -0.396  21.069  30.248  1.00  0.00    -0.003 C 
ATOM     16  C   UNL     1      -0.383  22.374  31.044  1.00  0.00     0.004 C 
ENDBRANCH  14  15
ENDBRANCH  13  14
ENDBRANCH  12  13
ENDBRANCH  11  12
ENDBRANCH  10  11
ENDBRANCH   1  10
TORSDOF 12
ENDMDL
MODEL 6
REMARK VINA RESULT:    -3.445      1.400      2.656
REMARK INTER + INTRA:          -8.034
REMARK INTER:                  -6.331
REMARK INTRA:                  -1.702
REMARK UNBOUND:                -2.172
REMARK SMILES CCCCCCCCCCCCCC(=O)[O-]
REMARK SMILES IDX 8 1 9 2 10 3 11 4 12 5 13 6 14 7 15 8 16 9 7 10 6 11 5 12
REMARK SMILES IDX 4 13 3 14 2 15 1 16
REMARK H PARENT
REMARK Flexibility Score: inf
ROOT
ATOM      1  C   UNL     1       0.313  18.800  30.222  1.00  0.00     0.000 C 
ENDROOT
BRANCH   1   2
ATOM      2  C   UNL     1      -0.380  18.162  29.005  1.00  0.00     0.000 C 
BRANCH   2   3
ATOM      3  C   UNL     1      -0.159  16.645  28.920  1.00  0.00     0.000 C 
BRANCH   3   4
ATOM      4  C   UNL     1       0.767  16.161  30.042  1.00  0.00     0.000 C 
BRANCH   4   5
ATOM      5  C   UNL     1       0.749  14.629  30.150  1.00  0.00     0.006 C 
BRANCH   5   6
ATOM      6  C   UNL     1      -0.615  14.037  29.772  1.00  0.00     0.053 C 
BRANCH   6   7
ATOM      7  C   UNL     1      -0.538  12.557  29.558  1.00  0.00     0.041 C 
ATOM      8  O   UNL     1       0.340  12.070  28.798  1.00  0.00    -0.550 OA
ATOM      9  O   UNL     1      -1.417  11.712  30.224  1.00  0.00    -0.550 OA
ENDBRANCH   6   7
ENDBRANCH   5   6
ENDBRANCH   4   5
ENDBRANCH   3   4
ENDBRANCH   2   3
ENDBRANCH   1   2
BRANCH   1  10
ATOM     10  C   UNL     1       1.253  19.977  29.891  1.00  0.00     0.000 C 
BRANCH  10  11
ATOM     11  C   UNL     1       2.732  19.596  29.684  1.00  0.00    -0.000 C 
BRANCH  11  12
ATOM     12  C   UNL     1       3.088  19.119  28.264  1.00  0.00    -0.000 C 
BRANCH  12  13
ATOM     13  C   UNL     1       3.765  17.740  28.251  1.00  0.00    -0.000 C 
BRANCH  13  14
ATOM     14  C   UNL     1       3.146  16.835  27.176  1.00  0.00    -0.000 C 
BRANCH  14  15
ATOM     15  C   UNL     1       3.704  15.405  27.213  1.00  0.00    -0.003 C 
ATOM     16  C   UNL     1       2.628  14.344  26.985  1.00  0.00     0.004 C 
ENDBRANCH  14  15
ENDBRANCH  13  14
ENDBRANCH  12  13
ENDBRANCH  11  12
ENDBRANCH  10  11
ENDBRANCH   1  10
TORSDOF 12
ENDMDL
MODEL 7
REMARK VINA RESULT:    -3.433      1.287      2.452
REMARK INTER + INTRA:          -8.013
REMARK INTER:                  -6.148
REMARK INTRA:                  -1.865
REMARK UNBOUND:                -2.172
REMARK SMILES CCCCCCCCCCCCCC(=O)[O-]
REMARK SMILES IDX 8 1 9 2 10 3 11 4 12 5 13 6 14 7 15 8 16 9 7 10 6 11 5 12
REMARK SMILES IDX 4 13 3 14 2 15 1 16
REMARK H PARENT
REMARK Flexibility Score: inf
ROOT
ATOM      1  C   UNL     1      -0.488  17.921  28.493  1.00  0.00     0.000 C 
ENDROOT
BRANCH   1   2
ATOM      2  C   UNL     1      -0.196  16.510  29.033  1.00  0.00     0.000 C 
BRANCH   2   3
ATOM      3  C   UNL     1       1.210  16.010  28.668  1.00  0.00     0.000 C 
BRANCH   3   4
ATOM      4  C   UNL     1       1.757  15.070  29.749  1.00  0.00     0.000 C 
BRANCH   4   5
ATOM      5  C   UNL     1       0.750  14.907  30.898  1.00  0.00     0.006 C 
BRANCH   5   6
ATOM      6  C   UNL     1       0.382  13.438  31.142  1.00  0.00     0.053 C 
BRANCH   6   7
ATOM      7  C   UNL     1      -0.493  12.897  30.054  1.00  0.00     0.041 C 
ATOM      8  O   UNL     1      -1.676  13.311  29.926  1.00  0.00    -0.550 OA
ATOM      9  O   UNL     1       0.008  11.958  29.161  1.00  0.00    -0.550 OA
ENDBRANCH   6   7
ENDBRANCH   5   6
ENDBRANCH   4   5
ENDBRANCH   3   4
ENDBRANCH   2   3
ENDBRANCH   1   2
BRANCH   1  10
ATOM     10  C   UNL     1      -0.982  18.931  29.549  1.00  0.00     0.000 C 
BRANCH  10  11
ATOM     11  C   UNL     1       0.121  19.785  30.205  1.00  0.00    -0.000 C 
BRANCH  11  12
ATOM     12  C   UNL     1       1.049  19.021  31.167  1.00  0.00    -0.000 C 
BRANCH  12  13
ATOM     13  C   UNL     1       2.515  19.021  30.708  1.00  0.00    -0.000 C 
BRANCH  13  14
ATOM     14  C   UNL     1       2.692  19.872  29.442  1.00  0.00    -0.000 C 
BRANCH  14  15
ATOM     15  C   UNL     1       3.117  19.038  28.224  1.00  0.00    -0.003 C 
ATOM     16  C   UNL     1       4.310  18.129  28.518  1.00  0.00     0.004 C 
ENDBRANCH  14  15
ENDBRANCH  13  14
ENDBRANCH  12  13
ENDBRANCH  11  12
ENDBRANCH  10  11
ENDBRANCH   1  10
TORSDOF 12
ENDMDL
MODEL 8
REMARK VINA RESULT:    -3.404      1.733      2.808
REMARK INTER + INTRA:          -7.963
REMARK INTER:                  -6.637
REMARK INTRA:                  -1.326
REMARK UNBOUND:                -2.172
REMARK SMILES CCCCCCCCCCCCCC(=O)[O-]
REMARK SMILES IDX 8 1 9 2 10 3 11 4 12 5 13 6 14 7 15 8 16 9 7 10 6 11 5 12
REMARK SMILES IDX 4 13 3 14 2 15 1 16
REMARK H PARENT
REMARK Flexibility Score: inf
ROOT
ATOM      1  C   UNL     1      -0.336  17.773  28.549  1.00  0.00     0.000 C 
ENDROOT
BRANCH   1   2
ATOM      2  C   UNL     1      -0.753  16.358  28.989  1.00  0.00     0.000 C 
BRANCH   2   3
ATOM      3  C   UNL     1       0.309  15.665  29.854  1.00  0.00     0.000 C 
BRANCH   3   4
ATOM      4  C   UNL     1       0.418  14.177  29.503  1.00  0.00     0.000 C 
BRANCH   4   5
ATOM      5  C   UNL     1      -0.826  13.407  29.971  1.00  0.00     0.006 C 
BRANCH   5   6
ATOM      6  C   UNL     1      -0.650  12.820  31.377  1.00  0.00     0.053 C 
BRANCH   6   7
ATOM      7  C   UNL     1      -1.394  11.530  31.538  1.00  0.00     0.041 C 
ATOM      8  O   UNL     1      -2.633  11.481  31.319  1.00  0.00    -0.550 OA
ATOM      9  O   UNL     1      -0.713  10.374  31.897  1.00  0.00    -0.550 OA
ENDBRANCH   6   7
ENDBRANCH   5   6
ENDBRANCH   4   5
ENDBRANCH   3   4
ENDBRANCH   2   3
ENDBRANCH   1   2
BRANCH   1  10
ATOM     10  C   UNL     1      -0.743  18.902  29.517  1.00  0.00     0.000 C 
BRANCH  10  11
ATOM     11  C   UNL     1       0.415  19.791  30.011  1.00  0.00    -0.000 C 
BRANCH  11  12
ATOM     12  C   UNL     1       1.775  19.080  30.132  1.00  0.00    -0.000 C 
BRANCH  12  13
ATOM     13  C   UNL     1       2.842  19.673  29.199  1.00  0.00    -0.000 C 
BRANCH  13  14
ATOM     14  C   UNL     1       3.016  18.806  27.944  1.00  0.00    -0.000 C 
BRANCH  14  15
ATOM     15  C   UNL     1       3.367  17.348  28.276  1.00  0.00    -0.003 C 
ATOM     16  C   UNL     1       2.835  16.360  27.239  1.00  0.00     0.004 C 
ENDBRANCH  14  15
ENDBRANCH  13  14
ENDBRANCH  12  13
ENDBRANCH  11  12
ENDBRANCH  10  11
ENDBRANCH   1  10
TORSDOF 12
ENDMDL
MODEL 9
REMARK VINA RESULT:    -3.330      1.459      2.546
REMARK INTER + INTRA:          -7.838
REMARK INTER:                  -5.949
REMARK INTRA:                  -1.889
REMARK UNBOUND:                -2.172
REMARK SMILES CCCCCCCCCCCCCC(=O)[O-]
REMARK SMILES IDX 8 1 9 2 10 3 11 4 12 5 13 6 14 7 15 8 16 9 7 10 6 11 5 12
REMARK SMILES IDX 4 13 3 14 2 15 1 16
REMARK H PARENT
REMARK Flexibility Score: inf
ROOT
ATOM      1  C   UNL     1       2.732  15.952  31.106  1.00  0.00     0.000 C 
ENDROOT
BRANCH   1   2
ATOM      2  C   UNL     1       2.780  14.564  30.442  1.00  0.00     0.000 C 
BRANCH   2   3
ATOM      3  C   UNL     1       1.557  13.698  30.779  1.00  0.00     0.000 C 
BRANCH   3   4
ATOM      4  C   UNL     1       0.797  13.303  29.508  1.00  0.00     0.000 C 
BRANCH   4   5
ATOM      5  C   UNL     1      -0.721  13.349  29.737  1.00  0.00     0.006 C 
BRANCH   5   6
ATOM      6  C   UNL     1      -1.094  13.099  31.204  1.00  0.00     0.053 C 
BRANCH   6   7
ATOM      7  C   UNL     1      -1.501  11.677  31.438  1.00  0.00     0.041 C 
ATOM      8  O   UNL     1      -2.719  11.358  31.448  1.00  0.00    -0.550 OA
ATOM      9  O   UNL     1      -0.532  10.696  31.614  1.00  0.00    -0.550 OA
ENDBRANCH   6   7
ENDBRANCH   5   6
ENDBRANCH   4   5
ENDBRANCH   3   4
ENDBRANCH   2   3
ENDBRANCH   1   2
BRANCH   1  10
ATOM     10  C   UNL     1       1.324  16.569  31.222  1.00  0.00     0.000 C 
BRANCH  10  11
ATOM     11  C   UNL     1       0.960  17.581  30.117  1.00  0.00    -0.000 C 
BRANCH  11  12
ATOM     12  C   UNL     1       0.093  17.017  28.978  1.00  0.00    -0.000 C 
BRANCH  12  13
ATOM     13  C   UNL     1       0.713  17.240  27.590  1.00  0.00    -0.000 C 
BRANCH  13  14
ATOM     14  C   UNL     1       1.784  16.181  27.292  1.00  0.00    -0.000 C 
BRANCH  14  15
ATOM     15  C   UNL     1       3.207  16.759  27.305  1.00  0.00    -0.003 C 
ATOM     16  C   UNL     1       4.220  15.854  26.604  1.00  0.00     0.004 C 
ENDBRANCH  14  15
ENDBRANCH  13  14
ENDBRANCH  12  13
ENDBRANCH  11  12
ENDBRANCH  10  11
ENDBRANCH   1  10
TORSDOF 12
ENDMDL
