MODEL 1
REMARK VINA RESULT:    -4.159      0.000      0.000
REMARK INTER + INTRA:         -11.348
REMARK INTER:                  -9.022
REMARK INTRA:                  -2.325
REMARK UNBOUND:                -2.325
REMARK SMILES CCCCCCCCCCCCCCCCCCCCCC(=O)[O-]
REMARK SMILES IDX 12 1 11 2 10 3 9 4 8 5 7 6 6 7 5 8 4 9 3 10 2 11 1 12 13 13
REMARK SMILES IDX 14 14 15 15 16 16 17 17 18 18 19 19 20 20 21 21 22 22 23 23
REMARK SMILES IDX 24 24
REMARK H PARENT
REMARK Flexibility Score: inf
ROOT
ATOM      1  C   UNL     1      -5.328  -1.571   1.059  1.00  0.00     0.000 C 
ENDROOT
BRANCH   1   2
ATOM      2  C   UNL     1      -6.430  -2.279   0.251  1.00  0.00     0.000 C 
BRANCH   2   3
ATOM      3  C   UNL     1      -7.585  -2.859   1.087  1.00  0.00     0.000 C 
BRANCH   3   4
ATOM      4  C   UNL     1      -7.451  -2.556   2.590  1.00  0.00    -0.000 C 
BRANCH   4   5
ATOM      5  C   UNL     1      -7.307  -3.827   3.447  1.00  0.00    -0.000 C 
BRANCH   5   6
ATOM      6  C   UNL     1      -6.348  -3.703   4.647  1.00  0.00    -0.000 C 
BRANCH   6   7
ATOM      7  C   UNL     1      -5.059  -4.525   4.473  1.00  0.00    -0.000 C 
BRANCH   7   8
ATOM      8  C   UNL     1      -3.841  -3.643   4.154  1.00  0.00    -0.000 C 
BRANCH   8   9
ATOM      9  C   UNL     1      -2.569  -4.115   4.882  1.00  0.00    -0.000 C 
BRANCH   9  10
ATOM     10  C   UNL     1      -2.693  -4.016   6.412  1.00  0.00    -0.000 C 
BRANCH  10  11
ATOM     11  C   UNL     1      -2.805  -2.567   6.907  1.00  0.00    -0.003 C 
ATOM     12  C   UNL     1      -4.131  -2.336   7.625  1.00  0.00     0.004 C 
ENDBRANCH  10  11
ENDBRANCH   9  10
ENDBRANCH   8   9
ENDBRANCH   7   8
ENDBRANCH   6   7
ENDBRANCH   5   6
ENDBRANCH   4   5
ENDBRANCH   3   4
ENDBRANCH   2   3
ENDBRANCH   1   2
BRANCH   1  13
ATOM     13  C   UNL     1      -5.156  -0.091   0.676  1.00  0.00     0.000 C 
BRANCH  13  14
ATOM     14  C   UNL     1      -6.401   0.750   1.032  1.00  0.00     0.000 C 
BRANCH  14  15
ATOM     15  C   UNL     1      -6.782   1.773  -0.050  1.00  0.00     0.000 C 
BRANCH  15  16
ATOM     16  C   UNL     1      -5.575   2.245  -0.877  1.00  0.00     0.000 C 
BRANCH  16  17
ATOM     17  C   UNL     1      -4.875   3.463  -0.254  1.00  0.00     0.000 C 
BRANCH  17  18
ATOM     18  C   UNL     1      -3.462   3.134   0.261  1.00  0.00     0.000 C 
BRANCH  18  19
ATOM     19  C   UNL     1      -3.281   3.475   1.749  1.00  0.00     0.000 C 
BRANCH  19  20
ATOM     20  C   UNL     1      -4.614   3.503   2.517  1.00  0.00     0.006 C 
BRANCH  20  21
ATOM     21  C   UNL     1      -4.558   4.422   3.745  1.00  0.00     0.053 C 
BRANCH  21  22
ATOM     22  C   UNL     1      -4.674   5.869   3.369  1.00  0.00     0.041 C 
ATOM     23  O   UNL     1      -5.423   6.218   2.418  1.00  0.00    -0.550 OA
ATOM     24  O   UNL     1      -3.971   6.834   4.081  1.00  0.00    -0.550 OA
ENDBRANCH  21  22
ENDBRANCH  20  21
ENDBRANCH  19  20
ENDBRANCH  18  19
ENDBRANCH  17  18
ENDBRANCH  16  17
ENDBRANCH  15  16
ENDBRANCH  14  15
ENDBRANCH  13  14
ENDBRANCH   1  13
TORSDOF 20
ENDMDL
MODEL 2
REMARK VINA RESULT:    -4.087      3.600      6.168
REMARK INTER + INTRA:         -11.192
REMARK INTER:                  -7.119
REMARK INTRA:                  -4.073
REMARK UNBOUND:                -2.325
REMARK SMILES CCCCCCCCCCCCCCCCCCCCCC(=O)[O-]
REMARK SMILES IDX 12 1 11 2 10 3 9 4 8 5 7 6 6 7 5 8 4 9 3 10 2 11 1 12 13 13
REMARK SMILES IDX 14 14 15 15 16 16 17 17 18 18 19 19 20 20 21 21 22 22 23 23
REMARK SMILES IDX 24 24
REMARK H PARENT
REMARK Flexibility Score: inf
ROOT
ATOM      1  C   UNL     1      -4.136   3.537   2.499  1.00  0.00     0.000 C 
ENDROOT
BRANCH   1   2
ATOM      2  C   UNL     1      -3.060   3.228   1.442  1.00  0.00     0.000 C 
BRANCH   2   3
ATOM      3  C   UNL     1      -3.574   2.541   0.164  1.00  0.00     0.000 C 
BRANCH   3   4
ATOM      4  C   UNL     1      -3.710   3.508  -1.025  1.00  0.00    -0.000 C 
BRANCH   4   5
ATOM      5  C   UNL     1      -5.149   3.599  -1.564  1.00  0.00    -0.000 C 
BRANCH   5   6
ATOM      6  C   UNL     1      -6.082   2.449  -1.137  1.00  0.00    -0.000 C 
BRANCH   6   7
ATOM      7  C   UNL     1      -7.558   2.712  -1.485  1.00  0.00    -0.000 C 
BRANCH   7   8
ATOM      8  C   UNL     1      -8.443   1.477  -1.250  1.00  0.00    -0.000 C 
BRANCH   8   9
ATOM      9  C   UNL     1      -8.157   0.800   0.104  1.00  0.00    -0.000 C 
BRANCH   9  10
ATOM     10  C   UNL     1      -7.605  -0.627  -0.054  1.00  0.00    -0.000 C 
BRANCH  10  11
ATOM     11  C   UNL     1      -6.649  -1.022   1.081  1.00  0.00    -0.003 C 
ATOM     12  C   UNL     1      -5.200  -0.741   0.698  1.00  0.00     0.004 C 
ENDBRANCH  10  11
ENDBRANCH   9  10
ENDBRANCH   8   9
ENDBRANCH   7   8
ENDBRANCH   6   7
ENDBRANCH   5   6
ENDBRANCH   4   5
ENDBRANCH   3   4
ENDBRANCH   2   3
ENDBRANCH   1   2
BRANCH   1  13
ATOM     13  C   UNL     1      -5.426   2.723   2.302  1.00  0.00     0.000 C 
BRANCH  13  14
ATOM     14  C   UNL     1      -6.634   3.368   3.014  1.00  0.00     0.000 C 
BRANCH  14  15
ATOM     15  C   UNL     1      -7.739   3.833   2.051  1.00  0.00     0.000 C 
BRANCH  15  16
ATOM     16  C   UNL     1      -7.754   5.357   1.852  1.00  0.00     0.000 C 
BRANCH  16  17
ATOM     17  C   UNL     1      -6.970   5.796   0.604  1.00  0.00     0.000 C 
BRANCH  17  18
ATOM     18  C   UNL     1      -5.601   6.406   0.951  1.00  0.00     0.000 C 
BRANCH  18  19
ATOM     19  C   UNL     1      -5.679   7.417   2.108  1.00  0.00     0.000 C 
BRANCH  19  20
ATOM     20  C   UNL     1      -4.714   7.078   3.257  1.00  0.00     0.006 C 
BRANCH  20  21
ATOM     21  C   UNL     1      -5.452   6.580   4.507  1.00  0.00     0.053 C 
BRANCH  21  22
ATOM     22  C   UNL     1      -4.503   6.177   5.597  1.00  0.00     0.041 C 
ATOM     23  O   UNL     1      -4.010   5.018   5.610  1.00  0.00    -0.550 OA
ATOM     24  O   UNL     1      -4.148   7.088   6.585  1.00  0.00    -0.550 OA
ENDBRANCH  21  22
ENDBRANCH  20  21
ENDBRANCH  19  20
ENDBRANCH  18  19
ENDBRANCH  17  18
ENDBRANCH  16  17
ENDBRANCH  15  16
ENDBRANCH  14  15
ENDBRANCH  13  14
ENDBRANCH   1  13
TORSDOF 20
ENDMDL
MODEL 3
REMARK VINA RESULT:    -4.016      1.270      2.175
REMARK INTER + INTRA:         -11.038
REMARK INTER:                  -8.928
REMARK INTRA:                  -2.110
REMARK UNBOUND:                -2.325
REMARK SMILES CCCCCCCCCCCCCCCCCCCCCC(=O)[O-]
REMARK SMILES IDX 12 1 11 2 10 3 9 4 8 5 7 6 6 7 5 8 4 9 3 10 2 11 1 12 13 13
REMARK SMILES IDX 14 14 15 15 16 16 17 17 18 18 19 19 20 20 21 21 22 22 23 23
REMARK SMILES IDX 24 24
REMARK H PARENT
REMARK Flexibility Score: inf
ROOT
ATOM      1  C   UNL     1      -6.455   0.653   0.863  1.00  0.00     0.000 C 
ENDROOT
BRANCH   1   2
ATOM      2  C   UNL     1      -5.344  -0.398   0.680  1.00  0.00     0.000 C 
BRANCH   2   3
ATOM      3  C   UNL     1      -5.716  -1.827   1.117  1.00  0.00     0.000 C 
BRANCH   3   4
ATOM      4  C   UNL     1      -7.174  -1.951   1.590  1.00  0.00    -0.000 C 
BRANCH   4   5
ATOM      5  C   UNL     1      -7.453  -3.268   2.337  1.00  0.00    -0.000 C 
BRANCH   5   6
ATOM      6  C   UNL     1      -6.815  -3.377   3.735  1.00  0.00    -0.000 C 
BRANCH   6   7
ATOM      7  C   UNL     1      -6.572  -4.831   4.174  1.00  0.00    -0.000 C 
BRANCH   7   8
ATOM      8  C   UNL     1      -5.448  -4.947   5.217  1.00  0.00    -0.000 C 
BRANCH   8   9
ATOM      9  C   UNL     1      -4.069  -5.172   4.570  1.00  0.00    -0.000 C 
BRANCH   9  10
ATOM     10  C   UNL     1      -3.201  -3.902   4.574  1.00  0.00    -0.000 C 
BRANCH  10  11
ATOM     11  C   UNL     1      -2.320  -3.789   5.827  1.00  0.00    -0.003 C 
ATOM     12  C   UNL     1      -2.825  -2.687   6.752  1.00  0.00     0.004 C 
ENDBRANCH  10  11
ENDBRANCH   9  10
ENDBRANCH   8   9
ENDBRANCH   7   8
ENDBRANCH   6   7
ENDBRANCH   5   6
ENDBRANCH   4   5
ENDBRANCH   3   4
ENDBRANCH   2   3
ENDBRANCH   1   2
BRANCH   1  13
ATOM     13  C   UNL     1      -7.357   0.799  -0.374  1.00  0.00     0.000 C 
BRANCH  13  14
ATOM     14  C   UNL     1      -7.070   2.102  -1.151  1.00  0.00     0.000 C 
BRANCH  14  15
ATOM     15  C   UNL     1      -7.134   3.366  -0.278  1.00  0.00     0.000 C 
BRANCH  15  16
ATOM     16  C   UNL     1      -6.267   4.511  -0.824  1.00  0.00     0.000 C 
BRANCH  16  17
ATOM     17  C   UNL     1      -5.208   4.024  -1.827  1.00  0.00     0.000 C 
BRANCH  17  18
ATOM     18  C   UNL     1      -3.786   4.037  -1.239  1.00  0.00     0.000 C 
BRANCH  18  19
ATOM     19  C   UNL     1      -3.363   2.668  -0.683  1.00  0.00     0.000 C 
BRANCH  19  20
ATOM     20  C   UNL     1      -3.246   2.662   0.852  1.00  0.00     0.006 C 
BRANCH  20  21
ATOM     21  C   UNL     1      -3.437   4.061   1.454  1.00  0.00     0.053 C 
BRANCH  21  22
ATOM     22  C   UNL     1      -4.268   4.027   2.701  1.00  0.00     0.041 C 
ATOM     23  O   UNL     1      -4.074   4.874   3.614  1.00  0.00    -0.550 OA
ATOM     24  O   UNL     1      -5.269   3.075   2.848  1.00  0.00    -0.550 OA
ENDBRANCH  21  22
ENDBRANCH  20  21
ENDBRANCH  19  20
ENDBRANCH  18  19
ENDBRANCH  17  18
ENDBRANCH  16  17
ENDBRANCH  15  16
ENDBRANCH  14  15
ENDBRANCH  13  14
ENDBRANCH   1  13
TORSDOF 20
ENDMDL
MODEL 4
REMARK VINA RESULT:    -3.922      6.094      9.832
REMARK INTER + INTRA:         -10.832
REMARK INTER:                  -8.569
REMARK INTRA:                  -2.264
REMARK UNBOUND:                -2.325
REMARK SMILES CCCCCCCCCCCCCCCCCCCCCC(=O)[O-]
REMARK SMILES IDX 12 1 11 2 10 3 9 4 8 5 7 6 6 7 5 8 4 9 3 10 2 11 1 12 13 13
REMARK SMILES IDX 14 14 15 15 16 16 17 17 18 18 19 19 20 20 21 21 22 22 23 23
REMARK SMILES IDX 24 24
REMARK H PARENT
REMARK Flexibility Score: inf
ROOT
ATOM      1  C   UNL     1      -5.257  -1.422   0.495  1.00  0.00     0.000 C 
ENDROOT
BRANCH   1   2
ATOM      2  C   UNL     1      -5.227   0.097   0.739  1.00  0.00     0.000 C 
BRANCH   2   3
ATOM      3  C   UNL     1      -6.593   0.737   1.051  1.00  0.00     0.000 C 
BRANCH   3   4
ATOM      4  C   UNL     1      -7.156   1.554  -0.124  1.00  0.00    -0.000 C 
BRANCH   4   5
ATOM      5  C   UNL     1      -7.345   3.044   0.216  1.00  0.00    -0.000 C 
BRANCH   5   6
ATOM      6  C   UNL     1      -6.707   4.030  -0.781  1.00  0.00    -0.000 C 
BRANCH   6   7
ATOM      7  C   UNL     1      -5.577   3.398  -1.613  1.00  0.00    -0.000 C 
BRANCH   7   8
ATOM      8  C   UNL     1      -4.188   3.904  -1.191  1.00  0.00    -0.000 C 
BRANCH   8   9
ATOM      9  C   UNL     1      -3.285   2.771  -0.669  1.00  0.00    -0.000 C 
BRANCH   9  10
ATOM     10  C   UNL     1      -3.084   2.829   0.854  1.00  0.00    -0.000 C 
BRANCH  10  11
ATOM     11  C   UNL     1      -3.720   4.074   1.490  1.00  0.00    -0.003 C 
ATOM     12  C   UNL     1      -4.662   3.687   2.626  1.00  0.00     0.004 C 
ENDBRANCH  10  11
ENDBRANCH   9  10
ENDBRANCH   8   9
ENDBRANCH   7   8
ENDBRANCH   6   7
ENDBRANCH   5   6
ENDBRANCH   4   5
ENDBRANCH   3   4
ENDBRANCH   2   3
ENDBRANCH   1   2
BRANCH   1  13
ATOM     13  C   UNL     1      -6.613  -2.062   0.837  1.00  0.00     0.000 C 
BRANCH  13  14
ATOM     14  C   UNL     1      -7.378  -2.510  -0.427  1.00  0.00     0.000 C 
BRANCH  14  15
ATOM     15  C   UNL     1      -7.931  -3.942  -0.336  1.00  0.00     0.000 C 
BRANCH  15  16
ATOM     16  C   UNL     1      -8.054  -4.622  -1.709  1.00  0.00     0.000 C 
BRANCH  16  17
ATOM     17  C   UNL     1      -7.069  -4.049  -2.741  1.00  0.00     0.000 C 
BRANCH  17  18
ATOM     18  C   UNL     1      -5.647  -4.614  -2.578  1.00  0.00     0.000 C 
BRANCH  18  19
ATOM     19  C   UNL     1      -5.617  -6.151  -2.577  1.00  0.00     0.000 C 
BRANCH  19  20
ATOM     20  C   UNL     1      -4.671  -6.726  -3.646  1.00  0.00     0.006 C 
BRANCH  20  21
ATOM     21  C   UNL     1      -4.800  -8.250  -3.776  1.00  0.00     0.053 C 
BRANCH  21  22
ATOM     22  C   UNL     1      -3.864  -8.807  -4.807  1.00  0.00     0.041 C 
ATOM     23  O   UNL     1      -3.059  -9.727  -4.500  1.00  0.00    -0.550 OA
ATOM     24  O   UNL     1      -3.894  -8.326  -6.111  1.00  0.00    -0.550 OA
ENDBRANCH  21  22
ENDBRANCH  20  21
ENDBRANCH  19  20
ENDBRANCH  18  19
ENDBRANCH  17  18
ENDBRANCH  16  17
ENDBRANCH  15  16
ENDBRANCH  14  15
ENDBRANCH  13  14
ENDBRANCH   1  13
TORSDOF 20
ENDMDL
MODEL 5
REMARK VINA RESULT:    -3.886      4.022      8.280
REMARK INTER + INTRA:         -10.756
REMARK INTER:                  -8.597
REMARK INTRA:                  -2.159
REMARK UNBOUND:                -2.325
REMARK SMILES CCCCCCCCCCCCCCCCCCCCCC(=O)[O-]
REMARK SMILES IDX 12 1 11 2 10 3 9 4 8 5 7 6 6 7 5 8 4 9 3 10 2 11 1 12 13 13
REMARK SMILES IDX 14 14 15 15 16 16 17 17 18 18 19 19 20 20 21 21 22 22 23 23
REMARK SMILES IDX 24 24
REMARK H PARENT
REMARK Flexibility Score: inf
ROOT
ATOM      1  C   UNL     1      -6.718  -2.665   0.022  1.00  0.00     0.000 C 
ENDROOT
BRANCH   1   2
ATOM      2  C   UNL     1      -5.560  -1.717   0.382  1.00  0.00     0.000 C 
BRANCH   2   3
ATOM      3  C   UNL     1      -5.982  -0.380   1.019  1.00  0.00     0.000 C 
BRANCH   3   4
ATOM      4  C   UNL     1      -4.976   0.754   0.761  1.00  0.00    -0.000 C 
BRANCH   4   5
ATOM      5  C   UNL     1      -5.445   1.738  -0.326  1.00  0.00    -0.000 C 
BRANCH   5   6
ATOM      6  C   UNL     1      -4.459   2.876  -0.650  1.00  0.00    -0.000 C 
BRANCH   6   7
ATOM      7  C   UNL     1      -3.268   2.934   0.322  1.00  0.00    -0.000 C 
BRANCH   7   8
ATOM      8  C   UNL     1      -3.364   4.122   1.294  1.00  0.00    -0.000 C 
BRANCH   8   9
ATOM      9  C   UNL     1      -4.002   3.727   2.639  1.00  0.00    -0.000 C 
BRANCH   9  10
ATOM     10  C   UNL     1      -5.189   4.629   3.018  1.00  0.00    -0.000 C 
BRANCH  10  11
ATOM     11  C   UNL     1      -6.535   4.074   2.533  1.00  0.00    -0.003 C 
ATOM     12  C   UNL     1      -6.862   2.753   3.221  1.00  0.00     0.004 C 
ENDBRANCH  10  11
ENDBRANCH   9  10
ENDBRANCH   8   9
ENDBRANCH   7   8
ENDBRANCH   6   7
ENDBRANCH   5   6
ENDBRANCH   4   5
ENDBRANCH   3   4
ENDBRANCH   2   3
ENDBRANCH   1   2
BRANCH   1  13
ATOM     13  C   UNL     1      -7.939  -2.504   0.944  1.00  0.00     0.000 C 
BRANCH  13  14
ATOM     14  C   UNL     1      -7.847  -3.407   2.193  1.00  0.00     0.000 C 
BRANCH  14  15
ATOM     15  C   UNL     1      -7.918  -2.633   3.519  1.00  0.00     0.000 C 
BRANCH  15  16
ATOM     16  C   UNL     1      -7.388  -3.444   4.712  1.00  0.00     0.000 C 
BRANCH  16  17
ATOM     17  C   UNL     1      -6.495  -4.617   4.277  1.00  0.00     0.000 C 
BRANCH  17  18
ATOM     18  C   UNL     1      -5.128  -4.614   4.984  1.00  0.00     0.000 C 
BRANCH  18  19
ATOM     19  C   UNL     1      -4.110  -3.689   4.296  1.00  0.00     0.000 C 
BRANCH  19  20
ATOM     20  C   UNL     1      -2.678  -3.888   4.825  1.00  0.00     0.006 C 
BRANCH  20  21
ATOM     21  C   UNL     1      -2.205  -5.341   4.685  1.00  0.00     0.053 C 
BRANCH  21  22
ATOM     22  C   UNL     1      -1.607  -5.862   5.958  1.00  0.00     0.041 C 
ATOM     23  O   UNL     1      -0.565  -6.571   5.924  1.00  0.00    -0.550 OA
ATOM     24  O   UNL     1      -2.188  -5.549   7.182  1.00  0.00    -0.550 OA
ENDBRANCH  21  22
ENDBRANCH  20  21
ENDBRANCH  19  20
ENDBRANCH  18  19
ENDBRANCH  17  18
ENDBRANCH  16  17
ENDBRANCH  15  16
ENDBRANCH  14  15
ENDBRANCH  13  14
ENDBRANCH   1  13
TORSDOF 20
ENDMDL
MODEL 6
REMARK VINA RESULT:    -3.837      5.008      7.061
REMARK INTER + INTRA:         -10.649
REMARK INTER:                  -6.264
REMARK INTRA:                  -4.385
REMARK UNBOUND:                -2.325
REMARK SMILES CCCCCCCCCCCCCCCCCCCCCC(=O)[O-]
REMARK SMILES IDX 12 1 11 2 10 3 9 4 8 5 7 6 6 7 5 8 4 9 3 10 2 11 1 12 13 13
REMARK SMILES IDX 14 14 15 15 16 16 17 17 18 18 19 19 20 20 21 21 22 22 23 23
REMARK SMILES IDX 24 24
REMARK H PARENT
REMARK Flexibility Score: inf
ROOT
ATOM      1  C   UNL     1      -7.270   3.359  -0.921  1.00  0.00     0.000 C 
ENDROOT
BRANCH   1   2
ATOM      2  C   UNL     1      -6.143   2.325  -1.089  1.00  0.00     0.000 C 
BRANCH   2   3
ATOM      3  C   UNL     1      -6.071   1.251   0.012  1.00  0.00     0.000 C 
BRANCH   3   4
ATOM      4  C   UNL     1      -4.641   1.016   0.530  1.00  0.00    -0.000 C 
BRANCH   4   5
ATOM      5  C   UNL     1      -3.636   2.060   0.011  1.00  0.00    -0.000 C 
BRANCH   5   6
ATOM      6  C   UNL     1      -3.133   3.065   1.066  1.00  0.00    -0.000 C 
BRANCH   6   7
ATOM      7  C   UNL     1      -3.714   4.477   0.876  1.00  0.00    -0.000 C 
BRANCH   7   8
ATOM      8  C   UNL     1      -4.831   4.790   1.886  1.00  0.00    -0.000 C 
BRANCH   8   9
ATOM      9  C   UNL     1      -4.818   3.829   3.089  1.00  0.00    -0.000 C 
BRANCH   9  10
ATOM     10  C   UNL     1      -6.166   3.115   3.289  1.00  0.00    -0.000 C 
BRANCH  10  11
ATOM     11  C   UNL     1      -7.335   3.856   2.623  1.00  0.00    -0.003 C 
ATOM     12  C   UNL     1      -8.574   2.969   2.552  1.00  0.00     0.004 C 
ENDBRANCH  10  11
ENDBRANCH   9  10
ENDBRANCH   8   9
ENDBRANCH   7   8
ENDBRANCH   6   7
ENDBRANCH   5   6
ENDBRANCH   4   5
ENDBRANCH   3   4
ENDBRANCH   2   3
ENDBRANCH   1   2
BRANCH   1  13
ATOM     13  C   UNL     1      -6.886   4.758  -1.433  1.00  0.00     0.000 C 
BRANCH  13  14
ATOM     14  C   UNL     1      -7.463   5.881  -0.543  1.00  0.00     0.000 C 
BRANCH  14  15
ATOM     15  C   UNL     1      -6.696   7.208  -0.654  1.00  0.00     0.000 C 
BRANCH  15  16
ATOM     16  C   UNL     1      -6.817   7.852  -2.044  1.00  0.00     0.000 C 
BRANCH  16  17
ATOM     17  C   UNL     1      -5.458   7.984  -2.753  1.00  0.00     0.000 C 
BRANCH  17  18
ATOM     18  C   UNL     1      -4.276   7.996  -1.768  1.00  0.00     0.000 C 
BRANCH  18  19
ATOM     19  C   UNL     1      -3.327   6.803  -1.968  1.00  0.00     0.000 C 
BRANCH  19  20
ATOM     20  C   UNL     1      -3.794   5.856  -3.088  1.00  0.00     0.006 C 
BRANCH  20  21
ATOM     21  C   UNL     1      -3.292   4.420  -2.881  1.00  0.00     0.053 C 
BRANCH  21  22
ATOM     22  C   UNL     1      -2.090   4.118  -3.725  1.00  0.00     0.041 C 
ATOM     23  O   UNL     1      -1.398   3.090  -3.497  1.00  0.00    -0.550 OA
ATOM     24  O   UNL     1      -1.746   4.959  -4.777  1.00  0.00    -0.550 OA
ENDBRANCH  21  22
ENDBRANCH  20  21
ENDBRANCH  19  20
ENDBRANCH  18  19
ENDBRANCH  17  18
ENDBRANCH  16  17
ENDBRANCH  15  16
ENDBRANCH  14  15
ENDBRANCH  13  14
ENDBRANCH   1  13
TORSDOF 20
ENDMDL
MODEL 7
REMARK VINA RESULT:    -3.819      5.042      7.420
REMARK INTER + INTRA:         -10.610
REMARK INTER:                  -6.523
REMARK INTRA:                  -4.087
REMARK UNBOUND:                -2.325
REMARK SMILES CCCCCCCCCCCCCCCCCCCCCC(=O)[O-]
REMARK SMILES IDX 12 1 11 2 10 3 9 4 8 5 7 6 6 7 5 8 4 9 3 10 2 11 1 12 13 13
REMARK SMILES IDX 14 14 15 15 16 16 17 17 18 18 19 19 20 20 21 21 22 22 23 23
REMARK SMILES IDX 24 24
REMARK H PARENT
REMARK Flexibility Score: inf
ROOT
ATOM      1  C   UNL     1      -6.172   2.286  -1.128  1.00  0.00     0.000 C 
ENDROOT
BRANCH   1   2
ATOM      2  C   UNL     1      -6.042   1.415   0.135  1.00  0.00     0.000 C 
BRANCH   2   3
ATOM      3  C   UNL     1      -4.599   1.130   0.588  1.00  0.00     0.000 C 
BRANCH   3   4
ATOM      4  C   UNL     1      -3.591   2.176   0.080  1.00  0.00    -0.000 C 
BRANCH   4   5
ATOM      5  C   UNL     1      -3.054   3.086   1.200  1.00  0.00    -0.000 C 
BRANCH   5   6
ATOM      6  C   UNL     1      -4.056   4.128   1.734  1.00  0.00    -0.000 C 
BRANCH   6   7
ATOM      7  C   UNL     1      -4.599   3.779   3.130  1.00  0.00    -0.000 C 
BRANCH   7   8
ATOM      8  C   UNL     1      -6.134   3.854   3.195  1.00  0.00    -0.000 C 
BRANCH   8   9
ATOM      9  C   UNL     1      -6.739   4.549   1.961  1.00  0.00    -0.000 C 
BRANCH   9  10
ATOM     10  C   UNL     1      -7.564   5.794   2.330  1.00  0.00    -0.000 C 
BRANCH  10  11
ATOM     11  C   UNL     1      -6.766   6.812   3.156  1.00  0.00    -0.003 C 
ATOM     12  C   UNL     1      -5.701   7.495   2.302  1.00  0.00     0.004 C 
ENDBRANCH  10  11
ENDBRANCH   9  10
ENDBRANCH   8   9
ENDBRANCH   7   8
ENDBRANCH   6   7
ENDBRANCH   5   6
ENDBRANCH   4   5
ENDBRANCH   3   4
ENDBRANCH   2   3
ENDBRANCH   1   2
BRANCH   1  13
ATOM     13  C   UNL     1      -7.544   2.971  -1.251  1.00  0.00     0.000 C 
BRANCH  13  14
ATOM     14  C   UNL     1      -7.728   3.660  -2.620  1.00  0.00     0.000 C 
BRANCH  14  15
ATOM     15  C   UNL     1      -8.315   5.078  -2.520  1.00  0.00     0.000 C 
BRANCH  15  16
ATOM     16  C   UNL     1      -7.597   5.948  -1.475  1.00  0.00     0.000 C 
BRANCH  16  17
ATOM     17  C   UNL     1      -6.227   6.446  -1.963  1.00  0.00     0.000 C 
BRANCH  17  18
ATOM     18  C   UNL     1      -5.084   6.062  -1.007  1.00  0.00     0.000 C 
BRANCH  18  19
ATOM     19  C   UNL     1      -3.805   5.645  -1.752  1.00  0.00     0.000 C 
BRANCH  19  20
ATOM     20  C   UNL     1      -4.052   4.512  -2.765  1.00  0.00     0.006 C 
BRANCH  20  21
ATOM     21  C   UNL     1      -3.534   4.864  -4.166  1.00  0.00     0.053 C 
BRANCH  21  22
ATOM     22  C   UNL     1      -2.287   4.105  -4.511  1.00  0.00     0.041 C 
ATOM     23  O   UNL     1      -1.587   3.589  -3.600  1.00  0.00    -0.550 OA
ATOM     24  O   UNL     1      -1.910   3.950  -5.841  1.00  0.00    -0.550 OA
ENDBRANCH  21  22
ENDBRANCH  20  21
ENDBRANCH  19  20
ENDBRANCH  18  19
ENDBRANCH  17  18
ENDBRANCH  16  17
ENDBRANCH  15  16
ENDBRANCH  14  15
ENDBRANCH  13  14
ENDBRANCH   1  13
TORSDOF 20
ENDMDL
MODEL 8
REMARK VINA RESULT:    -3.745      4.122      6.219
REMARK INTER + INTRA:         -10.449
REMARK INTER:                  -7.209
REMARK INTRA:                  -3.239
REMARK UNBOUND:                -2.325
REMARK SMILES CCCCCCCCCCCCCCCCCCCCCC(=O)[O-]
REMARK SMILES IDX 12 1 11 2 10 3 9 4 8 5 7 6 6 7 5 8 4 9 3 10 2 11 1 12 13 13
REMARK SMILES IDX 14 14 15 15 16 16 17 17 18 18 19 19 20 20 21 21 22 22 23 23
REMARK SMILES IDX 24 24
REMARK H PARENT
REMARK Flexibility Score: inf
ROOT
ATOM      1  C   UNL     1      -4.847   1.763   0.332  1.00  0.00     0.000 C 
ENDROOT
BRANCH   1   2
ATOM      2  C   UNL     1      -5.693   2.173  -0.886  1.00  0.00     0.000 C 
BRANCH   2   3
ATOM      3  C   UNL     1      -7.211   2.241  -0.637  1.00  0.00     0.000 C 
BRANCH   3   4
ATOM      4  C   UNL     1      -7.566   2.538   0.830  1.00  0.00    -0.000 C 
BRANCH   4   5
ATOM      5  C   UNL     1      -8.472   1.462   1.458  1.00  0.00    -0.000 C 
BRANCH   5   6
ATOM      6  C   UNL     1      -9.643   0.993   0.573  1.00  0.00    -0.000 C 
BRANCH   6   7
ATOM      7  C   UNL     1      -9.654  -0.529   0.348  1.00  0.00    -0.000 C 
BRANCH   7   8
ATOM      8  C   UNL     1      -8.662  -0.965  -0.744  1.00  0.00    -0.000 C 
BRANCH   8   9
ATOM      9  C   UNL     1      -8.085  -2.368  -0.484  1.00  0.00    -0.000 C 
BRANCH   9  10
ATOM     10  C   UNL     1      -7.418  -2.486   0.897  1.00  0.00    -0.000 C 
BRANCH  10  11
ATOM     11  C   UNL     1      -6.327  -1.430   1.122  1.00  0.00    -0.003 C 
ATOM     12  C   UNL     1      -5.025  -1.835   0.438  1.00  0.00     0.004 C 
ENDBRANCH  10  11
ENDBRANCH   9  10
ENDBRANCH   8   9
ENDBRANCH   7   8
ENDBRANCH   6   7
ENDBRANCH   5   6
ENDBRANCH   4   5
ENDBRANCH   3   4
ENDBRANCH   2   3
ENDBRANCH   1   2
BRANCH   1  13
ATOM     13  C   UNL     1      -3.405   2.295   0.272  1.00  0.00     0.000 C 
BRANCH  13  14
ATOM     14  C   UNL     1      -3.071   3.206   1.472  1.00  0.00     0.000 C 
BRANCH  14  15
ATOM     15  C   UNL     1      -4.311   3.828   2.136  1.00  0.00     0.000 C 
BRANCH  15  16
ATOM     16  C   UNL     1      -4.460   5.328   1.832  1.00  0.00     0.000 C 
BRANCH  16  17
ATOM     17  C   UNL     1      -5.218   5.591   0.520  1.00  0.00     0.000 C 
BRANCH  17  18
ATOM     18  C   UNL     1      -4.292   6.073  -0.611  1.00  0.00     0.000 C 
BRANCH  18  19
ATOM     19  C   UNL     1      -4.674   5.484  -1.979  1.00  0.00     0.000 C 
BRANCH  19  20
ATOM     20  C   UNL     1      -3.565   4.597  -2.573  1.00  0.00     0.006 C 
BRANCH  20  21
ATOM     21  C   UNL     1      -2.998   5.173  -3.877  1.00  0.00     0.053 C 
BRANCH  21  22
ATOM     22  C   UNL     1      -1.924   4.301  -4.456  1.00  0.00     0.041 C 
ATOM     23  O   UNL     1      -0.766   4.309  -3.959  1.00  0.00    -0.550 OA
ATOM     24  O   UNL     1      -2.206   3.465  -5.530  1.00  0.00    -0.550 OA
ENDBRANCH  21  22
ENDBRANCH  20  21
ENDBRANCH  19  20
ENDBRANCH  18  19
ENDBRANCH  17  18
ENDBRANCH  16  17
ENDBRANCH  15  16
ENDBRANCH  14  15
ENDBRANCH  13  14
ENDBRANCH   1  13
TORSDOF 20
ENDMDL
MODEL 9
REMARK VINA RESULT:    -3.724      3.505      6.579
REMARK INTER + INTRA:         -10.405
REMARK INTER:                  -7.228
REMARK INTRA:                  -3.177
REMARK UNBOUND:                -2.325
REMARK SMILES CCCCCCCCCCCCCCCCCCCCCC(=O)[O-]
REMARK SMILES IDX 12 1 11 2 10 3 9 4 8 5 7 6 6 7 5 8 4 9 3 10 2 11 1 12 13 13
REMARK SMILES IDX 14 14 15 15 16 16 17 17 18 18 19 19 20 20 21 21 22 22 23 23
REMARK SMILES IDX 24 24
REMARK H PARENT
REMARK Flexibility Score: inf
ROOT
ATOM      1  C   UNL     1      -7.843  -1.474   0.565  1.00  0.00     0.000 C 
ENDROOT
BRANCH   1   2
ATOM      2  C   UNL     1      -6.502  -2.151   0.232  1.00  0.00     0.000 C 
BRANCH   2   3
ATOM      3  C   UNL     1      -5.251  -1.416   0.747  1.00  0.00     0.000 C 
BRANCH   3   4
ATOM      4  C   UNL     1      -5.527   0.050   1.123  1.00  0.00    -0.000 C 
BRANCH   4   5
ATOM      5  C   UNL     1      -5.060   1.045   0.044  1.00  0.00    -0.000 C 
BRANCH   5   6
ATOM      6  C   UNL     1      -3.899   1.968   0.463  1.00  0.00    -0.000 C 
BRANCH   6   7
ATOM      7  C   UNL     1      -3.234   2.676  -0.730  1.00  0.00    -0.000 C 
BRANCH   7   8
ATOM      8  C   UNL     1      -3.818   4.077  -0.978  1.00  0.00    -0.000 C 
BRANCH   8   9
ATOM      9  C   UNL     1      -3.703   4.507  -2.452  1.00  0.00    -0.000 C 
BRANCH   9  10
ATOM     10  C   UNL     1      -5.026   5.055  -3.013  1.00  0.00    -0.000 C 
BRANCH  10  11
ATOM     11  C   UNL     1      -6.254   4.536  -2.250  1.00  0.00    -0.003 C 
ATOM     12  C   UNL     1      -7.351   4.096  -3.215  1.00  0.00     0.004 C 
ENDBRANCH  10  11
ENDBRANCH   9  10
ENDBRANCH   8   9
ENDBRANCH   7   8
ENDBRANCH   6   7
ENDBRANCH   5   6
ENDBRANCH   4   5
ENDBRANCH   3   4
ENDBRANCH   2   3
ENDBRANCH   1   2
BRANCH   1  13
ATOM     13  C   UNL     1      -8.688  -1.163  -0.682  1.00  0.00     0.000 C 
BRANCH  13  14
ATOM     14  C   UNL     1      -9.383   0.212  -0.584  1.00  0.00     0.000 C 
BRANCH  14  15
ATOM     15  C   UNL     1      -8.487   1.386  -1.014  1.00  0.00     0.000 C 
BRANCH  15  16
ATOM     16  C   UNL     1      -8.436   2.511   0.032  1.00  0.00     0.000 C 
BRANCH  16  17
ATOM     17  C   UNL     1      -8.701   2.002   1.459  1.00  0.00     0.000 C 
BRANCH  17  18
ATOM     18  C   UNL     1      -8.051   2.891   2.533  1.00  0.00     0.000 C 
BRANCH  18  19
ATOM     19  C   UNL     1      -6.817   3.646   2.010  1.00  0.00     0.000 C 
BRANCH  19  20
ATOM     20  C   UNL     1      -5.674   3.696   3.039  1.00  0.00     0.006 C 
BRANCH  20  21
ATOM     21  C   UNL     1      -6.192   3.838   4.477  1.00  0.00     0.053 C 
BRANCH  21  22
ATOM     22  C   UNL     1      -5.501   4.945   5.216  1.00  0.00     0.041 C 
ATOM     23  O   UNL     1      -6.161   5.716   5.963  1.00  0.00    -0.550 OA
ATOM     24  O   UNL     1      -4.126   5.112   5.097  1.00  0.00    -0.550 OA
ENDBRANCH  21  22
ENDBRANCH  20  21
ENDBRANCH  19  20
ENDBRANCH  18  19
ENDBRANCH  17  18
ENDBRANCH  16  17
ENDBRANCH  15  16
ENDBRANCH  14  15
ENDBRANCH  13  14
ENDBRANCH   1  13
TORSDOF 20
ENDMDL
