MODEL 1
REMARK VINA RESULT:    -4.767      0.000      0.000
REMARK INTER + INTRA:         -10.427
REMARK INTER:                  -8.669
REMARK INTRA:                  -1.758
REMARK UNBOUND:                -1.758
REMARK SMILES CCCCCCCCCCCCCCCC(=O)[O-]
REMARK SMILES IDX 9 1 10 2 11 3 12 4 13 5 14 6 15 7 16 8 17 9 18 10 8 11 7 12
REMARK SMILES IDX 6 13 5 14 4 15 3 16 2 17 1 18
REMARK H PARENT
REMARK Flexibility Score: inf
ROOT
ATOM      1  C   UNL     1      19.463  27.261  31.905  1.00  0.00     0.000 C 
ENDROOT
BRANCH   1   2
ATOM      2  C   UNL     1      19.473  28.637  31.223  1.00  0.00     0.000 C 
BRANCH   2   3
ATOM      3  C   UNL     1      18.177  28.870  30.437  1.00  0.00     0.000 C 
BRANCH   3   4
ATOM      4  C   UNL     1      18.314  30.075  29.495  1.00  0.00     0.000 C 
BRANCH   4   5
ATOM      5  C   UNL     1      18.483  29.670  28.020  1.00  0.00     0.000 C 
BRANCH   5   6
ATOM      6  C   UNL     1      17.788  28.352  27.621  1.00  0.00     0.006 C 
BRANCH   6   7
ATOM      7  C   UNL     1      18.716  27.313  26.973  1.00  0.00     0.053 C 
BRANCH   7   8
ATOM      8  C   UNL     1      19.307  26.380  27.985  1.00  0.00     0.041 C 
ATOM      9  O   UNL     1      20.551  26.360  28.178  1.00  0.00    -0.550 OA
ATOM     10  O   UNL     1      18.481  25.557  28.739  1.00  0.00    -0.550 OA
ENDBRANCH   7   8
ENDBRANCH   6   7
ENDBRANCH   5   6
ENDBRANCH   4   5
ENDBRANCH   3   4
ENDBRANCH   2   3
ENDBRANCH   1   2
BRANCH   1  11
ATOM     11  C   UNL     1      20.461  27.165  33.073  1.00  0.00     0.000 C 
BRANCH  11  12
ATOM     12  C   UNL     1      19.824  26.919  34.454  1.00  0.00    -0.000 C 
BRANCH  12  13
ATOM     13  C   UNL     1      20.165  27.971  35.530  1.00  0.00    -0.000 C 
BRANCH  13  14
ATOM     14  C   UNL     1      19.139  29.109  35.674  1.00  0.00    -0.000 C 
BRANCH  14  15
ATOM     15  C   UNL     1      17.852  28.858  34.874  1.00  0.00    -0.000 C 
BRANCH  15  16
ATOM     16  C   UNL     1      16.988  30.126  34.813  1.00  0.00    -0.000 C 
BRANCH  16  17
ATOM     17  C   UNL     1      16.656  30.543  33.371  1.00  0.00    -0.003 C 
ATOM     18  C   UNL     1      17.506  31.716  32.884  1.00  0.00     0.004 C 
ENDBRANCH  16  17
ENDBRANCH  15  16
ENDBRANCH  14  15
ENDBRANCH  13  14
ENDBRANCH  12  13
ENDBRANCH  11  12
ENDBRANCH   1  11
TORSDOF 14
ENDMDL
MODEL 2
REMARK VINA RESULT:    -4.749      3.142      7.122
REMARK INTER + INTRA:         -10.393
REMARK INTER:                  -9.097
REMARK INTRA:                  -1.296
REMARK UNBOUND:                -1.758
REMARK SMILES CCCCCCCCCCCCCCCC(=O)[O-]
REMARK SMILES IDX 9 1 10 2 11 3 12 4 13 5 14 6 15 7 16 8 17 9 18 10 8 11 7 12
REMARK SMILES IDX 6 13 5 14 4 15 3 16 2 17 1 18
REMARK H PARENT
REMARK Flexibility Score: inf
ROOT
ATOM      1  C   UNL     1      19.536  28.435  31.358  1.00  0.00     0.000 C 
ENDROOT
BRANCH   1   2
ATOM      2  C   UNL     1      19.525  27.240  32.322  1.00  0.00     0.000 C 
BRANCH   2   3
ATOM      3  C   UNL     1      20.098  27.634  33.690  1.00  0.00     0.000 C 
BRANCH   3   4
ATOM      4  C   UNL     1      18.975  27.860  34.712  1.00  0.00     0.000 C 
BRANCH   4   5
ATOM      5  C   UNL     1      18.564  29.338  34.836  1.00  0.00     0.000 C 
BRANCH   5   6
ATOM      6  C   UNL     1      17.050  29.608  34.715  1.00  0.00     0.006 C 
BRANCH   6   7
ATOM      7  C   UNL     1      16.635  30.352  33.437  1.00  0.00     0.053 C 
BRANCH   7   8
ATOM      8  C   UNL     1      16.916  31.820  33.526  1.00  0.00     0.041 C 
ATOM      9  O   UNL     1      16.525  32.480  34.524  1.00  0.00    -0.550 OA
ATOM     10  O   UNL     1      17.639  32.453  32.523  1.00  0.00    -0.550 OA
ENDBRANCH   7   8
ENDBRANCH   6   7
ENDBRANCH   5   6
ENDBRANCH   4   5
ENDBRANCH   3   4
ENDBRANCH   2   3
ENDBRANCH   1   2
BRANCH   1  11
ATOM     11  C   UNL     1      18.232  28.562  30.549  1.00  0.00     0.000 C 
BRANCH  11  12
ATOM     12  C   UNL     1      18.306  29.516  29.341  1.00  0.00    -0.000 C 
BRANCH  12  13
ATOM     13  C   UNL     1      18.278  28.828  27.960  1.00  0.00    -0.000 C 
BRANCH  13  14
ATOM     14  C   UNL     1      17.606  27.443  27.938  1.00  0.00    -0.000 C 
BRANCH  14  15
ATOM     15  C   UNL     1      18.532  26.339  27.405  1.00  0.00    -0.000 C 
BRANCH  15  16
ATOM     16  C   UNL     1      18.776  25.264  28.474  1.00  0.00    -0.000 C 
BRANCH  16  17
ATOM     17  C   UNL     1      18.962  23.863  27.870  1.00  0.00    -0.003 C 
ATOM     18  C   UNL     1      18.844  22.750  28.910  1.00  0.00     0.004 C 
ENDBRANCH  16  17
ENDBRANCH  15  16
ENDBRANCH  14  15
ENDBRANCH  13  14
ENDBRANCH  12  13
ENDBRANCH  11  12
ENDBRANCH   1  11
TORSDOF 14
ENDMDL
MODEL 3
REMARK VINA RESULT:    -4.669      1.571      3.549
REMARK INTER + INTRA:         -10.248
REMARK INTER:                  -8.232
REMARK INTRA:                  -2.016
REMARK UNBOUND:                -1.758
REMARK SMILES CCCCCCCCCCCCCCCC(=O)[O-]
REMARK SMILES IDX 9 1 10 2 11 3 12 4 13 5 14 6 15 7 16 8 17 9 18 10 8 11 7 12
REMARK SMILES IDX 6 13 5 14 4 15 3 16 2 17 1 18
REMARK H PARENT
REMARK Flexibility Score: inf
ROOT
ATOM      1  C   UNL     1      19.532  28.670  35.522  1.00  0.00     0.000 C 
ENDROOT
BRANCH   1   2
ATOM      2  C   UNL     1      20.155  28.430  34.139  1.00  0.00     0.000 C 
BRANCH   2   3
ATOM      3  C   UNL     1      19.863  27.008  33.645  1.00  0.00     0.000 C 
BRANCH   3   4
ATOM      4  C   UNL     1      19.603  26.994  32.132  1.00  0.00     0.000 C 
BRANCH   4   5
ATOM      5  C   UNL     1      19.323  28.394  31.557  1.00  0.00     0.000 C 
BRANCH   5   6
ATOM      6  C   UNL     1      18.065  28.498  30.672  1.00  0.00     0.006 C 
BRANCH   6   7
ATOM      7  C   UNL     1      18.352  28.628  29.168  1.00  0.00     0.053 C 
BRANCH   7   8
ATOM      8  C   UNL     1      17.988  27.383  28.418  1.00  0.00     0.041 C 
ATOM      9  O   UNL     1      18.312  26.254  28.871  1.00  0.00    -0.550 OA
ATOM     10  O   UNL     1      17.262  27.468  27.237  1.00  0.00    -0.550 OA
ENDBRANCH   7   8
ENDBRANCH   6   7
ENDBRANCH   5   6
ENDBRANCH   4   5
ENDBRANCH   3   4
ENDBRANCH   2   3
ENDBRANCH   1   2
BRANCH   1  11
ATOM     11  C   UNL     1      18.414  29.727  35.499  1.00  0.00     0.000 C 
BRANCH  11  12
ATOM     12  C   UNL     1      17.176  29.347  34.664  1.00  0.00    -0.000 C 
BRANCH  12  13
ATOM     13  C   UNL     1      16.755  30.386  33.605  1.00  0.00    -0.000 C 
BRANCH  13  14
ATOM     14  C   UNL     1      17.872  31.348  33.159  1.00  0.00    -0.000 C 
BRANCH  14  15
ATOM     15  C   UNL     1      17.481  32.826  33.307  1.00  0.00    -0.000 C 
BRANCH  15  16
ATOM     16  C   UNL     1      16.066  32.963  33.889  1.00  0.00    -0.000 C 
BRANCH  16  17
ATOM     17  C   UNL     1      16.062  33.626  35.275  1.00  0.00    -0.003 C 
ATOM     18  C   UNL     1      15.909  32.618  36.413  1.00  0.00     0.004 C 
ENDBRANCH  16  17
ENDBRANCH  15  16
ENDBRANCH  14  15
ENDBRANCH  13  14
ENDBRANCH  12  13
ENDBRANCH  11  12
ENDBRANCH   1  11
TORSDOF 14
ENDMDL
MODEL 4
REMARK VINA RESULT:    -4.634      2.727      6.406
REMARK INTER + INTRA:         -10.185
REMARK INTER:                  -8.410
REMARK INTRA:                  -1.775
REMARK UNBOUND:                -1.758
REMARK SMILES CCCCCCCCCCCCCCCC(=O)[O-]
REMARK SMILES IDX 9 1 10 2 11 3 12 4 13 5 14 6 15 7 16 8 17 9 18 10 8 11 7 12
REMARK SMILES IDX 6 13 5 14 4 15 3 16 2 17 1 18
REMARK H PARENT
REMARK Flexibility Score: inf
ROOT
ATOM      1  C   UNL     1      20.484  26.849  32.744  1.00  0.00     0.000 C 
ENDROOT
BRANCH   1   2
ATOM      2  C   UNL     1      19.889  27.031  34.148  1.00  0.00     0.000 C 
BRANCH   2   3
ATOM      3  C   UNL     1      20.251  28.406  34.723  1.00  0.00     0.000 C 
BRANCH   3   4
ATOM      4  C   UNL     1      19.071  29.004  35.503  1.00  0.00     0.000 C 
BRANCH   4   5
ATOM      5  C   UNL     1      17.722  28.824  34.784  1.00  0.00     0.000 C 
BRANCH   5   6
ATOM      6  C   UNL     1      16.820  30.075  34.763  1.00  0.00     0.006 C 
BRANCH   6   7
ATOM      7  C   UNL     1      16.668  30.727  33.380  1.00  0.00     0.053 C 
BRANCH   7   8
ATOM      8  C   UNL     1      17.713  31.771  33.134  1.00  0.00     0.041 C 
ATOM      9  O   UNL     1      18.021  32.094  31.956  1.00  0.00    -0.550 OA
ATOM     10  O   UNL     1      18.323  32.413  34.204  1.00  0.00    -0.550 OA
ENDBRANCH   7   8
ENDBRANCH   6   7
ENDBRANCH   5   6
ENDBRANCH   4   5
ENDBRANCH   3   4
ENDBRANCH   2   3
ENDBRANCH   1   2
BRANCH   1  11
ATOM     11  C   UNL     1      19.465  27.122  31.623  1.00  0.00     0.000 C 
BRANCH  11  12
ATOM     12  C   UNL     1      19.329  28.601  31.214  1.00  0.00    -0.000 C 
BRANCH  12  13
ATOM     13  C   UNL     1      18.083  28.935  30.368  1.00  0.00    -0.000 C 
BRANCH  13  14
ATOM     14  C   UNL     1      18.347  29.849  29.156  1.00  0.00    -0.000 C 
BRANCH  14  15
ATOM     15  C   UNL     1      18.689  29.064  27.881  1.00  0.00    -0.000 C 
BRANCH  15  16
ATOM     16  C   UNL     1      17.614  28.008  27.582  1.00  0.00    -0.000 C 
BRANCH  16  17
ATOM     17  C   UNL     1      18.204  26.721  26.983  1.00  0.00    -0.003 C 
ATOM     18  C   UNL     1      18.727  25.759  28.049  1.00  0.00     0.004 C 
ENDBRANCH  16  17
ENDBRANCH  15  16
ENDBRANCH  14  15
ENDBRANCH  13  14
ENDBRANCH  12  13
ENDBRANCH  11  12
ENDBRANCH   1  11
TORSDOF 14
ENDMDL
MODEL 5
REMARK VINA RESULT:    -4.601      2.834      6.987
REMARK INTER + INTRA:         -10.124
REMARK INTER:                  -8.378
REMARK INTRA:                  -1.746
REMARK UNBOUND:                -1.758
REMARK SMILES CCCCCCCCCCCCCCCC(=O)[O-]
REMARK SMILES IDX 9 1 10 2 11 3 12 4 13 5 14 6 15 7 16 8 17 9 18 10 8 11 7 12
REMARK SMILES IDX 6 13 5 14 4 15 3 16 2 17 1 18
REMARK H PARENT
REMARK Flexibility Score: inf
ROOT
ATOM      1  C   UNL     1      18.393  30.734  30.582  1.00  0.00     0.000 C 
ENDROOT
BRANCH   1   2
ATOM      2  C   UNL     1      18.126  29.235  30.778  1.00  0.00     0.000 C 
BRANCH   2   3
ATOM      3  C   UNL     1      19.384  28.514  31.278  1.00  0.00     0.000 C 
BRANCH   3   4
ATOM      4  C   UNL     1      19.080  27.683  32.532  1.00  0.00     0.000 C 
BRANCH   4   5
ATOM      5  C   UNL     1      19.322  28.458  33.840  1.00  0.00     0.000 C 
BRANCH   5   6
ATOM      6  C   UNL     1      18.055  28.758  34.666  1.00  0.00     0.006 C 
BRANCH   6   7
ATOM      7  C   UNL     1      17.901  30.228  35.085  1.00  0.00     0.053 C 
BRANCH   7   8
ATOM      8  C   UNL     1      17.044  30.998  34.128  1.00  0.00     0.041 C 
ATOM      9  O   UNL     1      17.153  32.249  34.046  1.00  0.00    -0.550 OA
ATOM     10  O   UNL     1      16.149  30.330  33.303  1.00  0.00    -0.550 OA
ENDBRANCH   7   8
ENDBRANCH   6   7
ENDBRANCH   5   6
ENDBRANCH   4   5
ENDBRANCH   3   4
ENDBRANCH   2   3
ENDBRANCH   1   2
BRANCH   1  11
ATOM     11  C   UNL     1      18.719  31.098  29.122  1.00  0.00     0.000 C 
BRANCH  11  12
ATOM     12  C   UNL     1      18.271  30.058  28.077  1.00  0.00    -0.000 C 
BRANCH  12  13
ATOM     13  C   UNL     1      19.414  29.396  27.280  1.00  0.00    -0.000 C 
BRANCH  13  14
ATOM     14  C   UNL     1      19.177  27.920  26.909  1.00  0.00    -0.000 C 
BRANCH  14  15
ATOM     15  C   UNL     1      17.804  27.403  27.367  1.00  0.00    -0.000 C 
BRANCH  15  16
ATOM     16  C   UNL     1      17.953  26.397  28.518  1.00  0.00    -0.000 C 
BRANCH  16  17
ATOM     17  C   UNL     1      19.205  25.517  28.372  1.00  0.00    -0.003 C 
ATOM     18  C   UNL     1      18.869  24.042  28.153  1.00  0.00     0.004 C 
ENDBRANCH  16  17
ENDBRANCH  15  16
ENDBRANCH  14  15
ENDBRANCH  13  14
ENDBRANCH  12  13
ENDBRANCH  11  12
ENDBRANCH   1  11
TORSDOF 14
ENDMDL
MODEL 6
REMARK VINA RESULT:    -4.598      3.931      6.877
REMARK INTER + INTRA:         -10.120
REMARK INTER:                  -8.398
REMARK INTRA:                  -1.721
REMARK UNBOUND:                -1.758
REMARK SMILES CCCCCCCCCCCCCCCC(=O)[O-]
REMARK SMILES IDX 9 1 10 2 11 3 12 4 13 5 14 6 15 7 16 8 17 9 18 10 8 11 7 12
REMARK SMILES IDX 6 13 5 14 4 15 3 16 2 17 1 18
REMARK H PARENT
REMARK Flexibility Score: inf
ROOT
ATOM      1  C   UNL     1      19.578  28.703  35.565  1.00  0.00     0.000 C 
ENDROOT
BRANCH   1   2
ATOM      2  C   UNL     1      18.641  29.899  35.344  1.00  0.00     0.000 C 
BRANCH   2   3
ATOM      3  C   UNL     1      17.249  29.432  34.904  1.00  0.00     0.000 C 
BRANCH   3   4
ATOM      4  C   UNL     1      16.689  30.338  33.797  1.00  0.00     0.000 C 
BRANCH   4   5
ATOM      5  C   UNL     1      17.171  31.795  33.913  1.00  0.00     0.000 C 
BRANCH   5   6
ATOM      6  C   UNL     1      16.060  32.832  34.179  1.00  0.00     0.006 C 
BRANCH   6   7
ATOM      7  C   UNL     1      16.179  33.562  35.526  1.00  0.00     0.053 C 
BRANCH   7   8
ATOM      8  C   UNL     1      16.264  32.607  36.676  1.00  0.00     0.041 C 
ATOM      9  O   UNL     1      15.278  31.881  36.971  1.00  0.00    -0.550 OA
ATOM     10  O   UNL     1      17.443  32.492  37.401  1.00  0.00    -0.550 OA
ENDBRANCH   7   8
ENDBRANCH   6   7
ENDBRANCH   5   6
ENDBRANCH   4   5
ENDBRANCH   3   4
ENDBRANCH   2   3
ENDBRANCH   1   2
BRANCH   1  11
ATOM     11  C   UNL     1      19.214  27.489  34.692  1.00  0.00     0.000 C 
BRANCH  11  12
ATOM     12  C   UNL     1      20.179  27.216  33.522  1.00  0.00    -0.000 C 
BRANCH  12  13
ATOM     13  C   UNL     1      19.557  27.344  32.116  1.00  0.00    -0.000 C 
BRANCH  13  14
ATOM     14  C   UNL     1      19.195  28.780  31.694  1.00  0.00    -0.000 C 
BRANCH  14  15
ATOM     15  C   UNL     1      17.978  28.837  30.758  1.00  0.00    -0.000 C 
BRANCH  15  16
ATOM     16  C   UNL     1      17.998  27.669  29.761  1.00  0.00    -0.000 C 
BRANCH  16  17
ATOM     17  C   UNL     1      18.561  28.074  28.390  1.00  0.00    -0.003 C 
ATOM     18  C   UNL     1      17.597  27.775  27.242  1.00  0.00     0.004 C 
ENDBRANCH  16  17
ENDBRANCH  15  16
ENDBRANCH  14  15
ENDBRANCH  13  14
ENDBRANCH  12  13
ENDBRANCH  11  12
ENDBRANCH   1  11
TORSDOF 14
ENDMDL
MODEL 7
REMARK VINA RESULT:    -4.598      3.010      7.078
REMARK INTER + INTRA:         -10.119
REMARK INTER:                  -8.385
REMARK INTRA:                  -1.734
REMARK UNBOUND:                -1.758
REMARK SMILES CCCCCCCCCCCCCCCC(=O)[O-]
REMARK SMILES IDX 9 1 10 2 11 3 12 4 13 5 14 6 15 7 16 8 17 9 18 10 8 11 7 12
REMARK SMILES IDX 6 13 5 14 4 15 3 16 2 17 1 18
REMARK H PARENT
REMARK Flexibility Score: inf
ROOT
ATOM      1  C   UNL     1      19.348  30.127  29.455  1.00  0.00     0.000 C 
ENDROOT
BRANCH   1   2
ATOM      2  C   UNL     1      18.289  30.260  30.559  1.00  0.00     0.000 C 
BRANCH   2   3
ATOM      3  C   UNL     1      17.959  28.893  31.171  1.00  0.00     0.000 C 
BRANCH   3   4
ATOM      4  C   UNL     1      19.189  27.974  31.158  1.00  0.00     0.000 C 
BRANCH   4   5
ATOM      5  C   UNL     1      19.453  27.303  32.518  1.00  0.00     0.000 C 
BRANCH   5   6
ATOM      6  C   UNL     1      19.786  28.271  33.671  1.00  0.00     0.006 C 
BRANCH   6   7
ATOM      7  C   UNL     1      18.832  28.183  34.873  1.00  0.00     0.053 C 
BRANCH   7   8
ATOM      8  C   UNL     1      18.136  29.484  35.133  1.00  0.00     0.041 C 
ATOM      9  O   UNL     1      18.720  30.398  35.771  1.00  0.00    -0.550 OA
ATOM     10  O   UNL     1      16.855  29.699  34.640  1.00  0.00    -0.550 OA
ENDBRANCH   7   8
ENDBRANCH   6   7
ENDBRANCH   5   6
ENDBRANCH   4   5
ENDBRANCH   3   4
ENDBRANCH   2   3
ENDBRANCH   1   2
BRANCH   1  11
ATOM     11  C   UNL     1      18.747  30.190  28.040  1.00  0.00     0.000 C 
BRANCH  11  12
ATOM     12  C   UNL     1      18.825  28.874  27.240  1.00  0.00    -0.000 C 
BRANCH  12  13
ATOM     13  C   UNL     1      17.628  27.920  27.429  1.00  0.00    -0.000 C 
BRANCH  13  14
ATOM     14  C   UNL     1      17.990  26.523  27.965  1.00  0.00    -0.000 C 
BRANCH  14  15
ATOM     15  C   UNL     1      19.501  26.251  27.951  1.00  0.00    -0.000 C 
BRANCH  15  16
ATOM     16  C   UNL     1      19.831  24.948  28.695  1.00  0.00    -0.000 C 
BRANCH  16  17
ATOM     17  C   UNL     1      18.790  23.846  28.441  1.00  0.00    -0.003 C 
ATOM     18  C   UNL     1      19.387  22.612  27.767  1.00  0.00     0.004 C 
ENDBRANCH  16  17
ENDBRANCH  15  16
ENDBRANCH  14  15
ENDBRANCH  13  14
ENDBRANCH  12  13
ENDBRANCH  11  12
ENDBRANCH   1  11
TORSDOF 14
ENDMDL
MODEL 8
REMARK VINA RESULT:    -4.576      2.064      3.291
REMARK INTER + INTRA:         -10.079
REMARK INTER:                  -8.855
REMARK INTRA:                  -1.224
REMARK UNBOUND:                -1.758
REMARK SMILES CCCCCCCCCCCCCCCC(=O)[O-]
REMARK SMILES IDX 9 1 10 2 11 3 12 4 13 5 14 6 15 7 16 8 17 9 18 10 8 11 7 12
REMARK SMILES IDX 6 13 5 14 4 15 3 16 2 17 1 18
REMARK H PARENT
REMARK Flexibility Score: inf
ROOT
ATOM      1  C   UNL     1      18.369  29.521  29.556  1.00  0.00     0.000 C 
ENDROOT
BRANCH   1   2
ATOM      2  C   UNL     1      18.901  28.852  28.280  1.00  0.00     0.000 C 
BRANCH   2   3
ATOM      3  C   UNL     1      17.754  28.261  27.451  1.00  0.00     0.000 C 
BRANCH   3   4
ATOM      4  C   UNL     1      18.053  26.808  27.055  1.00  0.00     0.000 C 
BRANCH   4   5
ATOM      5  C   UNL     1      18.392  25.914  28.261  1.00  0.00     0.000 C 
BRANCH   5   6
ATOM      6  C   UNL     1      19.079  24.578  27.913  1.00  0.00     0.006 C 
BRANCH   6   7
ATOM      7  C   UNL     1      19.193  23.594  29.087  1.00  0.00     0.053 C 
BRANCH   7   8
ATOM      8  C   UNL     1      18.905  22.185  28.668  1.00  0.00     0.041 C 
ATOM      9  O   UNL     1      19.073  21.834  27.470  1.00  0.00    -0.550 OA
ATOM     10  O   UNL     1      18.485  21.251  29.605  1.00  0.00    -0.550 OA
ENDBRANCH   7   8
ENDBRANCH   6   7
ENDBRANCH   5   6
ENDBRANCH   4   5
ENDBRANCH   3   4
ENDBRANCH   2   3
ENDBRANCH   1   2
BRANCH   1  11
ATOM     11  C   UNL     1      18.058  28.512  30.675  1.00  0.00     0.000 C 
BRANCH  11  12
ATOM     12  C   UNL     1      19.291  27.967  31.422  1.00  0.00    -0.000 C 
BRANCH  12  13
ATOM     13  C   UNL     1      19.099  27.752  32.937  1.00  0.00    -0.000 C 
BRANCH  13  14
ATOM     14  C   UNL     1      19.039  29.043  33.774  1.00  0.00    -0.000 C 
BRANCH  14  15
ATOM     15  C   UNL     1      17.871  29.054  34.771  1.00  0.00    -0.000 C 
BRANCH  15  16
ATOM     16  C   UNL     1      16.671  29.826  34.201  1.00  0.00    -0.000 C 
BRANCH  16  17
ATOM     17  C   UNL     1      17.098  30.987  33.290  1.00  0.00    -0.003 C 
ATOM     18  C   UNL     1      16.475  32.321  33.701  1.00  0.00     0.004 C 
ENDBRANCH  16  17
ENDBRANCH  15  16
ENDBRANCH  14  15
ENDBRANCH  13  14
ENDBRANCH  12  13
ENDBRANCH  11  12
ENDBRANCH   1  11
TORSDOF 14
ENDMDL
MODEL 9
REMARK VINA RESULT:    -4.572      1.049      2.846
REMARK INTER + INTRA:         -10.072
REMARK INTER:                  -8.182
REMARK INTRA:                  -1.890
REMARK UNBOUND:                -1.758
REMARK SMILES CCCCCCCCCCCCCCCC(=O)[O-]
REMARK SMILES IDX 9 1 10 2 11 3 12 4 13 5 14 6 15 7 16 8 17 9 18 10 8 11 7 12
REMARK SMILES IDX 6 13 5 14 4 15 3 16 2 17 1 18
REMARK H PARENT
REMARK Flexibility Score: inf
ROOT
ATOM      1  C   UNL     1      18.650  30.664  29.473  1.00  0.00     0.000 C 
ENDROOT
BRANCH   1   2
ATOM      2  C   UNL     1      18.301  30.248  28.036  1.00  0.00     0.000 C 
BRANCH   2   3
ATOM      3  C   UNL     1      19.460  29.479  27.390  1.00  0.00     0.000 C 
BRANCH   3   4
ATOM      4  C   UNL     1      18.955  28.205  26.696  1.00  0.00     0.000 C 
BRANCH   4   5
ATOM      5  C   UNL     1      17.680  27.634  27.342  1.00  0.00     0.000 C 
BRANCH   5   6
ATOM      6  C   UNL     1      17.921  26.582  28.444  1.00  0.00     0.006 C 
BRANCH   6   7
ATOM      7  C   UNL     1      18.889  25.456  28.050  1.00  0.00     0.053 C 
BRANCH   7   8
ATOM      8  C   UNL     1      20.085  25.404  28.950  1.00  0.00     0.041 C 
ATOM      9  O   UNL     1      20.943  26.325  28.917  1.00  0.00    -0.550 OA
ATOM     10  O   UNL     1      20.235  24.356  29.850  1.00  0.00    -0.550 OA
ENDBRANCH   7   8
ENDBRANCH   6   7
ENDBRANCH   5   6
ENDBRANCH   4   5
ENDBRANCH   3   4
ENDBRANCH   2   3
ENDBRANCH   1   2
BRANCH   1  11
ATOM     11  C   UNL     1      18.305  29.579  30.509  1.00  0.00     0.000 C 
BRANCH  11  12
ATOM     12  C   UNL     1      19.506  28.755  31.013  1.00  0.00    -0.000 C 
BRANCH  12  13
ATOM     13  C   UNL     1      19.176  27.716  32.105  1.00  0.00    -0.000 C 
BRANCH  13  14
ATOM     14  C   UNL     1      20.058  27.796  33.364  1.00  0.00    -0.000 C 
BRANCH  14  15
ATOM     15  C   UNL     1      19.250  27.696  34.667  1.00  0.00    -0.000 C 
BRANCH  15  16
ATOM     16  C   UNL     1      18.756  29.080  35.113  1.00  0.00    -0.000 C 
BRANCH  16  17
ATOM     17  C   UNL     1      17.254  29.279  34.859  1.00  0.00    -0.003 C 
ATOM     18  C   UNL     1      16.964  30.428  33.894  1.00  0.00     0.004 C 
ENDBRANCH  16  17
ENDBRANCH  15  16
ENDBRANCH  14  15
ENDBRANCH  13  14
ENDBRANCH  12  13
ENDBRANCH  11  12
ENDBRANCH   1  11
TORSDOF 14
ENDMDL
