MODEL 1
REMARK VINA RESULT:    -5.833      0.000      0.000
REMARK INTER + INTRA:          -9.600
REMARK INTER:                  -8.049
REMARK INTRA:                  -1.551
REMARK UNBOUND:                -1.551
REMARK SMILES CC[C@H](CC[C@@H](C)[C@@H]1CC[C@@H]2[C@@H]3CC=C4C[C@@H](O)CC[C@@]4(C)[C@H]3CC[C@]21C)C(C)C
REMARK SMILES IDX 5 1 4 2 3 3 2 4 1 5 28 6 29 7 30 8 6 9 7 10 8 11 9 12 26 13
REMARK SMILES IDX 10 14 11 15 25 16 27 17 12 18 24 19 23 20 13 21 21 22 14 23
REMARK SMILES IDX 15 24 20 25 22 26 16 27 19 28 17 29 18 30
REMARK H PARENT 18 31
REMARK Flexibility Score: inf
ROOT
ATOM      1  C   UNL     1      10.782   6.019  23.097  1.00  0.00     0.004 C 
ENDROOT
BRANCH   1   2
ATOM      2  C   UNL     1      12.262   6.459  23.087  1.00  0.00     0.004 C 
BRANCH   2   3
ATOM      3  C   UNL     1      12.584   7.549  24.147  1.00  0.00    -0.009 C 
BRANCH   3   4
ATOM      4  C   UNL     1      13.417   7.029  25.365  1.00  0.00     0.000 C 
ATOM      5  C   UNL     1      12.691   6.980  26.719  1.00  0.00     0.004 C 
ENDBRANCH   3   4
BRANCH   3   6
ATOM      6  C   UNL     1      13.155   8.846  23.477  1.00  0.00    -0.014 C 
ATOM      7  C   UNL     1      12.349   9.260  22.230  1.00  0.00     0.007 C 
ATOM      8  C   UNL     1      13.305  10.038  24.432  1.00  0.00     0.007 C 
ENDBRANCH   3   6
ENDBRANCH   2   3
ENDBRANCH   1   2
BRANCH   1   9
ATOM      9  C   UNL     1      10.566   4.758  23.993  1.00  0.00    -0.011 C 
ATOM     10  C   UNL     1      11.848   3.912  24.037  1.00  0.00     0.008 C 
BRANCH   9  11
ATOM     11  C   UNL     1       9.947   4.951  25.430  1.00  0.00    -0.002 C 
ATOM     12  C   UNL     1      10.242   3.818  26.448  1.00  0.00     0.005 C 
ATOM     13  C   UNL     1       8.449   5.340  25.668  1.00  0.00    -0.026 C 
ATOM     14  C   UNL     1       9.149   3.900  27.527  1.00  0.00     0.005 C 
ATOM     15  C   UNL     1       8.397   5.188  27.206  1.00  0.00    -0.001 C 
ATOM     16  C   UNL     1       8.091   6.827  25.324  1.00  0.00     0.007 C 
ATOM     17  C   UNL     1       7.477   4.361  24.940  1.00  0.00     0.012 C 
ATOM     18  C   UNL     1       7.030   5.492  27.892  1.00  0.00     0.000 C 
ATOM     19  C   UNL     1       7.064   7.486  26.298  1.00  0.00     0.005 C 
ATOM     20  C   UNL     1       6.168   6.452  27.039  1.00  0.00     0.003 C 
ATOM     21  C   UNL     1       6.164   4.286  28.278  1.00  0.00     0.031 C 
ATOM     22  C   UNL     1       4.966   7.042  27.871  1.00  0.00    -0.008 C 
ATOM     23  C   UNL     1       4.946   4.764  29.029  1.00  0.00    -0.027 C 
ATOM     24  C   UNL     1       4.398   5.991  28.853  1.00  0.00    -0.065 C 
ATOM     25  C   UNL     1       5.404   8.284  28.706  1.00  0.00     0.014 C 
ATOM     26  C   UNL     1       3.847   7.447  26.875  1.00  0.00     0.016 C 
ATOM     27  C   UNL     1       3.320   6.449  29.816  1.00  0.00     0.063 C 
ATOM     28  C   UNL     1       4.321   8.776  29.692  1.00  0.00     0.033 C 
ATOM     29  C   UNL     1       3.824   7.658  30.625  1.00  0.00     0.118 C 
BRANCH  29  30
ATOM     30  O   UNL     1       4.862   7.274  31.489  1.00  0.00    -0.393 OA
ATOM     31  H   UNL     1       5.120   6.347  31.237  1.00  0.00     0.210 HD
ENDBRANCH  29  30
ENDBRANCH   9  11
ENDBRANCH   1   9
TORSDOF 7
ENDMDL
MODEL 2
REMARK VINA RESULT:    -5.618     13.320     16.145
REMARK INTER + INTRA:          -9.303
REMARK INTER:                  -6.980
REMARK INTRA:                  -2.323
REMARK UNBOUND:                -1.551
REMARK SMILES CC[C@H](CC[C@@H](C)[C@@H]1CC[C@@H]2[C@@H]3CC=C4C[C@@H](O)CC[C@@]4(C)[C@H]3CC[C@]21C)C(C)C
REMARK SMILES IDX 5 1 4 2 3 3 2 4 1 5 28 6 29 7 30 8 6 9 7 10 8 11 9 12 26 13
REMARK SMILES IDX 10 14 11 15 25 16 27 17 12 18 24 19 23 20 13 21 21 22 14 23
REMARK SMILES IDX 15 24 20 25 22 26 16 27 19 28 17 29 18 30
REMARK H PARENT 18 31
REMARK Flexibility Score: inf
ROOT
ATOM      1  C   UNL     1       6.193  -4.766  32.745  1.00  0.00     0.004 C 
ENDROOT
BRANCH   1   2
ATOM      2  C   UNL     1       7.580  -4.595  32.089  1.00  0.00     0.004 C 
BRANCH   2   3
ATOM      3  C   UNL     1       7.940  -5.746  31.108  1.00  0.00    -0.009 C 
BRANCH   3   4
ATOM      4  C   UNL     1       9.311  -6.436  31.408  1.00  0.00     0.000 C 
ATOM      5  C   UNL     1      10.348  -5.595  32.170  1.00  0.00     0.004 C 
ENDBRANCH   3   4
BRANCH   3   6
ATOM      6  C   UNL     1       6.740  -6.738  30.927  1.00  0.00    -0.014 C 
ATOM      7  C   UNL     1       6.220  -6.765  29.477  1.00  0.00     0.007 C 
ATOM      8  C   UNL     1       7.019  -8.165  31.418  1.00  0.00     0.007 C 
ENDBRANCH   3   6
ENDBRANCH   2   3
ENDBRANCH   1   2
BRANCH   1   9
ATOM      9  C   UNL     1       6.311  -5.336  34.194  1.00  0.00    -0.011 C 
ATOM     10  C   UNL     1       5.333  -6.504  34.387  1.00  0.00     0.008 C 
BRANCH   9  11
ATOM     11  C   UNL     1       7.744  -5.680  34.754  1.00  0.00    -0.002 C 
ATOM     12  C   UNL     1       8.056  -7.190  34.925  1.00  0.00     0.005 C 
ATOM     13  C   UNL     1       8.355  -4.987  36.019  1.00  0.00    -0.026 C 
ATOM     14  C   UNL     1       9.195  -7.292  35.953  1.00  0.00     0.005 C 
ATOM     15  C   UNL     1       9.631  -5.847  36.178  1.00  0.00    -0.001 C 
ATOM     16  C   UNL     1       8.806  -3.502  35.803  1.00  0.00     0.007 C 
ATOM     17  C   UNL     1       7.406  -5.098  37.251  1.00  0.00     0.012 C 
ATOM     18  C   UNL     1      10.572  -5.486  37.367  1.00  0.00     0.000 C 
ATOM     19  C   UNL     1      10.114  -3.107  36.558  1.00  0.00     0.005 C 
ATOM     20  C   UNL     1      10.406  -4.008  37.793  1.00  0.00     0.003 C 
ATOM     21  C   UNL     1      10.470  -6.360  38.623  1.00  0.00     0.031 C 
ATOM     22  C   UNL     1      11.585  -3.543  38.730  1.00  0.00    -0.008 C 
ATOM     23  C   UNL     1      11.528  -5.940  39.613  1.00  0.00    -0.027 C 
ATOM     24  C   UNL     1      12.031  -4.682  39.675  1.00  0.00    -0.065 C 
ATOM     25  C   UNL     1      12.830  -3.095  37.905  1.00  0.00     0.014 C 
ATOM     26  C   UNL     1      11.073  -2.357  39.591  1.00  0.00     0.016 C 
ATOM     27  C   UNL     1      13.243  -4.429  40.549  1.00  0.00     0.063 C 
ATOM     28  C   UNL     1      14.080  -2.823  38.773  1.00  0.00     0.033 C 
ATOM     29  C   UNL     1      14.440  -4.018  39.673  1.00  0.00     0.118 C 
BRANCH  29  30
ATOM     30  O   UNL     1      14.860  -5.095  38.876  1.00  0.00    -0.393 OA
ATOM     31  H   UNL     1      14.773  -4.804  37.929  1.00  0.00     0.210 HD
ENDBRANCH  29  30
ENDBRANCH   9  11
ENDBRANCH   1   9
TORSDOF 7
ENDMDL
MODEL 3
REMARK VINA RESULT:    -5.597     14.897     17.487
REMARK INTER + INTRA:          -9.275
REMARK INTER:                  -7.568
REMARK INTRA:                  -1.707
REMARK UNBOUND:                -1.551
REMARK SMILES CC[C@H](CC[C@@H](C)[C@@H]1CC[C@@H]2[C@@H]3CC=C4C[C@@H](O)CC[C@@]4(C)[C@H]3CC[C@]21C)C(C)C
REMARK SMILES IDX 5 1 4 2 3 3 2 4 1 5 28 6 29 7 30 8 6 9 7 10 8 11 9 12 26 13
REMARK SMILES IDX 10 14 11 15 25 16 27 17 12 18 24 19 23 20 13 21 21 22 14 23
REMARK SMILES IDX 15 24 20 25 22 26 16 27 19 28 17 29 18 30
REMARK H PARENT 18 31
REMARK Flexibility Score: inf
ROOT
ATOM      1  C   UNL     1      15.750  -4.014  40.995  1.00  0.00     0.004 C 
ENDROOT
BRANCH   1   2
ATOM      2  C   UNL     1      16.130  -5.265  40.174  1.00  0.00     0.004 C 
BRANCH   2   3
ATOM      3  C   UNL     1      17.621  -5.279  39.733  1.00  0.00    -0.009 C 
BRANCH   3   4
ATOM      4  C   UNL     1      18.429  -6.513  40.253  1.00  0.00     0.000 C 
ATOM      5  C   UNL     1      17.658  -7.518  41.124  1.00  0.00     0.004 C 
ENDBRANCH   3   4
BRANCH   3   6
ATOM      6  C   UNL     1      17.763  -5.011  38.195  1.00  0.00    -0.014 C 
ATOM      7  C   UNL     1      18.090  -3.536  37.889  1.00  0.00     0.007 C 
ATOM      8  C   UNL     1      18.759  -5.935  37.482  1.00  0.00     0.007 C 
ENDBRANCH   3   6
ENDBRANCH   2   3
ENDBRANCH   1   2
BRANCH   1   9
ATOM      9  C   UNL     1      14.789  -3.076  40.199  1.00  0.00    -0.011 C 
ATOM     10  C   UNL     1      15.462  -1.721  39.939  1.00  0.00     0.008 C 
BRANCH   9  11
ATOM     11  C   UNL     1      14.093  -3.638  38.900  1.00  0.00    -0.002 C 
ATOM     12  C   UNL     1      14.394  -2.867  37.588  1.00  0.00     0.005 C 
ATOM     13  C   UNL     1      12.568  -3.989  38.832  1.00  0.00    -0.026 C 
ATOM     14  C   UNL     1      13.249  -3.192  36.613  1.00  0.00     0.005 C 
ATOM     15  C   UNL     1      12.451  -4.284  37.318  1.00  0.00    -0.001 C 
ATOM     16  C   UNL     1      12.156  -5.289  39.604  1.00  0.00     0.007 C 
ATOM     17  C   UNL     1      11.681  -2.784  39.273  1.00  0.00     0.012 C 
ATOM     18  C   UNL     1      11.040  -4.690  36.793  1.00  0.00     0.000 C 
ATOM     19  C   UNL     1      11.052  -6.137  38.897  1.00  0.00     0.005 C 
ATOM     20  C   UNL     1      10.173  -5.309  37.915  1.00  0.00     0.003 C 
ATOM     21  C   UNL     1      10.216  -3.597  36.101  1.00  0.00     0.031 C 
ATOM     22  C   UNL     1       8.907  -6.040  37.328  1.00  0.00    -0.008 C 
ATOM     23  C   UNL     1       8.943  -4.197  35.559  1.00  0.00    -0.027 C 
ATOM     24  C   UNL     1       8.344  -5.286  36.102  1.00  0.00    -0.065 C 
ATOM     25  C   UNL     1       9.243  -7.495  36.878  1.00  0.00     0.014 C 
ATOM     26  C   UNL     1       7.817  -6.072  38.434  1.00  0.00     0.016 C 
ATOM     27  C   UNL     1       7.201  -5.936  35.348  1.00  0.00     0.063 C 
ATOM     28  C   UNL     1       8.092  -8.184  36.112  1.00  0.00     0.033 C 
ATOM     29  C   UNL     1       7.607  -7.355  34.910  1.00  0.00     0.118 C 
BRANCH  29  30
ATOM     30  O   UNL     1       8.620  -7.300  33.939  1.00  0.00    -0.393 OA
ATOM     31  H   UNL     1       8.172  -7.327  33.052  1.00  0.00     0.210 HD
ENDBRANCH  29  30
ENDBRANCH   9  11
ENDBRANCH   1   9
TORSDOF 7
ENDMDL
MODEL 4
REMARK VINA RESULT:    -5.583     10.511     14.443
REMARK INTER + INTRA:          -9.255
REMARK INTER:                  -7.319
REMARK INTRA:                  -1.936
REMARK UNBOUND:                -1.551
REMARK SMILES CC[C@H](CC[C@@H](C)[C@@H]1CC[C@@H]2[C@@H]3CC=C4C[C@@H](O)CC[C@@]4(C)[C@H]3CC[C@]21C)C(C)C
REMARK SMILES IDX 5 1 4 2 3 3 2 4 1 5 28 6 29 7 30 8 6 9 7 10 8 11 9 12 26 13
REMARK SMILES IDX 10 14 11 15 25 16 27 17 12 18 24 19 23 20 13 21 21 22 14 23
REMARK SMILES IDX 15 24 20 25 22 26 16 27 19 28 17 29 18 30
REMARK H PARENT 18 31
REMARK Flexibility Score: inf
ROOT
ATOM      1  C   UNL     1      13.787   6.021  38.702  1.00  0.00     0.004 C 
ENDROOT
BRANCH   1   2
ATOM      2  C   UNL     1      13.304   7.052  37.660  1.00  0.00     0.004 C 
BRANCH   2   3
ATOM      3  C   UNL     1      11.755   7.130  37.547  1.00  0.00    -0.009 C 
BRANCH   3   4
ATOM      4  C   UNL     1      11.147   8.486  38.033  1.00  0.00     0.000 C 
ATOM      5  C   UNL     1      11.993   9.744  37.784  1.00  0.00     0.004 C 
ENDBRANCH   3   4
BRANCH   3   6
ATOM      6  C   UNL     1      11.263   6.666  36.133  1.00  0.00    -0.014 C 
ATOM      7  C   UNL     1      12.340   6.863  35.048  1.00  0.00     0.007 C 
ATOM      8  C   UNL     1      10.722   5.230  36.091  1.00  0.00     0.007 C 
ENDBRANCH   3   6
ENDBRANCH   2   3
ENDBRANCH   1   2
BRANCH   1   9
ATOM      9  C   UNL     1      14.391   4.754  38.017  1.00  0.00    -0.011 C 
ATOM     10  C   UNL     1      13.395   3.588  38.085  1.00  0.00     0.008 C 
BRANCH   9  11
ATOM     11  C   UNL     1      15.016   4.902  36.577  1.00  0.00    -0.002 C 
ATOM     12  C   UNL     1      14.741   3.729  35.600  1.00  0.00     0.005 C 
ATOM     13  C   UNL     1      16.512   5.301  36.332  1.00  0.00    -0.026 C 
ATOM     14  C   UNL     1      15.838   3.785  34.524  1.00  0.00     0.005 C 
ATOM     15  C   UNL     1      16.573   5.093  34.801  1.00  0.00    -0.001 C 
ATOM     16  C   UNL     1      16.849   6.803  36.623  1.00  0.00     0.007 C 
ATOM     17  C   UNL     1      17.490   4.360  37.100  1.00  0.00     0.012 C 
ATOM     18  C   UNL     1      17.940   5.388  34.111  1.00  0.00     0.000 C 
ATOM     19  C   UNL     1      17.875   7.438  35.632  1.00  0.00     0.005 C 
ATOM     20  C   UNL     1      18.787   6.388  34.934  1.00  0.00     0.003 C 
ATOM     21  C   UNL     1      18.823   4.179  33.775  1.00  0.00     0.031 C 
ATOM     22  C   UNL     1      19.986   6.962  34.086  1.00  0.00    -0.008 C 
ATOM     23  C   UNL     1      20.039   4.644  33.012  1.00  0.00    -0.027 C 
ATOM     24  C   UNL     1      20.572   5.883  33.147  1.00  0.00    -0.065 C 
ATOM     25  C   UNL     1      19.538   8.167  33.204  1.00  0.00     0.014 C 
ATOM     26  C   UNL     1      21.094   7.416  35.073  1.00  0.00     0.016 C 
ATOM     27  C   UNL     1      21.650   6.318  32.173  1.00  0.00     0.063 C 
ATOM     28  C   UNL     1      20.621   8.636  32.207  1.00  0.00     0.033 C 
ATOM     29  C   UNL     1      21.136   7.490  31.318  1.00  0.00     0.118 C 
BRANCH  29  30
ATOM     30  O   UNL     1      20.107   7.063  30.463  1.00  0.00    -0.393 OA
ATOM     31  H   UNL     1      19.560   7.864  30.247  1.00  0.00     0.210 HD
ENDBRANCH  29  30
ENDBRANCH   9  11
ENDBRANCH   1   9
TORSDOF 7
ENDMDL
MODEL 5
REMARK VINA RESULT:    -5.559      0.918      2.053
REMARK INTER + INTRA:          -9.222
REMARK INTER:                  -7.391
REMARK INTRA:                  -1.831
REMARK UNBOUND:                -1.551
REMARK SMILES CC[C@H](CC[C@@H](C)[C@@H]1CC[C@@H]2[C@@H]3CC=C4C[C@@H](O)CC[C@@]4(C)[C@H]3CC[C@]21C)C(C)C
REMARK SMILES IDX 5 1 4 2 3 3 2 4 1 5 28 6 29 7 30 8 6 9 7 10 8 11 9 12 26 13
REMARK SMILES IDX 10 14 11 15 25 16 27 17 12 18 24 19 23 20 13 21 21 22 14 23
REMARK SMILES IDX 15 24 20 25 22 26 16 27 19 28 17 29 18 30
REMARK H PARENT 18 31
REMARK Flexibility Score: inf
ROOT
ATOM      1  C   UNL     1      11.457   4.963  23.824  1.00  0.00     0.004 C 
ENDROOT
BRANCH   1   2
ATOM      2  C   UNL     1      12.728   4.869  24.696  1.00  0.00     0.004 C 
BRANCH   2   3
ATOM      3  C   UNL     1      12.958   6.127  25.580  1.00  0.00    -0.009 C 
BRANCH   3   4
ATOM      4  C   UNL     1      12.233   7.413  25.063  1.00  0.00     0.000 C 
ATOM      5  C   UNL     1      13.132   8.536  24.524  1.00  0.00     0.004 C 
ENDBRANCH   3   4
BRANCH   3   6
ATOM      6  C   UNL     1      12.717   5.810  27.096  1.00  0.00    -0.014 C 
ATOM      7  C   UNL     1      13.134   4.372  27.463  1.00  0.00     0.007 C 
ATOM      8  C   UNL     1      13.362   6.814  28.062  1.00  0.00     0.007 C 
ENDBRANCH   3   6
ENDBRANCH   2   3
ENDBRANCH   1   2
BRANCH   1   9
ATOM      9  C   UNL     1      10.329   4.021  24.353  1.00  0.00    -0.011 C 
ATOM     10  C   UNL     1      10.766   2.553  24.242  1.00  0.00     0.008 C 
BRANCH   9  11
ATOM     11  C   UNL     1       9.687   4.331  25.759  1.00  0.00    -0.002 C 
ATOM     12  C   UNL     1       9.802   3.201  26.816  1.00  0.00     0.005 C 
ATOM     13  C   UNL     1       8.240   4.908  25.929  1.00  0.00    -0.026 C 
ATOM     14  C   UNL     1       8.690   3.448  27.849  1.00  0.00     0.005 C 
ATOM     15  C   UNL     1       8.115   4.808  27.467  1.00  0.00    -0.001 C 
ATOM     16  C   UNL     1       8.083   6.417  25.534  1.00  0.00     0.007 C 
ATOM     17  C   UNL     1       7.182   4.034  25.188  1.00  0.00     0.012 C 
ATOM     18  C   UNL     1       6.772   5.298  28.091  1.00  0.00     0.000 C 
ATOM     19  C   UNL     1       7.110   7.225  26.450  1.00  0.00     0.005 C 
ATOM     20  C   UNL     1       6.066   6.331  27.180  1.00  0.00     0.003 C 
ATOM     21  C   UNL     1       5.750   4.219  28.471  1.00  0.00     0.031 C 
ATOM     22  C   UNL     1       4.918   7.088  27.950  1.00  0.00    -0.008 C 
ATOM     23  C   UNL     1       4.574   4.865  29.162  1.00  0.00    -0.027 C 
ATOM     24  C   UNL     1       4.189   6.145  28.934  1.00  0.00    -0.065 C 
ATOM     25  C   UNL     1       5.476   8.291  28.770  1.00  0.00     0.014 C 
ATOM     26  C   UNL     1       3.895   7.598  26.900  1.00  0.00     0.016 C 
ATOM     27  C   UNL     1       3.142   6.759  29.842  1.00  0.00     0.063 C 
ATOM     28  C   UNL     1       4.427   8.942  29.700  1.00  0.00     0.033 C 
ATOM     29  C   UNL     1       3.762   7.920  30.640  1.00  0.00     0.118 C 
BRANCH  29  30
ATOM     30  O   UNL     1       4.713   7.437  31.554  1.00  0.00    -0.393 OA
ATOM     31  H   UNL     1       4.990   8.209  32.116  1.00  0.00     0.210 HD
ENDBRANCH  29  30
ENDBRANCH   9  11
ENDBRANCH   1   9
TORSDOF 7
ENDMDL
MODEL 6
REMARK VINA RESULT:    -5.510     10.925     12.515
REMARK INTER + INTRA:          -9.155
REMARK INTER:                  -7.380
REMARK INTRA:                  -1.774
REMARK UNBOUND:                -1.551
REMARK SMILES CC[C@H](CC[C@@H](C)[C@@H]1CC[C@@H]2[C@@H]3CC=C4C[C@@H](O)CC[C@@]4(C)[C@H]3CC[C@]21C)C(C)C
REMARK SMILES IDX 5 1 4 2 3 3 2 4 1 5 28 6 29 7 30 8 6 9 7 10 8 11 9 12 26 13
REMARK SMILES IDX 10 14 11 15 25 16 27 17 12 18 24 19 23 20 13 21 21 22 14 23
REMARK SMILES IDX 15 24 20 25 22 26 16 27 19 28 17 29 18 30
REMARK H PARENT 18 31
REMARK Flexibility Score: inf
ROOT
ATOM      1  C   UNL     1      16.956   3.937  33.429  1.00  0.00     0.004 C 
ENDROOT
BRANCH   1   2
ATOM      2  C   UNL     1      17.763   5.248  33.551  1.00  0.00     0.004 C 
BRANCH   2   3
ATOM      3  C   UNL     1      19.209   5.030  34.076  1.00  0.00    -0.009 C 
BRANCH   3   4
ATOM      4  C   UNL     1      20.256   4.719  32.956  1.00  0.00     0.000 C 
ATOM      5  C   UNL     1      19.916   5.219  31.543  1.00  0.00     0.004 C 
ENDBRANCH   3   4
BRANCH   3   6
ATOM      6  C   UNL     1      19.634   6.171  35.064  1.00  0.00    -0.014 C 
ATOM      7  C   UNL     1      21.038   6.723  34.747  1.00  0.00     0.007 C 
ATOM      8  C   UNL     1      18.624   7.320  35.175  1.00  0.00     0.007 C 
ENDBRANCH   3   6
ENDBRANCH   2   3
ENDBRANCH   1   2
BRANCH   1   9
ATOM      9  C   UNL     1      16.286   3.550  34.785  1.00  0.00    -0.011 C 
ATOM     10  C   UNL     1      16.951   2.294  35.368  1.00  0.00     0.008 C 
BRANCH   9  11
ATOM     11  C   UNL     1      16.098   4.669  35.880  1.00  0.00    -0.002 C 
ATOM     12  C   UNL     1      17.014   4.551  37.127  1.00  0.00     0.005 C 
ATOM     13  C   UNL     1      14.696   5.093  36.436  1.00  0.00    -0.026 C 
ATOM     14  C   UNL     1      16.325   5.337  38.255  1.00  0.00     0.005 C 
ATOM     15  C   UNL     1      15.158   6.040  37.569  1.00  0.00    -0.001 C 
ATOM     16  C   UNL     1      13.819   5.930  35.443  1.00  0.00     0.007 C 
ATOM     17  C   UNL     1      13.896   3.867  36.974  1.00  0.00     0.012 C 
ATOM     18  C   UNL     1      14.035   6.712  38.418  1.00  0.00     0.000 C 
ATOM     19  C   UNL     1      12.982   7.063  36.118  1.00  0.00     0.005 C 
ATOM     20  C   UNL     1      12.708   6.808  37.629  1.00  0.00     0.003 C 
ATOM     21  C   UNL     1      13.733   6.088  39.786  1.00  0.00     0.031 C 
ATOM     22  C   UNL     1      11.693   7.791  38.326  1.00  0.00    -0.008 C 
ATOM     23  C   UNL     1      12.713   6.934  40.507  1.00  0.00    -0.027 C 
ATOM     24  C   UNL     1      11.791   7.695  39.867  1.00  0.00    -0.065 C 
ATOM     25  C   UNL     1      11.962   9.273  37.924  1.00  0.00     0.014 C 
ATOM     26  C   UNL     1      10.258   7.383  37.895  1.00  0.00     0.016 C 
ATOM     27  C   UNL     1      10.967   8.673  40.680  1.00  0.00     0.063 C 
ATOM     28  C   UNL     1      11.129  10.292  38.734  1.00  0.00     0.033 C 
ATOM     29  C   UNL     1      11.299  10.115  40.253  1.00  0.00     0.118 C 
BRANCH  29  30
ATOM     30  O   UNL     1      12.614  10.446  40.619  1.00  0.00    -0.393 OA
ATOM     31  H   UNL     1      12.549  11.099  41.366  1.00  0.00     0.210 HD
ENDBRANCH  29  30
ENDBRANCH   9  11
ENDBRANCH   1   9
TORSDOF 7
ENDMDL
MODEL 7
REMARK VINA RESULT:    -5.503      2.772      8.139
REMARK INTER + INTRA:          -9.145
REMARK INTER:                  -7.079
REMARK INTRA:                  -2.066
REMARK UNBOUND:                -1.551
REMARK SMILES CC[C@H](CC[C@@H](C)[C@@H]1CC[C@@H]2[C@@H]3CC=C4C[C@@H](O)CC[C@@]4(C)[C@H]3CC[C@]21C)C(C)C
REMARK SMILES IDX 5 1 4 2 3 3 2 4 1 5 28 6 29 7 30 8 6 9 7 10 8 11 9 12 26 13
REMARK SMILES IDX 10 14 11 15 25 16 27 17 12 18 24 19 23 20 13 21 21 22 14 23
REMARK SMILES IDX 15 24 20 25 22 26 16 27 19 28 17 29 18 30
REMARK H PARENT 18 31
REMARK Flexibility Score: inf
ROOT
ATOM      1  C   UNL     1       3.255   5.480  27.001  1.00  0.00     0.004 C 
ENDROOT
BRANCH   1   2
ATOM      2  C   UNL     1       3.304   6.532  28.131  1.00  0.00     0.004 C 
BRANCH   2   3
ATOM      3  C   UNL     1       4.708   6.664  28.785  1.00  0.00    -0.009 C 
BRANCH   3   4
ATOM      4  C   UNL     1       5.378   8.063  28.581  1.00  0.00     0.000 C 
ATOM      5  C   UNL     1       4.996   8.825  27.302  1.00  0.00     0.004 C 
ENDBRANCH   3   4
BRANCH   3   6
ATOM      6  C   UNL     1       4.697   6.159  30.269  1.00  0.00    -0.014 C 
ATOM      7  C   UNL     1       3.279   5.786  30.745  1.00  0.00     0.007 C 
ATOM      8  C   UNL     1       5.673   5.009  30.552  1.00  0.00     0.007 C 
ENDBRANCH   3   6
ENDBRANCH   2   3
ENDBRANCH   1   2
BRANCH   1   9
ATOM      9  C   UNL     1       4.451   4.481  27.097  1.00  0.00    -0.011 C 
ATOM     10  C   UNL     1       3.950   3.091  27.514  1.00  0.00     0.008 C 
BRANCH   9  11
ATOM     11  C   UNL     1       5.461   4.397  25.889  1.00  0.00    -0.002 C 
ATOM     12  C   UNL     1       5.323   3.146  24.982  1.00  0.00     0.005 C 
ATOM     13  C   UNL     1       7.003   4.623  26.048  1.00  0.00    -0.026 C 
ATOM     14  C   UNL     1       6.672   2.970  24.265  1.00  0.00     0.005 C 
ATOM     15  C   UNL     1       7.457   4.228  24.624  1.00  0.00    -0.001 C 
ATOM     16  C   UNL     1       7.429   6.112  26.289  1.00  0.00     0.007 C 
ATOM     17  C   UNL     1       7.610   3.695  27.145  1.00  0.00     0.012 C 
ATOM     18  C   UNL     1       8.987   4.310  24.331  1.00  0.00     0.000 C 
ATOM     19  C   UNL     1       8.757   6.526  25.580  1.00  0.00     0.005 C 
ATOM     20  C   UNL     1       9.691   5.320  25.268  1.00  0.00     0.003 C 
ATOM     21  C   UNL     1       9.773   2.994  24.370  1.00  0.00     0.031 C 
ATOM     22  C   UNL     1      11.137   5.674  24.752  1.00  0.00    -0.008 C 
ATOM     23  C   UNL     1      11.199   3.249  23.949  1.00  0.00    -0.027 C 
ATOM     24  C   UNL     1      11.822   4.441  24.120  1.00  0.00    -0.065 C 
ATOM     25  C   UNL     1      11.100   6.802  23.676  1.00  0.00     0.014 C 
ATOM     26  C   UNL     1      11.979   6.140  25.971  1.00  0.00     0.016 C 
ATOM     27  C   UNL     1      13.171   4.655  23.461  1.00  0.00     0.063 C 
ATOM     28  C   UNL     1      12.465   7.045  22.992  1.00  0.00     0.033 C 
ATOM     29  C   UNL     1      13.060   5.758  22.394  1.00  0.00     0.118 C 
BRANCH  29  30
ATOM     30  O   UNL     1      12.261   5.328  21.321  1.00  0.00    -0.393 OA
ATOM     31  H   UNL     1      11.332   5.620  21.519  1.00  0.00     0.210 HD
ENDBRANCH  29  30
ENDBRANCH   9  11
ENDBRANCH   1   9
TORSDOF 7
ENDMDL
MODEL 8
REMARK VINA RESULT:    -5.466     11.317     13.310
REMARK INTER + INTRA:          -9.094
REMARK INTER:                  -7.047
REMARK INTRA:                  -2.047
REMARK UNBOUND:                -1.551
REMARK SMILES CC[C@H](CC[C@@H](C)[C@@H]1CC[C@@H]2[C@@H]3CC=C4C[C@@H](O)CC[C@@]4(C)[C@H]3CC[C@]21C)C(C)C
REMARK SMILES IDX 5 1 4 2 3 3 2 4 1 5 28 6 29 7 30 8 6 9 7 10 8 11 9 12 26 13
REMARK SMILES IDX 10 14 11 15 25 16 27 17 12 18 24 19 23 20 13 21 21 22 14 23
REMARK SMILES IDX 15 24 20 25 22 26 16 27 19 28 17 29 18 30
REMARK H PARENT 18 31
REMARK Flexibility Score: inf
ROOT
ATOM      1  C   UNL     1      21.855   5.522  35.023  1.00  0.00     0.004 C 
ENDROOT
BRANCH   1   2
ATOM      2  C   UNL     1      21.771   6.558  33.881  1.00  0.00     0.004 C 
BRANCH   2   3
ATOM      3  C   UNL     1      20.354   6.662  33.250  1.00  0.00    -0.009 C 
BRANCH   3   4
ATOM      4  C   UNL     1      19.678   8.061  33.427  1.00  0.00     0.000 C 
ATOM      5  C   UNL     1      20.070   8.858  34.681  1.00  0.00     0.004 C 
ENDBRANCH   3   4
BRANCH   3   6
ATOM      6  C   UNL     1      20.343   6.115  31.781  1.00  0.00    -0.014 C 
ATOM      7  C   UNL     1      21.759   5.781  31.273  1.00  0.00     0.007 C 
ATOM      8  C   UNL     1      19.403   4.922  31.559  1.00  0.00     0.007 C 
ENDBRANCH   3   6
ENDBRANCH   2   3
ENDBRANCH   1   2
BRANCH   1   9
ATOM      9  C   UNL     1      20.651   4.528  34.983  1.00  0.00    -0.011 C 
ATOM     10  C   UNL     1      21.136   3.120  34.610  1.00  0.00     0.008 C 
BRANCH   9  11
ATOM     11  C   UNL     1      19.660   4.495  36.210  1.00  0.00    -0.002 C 
ATOM     12  C   UNL     1      19.829   3.297  37.180  1.00  0.00     0.005 C 
ATOM     13  C   UNL     1      18.113   4.691  36.062  1.00  0.00    -0.026 C 
ATOM     14  C   UNL     1      18.494   3.142  37.927  1.00  0.00     0.005 C 
ATOM     15  C   UNL     1      17.685   4.368  37.513  1.00  0.00    -0.001 C 
ATOM     16  C   UNL     1      17.661   6.159  35.748  1.00  0.00     0.007 C 
ATOM     17  C   UNL     1      17.503   3.697  35.027  1.00  0.00     0.012 C 
ATOM     18  C   UNL     1      16.159   4.445  37.824  1.00  0.00     0.000 C 
ATOM     19  C   UNL     1      16.338   6.592  36.454  1.00  0.00     0.005 C 
ATOM     20  C   UNL     1      15.427   5.392  36.844  1.00  0.00     0.003 C 
ATOM     21  C   UNL     1      15.392   3.117  37.868  1.00  0.00     0.031 C 
ATOM     22  C   UNL     1      13.983   5.754  37.363  1.00  0.00    -0.008 C 
ATOM     23  C   UNL     1      13.969   3.375  38.296  1.00  0.00    -0.027 C 
ATOM     24  C   UNL     1      13.325   4.547  38.071  1.00  0.00    -0.065 C 
ATOM     25  C   UNL     1      14.019   6.938  38.377  1.00  0.00     0.014 C 
ATOM     26  C   UNL     1      13.117   6.141  36.134  1.00  0.00     0.016 C 
ATOM     27  C   UNL     1      11.984   4.778  38.738  1.00  0.00     0.063 C 
ATOM     28  C   UNL     1      12.661   7.200  39.067  1.00  0.00     0.033 C 
ATOM     29  C   UNL     1      12.094   5.939  39.743  1.00  0.00     0.118 C 
BRANCH  29  30
ATOM     30  O   UNL     1      12.915   5.578  40.825  1.00  0.00    -0.393 OA
ATOM     31  H   UNL     1      12.334   5.111  41.483  1.00  0.00     0.210 HD
ENDBRANCH  29  30
ENDBRANCH   9  11
ENDBRANCH   1   9
TORSDOF 7
ENDMDL
MODEL 9
REMARK VINA RESULT:    -5.412     10.491     14.747
REMARK INTER + INTRA:          -9.019
REMARK INTER:                  -7.261
REMARK INTRA:                  -1.758
REMARK UNBOUND:                -1.551
REMARK SMILES CC[C@H](CC[C@@H](C)[C@@H]1CC[C@@H]2[C@@H]3CC=C4C[C@@H](O)CC[C@@]4(C)[C@H]3CC[C@]21C)C(C)C
REMARK SMILES IDX 5 1 4 2 3 3 2 4 1 5 28 6 29 7 30 8 6 9 7 10 8 11 9 12 26 13
REMARK SMILES IDX 10 14 11 15 25 16 27 17 12 18 24 19 23 20 13 21 21 22 14 23
REMARK SMILES IDX 15 24 20 25 22 26 16 27 19 28 17 29 18 30
REMARK H PARENT 18 31
REMARK Flexibility Score: inf
ROOT
ATOM      1  C   UNL     1       9.683  -3.923  21.059  1.00  0.00     0.004 C 
ENDROOT
BRANCH   1   2
ATOM      2  C   UNL     1       9.274  -5.249  21.734  1.00  0.00     0.004 C 
BRANCH   2   3
ATOM      3  C   UNL     1       7.782  -5.280  22.171  1.00  0.00    -0.009 C 
BRANCH   3   4
ATOM      4  C   UNL     1       6.925  -6.365  21.439  1.00  0.00     0.000 C 
ATOM      5  C   UNL     1       7.677  -7.608  20.938  1.00  0.00     0.004 C 
ENDBRANCH   3   4
BRANCH   3   6
ATOM      6  C   UNL     1       7.645  -5.288  23.732  1.00  0.00    -0.014 C 
ATOM      7  C   UNL     1       7.285  -3.898  24.292  1.00  0.00     0.007 C 
ATOM      8  C   UNL     1       6.678  -6.348  24.277  1.00  0.00     0.007 C 
ENDBRANCH   3   6
ENDBRANCH   2   3
ENDBRANCH   1   2
BRANCH   1   9
ATOM      9  C   UNL     1      10.440  -2.985  22.053  1.00  0.00    -0.011 C 
ATOM     10  C   UNL     1       9.572  -1.768  22.402  1.00  0.00     0.008 C 
BRANCH   9  11
ATOM     11  C   UNL     1      11.094  -3.621  23.339  1.00  0.00    -0.002 C 
ATOM     12  C   UNL     1      10.840  -2.862  24.668  1.00  0.00     0.005 C 
ATOM     13  C   UNL     1      12.593  -4.071  23.402  1.00  0.00    -0.026 C 
ATOM     14  C   UNL     1      11.958  -3.283  25.637  1.00  0.00     0.005 C 
ATOM     15  C   UNL     1      12.686  -4.408  24.908  1.00  0.00    -0.001 C 
ATOM     16  C   UNL     1      12.923  -5.377  22.600  1.00  0.00     0.007 C 
ATOM     17  C   UNL     1      13.558  -2.917  22.990  1.00  0.00     0.012 C 
ATOM     18  C   UNL     1      14.066  -4.917  25.426  1.00  0.00     0.000 C 
ATOM     19  C   UNL     1      13.967  -6.312  23.289  1.00  0.00     0.005 C 
ATOM     20  C   UNL     1      14.894  -5.565  24.291  1.00  0.00     0.003 C 
ATOM     21  C   UNL     1      14.957  -3.895  26.144  1.00  0.00     0.031 C 
ATOM     22  C   UNL     1      16.109  -6.390  24.863  1.00  0.00    -0.008 C 
ATOM     23  C   UNL     1      16.187  -4.590  26.674  1.00  0.00    -0.027 C 
ATOM     24  C   UNL     1      16.715  -5.702  26.108  1.00  0.00    -0.065 C 
ATOM     25  C   UNL     1      15.677  -7.830  25.279  1.00  0.00     0.014 C 
ATOM     26  C   UNL     1      17.197  -6.468  23.759  1.00  0.00     0.016 C 
ATOM     27  C   UNL     1      17.812  -6.442  26.848  1.00  0.00     0.063 C 
ATOM     28  C   UNL     1      16.779  -8.610  26.031  1.00  0.00     0.033 C 
ATOM     29  C   UNL     1      17.313  -7.842  27.252  1.00  0.00     0.118 C 
BRANCH  29  30
ATOM     30  O   UNL     1      16.302  -7.743  28.223  1.00  0.00    -0.393 OA
ATOM     31  H   UNL     1      16.708  -8.010  29.090  1.00  0.00     0.210 HD
ENDBRANCH  29  30
ENDBRANCH   9  11
ENDBRANCH   1   9
TORSDOF 7
ENDMDL
