MODEL 1
REMARK VINA RESULT:    -4.184      0.000      0.000
REMARK INTER + INTRA:          -8.880
REMARK INTER:                  -7.608
REMARK INTRA:                  -1.272
REMARK UNBOUND:                -1.272
REMARK SMILES CCCCCCCCCCCCCCCC(=O)[O-]
REMARK SMILES IDX 9 1 10 2 11 3 12 4 13 5 14 6 15 7 16 8 17 9 18 10 8 11 7 12
REMARK SMILES IDX 6 13 5 14 4 15 3 16 2 17 1 18
REMARK H PARENT
REMARK Flexibility Score: inf
ROOT
ATOM      1  C   UNL     1      10.879  63.103   8.933  1.00  0.00     0.000 C 
ENDROOT
BRANCH   1   2
ATOM      2  C   UNL     1      11.531  62.079   7.981  1.00  0.00     0.000 C 
BRANCH   2   3
ATOM      3  C   UNL     1      12.690  62.627   7.125  1.00  0.00     0.000 C 
BRANCH   3   4
ATOM      4  C   UNL     1      13.354  63.904   7.672  1.00  0.00     0.000 C 
BRANCH   4   5
ATOM      5  C   UNL     1      13.334  65.064   6.666  1.00  0.00     0.000 C 
BRANCH   5   6
ATOM      6  C   UNL     1      12.575  64.675   5.392  1.00  0.00     0.006 C 
BRANCH   6   7
ATOM      7  C   UNL     1      11.493  65.705   5.060  1.00  0.00     0.053 C 
BRANCH   7   8
ATOM      8  C   UNL     1      11.254  65.757   3.584  1.00  0.00     0.041 C 
ATOM      9  O   UNL     1      12.225  65.828   2.787  1.00  0.00    -0.550 OA
ATOM     10  O   UNL     1       9.955  65.771   3.091  1.00  0.00    -0.550 OA
ENDBRANCH   7   8
ENDBRANCH   6   7
ENDBRANCH   5   6
ENDBRANCH   4   5
ENDBRANCH   3   4
ENDBRANCH   2   3
ENDBRANCH   1   2
BRANCH   1  11
ATOM     11  C   UNL     1       9.415  63.447   8.606  1.00  0.00     0.000 C 
BRANCH  11  12
ATOM     12  C   UNL     1       9.123  64.954   8.697  1.00  0.00    -0.000 C 
BRANCH  12  13
ATOM     13  C   UNL     1       7.624  65.258   8.841  1.00  0.00    -0.000 C 
BRANCH  13  14
ATOM     14  C   UNL     1       6.750  63.998   8.703  1.00  0.00    -0.000 C 
BRANCH  14  15
ATOM     15  C   UNL     1       5.260  64.345   8.494  1.00  0.00    -0.000 C 
BRANCH  15  16
ATOM     16  C   UNL     1       4.921  65.814   8.800  1.00  0.00    -0.000 C 
BRANCH  16  17
ATOM     17  C   UNL     1       4.198  66.513   7.642  1.00  0.00    -0.003 C 
ATOM     18  C   UNL     1       5.171  66.877   6.525  1.00  0.00     0.004 C 
ENDBRANCH  16  17
ENDBRANCH  15  16
ENDBRANCH  14  15
ENDBRANCH  13  14
ENDBRANCH  12  13
ENDBRANCH  11  12
ENDBRANCH   1  11
TORSDOF 14
ENDMDL
MODEL 2
REMARK VINA RESULT:    -4.152      0.815      1.819
REMARK INTER + INTRA:          -8.823
REMARK INTER:                  -7.645
REMARK INTRA:                  -1.177
REMARK UNBOUND:                -1.272
REMARK SMILES CCCCCCCCCCCCCCCC(=O)[O-]
REMARK SMILES IDX 9 1 10 2 11 3 12 4 13 5 14 6 15 7 16 8 17 9 18 10 8 11 7 12
REMARK SMILES IDX 6 13 5 14 4 15 3 16 2 17 1 18
REMARK H PARENT
REMARK Flexibility Score: inf
ROOT
ATOM      1  C   UNL     1      11.634  62.069   7.864  1.00  0.00     0.000 C 
ENDROOT
BRANCH   1   2
ATOM      2  C   UNL     1      12.704  62.607   6.891  1.00  0.00     0.000 C 
BRANCH   2   3
ATOM      3  C   UNL     1      13.396  63.911   7.333  1.00  0.00     0.000 C 
BRANCH   3   4
ATOM      4  C   UNL     1      13.208  65.102   6.375  1.00  0.00     0.000 C 
BRANCH   4   5
ATOM      5  C   UNL     1      11.734  65.375   6.045  1.00  0.00     0.000 C 
BRANCH   5   6
ATOM      6  C   UNL     1      11.602  66.206   4.763  1.00  0.00     0.006 C 
BRANCH   6   7
ATOM      7  C   UNL     1      12.039  65.400   3.538  1.00  0.00     0.053 C 
BRANCH   7   8
ATOM      8  C   UNL     1      12.047  66.265   2.317  1.00  0.00     0.041 C 
ATOM      9  O   UNL     1      11.015  66.904   1.987  1.00  0.00    -0.550 OA
ATOM     10  O   UNL     1      13.182  66.329   1.519  1.00  0.00    -0.550 OA
ENDBRANCH   7   8
ENDBRANCH   6   7
ENDBRANCH   5   6
ENDBRANCH   4   5
ENDBRANCH   3   4
ENDBRANCH   2   3
ENDBRANCH   1   2
BRANCH   1  11
ATOM     11  C   UNL     1      11.092  63.105   8.864  1.00  0.00     0.000 C 
BRANCH  11  12
ATOM     12  C   UNL     1       9.585  63.361   8.698  1.00  0.00    -0.000 C 
BRANCH  12  13
ATOM     13  C   UNL     1       9.245  64.857   8.619  1.00  0.00    -0.000 C 
BRANCH  13  14
ATOM     14  C   UNL     1       7.752  65.138   8.868  1.00  0.00    -0.000 C 
BRANCH  14  15
ATOM     15  C   UNL     1       6.878  63.887   8.636  1.00  0.00    -0.000 C 
BRANCH  15  16
ATOM     16  C   UNL     1       5.383  64.204   8.471  1.00  0.00    -0.000 C 
BRANCH  16  17
ATOM     17  C   UNL     1       5.092  65.710   8.436  1.00  0.00    -0.003 C 
ATOM     18  C   UNL     1       4.453  66.117   7.112  1.00  0.00     0.004 C 
ENDBRANCH  16  17
ENDBRANCH  15  16
ENDBRANCH  14  15
ENDBRANCH  13  14
ENDBRANCH  12  13
ENDBRANCH  11  12
ENDBRANCH   1  11
TORSDOF 14
ENDMDL
MODEL 3
REMARK VINA RESULT:    -4.137      2.691      6.337
REMARK INTER + INTRA:          -8.794
REMARK INTER:                  -7.216
REMARK INTRA:                  -1.578
REMARK UNBOUND:                -1.272
REMARK SMILES CCCCCCCCCCCCCCCC(=O)[O-]
REMARK SMILES IDX 9 1 10 2 11 3 12 4 13 5 14 6 15 7 16 8 17 9 18 10 8 11 7 12
REMARK SMILES IDX 6 13 5 14 4 15 3 16 2 17 1 18
REMARK H PARENT
REMARK Flexibility Score: inf
ROOT
ATOM      1  C   UNL     1      11.246  62.855   8.773  1.00  0.00     0.000 C 
ENDROOT
BRANCH   1   2
ATOM      2  C   UNL     1       9.940  63.557   8.346  1.00  0.00     0.000 C 
BRANCH   2   3
ATOM      3  C   UNL     1       9.828  65.039   8.757  1.00  0.00     0.000 C 
BRANCH   3   4
ATOM      4  C   UNL     1       9.392  65.993   7.630  1.00  0.00     0.000 C 
BRANCH   4   5
ATOM      5  C   UNL     1       8.154  66.824   7.998  1.00  0.00     0.000 C 
BRANCH   5   6
ATOM      6  C   UNL     1       7.273  66.080   9.008  1.00  0.00     0.006 C 
BRANCH   6   7
ATOM      7  C   UNL     1       5.915  65.726   8.397  1.00  0.00     0.053 C 
BRANCH   7   8
ATOM      8  C   UNL     1       5.612  64.274   8.600  1.00  0.00     0.041 C 
ATOM      9  O   UNL     1       4.483  63.916   9.024  1.00  0.00    -0.550 OA
ATOM     10  O   UNL     1       6.594  63.321   8.363  1.00  0.00    -0.550 OA
ENDBRANCH   7   8
ENDBRANCH   6   7
ENDBRANCH   5   6
ENDBRANCH   4   5
ENDBRANCH   3   4
ENDBRANCH   2   3
ENDBRANCH   1   2
BRANCH   1  11
ATOM     11  C   UNL     1      11.871  61.946   7.700  1.00  0.00     0.000 C 
BRANCH  11  12
ATOM     12  C   UNL     1      12.777  62.715   6.724  1.00  0.00    -0.000 C 
BRANCH  12  13
ATOM     13  C   UNL     1      13.439  63.940   7.372  1.00  0.00    -0.000 C 
BRANCH  13  14
ATOM     14  C   UNL     1      13.214  65.230   6.563  1.00  0.00    -0.000 C 
BRANCH  14  15
ATOM     15  C   UNL     1      12.314  64.995   5.331  1.00  0.00    -0.000 C 
BRANCH  15  16
ATOM     16  C   UNL     1      12.067  66.265   4.499  1.00  0.00    -0.000 C 
BRANCH  16  17
ATOM     17  C   UNL     1      11.516  65.963   3.099  1.00  0.00    -0.003 C 
ATOM     18  C   UNL     1       9.990  65.952   3.099  1.00  0.00     0.004 C 
ENDBRANCH  16  17
ENDBRANCH  15  16
ENDBRANCH  14  15
ENDBRANCH  13  14
ENDBRANCH  12  13
ENDBRANCH  11  12
ENDBRANCH   1  11
TORSDOF 14
ENDMDL
MODEL 4
REMARK VINA RESULT:    -4.050      2.864      4.424
REMARK INTER + INTRA:          -8.637
REMARK INTER:                  -6.276
REMARK INTRA:                  -2.361
REMARK UNBOUND:                -1.272
REMARK SMILES CCCCCCCCCCCCCCCC(=O)[O-]
REMARK SMILES IDX 9 1 10 2 11 3 12 4 13 5 14 6 15 7 16 8 17 9 18 10 8 11 7 12
REMARK SMILES IDX 6 13 5 14 4 15 3 16 2 17 1 18
REMARK H PARENT
REMARK Flexibility Score: inf
ROOT
ATOM      1  C   UNL     1      12.677  62.599   6.872  1.00  0.00     0.000 C 
ENDROOT
BRANCH   1   2
ATOM      2  C   UNL     1      13.579  63.717   7.434  1.00  0.00     0.000 C 
BRANCH   2   3
ATOM      3  C   UNL     1      13.587  65.024   6.617  1.00  0.00     0.000 C 
BRANCH   3   4
ATOM      4  C   UNL     1      12.500  65.118   5.531  1.00  0.00     0.000 C 
BRANCH   4   5
ATOM      5  C   UNL     1      11.945  66.540   5.364  1.00  0.00     0.000 C 
BRANCH   5   6
ATOM      6  C   UNL     1      11.175  66.679   4.046  1.00  0.00     0.006 C 
BRANCH   6   7
ATOM      7  C   UNL     1      11.831  65.852   2.937  1.00  0.00     0.053 C 
BRANCH   7   8
ATOM      8  C   UNL     1      12.391  66.748   1.877  1.00  0.00     0.041 C 
ATOM      9  O   UNL     1      13.468  66.449   1.299  1.00  0.00    -0.550 OA
ATOM     10  O   UNL     1      11.746  67.937   1.561  1.00  0.00    -0.550 OA
ENDBRANCH   7   8
ENDBRANCH   6   7
ENDBRANCH   5   6
ENDBRANCH   4   5
ENDBRANCH   3   4
ENDBRANCH   2   3
ENDBRANCH   1   2
BRANCH   1  11
ATOM     11  C   UNL     1      11.700  61.984   7.890  1.00  0.00     0.000 C 
BRANCH  11  12
ATOM     12  C   UNL     1      11.131  63.022   8.871  1.00  0.00    -0.000 C 
BRANCH  12  13
ATOM     13  C   UNL     1       9.873  63.719   8.330  1.00  0.00    -0.000 C 
BRANCH  13  14
ATOM     14  C   UNL     1      10.019  65.251   8.285  1.00  0.00    -0.000 C 
BRANCH  14  15
ATOM     15  C   UNL     1      10.862  65.789   9.461  1.00  0.00    -0.000 C 
BRANCH  15  16
ATOM     16  C   UNL     1      11.733  67.001   9.089  1.00  0.00    -0.000 C 
BRANCH  16  17
ATOM     17  C   UNL     1      13.102  66.987   9.781  1.00  0.00    -0.003 C 
ATOM     18  C   UNL     1      13.283  65.723  10.615  1.00  0.00     0.004 C 
ENDBRANCH  16  17
ENDBRANCH  15  16
ENDBRANCH  14  15
ENDBRANCH  13  14
ENDBRANCH  12  13
ENDBRANCH  11  12
ENDBRANCH   1  11
TORSDOF 14
ENDMDL
MODEL 5
REMARK VINA RESULT:    -4.008      1.362      2.295
REMARK INTER + INTRA:          -8.559
REMARK INTER:                  -6.898
REMARK INTRA:                  -1.661
REMARK UNBOUND:                -1.272
REMARK SMILES CCCCCCCCCCCCCCCC(=O)[O-]
REMARK SMILES IDX 9 1 10 2 11 3 12 4 13 5 14 6 15 7 16 8 17 9 18 10 8 11 7 12
REMARK SMILES IDX 6 13 5 14 4 15 3 16 2 17 1 18
REMARK H PARENT
REMARK Flexibility Score: inf
ROOT
ATOM      1  C   UNL     1      11.537  62.062   7.881  1.00  0.00     0.000 C 
ENDROOT
BRANCH   1   2
ATOM      2  C   UNL     1      12.684  62.588   6.995  1.00  0.00     0.000 C 
BRANCH   2   3
ATOM      3  C   UNL     1      13.474  63.775   7.581  1.00  0.00     0.000 C 
BRANCH   3   4
ATOM      4  C   UNL     1      13.413  65.069   6.748  1.00  0.00     0.000 C 
BRANCH   4   5
ATOM      5  C   UNL     1      12.564  64.921   5.477  1.00  0.00     0.000 C 
BRANCH   5   6
ATOM      6  C   UNL     1      11.714  66.174   5.235  1.00  0.00     0.006 C 
BRANCH   6   7
ATOM      7  C   UNL     1      10.859  66.023   3.974  1.00  0.00     0.053 C 
BRANCH   7   8
ATOM      8  C   UNL     1       9.668  66.927   4.037  1.00  0.00     0.041 C 
ATOM      9  O   UNL     1       9.499  67.683   5.028  1.00  0.00    -0.550 OA
ATOM     10  O   UNL     1       8.722  66.901   3.021  1.00  0.00    -0.550 OA
ENDBRANCH   7   8
ENDBRANCH   6   7
ENDBRANCH   5   6
ENDBRANCH   4   5
ENDBRANCH   3   4
ENDBRANCH   2   3
ENDBRANCH   1   2
BRANCH   1  11
ATOM     11  C   UNL     1      11.060  63.040   8.970  1.00  0.00     0.000 C 
BRANCH  11  12
ATOM     12  C   UNL     1       9.815  63.838   8.549  1.00  0.00    -0.000 C 
BRANCH  12  13
ATOM     13  C   UNL     1      10.088  65.346   8.440  1.00  0.00    -0.000 C 
BRANCH  13  14
ATOM     14  C   UNL     1       8.805  66.162   8.199  1.00  0.00    -0.000 C 
BRANCH  14  15
ATOM     15  C   UNL     1       7.644  65.704   9.108  1.00  0.00    -0.000 C 
BRANCH  15  16
ATOM     16  C   UNL     1       6.274  65.721   8.411  1.00  0.00    -0.000 C 
BRANCH  16  17
ATOM     17  C   UNL     1       5.512  64.398   8.560  1.00  0.00    -0.003 C 
ATOM     18  C   UNL     1       6.450  63.204   8.414  1.00  0.00     0.004 C 
ENDBRANCH  16  17
ENDBRANCH  15  16
ENDBRANCH  14  15
ENDBRANCH  13  14
ENDBRANCH  12  13
ENDBRANCH  11  12
ENDBRANCH   1  11
TORSDOF 14
ENDMDL
MODEL 6
REMARK VINA RESULT:    -4.007      3.732      6.279
REMARK INTER + INTRA:          -8.558
REMARK INTER:                  -6.541
REMARK INTRA:                  -2.016
REMARK UNBOUND:                -1.272
REMARK SMILES CCCCCCCCCCCCCCCC(=O)[O-]
REMARK SMILES IDX 9 1 10 2 11 3 12 4 13 5 14 6 15 7 16 8 17 9 18 10 8 11 7 12
REMARK SMILES IDX 6 13 5 14 4 15 3 16 2 17 1 18
REMARK H PARENT
REMARK Flexibility Score: inf
ROOT
ATOM      1  C   UNL     1      12.664  62.561   7.132  1.00  0.00     0.000 C 
ENDROOT
BRANCH   1   2
ATOM      2  C   UNL     1      11.534  61.928   7.970  1.00  0.00     0.000 C 
BRANCH   2   3
ATOM      3  C   UNL     1      10.948  62.832   9.072  1.00  0.00     0.000 C 
BRANCH   3   4
ATOM      4  C   UNL     1       9.608  63.502   8.718  1.00  0.00     0.000 C 
BRANCH   4   5
ATOM      5  C   UNL     1       9.767  64.973   8.309  1.00  0.00     0.000 C 
BRANCH   5   6
ATOM      6  C   UNL     1      10.044  65.857   9.532  1.00  0.00     0.006 C 
BRANCH   6   7
ATOM      7  C   UNL     1      11.411  66.536   9.421  1.00  0.00     0.053 C 
BRANCH   7   8
ATOM      8  C   UNL     1      12.325  66.054  10.503  1.00  0.00     0.041 C 
ATOM      9  O   UNL     1      11.863  65.413  11.482  1.00  0.00    -0.550 OA
ATOM     10  O   UNL     1      13.680  66.353  10.452  1.00  0.00    -0.550 OA
ENDBRANCH   7   8
ENDBRANCH   6   7
ENDBRANCH   5   6
ENDBRANCH   4   5
ENDBRANCH   3   4
ENDBRANCH   2   3
ENDBRANCH   1   2
BRANCH   1  11
ATOM     11  C   UNL     1      13.378  63.748   7.804  1.00  0.00     0.000 C 
BRANCH  11  12
ATOM     12  C   UNL     1      13.579  64.938   6.852  1.00  0.00    -0.000 C 
BRANCH  12  13
ATOM     13  C   UNL     1      12.674  64.863   5.613  1.00  0.00    -0.000 C 
BRANCH  13  14
ATOM     14  C   UNL     1      11.607  65.973   5.592  1.00  0.00    -0.000 C 
BRANCH  14  15
ATOM     15  C   UNL     1      11.082  66.248   4.167  1.00  0.00    -0.000 C 
BRANCH  15  16
ATOM     16  C   UNL     1      11.873  65.518   3.068  1.00  0.00    -0.000 C 
BRANCH  16  17
ATOM     17  C   UNL     1      12.507  66.478   2.053  1.00  0.00    -0.003 C 
ATOM     18  C   UNL     1      13.005  67.749   2.734  1.00  0.00     0.004 C 
ENDBRANCH  16  17
ENDBRANCH  15  16
ENDBRANCH  14  15
ENDBRANCH  13  14
ENDBRANCH  12  13
ENDBRANCH  11  12
ENDBRANCH   1  11
TORSDOF 14
ENDMDL
MODEL 7
REMARK VINA RESULT:    -3.987      2.706      6.608
REMARK INTER + INTRA:          -8.522
REMARK INTER:                  -7.175
REMARK INTRA:                  -1.347
REMARK UNBOUND:                -1.272
REMARK SMILES CCCCCCCCCCCCCCCC(=O)[O-]
REMARK SMILES IDX 9 1 10 2 11 3 12 4 13 5 14 6 15 7 16 8 17 9 18 10 8 11 7 12
REMARK SMILES IDX 6 13 5 14 4 15 3 16 2 17 1 18
REMARK H PARENT
REMARK Flexibility Score: inf
ROOT
ATOM      1  C   UNL     1      11.107  63.423   9.050  1.00  0.00     0.000 C 
ENDROOT
BRANCH   1   2
ATOM      2  C   UNL     1       9.889  64.288   8.666  1.00  0.00     0.000 C 
BRANCH   2   3
ATOM      3  C   UNL     1       8.537  63.548   8.655  1.00  0.00     0.000 C 
BRANCH   3   4
ATOM      4  C   UNL     1       7.302  64.450   8.836  1.00  0.00     0.000 C 
BRANCH   4   5
ATOM      5  C   UNL     1       5.995  63.765   8.413  1.00  0.00     0.000 C 
BRANCH   5   6
ATOM      6  C   UNL     1       4.776  64.541   8.926  1.00  0.00     0.006 C 
BRANCH   6   7
ATOM      7  C   UNL     1       5.029  66.050   8.886  1.00  0.00     0.053 C 
BRANCH   7   8
ATOM      8  C   UNL     1       4.263  66.680   7.765  1.00  0.00     0.041 C 
ATOM      9  O   UNL     1       4.393  66.252   6.589  1.00  0.00    -0.550 OA
ATOM     10  O   UNL     1       3.438  67.770   8.014  1.00  0.00    -0.550 OA
ENDBRANCH   7   8
ENDBRANCH   6   7
ENDBRANCH   5   6
ENDBRANCH   4   5
ENDBRANCH   3   4
ENDBRANCH   2   3
ENDBRANCH   1   2
BRANCH   1  11
ATOM     11  C   UNL     1      11.497  62.358   8.009  1.00  0.00     0.000 C 
BRANCH  11  12
ATOM     12  C   UNL     1      12.783  62.715   7.245  1.00  0.00    -0.000 C 
BRANCH  12  13
ATOM     13  C   UNL     1      13.577  63.844   7.920  1.00  0.00    -0.000 C 
BRANCH  13  14
ATOM     14  C   UNL     1      13.905  64.996   6.953  1.00  0.00    -0.000 C 
BRANCH  14  15
ATOM     15  C   UNL     1      12.926  65.051   5.761  1.00  0.00    -0.000 C 
BRANCH  15  16
ATOM     16  C   UNL     1      12.134  66.367   5.676  1.00  0.00    -0.000 C 
BRANCH  16  17
ATOM     17  C   UNL     1      10.632  66.146   5.455  1.00  0.00    -0.003 C 
ATOM     18  C   UNL     1       9.805  67.087   6.325  1.00  0.00     0.004 C 
ENDBRANCH  16  17
ENDBRANCH  15  16
ENDBRANCH  14  15
ENDBRANCH  13  14
ENDBRANCH  12  13
ENDBRANCH  11  12
ENDBRANCH   1  11
TORSDOF 14
ENDMDL
MODEL 8
REMARK VINA RESULT:    -3.979      2.117      6.747
REMARK INTER + INTRA:          -8.507
REMARK INTER:                  -7.193
REMARK INTRA:                  -1.313
REMARK UNBOUND:                -1.272
REMARK SMILES CCCCCCCCCCCCCCCC(=O)[O-]
REMARK SMILES IDX 9 1 10 2 11 3 12 4 13 5 14 6 15 7 16 8 17 9 18 10 8 11 7 12
REMARK SMILES IDX 6 13 5 14 4 15 3 16 2 17 1 18
REMARK H PARENT
REMARK Flexibility Score: inf
ROOT
ATOM      1  C   UNL     1       9.411  64.887   8.710  1.00  0.00     0.000 C 
ENDROOT
BRANCH   1   2
ATOM      2  C   UNL     1       7.898  65.179   8.773  1.00  0.00     0.000 C 
BRANCH   2   3
ATOM      3  C   UNL     1       6.990  63.934   8.823  1.00  0.00     0.000 C 
BRANCH   3   4
ATOM      4  C   UNL     1       5.522  64.186   8.435  1.00  0.00     0.000 C 
BRANCH   4   5
ATOM      5  C   UNL     1       4.809  65.151   9.393  1.00  0.00     0.000 C 
BRANCH   5   6
ATOM      6  C   UNL     1       4.514  66.490   8.706  1.00  0.00     0.006 C 
BRANCH   6   7
ATOM      7  C   UNL     1       4.460  66.327   7.185  1.00  0.00     0.053 C 
BRANCH   7   8
ATOM      8  C   UNL     1       5.400  67.284   6.522  1.00  0.00     0.041 C 
ATOM      9  O   UNL     1       5.715  67.127   5.314  1.00  0.00    -0.550 OA
ATOM     10  O   UNL     1       5.964  68.322   7.252  1.00  0.00    -0.550 OA
ENDBRANCH   7   8
ENDBRANCH   6   7
ENDBRANCH   5   6
ENDBRANCH   4   5
ENDBRANCH   3   4
ENDBRANCH   2   3
ENDBRANCH   1   2
BRANCH   1  11
ATOM     11  C   UNL     1       9.773  63.426   8.387  1.00  0.00     0.000 C 
BRANCH  11  12
ATOM     12  C   UNL     1      11.240  63.093   8.703  1.00  0.00    -0.000 C 
BRANCH  12  13
ATOM     13  C   UNL     1      11.844  62.086   7.712  1.00  0.00    -0.000 C 
BRANCH  13  14
ATOM     14  C   UNL     1      12.878  62.731   6.770  1.00  0.00    -0.000 C 
BRANCH  14  15
ATOM     15  C   UNL     1      13.453  64.041   7.348  1.00  0.00    -0.000 C 
BRANCH  15  16
ATOM     16  C   UNL     1      13.314  65.245   6.401  1.00  0.00    -0.000 C 
BRANCH  16  17
ATOM     17  C   UNL     1      11.907  65.374   5.803  1.00  0.00    -0.003 C 
ATOM     18  C   UNL     1      11.966  65.531   4.287  1.00  0.00     0.004 C 
ENDBRANCH  16  17
ENDBRANCH  15  16
ENDBRANCH  14  15
ENDBRANCH  13  14
ENDBRANCH  12  13
ENDBRANCH  11  12
ENDBRANCH   1  11
TORSDOF 14
ENDMDL
MODEL 9
REMARK VINA RESULT:    -3.935      1.575      2.519
REMARK INTER + INTRA:          -8.427
REMARK INTER:                  -6.302
REMARK INTRA:                  -2.125
REMARK UNBOUND:                -1.272
REMARK SMILES CCCCCCCCCCCCCCCC(=O)[O-]
REMARK SMILES IDX 9 1 10 2 11 3 12 4 13 5 14 6 15 7 16 8 17 9 18 10 8 11 7 12
REMARK SMILES IDX 6 13 5 14 4 15 3 16 2 17 1 18
REMARK H PARENT
REMARK Flexibility Score: inf
ROOT
ATOM      1  C   UNL     1      11.274  62.926   8.777  1.00  0.00     0.000 C 
ENDROOT
BRANCH   1   2
ATOM      2  C   UNL     1      11.822  62.074   7.614  1.00  0.00     0.000 C 
BRANCH   2   3
ATOM      3  C   UNL     1      12.865  62.775   6.721  1.00  0.00     0.000 C 
BRANCH   3   4
ATOM      4  C   UNL     1      13.543  64.002   7.358  1.00  0.00     0.000 C 
BRANCH   4   5
ATOM      5  C   UNL     1      13.416  65.267   6.497  1.00  0.00     0.000 C 
BRANCH   5   6
ATOM      6  C   UNL     1      12.399  65.065   5.368  1.00  0.00     0.006 C 
BRANCH   6   7
ATOM      7  C   UNL     1      12.266  66.328   4.514  1.00  0.00     0.053 C 
BRANCH   7   8
ATOM      8  C   UNL     1      11.832  65.979   3.125  1.00  0.00     0.041 C 
ATOM      9  O   UNL     1      10.706  65.453   2.927  1.00  0.00    -0.550 OA
ATOM     10  O   UNL     1      12.691  66.193   2.055  1.00  0.00    -0.550 OA
ENDBRANCH   7   8
ENDBRANCH   6   7
ENDBRANCH   5   6
ENDBRANCH   4   5
ENDBRANCH   3   4
ENDBRANCH   2   3
ENDBRANCH   1   2
BRANCH   1  11
ATOM     11  C   UNL     1       9.759  63.192   8.725  1.00  0.00     0.000 C 
BRANCH  11  12
ATOM     12  C   UNL     1       9.423  64.674   8.490  1.00  0.00    -0.000 C 
BRANCH  12  13
ATOM     13  C   UNL     1      10.569  65.612   8.901  1.00  0.00    -0.000 C 
BRANCH  13  14
ATOM     14  C   UNL     1      10.494  66.980   8.198  1.00  0.00    -0.000 C 
BRANCH  14  15
ATOM     15  C   UNL     1       9.634  66.929   6.917  1.00  0.00    -0.000 C 
BRANCH  15  16
ATOM     16  C   UNL     1       8.641  68.097   6.796  1.00  0.00    -0.000 C 
BRANCH  16  17
ATOM     17  C   UNL     1       7.176  67.640   6.822  1.00  0.00    -0.003 C 
ATOM     18  C   UNL     1       6.755  67.226   8.229  1.00  0.00     0.004 C 
ENDBRANCH  16  17
ENDBRANCH  15  16
ENDBRANCH  14  15
ENDBRANCH  13  14
ENDBRANCH  12  13
ENDBRANCH  11  12
ENDBRANCH   1  11
TORSDOF 14
ENDMDL
