MODEL 1
REMARK VINA RESULT:    -3.542      0.000      0.000
REMARK INTER + INTRA:          -7.890
REMARK INTER:                  -6.027
REMARK INTRA:                  -1.863
REMARK UNBOUND:                -1.863
REMARK SMILES CCCCCCCCCCCCCC(=O)[O-]
REMARK SMILES IDX 8 1 9 2 10 3 11 4 12 5 13 6 14 7 15 8 16 9 7 10 6 11 5 12
REMARK SMILES IDX 4 13 3 14 2 15 1 16
REMARK H PARENT
REMARK Flexibility Score: inf
ROOT
ATOM      1  C   UNL     1      15.272 128.608  53.724  1.00  0.00     0.000 C 
ENDROOT
BRANCH   1   2
ATOM      2  C   UNL     1      16.335 127.715  53.063  1.00  0.00     0.000 C 
BRANCH   2   3
ATOM      3  C   UNL     1      16.995 128.377  51.841  1.00  0.00     0.000 C 
BRANCH   3   4
ATOM      4  C   UNL     1      16.235 129.617  51.326  1.00  0.00     0.000 C 
BRANCH   4   5
ATOM      5  C   UNL     1      17.042 130.398  50.274  1.00  0.00     0.006 C 
BRANCH   5   6
ATOM      6  C   UNL     1      16.879 129.813  48.864  1.00  0.00     0.053 C 
BRANCH   6   7
ATOM      7  C   UNL     1      18.188 129.358  48.295  1.00  0.00     0.041 C 
ATOM      8  O   UNL     1      18.840 128.442  48.860  1.00  0.00    -0.550 OA
ATOM      9  O   UNL     1      18.672 129.925  47.122  1.00  0.00    -0.550 OA
ENDBRANCH   6   7
ENDBRANCH   5   6
ENDBRANCH   4   5
ENDBRANCH   3   4
ENDBRANCH   2   3
ENDBRANCH   1   2
BRANCH   1  10
ATOM     10  C   UNL     1      15.342 128.574  55.259  1.00  0.00     0.000 C 
BRANCH  10  11
ATOM     11  C   UNL     1      16.600 127.862  55.776  1.00  0.00    -0.000 C 
BRANCH  11  12
ATOM     12  C   UNL     1      17.551 128.852  56.462  1.00  0.00    -0.000 C 
BRANCH  12  13
ATOM     13  C   UNL     1      18.844 129.091  55.663  1.00  0.00    -0.000 C 
BRANCH  13  14
ATOM     14  C   UNL     1      18.696 130.147  54.547  1.00  0.00    -0.000 C 
BRANCH  14  15
ATOM     15  C   UNL     1      18.015 131.430  55.047  1.00  0.00    -0.003 C 
ATOM     16  C   UNL     1      16.976 131.928  54.047  1.00  0.00     0.004 C 
ENDBRANCH  14  15
ENDBRANCH  13  14
ENDBRANCH  12  13
ENDBRANCH  11  12
ENDBRANCH  10  11
ENDBRANCH   1  10
TORSDOF 12
ENDMDL
MODEL 2
REMARK VINA RESULT:    -3.431      5.289      7.853
REMARK INTER + INTRA:          -7.700
REMARK INTER:                  -5.942
REMARK INTRA:                  -1.758
REMARK UNBOUND:                -1.863
REMARK SMILES CCCCCCCCCCCCCC(=O)[O-]
REMARK SMILES IDX 8 1 9 2 10 3 11 4 12 5 13 6 14 7 15 8 16 9 7 10 6 11 5 12
REMARK SMILES IDX 4 13 3 14 2 15 1 16
REMARK H PARENT
REMARK Flexibility Score: inf
ROOT
ATOM      1  C   UNL     1      17.976 131.024  55.197  1.00  0.00     0.000 C 
ENDROOT
BRANCH   1   2
ATOM      2  C   UNL     1      19.088 130.152  55.801  1.00  0.00     0.000 C 
BRANCH   2   3
ATOM      3  C   UNL     1      18.816 129.765  57.265  1.00  0.00     0.000 C 
BRANCH   3   4
ATOM      4  C   UNL     1      17.684 130.585  57.918  1.00  0.00     0.000 C 
BRANCH   4   5
ATOM      5  C   UNL     1      17.873 130.727  59.439  1.00  0.00     0.006 C 
BRANCH   5   6
ATOM      6  C   UNL     1      19.085 129.935  59.951  1.00  0.00     0.053 C 
BRANCH   6   7
ATOM      7  C   UNL     1      18.817 129.309  61.285  1.00  0.00     0.041 C 
ATOM      8  O   UNL     1      19.684 128.572  61.824  1.00  0.00    -0.550 OA
ATOM      9  O   UNL     1      17.624 129.566  61.948  1.00  0.00    -0.550 OA
ENDBRANCH   6   7
ENDBRANCH   5   6
ENDBRANCH   4   5
ENDBRANCH   3   4
ENDBRANCH   2   3
ENDBRANCH   1   2
BRANCH   1  10
ATOM     10  C   UNL     1      17.717 130.712  53.714  1.00  0.00     0.000 C 
BRANCH  10  11
ATOM     11  C   UNL     1      18.084 129.269  53.343  1.00  0.00    -0.000 C 
BRANCH  11  12
ATOM     12  C   UNL     1      16.938 128.586  52.586  1.00  0.00    -0.000 C 
BRANCH  12  13
ATOM     13  C   UNL     1      15.896 127.950  53.523  1.00  0.00    -0.000 C 
BRANCH  13  14
ATOM     14  C   UNL     1      16.479 127.494  54.878  1.00  0.00    -0.000 C 
BRANCH  14  15
ATOM     15  C   UNL     1      15.664 128.021  56.068  1.00  0.00    -0.003 C 
ATOM     16  C   UNL     1      14.794 129.206  55.659  1.00  0.00     0.004 C 
ENDBRANCH  14  15
ENDBRANCH  13  14
ENDBRANCH  12  13
ENDBRANCH  11  12
ENDBRANCH  10  11
ENDBRANCH   1  10
TORSDOF 12
ENDMDL
MODEL 3
REMARK VINA RESULT:    -3.343      4.798      7.088
REMARK INTER + INTRA:          -7.550
REMARK INTER:                  -6.930
REMARK INTRA:                  -0.621
REMARK UNBOUND:                -1.863
REMARK SMILES CCCCCCCCCCCCCC(=O)[O-]
REMARK SMILES IDX 8 1 9 2 10 3 11 4 12 5 13 6 14 7 15 8 16 9 7 10 6 11 5 12
REMARK SMILES IDX 4 13 3 14 2 15 1 16
REMARK H PARENT
REMARK Flexibility Score: inf
ROOT
ATOM      1  C   UNL     1      17.929 130.426  58.926  1.00  0.00     0.000 C 
ENDROOT
BRANCH   1   2
ATOM      2  C   UNL     1      18.806 130.230  57.680  1.00  0.00     0.000 C 
BRANCH   2   3
ATOM      3  C   UNL     1      18.095 129.441  56.567  1.00  0.00     0.000 C 
BRANCH   3   4
ATOM      4  C   UNL     1      16.880 128.631  57.066  1.00  0.00     0.000 C 
BRANCH   4   5
ATOM      5  C   UNL     1      16.172 127.883  55.922  1.00  0.00     0.006 C 
BRANCH   5   6
ATOM      6  C   UNL     1      17.016 127.846  54.641  1.00  0.00     0.053 C 
BRANCH   6   7
ATOM      7  C   UNL     1      16.180 128.059  53.417  1.00  0.00     0.041 C 
ATOM      8  O   UNL     1      16.650 127.807  52.276  1.00  0.00    -0.550 OA
ATOM      9  O   UNL     1      14.869 128.505  53.538  1.00  0.00    -0.550 OA
ENDBRANCH   6   7
ENDBRANCH   5   6
ENDBRANCH   4   5
ENDBRANCH   3   4
ENDBRANCH   2   3
ENDBRANCH   1   2
BRANCH   1  10
ATOM     10  C   UNL     1      18.713 130.248  60.236  1.00  0.00     0.000 C 
BRANCH  10  11
ATOM     11  C   UNL     1      17.991 129.334  61.237  1.00  0.00    -0.000 C 
BRANCH  11  12
ATOM     12  C   UNL     1      18.972 128.768  62.272  1.00  0.00    -0.000 C 
BRANCH  12  13
ATOM     13  C   UNL     1      18.357 128.650  63.678  1.00  0.00    -0.000 C 
BRANCH  13  14
ATOM     14  C   UNL     1      18.170 127.193  64.152  1.00  0.00    -0.000 C 
BRANCH  14  15
ATOM     15  C   UNL     1      17.701 126.269  63.019  1.00  0.00    -0.003 C 
ATOM     16  C   UNL     1      18.680 125.118  62.805  1.00  0.00     0.004 C 
ENDBRANCH  14  15
ENDBRANCH  13  14
ENDBRANCH  12  13
ENDBRANCH  11  12
ENDBRANCH  10  11
ENDBRANCH   1  10
TORSDOF 12
ENDMDL
MODEL 4
REMARK VINA RESULT:    -3.329      5.807      8.101
REMARK INTER + INTRA:          -7.527
REMARK INTER:                  -5.836
REMARK INTRA:                  -1.691
REMARK UNBOUND:                -1.863
REMARK SMILES CCCCCCCCCCCCCC(=O)[O-]
REMARK SMILES IDX 8 1 9 2 10 3 11 4 12 5 13 6 14 7 15 8 16 9 7 10 6 11 5 12
REMARK SMILES IDX 4 13 3 14 2 15 1 16
REMARK H PARENT
REMARK Flexibility Score: inf
ROOT
ATOM      1  C   UNL     1      15.085 129.334  56.890  1.00  0.00     0.000 C 
ENDROOT
BRANCH   1   2
ATOM      2  C   UNL     1      15.865 128.506  57.924  1.00  0.00     0.000 C 
BRANCH   2   3
ATOM      3  C   UNL     1      15.132 128.389  59.272  1.00  0.00     0.000 C 
BRANCH   3   4
ATOM      4  C   UNL     1      16.013 128.752  60.486  1.00  0.00     0.000 C 
BRANCH   4   5
ATOM      5  C   UNL     1      16.887 129.990  60.220  1.00  0.00     0.006 C 
BRANCH   5   6
ATOM      6  C   UNL     1      18.381 129.702  60.428  1.00  0.00     0.053 C 
BRANCH   6   7
ATOM      7  C   UNL     1      18.677 129.291  61.837  1.00  0.00     0.041 C 
ATOM      8  O   UNL     1      19.338 128.243  62.066  1.00  0.00    -0.550 OA
ATOM      9  O   UNL     1      18.253 130.082  62.897  1.00  0.00    -0.550 OA
ENDBRANCH   6   7
ENDBRANCH   5   6
ENDBRANCH   4   5
ENDBRANCH   3   4
ENDBRANCH   2   3
ENDBRANCH   1   2
BRANCH   1  10
ATOM     10  C   UNL     1      15.290 128.830  55.452  1.00  0.00     0.000 C 
BRANCH  10  11
ATOM     11  C   UNL     1      16.151 127.561  55.389  1.00  0.00    -0.000 C 
BRANCH  11  12
ATOM     12  C   UNL     1      17.320 127.737  54.410  1.00  0.00    -0.000 C 
BRANCH  12  13
ATOM     13  C   UNL     1      17.994 129.115  54.523  1.00  0.00    -0.000 C 
BRANCH  13  14
ATOM     14  C   UNL     1      19.335 129.088  55.287  1.00  0.00    -0.000 C 
BRANCH  14  15
ATOM     15  C   UNL     1      19.183 129.550  56.744  1.00  0.00    -0.003 C 
ATOM     16  C   UNL     1      18.544 130.933  56.820  1.00  0.00     0.004 C 
ENDBRANCH  14  15
ENDBRANCH  13  14
ENDBRANCH  12  13
ENDBRANCH  11  12
ENDBRANCH  10  11
ENDBRANCH   1  10
TORSDOF 12
ENDMDL
MODEL 5
REMARK VINA RESULT:    -3.272      1.437      2.056
REMARK INTER + INTRA:          -7.430
REMARK INTER:                  -6.264
REMARK INTRA:                  -1.166
REMARK UNBOUND:                -1.863
REMARK SMILES CCCCCCCCCCCCCC(=O)[O-]
REMARK SMILES IDX 8 1 9 2 10 3 11 4 12 5 13 6 14 7 15 8 16 9 7 10 6 11 5 12
REMARK SMILES IDX 4 13 3 14 2 15 1 16
REMARK H PARENT
REMARK Flexibility Score: inf
ROOT
ATOM      1  C   UNL     1      16.679 127.821  53.640  1.00  0.00     0.000 C 
ENDROOT
BRANCH   1   2
ATOM      2  C   UNL     1      15.587 128.874  53.392  1.00  0.00     0.000 C 
BRANCH   2   3
ATOM      3  C   UNL     1      16.025 129.968  52.403  1.00  0.00     0.000 C 
BRANCH   3   4
ATOM      4  C   UNL     1      16.687 129.413  51.124  1.00  0.00     0.000 C 
BRANCH   4   5
ATOM      5  C   UNL     1      16.675 130.435  49.973  1.00  0.00     0.006 C 
BRANCH   5   6
ATOM      6  C   UNL     1      17.502 129.963  48.768  1.00  0.00     0.053 C 
BRANCH   6   7
ATOM      7  C   UNL     1      16.914 128.741  48.134  1.00  0.00     0.041 C 
ATOM      8  O   UNL     1      17.623 127.717  47.954  1.00  0.00    -0.550 OA
ATOM      9  O   UNL     1      15.573 128.722  47.771  1.00  0.00    -0.550 OA
ENDBRANCH   6   7
ENDBRANCH   5   6
ENDBRANCH   4   5
ENDBRANCH   3   4
ENDBRANCH   2   3
ENDBRANCH   1   2
BRANCH   1  10
ATOM     10  C   UNL     1      16.604 127.211  55.049  1.00  0.00     0.000 C 
BRANCH  10  11
ATOM     11  C   UNL     1      15.747 128.047  56.009  1.00  0.00    -0.000 C 
BRANCH  11  12
ATOM     12  C   UNL     1      16.612 128.696  57.097  1.00  0.00    -0.000 C 
BRANCH  12  13
ATOM     13  C   UNL     1      17.197 130.053  56.668  1.00  0.00    -0.000 C 
BRANCH  13  14
ATOM     14  C   UNL     1      18.679 130.239  57.057  1.00  0.00    -0.000 C 
BRANCH  14  15
ATOM     15  C   UNL     1      19.607 130.225  55.834  1.00  0.00    -0.003 C 
ATOM     16  C   UNL     1      19.981 128.798  55.442  1.00  0.00     0.004 C 
ENDBRANCH  14  15
ENDBRANCH  13  14
ENDBRANCH  12  13
ENDBRANCH  11  12
ENDBRANCH  10  11
ENDBRANCH   1  10
TORSDOF 12
ENDMDL
MODEL 6
REMARK VINA RESULT:    -3.265      3.094      5.142
REMARK INTER + INTRA:          -7.419
REMARK INTER:                  -5.566
REMARK INTRA:                  -1.852
REMARK UNBOUND:                -1.863
REMARK SMILES CCCCCCCCCCCCCC(=O)[O-]
REMARK SMILES IDX 8 1 9 2 10 3 11 4 12 5 13 6 14 7 15 8 16 9 7 10 6 11 5 12
REMARK SMILES IDX 4 13 3 14 2 15 1 16
REMARK H PARENT
REMARK Flexibility Score: inf
ROOT
ATOM      1  C   UNL     1      16.354 128.268  56.836  1.00  0.00     0.000 C 
ENDROOT
BRANCH   1   2
ATOM      2  C   UNL     1      16.017 129.768  56.797  1.00  0.00     0.000 C 
BRANCH   2   3
ATOM      3  C   UNL     1      17.250 130.651  56.539  1.00  0.00     0.000 C 
BRANCH   3   4
ATOM      4  C   UNL     1      18.561 130.058  57.099  1.00  0.00     0.000 C 
BRANCH   4   5
ATOM      5  C   UNL     1      19.577 129.743  55.987  1.00  0.00     0.006 C 
BRANCH   5   6
ATOM      6  C   UNL     1      19.323 130.567  54.717  1.00  0.00     0.053 C 
BRANCH   6   7
ATOM      7  C   UNL     1      20.113 131.839  54.711  1.00  0.00     0.041 C 
ATOM      8  O   UNL     1      19.524 132.951  54.742  1.00  0.00    -0.550 OA
ATOM      9  O   UNL     1      21.502 131.796  54.705  1.00  0.00    -0.550 OA
ENDBRANCH   6   7
ENDBRANCH   5   6
ENDBRANCH   4   5
ENDBRANCH   3   4
ENDBRANCH   2   3
ENDBRANCH   1   2
BRANCH   1  10
ATOM     10  C   UNL     1      15.921 127.531  55.559  1.00  0.00     0.000 C 
BRANCH  10  11
ATOM     11  C   UNL     1      17.035 127.472  54.505  1.00  0.00    -0.000 C 
BRANCH  11  12
ATOM     12  C   UNL     1      16.529 127.959  53.141  1.00  0.00    -0.000 C 
BRANCH  12  13
ATOM     13  C   UNL     1      15.277 128.848  53.249  1.00  0.00    -0.000 C 
BRANCH  13  14
ATOM     14  C   UNL     1      15.537 130.329  52.899  1.00  0.00    -0.000 C 
BRANCH  14  15
ATOM     15  C   UNL     1      16.839 130.519  52.107  1.00  0.00    -0.003 C 
ATOM     16  C   UNL     1      16.557 130.719  50.621  1.00  0.00     0.004 C 
ENDBRANCH  14  15
ENDBRANCH  13  14
ENDBRANCH  12  13
ENDBRANCH  11  12
ENDBRANCH  10  11
ENDBRANCH   1  10
TORSDOF 12
ENDMDL
MODEL 7
REMARK VINA RESULT:    -3.244      4.924      7.247
REMARK INTER + INTRA:          -7.383
REMARK INTER:                  -5.848
REMARK INTRA:                  -1.535
REMARK UNBOUND:                -1.863
REMARK SMILES CCCCCCCCCCCCCC(=O)[O-]
REMARK SMILES IDX 8 1 9 2 10 3 11 4 12 5 13 6 14 7 15 8 16 9 7 10 6 11 5 12
REMARK SMILES IDX 4 13 3 14 2 15 1 16
REMARK H PARENT
REMARK Flexibility Score: inf
ROOT
ATOM      1  C   UNL     1      14.767 128.928  59.692  1.00  0.00     0.000 C 
ENDROOT
BRANCH   1   2
ATOM      2  C   UNL     1      14.986 128.257  58.326  1.00  0.00     0.000 C 
BRANCH   2   3
ATOM      3  C   UNL     1      16.312 128.670  57.664  1.00  0.00     0.000 C 
BRANCH   3   4
ATOM      4  C   UNL     1      16.338 130.141  57.200  1.00  0.00     0.000 C 
BRANCH   4   5
ATOM      5  C   UNL     1      17.740 130.764  57.321  1.00  0.00     0.006 C 
BRANCH   5   6
ATOM      6  C   UNL     1      18.853 129.710  57.235  1.00  0.00     0.053 C 
BRANCH   6   7
ATOM      7  C   UNL     1      19.439 129.631  55.859  1.00  0.00     0.041 C 
ATOM      8  O   UNL     1      19.092 128.709  55.075  1.00  0.00    -0.550 OA
ATOM      9  O   UNL     1      20.343 130.595  55.430  1.00  0.00    -0.550 OA
ENDBRANCH   6   7
ENDBRANCH   5   6
ENDBRANCH   4   5
ENDBRANCH   3   4
ENDBRANCH   2   3
ENDBRANCH   1   2
BRANCH   1  10
ATOM     10  C   UNL     1      15.893 128.616  60.692  1.00  0.00     0.000 C 
BRANCH  10  11
ATOM     11  C   UNL     1      16.635 129.877  61.157  1.00  0.00    -0.000 C 
BRANCH  11  12
ATOM     12  C   UNL     1      18.144 129.750  60.911  1.00  0.00    -0.000 C 
BRANCH  12  13
ATOM     13  C   UNL     1      18.835 128.797  61.902  1.00  0.00    -0.000 C 
BRANCH  13  14
ATOM     14  C   UNL     1      18.450 129.051  63.375  1.00  0.00    -0.000 C 
BRANCH  14  15
ATOM     15  C   UNL     1      18.220 127.745  64.149  1.00  0.00    -0.003 C 
ATOM     16  C   UNL     1      17.694 126.645  63.232  1.00  0.00     0.004 C 
ENDBRANCH  14  15
ENDBRANCH  13  14
ENDBRANCH  12  13
ENDBRANCH  11  12
ENDBRANCH  10  11
ENDBRANCH   1  10
TORSDOF 12
ENDMDL
MODEL 8
REMARK VINA RESULT:    -3.233      4.763      6.992
REMARK INTER + INTRA:          -7.364
REMARK INTER:                  -6.433
REMARK INTRA:                  -0.932
REMARK UNBOUND:                -1.863
REMARK SMILES CCCCCCCCCCCCCC(=O)[O-]
REMARK SMILES IDX 8 1 9 2 10 3 11 4 12 5 13 6 14 7 15 8 16 9 7 10 6 11 5 12
REMARK SMILES IDX 4 13 3 14 2 15 1 16
REMARK H PARENT
REMARK Flexibility Score: inf
ROOT
ATOM      1  C   UNL     1      15.764 128.715  60.425  1.00  0.00     0.000 C 
ENDROOT
BRANCH   1   2
ATOM      2  C   UNL     1      15.079 128.268  59.123  1.00  0.00     0.000 C 
BRANCH   2   3
ATOM      3  C   UNL     1      15.890 128.631  57.867  1.00  0.00     0.000 C 
BRANCH   3   4
ATOM      4  C   UNL     1      15.164 128.297  56.547  1.00  0.00     0.000 C 
BRANCH   4   5
ATOM      5  C   UNL     1      16.044 127.470  55.593  1.00  0.00     0.006 C 
BRANCH   5   6
ATOM      6  C   UNL     1      17.328 128.212  55.196  1.00  0.00     0.053 C 
BRANCH   6   7
ATOM      7  C   UNL     1      17.399 128.450  53.719  1.00  0.00     0.041 C 
ATOM      8  O   UNL     1      18.187 129.315  53.254  1.00  0.00    -0.550 OA
ATOM      9  O   UNL     1      16.620 127.692  52.853  1.00  0.00    -0.550 OA
ENDBRANCH   6   7
ENDBRANCH   5   6
ENDBRANCH   4   5
ENDBRANCH   3   4
ENDBRANCH   2   3
ENDBRANCH   1   2
BRANCH   1  10
ATOM     10  C   UNL     1      16.839 129.788  60.190  1.00  0.00     0.000 C 
BRANCH  10  11
ATOM     11  C   UNL     1      18.209 129.385  60.755  1.00  0.00    -0.000 C 
BRANCH  11  12
ATOM     12  C   UNL     1      18.252 129.568  62.278  1.00  0.00    -0.000 C 
BRANCH  12  13
ATOM     13  C   UNL     1      18.606 128.271  63.027  1.00  0.00    -0.000 C 
BRANCH  13  14
ATOM     14  C   UNL     1      17.552 127.855  64.075  1.00  0.00    -0.000 C 
BRANCH  14  15
ATOM     15  C   UNL     1      16.622 126.748  63.556  1.00  0.00    -0.003 C 
ATOM     16  C   UNL     1      17.403 125.687  62.786  1.00  0.00     0.004 C 
ENDBRANCH  14  15
ENDBRANCH  13  14
ENDBRANCH  12  13
ENDBRANCH  11  12
ENDBRANCH  10  11
ENDBRANCH   1  10
TORSDOF 12
ENDMDL
MODEL 9
REMARK VINA RESULT:    -3.224      3.029      3.853
REMARK INTER + INTRA:          -7.348
REMARK INTER:                  -5.674
REMARK INTRA:                  -1.674
REMARK UNBOUND:                -1.863
REMARK SMILES CCCCCCCCCCCCCC(=O)[O-]
REMARK SMILES IDX 8 1 9 2 10 3 11 4 12 5 13 6 14 7 15 8 16 9 7 10 6 11 5 12
REMARK SMILES IDX 4 13 3 14 2 15 1 16
REMARK H PARENT
REMARK Flexibility Score: inf
ROOT
ATOM      1  C   UNL     1      16.991 127.466  54.267  1.00  0.00     0.000 C 
ENDROOT
BRANCH   1   2
ATOM      2  C   UNL     1      16.248 127.726  52.947  1.00  0.00     0.000 C 
BRANCH   2   3
ATOM      3  C   UNL     1      17.043 128.621  51.980  1.00  0.00     0.000 C 
BRANCH   3   4
ATOM      4  C   UNL     1      16.544 130.081  51.941  1.00  0.00     0.000 C 
BRANCH   4   5
ATOM      5  C   UNL     1      17.368 131.002  52.858  1.00  0.00     0.006 C 
BRANCH   5   6
ATOM      6  C   UNL     1      17.215 132.483  52.485  1.00  0.00     0.053 C 
BRANCH   6   7
ATOM      7  C   UNL     1      18.104 133.360  53.312  1.00  0.00     0.041 C 
ATOM      8  O   UNL     1      17.898 134.601  53.364  1.00  0.00    -0.550 OA
ATOM      9  O   UNL     1      19.139 132.802  54.051  1.00  0.00    -0.550 OA
ENDBRANCH   6   7
ENDBRANCH   5   6
ENDBRANCH   4   5
ENDBRANCH   3   4
ENDBRANCH   2   3
ENDBRANCH   1   2
BRANCH   1  10
ATOM     10  C   UNL     1      16.089 127.648  55.499  1.00  0.00     0.000 C 
BRANCH  10  11
ATOM     11  C   UNL     1      15.377 129.008  55.514  1.00  0.00    -0.000 C 
BRANCH  11  12
ATOM     12  C   UNL     1      16.113 130.005  56.419  1.00  0.00    -0.000 C 
BRANCH  12  13
ATOM     13  C   UNL     1      16.921 129.318  57.534  1.00  0.00    -0.000 C 
BRANCH  13  14
ATOM     14  C   UNL     1      18.381 129.810  57.633  1.00  0.00    -0.000 C 
BRANCH  14  15
ATOM     15  C   UNL     1      18.956 130.203  56.264  1.00  0.00    -0.003 C 
ATOM     16  C   UNL     1      19.906 129.132  55.737  1.00  0.00     0.004 C 
ENDBRANCH  14  15
ENDBRANCH  13  14
ENDBRANCH  12  13
ENDBRANCH  11  12
ENDBRANCH  10  11
ENDBRANCH   1  10
TORSDOF 12
ENDMDL
