MODEL 1
REMARK VINA RESULT:    -6.586      0.000      0.000
REMARK INTER + INTRA:         -11.082
REMARK INTER:                  -9.666
REMARK INTRA:                  -1.416
REMARK UNBOUND:                -1.416
REMARK SMILES O=c1c(O[C@H]2O[C@@H](CO)[C@H](O)[C@@H](O)[C@H]2O)c(-c2ccc(O)c(O)c2)oc2cc(O)cc(O)c12
REMARK SMILES IDX 4 1 3 2 16 3 25 4 2 5 26 6 1 7 33 8 27 9 31 10 28 11 30 12
REMARK SMILES IDX 17 13 18 14 19 15 20 16 24 17 22 18 21 19 23 21 32 23 29 25
REMARK SMILES IDX 5 27 14 28 6 29 12 30 7 31 10 32 15 33 13 35 8 37 9 38 11 40
REMARK H PARENT 21 20 23 22 32 24 29 26 15 34 13 36 9 39 11 41
REMARK Flexibility Score: inf
ROOT
ATOM      1  O   UNL     1      -0.597   5.456  12.346  1.00  0.00    -0.454 OA
ENDROOT
BRANCH   1   2
ATOM      2  C   UNL     1       0.595   5.424  13.099  1.00  0.00     0.214 A 
ATOM      3  C   UNL     1       0.751   4.393  14.040  1.00  0.00     0.180 A 
ATOM      4  O   UNL     1       1.813   4.361  14.832  1.00  0.00    -0.452 OA
ATOM      5  C   UNL     1       1.630   6.380  12.978  1.00  0.00     0.239 A 
ATOM      6  C   UNL     1       2.804   5.237  14.755  1.00  0.00     0.146 A 
ATOM      7  O   UNL     1       1.495   7.341  12.184  1.00  0.00    -0.285 OA
ATOM      8  C   UNL     1       2.790   6.268  13.784  1.00  0.00     0.111 A 
ATOM      9  C   UNL     1       3.865   5.124  15.657  1.00  0.00     0.094 A 
ATOM     10  C   UNL     1       3.916   7.143  13.708  1.00  0.00     0.134 A 
ATOM     11  C   UNL     1       4.930   6.018  15.611  1.00  0.00     0.123 A 
ATOM     12  C   UNL     1       4.953   7.020  14.641  1.00  0.00     0.093 A 
BRANCH   3  13
ATOM     13  C   UNL     1      -0.270   3.343  14.198  1.00  0.00     0.025 A 
ATOM     14  C   UNL     1      -1.231   3.447  15.210  1.00  0.00     0.016 A 
ATOM     15  C   UNL     1      -2.197   2.450  15.366  1.00  0.00     0.051 A 
ATOM     16  C   UNL     1      -2.204   1.332  14.520  1.00  0.00     0.157 A 
ATOM     17  C   UNL     1      -0.263   2.214  13.367  1.00  0.00     0.062 A 
ATOM     18  C   UNL     1      -1.229   1.213  13.518  1.00  0.00     0.158 A 
BRANCH  16  19
ATOM     19  O   UNL     1      -3.170   0.341  14.673  1.00  0.00    -0.504 OA
ATOM     20  H   UNL     1      -3.149  -0.302  15.454  1.00  0.00     0.293 HD
ENDBRANCH  16  19
BRANCH  18  21
ATOM     21  O   UNL     1      -1.198   0.108  12.669  1.00  0.00    -0.504 OA
ATOM     22  H   UNL     1      -2.043  -0.371  12.378  1.00  0.00     0.293 HD
ENDBRANCH  18  21
ENDBRANCH   3  13
BRANCH  10  23
ATOM     23  O   UNL     1       4.079   8.122  12.726  1.00  0.00    -0.507 OA
ATOM     24  H   UNL     1       3.996   7.953  11.737  1.00  0.00     0.293 HD
ENDBRANCH  10  23
BRANCH  11  25
ATOM     25  O   UNL     1       5.970   5.895  16.529  1.00  0.00    -0.508 OA
ATOM     26  H   UNL     1       5.788   5.696  17.506  1.00  0.00     0.293 HD
ENDBRANCH  11  25
ENDBRANCH   1   2
BRANCH   1  27
ATOM     27  C   UNL     1      -1.552   6.521  12.297  1.00  0.00     0.339 C 
ATOM     28  C   UNL     1      -2.984   5.968  12.269  1.00  0.00     0.214 C 
ATOM     29  O   UNL     1      -1.303   7.408  11.215  1.00  0.00    -0.332 OA
ATOM     30  C   UNL     1      -3.263   5.237  10.944  1.00  0.00     0.180 C 
ATOM     31  C   UNL     1      -1.554   6.857   9.925  1.00  0.00     0.179 C 
ATOM     32  C   UNL     1      -2.951   6.188   9.778  1.00  0.00     0.177 C 
BRANCH  28  33
ATOM     33  O   UNL     1      -3.213   5.115  13.359  1.00  0.00    -0.384 OA
ATOM     34  H   UNL     1      -3.182   5.676  14.178  1.00  0.00     0.211 HD
ENDBRANCH  28  33
BRANCH  30  35
ATOM     35  O   UNL     1      -2.521   4.046  10.789  1.00  0.00    -0.387 OA
ATOM     36  H   UNL     1      -2.467   3.583  11.672  1.00  0.00     0.211 HD
ENDBRANCH  30  35
BRANCH  31  37
ATOM     37  C   UNL     1      -0.396   5.975   9.427  1.00  0.00     0.191 C 
BRANCH  37  38
ATOM     38  O   UNL     1       0.827   6.629   9.642  1.00  0.00    -0.394 OA
ATOM     39  H   UNL     1       0.880   6.823  10.607  1.00  0.00     0.210 HD
ENDBRANCH  37  38
ENDBRANCH  31  37
BRANCH  32  40
ATOM     40  O   UNL     1      -3.945   7.184   9.727  1.00  0.00    -0.387 OA
ATOM     41  H   UNL     1      -4.579   6.922   9.009  1.00  0.00     0.211 HD
ENDBRANCH  32  40
ENDBRANCH   1  27
TORSDOF 12
ENDMDL
MODEL 2
REMARK VINA RESULT:    -6.228      0.779      2.073
REMARK INTER + INTRA:         -10.557
REMARK INTER:                  -8.870
REMARK INTRA:                  -1.687
REMARK UNBOUND:                -1.416
REMARK SMILES O=c1c(O[C@H]2O[C@@H](CO)[C@H](O)[C@@H](O)[C@H]2O)c(-c2ccc(O)c(O)c2)oc2cc(O)cc(O)c12
REMARK SMILES IDX 4 1 3 2 16 3 25 4 2 5 26 6 1 7 33 8 27 9 31 10 28 11 30 12
REMARK SMILES IDX 17 13 18 14 19 15 20 16 24 17 22 18 21 19 23 21 32 23 29 25
REMARK SMILES IDX 5 27 14 28 6 29 12 30 7 31 10 32 15 33 13 35 8 37 9 38 11 40
REMARK H PARENT 21 20 23 22 32 24 29 26 15 34 13 36 9 39 11 41
REMARK Flexibility Score: inf
ROOT
ATOM      1  O   UNL     1      -0.392   5.800  12.582  1.00  0.00    -0.454 OA
ENDROOT
BRANCH   1   2
ATOM      2  C   UNL     1       0.827   5.647  13.277  1.00  0.00     0.214 A 
ATOM      3  C   UNL     1       0.951   4.557  14.154  1.00  0.00     0.180 A 
ATOM      4  O   UNL     1       2.041   4.411  14.894  1.00  0.00    -0.452 OA
ATOM      5  C   UNL     1       1.918   6.538  13.160  1.00  0.00     0.239 A 
ATOM      6  C   UNL     1       3.086   5.222  14.818  1.00  0.00     0.146 A 
ATOM      7  O   UNL     1       1.816   7.548  12.424  1.00  0.00    -0.285 OA
ATOM      8  C   UNL     1       3.101   6.305  13.904  1.00  0.00     0.111 A 
ATOM      9  C   UNL     1       4.174   4.988  15.663  1.00  0.00     0.094 A 
ATOM     10  C   UNL     1       4.281   7.106  13.823  1.00  0.00     0.134 A 
ATOM     11  C   UNL     1       5.295   5.812  15.615  1.00  0.00     0.123 A 
ATOM     12  C   UNL     1       5.345   6.863  14.699  1.00  0.00     0.093 A 
BRANCH   3  13
ATOM     13  C   UNL     1      -0.132   3.570  14.303  1.00  0.00     0.025 A 
ATOM     14  C   UNL     1      -1.041   3.682  15.362  1.00  0.00     0.016 A 
ATOM     15  C   UNL     1      -2.065   2.743  15.508  1.00  0.00     0.051 A 
ATOM     16  C   UNL     1      -2.184   1.677  14.606  1.00  0.00     0.157 A 
ATOM     17  C   UNL     1      -0.236   2.490  13.416  1.00  0.00     0.062 A 
ATOM     18  C   UNL     1      -1.262   1.549  13.557  1.00  0.00     0.158 A 
BRANCH  16  19
ATOM     19  O   UNL     1      -3.209   0.744  14.751  1.00  0.00    -0.504 OA
ATOM     20  H   UNL     1      -3.080  -0.227  14.498  1.00  0.00     0.293 HD
ENDBRANCH  16  19
BRANCH  18  21
ATOM     21  O   UNL     1      -1.341   0.492  12.652  1.00  0.00    -0.504 OA
ATOM     22  H   UNL     1      -1.948   0.523  11.840  1.00  0.00     0.293 HD
ENDBRANCH  18  21
ENDBRANCH   3  13
BRANCH  10  23
ATOM     23  O   UNL     1       4.468   8.125  12.888  1.00  0.00    -0.507 OA
ATOM     24  H   UNL     1       3.837   8.323  12.129  1.00  0.00     0.293 HD
ENDBRANCH  10  23
BRANCH  11  25
ATOM     25  O   UNL     1       6.361   5.569  16.476  1.00  0.00    -0.508 OA
ATOM     26  H   UNL     1       6.289   4.890  17.225  1.00  0.00     0.293 HD
ENDBRANCH  11  25
ENDBRANCH   1   2
BRANCH   1  27
ATOM     27  C   UNL     1      -0.656   5.437  11.224  1.00  0.00     0.339 C 
ATOM     28  C   UNL     1      -0.955   6.682  10.376  1.00  0.00     0.214 C 
ATOM     29  O   UNL     1      -1.686   4.464  11.125  1.00  0.00    -0.332 OA
ATOM     30  C   UNL     1      -2.292   7.319  10.794  1.00  0.00     0.180 C 
ATOM     31  C   UNL     1      -2.987   4.940  11.459  1.00  0.00     0.179 C 
ATOM     32  C   UNL     1      -3.394   6.251  10.725  1.00  0.00     0.177 C 
BRANCH  28  33
ATOM     33  O   UNL     1       0.086   7.616  10.471  1.00  0.00    -0.384 OA
ATOM     34  H   UNL     1       0.931   7.101  10.557  1.00  0.00     0.211 HD
ENDBRANCH  28  33
BRANCH  30  35
ATOM     35  O   UNL     1      -2.268   7.885  12.087  1.00  0.00    -0.387 OA
ATOM     36  H   UNL     1      -1.371   7.722  12.492  1.00  0.00     0.211 HD
ENDBRANCH  30  35
BRANCH  31  37
ATOM     37  C   UNL     1      -3.223   4.989  12.979  1.00  0.00     0.191 C 
BRANCH  37  38
ATOM     38  O   UNL     1      -4.195   5.957  13.278  1.00  0.00    -0.394 OA
ATOM     39  H   UNL     1      -5.071   5.549  13.084  1.00  0.00     0.210 HD
ENDBRANCH  37  38
ENDBRANCH  31  37
BRANCH  32  40
ATOM     40  O   UNL     1      -3.666   5.966   9.373  1.00  0.00    -0.387 OA
ATOM     41  H   UNL     1      -4.142   5.095   9.352  1.00  0.00     0.211 HD
ENDBRANCH  32  40
ENDBRANCH   1  27
TORSDOF 12
ENDMDL
MODEL 3
REMARK VINA RESULT:    -5.809     14.493     16.896
REMARK INTER + INTRA:          -9.942
REMARK INTER:                  -8.248
REMARK INTRA:                  -1.694
REMARK UNBOUND:                -1.416
REMARK SMILES O=c1c(O[C@H]2O[C@@H](CO)[C@H](O)[C@@H](O)[C@H]2O)c(-c2ccc(O)c(O)c2)oc2cc(O)cc(O)c12
REMARK SMILES IDX 4 1 3 2 16 3 25 4 2 5 26 6 1 7 33 8 27 9 31 10 28 11 30 12
REMARK SMILES IDX 17 13 18 14 19 15 20 16 24 17 22 18 21 19 23 21 32 23 29 25
REMARK SMILES IDX 5 27 14 28 6 29 12 30 7 31 10 32 15 33 13 35 8 37 9 38 11 40
REMARK H PARENT 21 20 23 22 32 24 29 26 15 34 13 36 9 39 11 41
REMARK Flexibility Score: inf
ROOT
ATOM      1  O   UNL     1       2.473  -9.980  15.976  1.00  0.00    -0.454 OA
ENDROOT
BRANCH   1   2
ATOM      2  C   UNL     1       1.983  -9.982  14.653  1.00  0.00     0.214 A 
ATOM      3  C   UNL     1       2.908  -9.816  13.609  1.00  0.00     0.180 A 
ATOM      4  O   UNL     1       2.496  -9.727  12.354  1.00  0.00    -0.452 OA
ATOM      5  C   UNL     1       0.616 -10.117  14.319  1.00  0.00     0.239 A 
ATOM      6  C   UNL     1       1.226  -9.847  11.995  1.00  0.00     0.146 A 
ATOM      7  O   UNL     1      -0.237 -10.214  15.232  1.00  0.00    -0.285 OA
ATOM      8  C   UNL     1       0.219 -10.101  12.959  1.00  0.00     0.111 A 
ATOM      9  C   UNL     1       0.899  -9.712  10.643  1.00  0.00     0.094 A 
ATOM     10  C   UNL     1      -1.123 -10.283  12.504  1.00  0.00     0.134 A 
ATOM     11  C   UNL     1      -0.421  -9.834  10.220  1.00  0.00     0.123 A 
ATOM     12  C   UNL     1      -1.423 -10.117  11.147  1.00  0.00     0.093 A 
BRANCH   3  13
ATOM     13  C   UNL     1       4.352  -9.702  13.881  1.00  0.00     0.025 A 
ATOM     14  C   UNL     1       5.123 -10.855  14.067  1.00  0.00     0.016 A 
ATOM     15  C   UNL     1       6.490 -10.750  14.331  1.00  0.00     0.051 A 
ATOM     16  C   UNL     1       7.099  -9.490  14.424  1.00  0.00     0.157 A 
ATOM     17  C   UNL     1       4.956  -8.443  13.998  1.00  0.00     0.062 A 
ATOM     18  C   UNL     1       6.326  -8.331  14.260  1.00  0.00     0.158 A 
BRANCH  16  19
ATOM     19  O   UNL     1       8.464  -9.387  14.683  1.00  0.00    -0.504 OA
ATOM     20  H   UNL     1       8.933  -8.490  14.697  1.00  0.00     0.293 HD
ENDBRANCH  16  19
BRANCH  18  21
ATOM     21  O   UNL     1       6.896  -7.063  14.361  1.00  0.00    -0.504 OA
ATOM     22  H   UNL     1       7.149  -6.657  15.255  1.00  0.00     0.293 HD
ENDBRANCH  18  21
ENDBRANCH   3  13
BRANCH  10  23
ATOM     23  O   UNL     1      -2.183 -10.652  13.333  1.00  0.00    -0.507 OA
ATOM     24  H   UNL     1      -3.098 -10.233  13.306  1.00  0.00     0.293 HD
ENDBRANCH  10  23
BRANCH  11  25
ATOM     25  O   UNL     1      -0.725  -9.681   8.870  1.00  0.00    -0.508 OA
ATOM     26  H   UNL     1      -1.301  -8.913   8.543  1.00  0.00     0.293 HD
ENDBRANCH  11  25
ENDBRANCH   1   2
BRANCH   1  27
ATOM     27  C   UNL     1       2.871 -11.119  16.745  1.00  0.00     0.339 C 
ATOM     28  C   UNL     1       1.918 -11.337  17.930  1.00  0.00     0.214 C 
ATOM     29  O   UNL     1       4.226 -11.032  17.161  1.00  0.00    -0.332 OA
ATOM     30  C   UNL     1       2.057 -10.202  18.960  1.00  0.00     0.180 C 
ATOM     31  C   UNL     1       4.484 -10.031  18.142  1.00  0.00     0.179 C 
ATOM     32  C   UNL     1       3.533 -10.085  19.372  1.00  0.00     0.177 C 
BRANCH  28  33
ATOM     33  O   UNL     1       0.590 -11.444  17.492  1.00  0.00    -0.384 OA
ATOM     34  H   UNL     1       0.339 -12.403  17.558  1.00  0.00     0.211 HD
ENDBRANCH  28  33
BRANCH  30  35
ATOM     35  O   UNL     1       1.603  -8.951  18.486  1.00  0.00    -0.387 OA
ATOM     36  H   UNL     1       2.198  -8.653  17.743  1.00  0.00     0.211 HD
ENDBRANCH  30  35
BRANCH  31  37
ATOM     37  C   UNL     1       4.615  -8.626  17.529  1.00  0.00     0.191 C 
BRANCH  37  38
ATOM     38  O   UNL     1       4.280  -7.656  18.486  1.00  0.00    -0.394 OA
ATOM     39  H   UNL     1       4.959  -6.944  18.418  1.00  0.00     0.210 HD
ENDBRANCH  37  38
ENDBRANCH  31  37
BRANCH  32  40
ATOM     40  O   UNL     1       3.868 -11.192  20.176  1.00  0.00    -0.387 OA
ATOM     41  H   UNL     1       3.215 -11.910  19.964  1.00  0.00     0.211 HD
ENDBRANCH  32  40
ENDBRANCH   1  27
TORSDOF 12
ENDMDL
MODEL 4
REMARK VINA RESULT:    -5.593     14.500     16.770
REMARK INTER + INTRA:          -9.625
REMARK INTER:                  -8.036
REMARK INTRA:                  -1.589
REMARK UNBOUND:                -1.416
REMARK SMILES O=c1c(O[C@H]2O[C@@H](CO)[C@H](O)[C@@H](O)[C@H]2O)c(-c2ccc(O)c(O)c2)oc2cc(O)cc(O)c12
REMARK SMILES IDX 4 1 3 2 16 3 25 4 2 5 26 6 1 7 33 8 27 9 31 10 28 11 30 12
REMARK SMILES IDX 17 13 18 14 19 15 20 16 24 17 22 18 21 19 23 21 32 23 29 25
REMARK SMILES IDX 5 27 14 28 6 29 12 30 7 31 10 32 15 33 13 35 8 37 9 38 11 40
REMARK H PARENT 21 20 23 22 32 24 29 26 15 34 13 36 9 39 11 41
REMARK Flexibility Score: inf
ROOT
ATOM      1  O   UNL     1       3.372 -10.135  14.522  1.00  0.00    -0.454 OA
ENDROOT
BRANCH   1   2
ATOM      2  C   UNL     1       2.100 -10.176  13.913  1.00  0.00     0.214 A 
ATOM      3  C   UNL     1       0.978 -10.343  14.742  1.00  0.00     0.180 A 
ATOM      4  O   UNL     1      -0.232 -10.471  14.218  1.00  0.00    -0.452 OA
ATOM      5  C   UNL     1       1.891 -10.083  12.517  1.00  0.00     0.239 A 
ATOM      6  C   UNL     1      -0.473 -10.392  12.917  1.00  0.00     0.146 A 
ATOM      7  O   UNL     1       2.877  -9.987  11.750  1.00  0.00    -0.285 OA
ATOM      8  C   UNL     1       0.574 -10.141  11.997  1.00  0.00     0.111 A 
ATOM      9  C   UNL     1      -1.785 -10.567  12.471  1.00  0.00     0.094 A 
ATOM     10  C   UNL     1       0.243 -10.004  10.614  1.00  0.00     0.134 A 
ATOM     11  C   UNL     1      -2.087 -10.488  11.115  1.00  0.00     0.123 A 
ATOM     12  C   UNL     1      -1.076 -10.208  10.195  1.00  0.00     0.093 A 
BRANCH   3  13
ATOM     13  C   UNL     1       1.116 -10.414  16.207  1.00  0.00     0.025 A 
ATOM     14  C   UNL     1       0.754 -11.582  16.889  1.00  0.00     0.016 A 
ATOM     15  C   UNL     1       0.878 -11.650  18.278  1.00  0.00     0.051 A 
ATOM     16  C   UNL     1       1.353 -10.547  19.002  1.00  0.00     0.157 A 
ATOM     17  C   UNL     1       1.569  -9.304  16.933  1.00  0.00     0.062 A 
ATOM     18  C   UNL     1       1.697  -9.368  18.325  1.00  0.00     0.158 A 
BRANCH  16  19
ATOM     19  O   UNL     1       1.481 -10.618  20.387  1.00  0.00    -0.504 OA
ATOM     20  H   UNL     1       2.178 -11.207  20.825  1.00  0.00     0.293 HD
ENDBRANCH  16  19
BRANCH  18  21
ATOM     21  O   UNL     1       2.158  -8.248  19.015  1.00  0.00    -0.504 OA
ATOM     22  H   UNL     1       1.754  -7.956  19.898  1.00  0.00     0.293 HD
ENDBRANCH  18  21
ENDBRANCH   3  13
BRANCH  10  23
ATOM     23  O   UNL     1       1.160  -9.642   9.625  1.00  0.00    -0.507 OA
ATOM     24  H   UNL     1       1.922  -9.000   9.765  1.00  0.00     0.293 HD
ENDBRANCH  10  23
BRANCH  11  25
ATOM     25  O   UNL     1      -3.399 -10.680  10.691  1.00  0.00    -0.508 OA
ATOM     26  H   UNL     1      -3.706 -11.569  10.315  1.00  0.00     0.293 HD
ENDBRANCH  11  25
ENDBRANCH   1   2
BRANCH   1  27
ATOM     27  C   UNL     1       4.446 -11.060  14.327  1.00  0.00     0.339 C 
ATOM     28  C   UNL     1       5.051 -11.484  15.674  1.00  0.00     0.214 C 
ATOM     29  O   UNL     1       5.430 -10.550  13.438  1.00  0.00    -0.332 OA
ATOM     30  C   UNL     1       5.773 -10.303  16.345  1.00  0.00     0.180 C 
ATOM     31  C   UNL     1       6.195  -9.465  13.957  1.00  0.00     0.179 C 
ATOM     32  C   UNL     1       6.806  -9.730  15.363  1.00  0.00     0.177 C 
BRANCH  28  33
ATOM     33  O   UNL     1       4.065 -12.006  16.523  1.00  0.00    -0.384 OA
ATOM     34  H   UNL     1       3.321 -11.349  16.544  1.00  0.00     0.211 HD
ENDBRANCH  28  33
BRANCH  30  35
ATOM     35  O   UNL     1       4.903  -9.274  16.764  1.00  0.00    -0.387 OA
ATOM     36  H   UNL     1       4.432  -8.906  15.965  1.00  0.00     0.211 HD
ENDBRANCH  30  35
BRANCH  31  37
ATOM     37  C   UNL     1       5.452  -8.121  13.855  1.00  0.00     0.191 C 
BRANCH  37  38
ATOM     38  O   UNL     1       4.770  -8.046  12.630  1.00  0.00    -0.394 OA
ATOM     39  H   UNL     1       4.123  -7.307  12.710  1.00  0.00     0.210 HD
ENDBRANCH  37  38
ENDBRANCH  31  37
BRANCH  32  40
ATOM     40  O   UNL     1       7.874 -10.641  15.245  1.00  0.00    -0.387 OA
ATOM     41  H   UNL     1       7.578 -11.489  15.669  1.00  0.00     0.211 HD
ENDBRANCH  32  40
ENDBRANCH   1  27
TORSDOF 12
ENDMDL
MODEL 5
REMARK VINA RESULT:    -5.526     14.606     16.689
REMARK INTER + INTRA:          -9.527
REMARK INTER:                  -8.004
REMARK INTRA:                  -1.523
REMARK UNBOUND:                -1.416
REMARK SMILES O=c1c(O[C@H]2O[C@@H](CO)[C@H](O)[C@@H](O)[C@H]2O)c(-c2ccc(O)c(O)c2)oc2cc(O)cc(O)c12
REMARK SMILES IDX 4 1 3 2 16 3 25 4 2 5 26 6 1 7 33 8 27 9 31 10 28 11 30 12
REMARK SMILES IDX 17 13 18 14 19 15 20 16 24 17 22 18 21 19 23 21 32 23 29 25
REMARK SMILES IDX 5 27 14 28 6 29 12 30 7 31 10 32 15 33 13 35 8 37 9 38 11 40
REMARK H PARENT 21 20 23 22 32 24 29 26 15 34 13 36 9 39 11 41
REMARK Flexibility Score: inf
ROOT
ATOM      1  O   UNL     1       3.620  -9.950  14.369  1.00  0.00    -0.454 OA
ENDROOT
BRANCH   1   2
ATOM      2  C   UNL     1       2.326 -10.050  13.817  1.00  0.00     0.214 A 
ATOM      3  C   UNL     1       1.252 -10.284  14.693  1.00  0.00     0.180 A 
ATOM      4  O   UNL     1       0.028 -10.469  14.221  1.00  0.00    -0.452 OA
ATOM      5  C   UNL     1       2.049  -9.952  12.433  1.00  0.00     0.239 A 
ATOM      6  C   UNL     1      -0.276 -10.388  12.934  1.00  0.00     0.146 A 
ATOM      7  O   UNL     1       2.993  -9.796  11.624  1.00  0.00    -0.285 OA
ATOM      8  C   UNL     1       0.715 -10.072  11.971  1.00  0.00     0.111 A 
ATOM      9  C   UNL     1      -1.596 -10.625  12.545  1.00  0.00     0.094 A 
ATOM     10  C   UNL     1       0.315  -9.937  10.607  1.00  0.00     0.134 A 
ATOM     11  C   UNL     1      -1.962 -10.547  11.204  1.00  0.00     0.123 A 
ATOM     12  C   UNL     1      -1.010 -10.205  10.244  1.00  0.00     0.093 A 
BRANCH   3  13
ATOM     13  C   UNL     1       1.460 -10.364  16.149  1.00  0.00     0.025 A 
ATOM     14  C   UNL     1       1.442 -11.608  16.791  1.00  0.00     0.016 A 
ATOM     15  C   UNL     1       1.633 -11.686  18.173  1.00  0.00     0.051 A 
ATOM     16  C   UNL     1       1.830 -10.522  18.928  1.00  0.00     0.157 A 
ATOM     17  C   UNL     1       1.634  -9.199  16.908  1.00  0.00     0.062 A 
ATOM     18  C   UNL     1       1.827  -9.272  18.291  1.00  0.00     0.158 A 
BRANCH  16  19
ATOM     19  O   UNL     1       2.025 -10.602  20.305  1.00  0.00    -0.504 OA
ATOM     20  H   UNL     1       2.796 -11.124  20.702  1.00  0.00     0.293 HD
ENDBRANCH  16  19
BRANCH  18  21
ATOM     21  O   UNL     1       2.006  -8.094  19.014  1.00  0.00    -0.504 OA
ATOM     22  H   UNL     1       1.701  -7.194  18.660  1.00  0.00     0.293 HD
ENDBRANCH  18  21
ENDBRANCH   3  13
BRANCH  10  23
ATOM     23  O   UNL     1       1.166  -9.517   9.583  1.00  0.00    -0.507 OA
ATOM     24  H   UNL     1       1.200  -9.933   8.667  1.00  0.00     0.293 HD
ENDBRANCH  10  23
BRANCH  11  25
ATOM     25  O   UNL     1      -3.281 -10.802  10.837  1.00  0.00    -0.508 OA
ATOM     26  H   UNL     1      -3.642 -10.511   9.936  1.00  0.00     0.293 HD
ENDBRANCH  11  25
ENDBRANCH   1   2
BRANCH   1  27
ATOM     27  C   UNL     1       4.258  -8.762  14.848  1.00  0.00     0.339 C 
ATOM     28  C   UNL     1       5.444  -8.381  13.947  1.00  0.00     0.214 C 
ATOM     29  O   UNL     1       4.640  -8.876  16.211  1.00  0.00    -0.332 OA
ATOM     30  C   UNL     1       6.577  -9.416  14.068  1.00  0.00     0.180 C 
ATOM     31  C   UNL     1       5.709  -9.788  16.455  1.00  0.00     0.179 C 
ATOM     32  C   UNL     1       6.955  -9.565  15.550  1.00  0.00     0.177 C 
BRANCH  28  33
ATOM     33  O   UNL     1       5.037  -8.251  12.611  1.00  0.00    -0.384 OA
ATOM     34  H   UNL     1       5.687  -8.758  12.059  1.00  0.00     0.211 HD
ENDBRANCH  28  33
BRANCH  30  35
ATOM     35  O   UNL     1       6.244 -10.682  13.539  1.00  0.00    -0.387 OA
ATOM     36  H   UNL     1       6.809 -11.374  13.983  1.00  0.00     0.211 HD
ENDBRANCH  30  35
BRANCH  31  37
ATOM     37  C   UNL     1       5.235 -11.251  16.498  1.00  0.00     0.191 C 
BRANCH  37  38
ATOM     38  O   UNL     1       6.307 -12.107  16.202  1.00  0.00    -0.394 OA
ATOM     39  H   UNL     1       5.953 -13.027  16.233  1.00  0.00     0.210 HD
ENDBRANCH  37  38
ENDBRANCH  31  37
BRANCH  32  40
ATOM     40  O   UNL     1       7.633  -8.403  15.964  1.00  0.00    -0.387 OA
ATOM     41  H   UNL     1       7.045  -7.943  16.619  1.00  0.00     0.211 HD
ENDBRANCH  32  40
ENDBRANCH   1  27
TORSDOF 12
ENDMDL
MODEL 6
REMARK VINA RESULT:    -5.398     14.908     17.132
REMARK INTER + INTRA:          -9.338
REMARK INTER:                  -7.991
REMARK INTRA:                  -1.348
REMARK UNBOUND:                -1.416
REMARK SMILES O=c1c(O[C@H]2O[C@@H](CO)[C@H](O)[C@@H](O)[C@H]2O)c(-c2ccc(O)c(O)c2)oc2cc(O)cc(O)c12
REMARK SMILES IDX 4 1 3 2 16 3 25 4 2 5 26 6 1 7 33 8 27 9 31 10 28 11 30 12
REMARK SMILES IDX 17 13 18 14 19 15 20 16 24 17 22 18 21 19 23 21 32 23 29 25
REMARK SMILES IDX 5 27 14 28 6 29 12 30 7 31 10 32 15 33 13 35 8 37 9 38 11 40
REMARK H PARENT 21 20 23 22 32 24 29 26 15 34 13 36 9 39 11 41
REMARK Flexibility Score: inf
ROOT
ATOM      1  O   UNL     1       0.586 -10.259  16.154  1.00  0.00    -0.454 OA
ENDROOT
BRANCH   1   2
ATOM      2  C   UNL     1      -0.684 -10.322  15.543  1.00  0.00     0.214 A 
ATOM      3  C   UNL     1      -0.736 -10.516  14.152  1.00  0.00     0.180 A 
ATOM      4  O   UNL     1      -1.897 -10.501  13.515  1.00  0.00    -0.452 OA
ATOM      5  C   UNL     1      -1.904 -10.179  16.243  1.00  0.00     0.239 A 
ATOM      6  C   UNL     1      -3.063 -10.368  14.129  1.00  0.00     0.146 A 
ATOM      7  O   UNL     1      -1.886  -9.953  17.475  1.00  0.00    -0.285 OA
ATOM      8  C   UNL     1      -3.132 -10.251  15.540  1.00  0.00     0.111 A 
ATOM      9  C   UNL     1      -4.226 -10.341  13.355  1.00  0.00     0.094 A 
ATOM     10  C   UNL     1      -4.421 -10.174  16.150  1.00  0.00     0.134 A 
ATOM     11  C   UNL     1      -5.473 -10.208  13.959  1.00  0.00     0.123 A 
ATOM     12  C   UNL     1      -5.566 -10.125  15.348  1.00  0.00     0.093 A 
BRANCH   3  13
ATOM     13  C   UNL     1       0.493 -10.706  13.362  1.00  0.00     0.025 A 
ATOM     14  C   UNL     1       1.153 -11.940  13.380  1.00  0.00     0.016 A 
ATOM     15  C   UNL     1       2.322 -12.121  12.637  1.00  0.00     0.051 A 
ATOM     16  C   UNL     1       2.851 -11.067  11.879  1.00  0.00     0.157 A 
ATOM     17  C   UNL     1       1.035  -9.645  12.624  1.00  0.00     0.062 A 
ATOM     18  C   UNL     1       2.204  -9.822  11.876  1.00  0.00     0.158 A 
BRANCH  16  19
ATOM     19  O   UNL     1       4.014 -11.250  11.135  1.00  0.00    -0.504 OA
ATOM     20  H   UNL     1       4.173 -10.750  10.269  1.00  0.00     0.293 HD
ENDBRANCH  16  19
BRANCH  18  21
ATOM     21  O   UNL     1       2.711  -8.748  11.146  1.00  0.00    -0.504 OA
ATOM     22  H   UNL     1       3.441  -8.146  11.510  1.00  0.00     0.293 HD
ENDBRANCH  18  21
ENDBRANCH   3  13
BRANCH  10  23
ATOM     23  O   UNL     1      -4.631 -10.173  17.531  1.00  0.00    -0.507 OA
ATOM     24  H   UNL     1      -3.962 -10.504  18.207  1.00  0.00     0.293 HD
ENDBRANCH  10  23
BRANCH  11  25
ATOM     25  O   UNL     1      -6.617 -10.169  13.166  1.00  0.00    -0.508 OA
ATOM     26  H   UNL     1      -7.537 -10.322  13.562  1.00  0.00     0.293 HD
ENDBRANCH  11  25
ENDBRANCH   1   2
BRANCH   1  27
ATOM     27  C   UNL     1       1.164 -11.229  17.033  1.00  0.00     0.339 C 
ATOM     28  C   UNL     1       1.321 -10.654  18.449  1.00  0.00     0.214 C 
ATOM     29  O   UNL     1       2.388 -11.742  16.528  1.00  0.00    -0.332 OA
ATOM     30  C   UNL     1       2.382  -9.540  18.472  1.00  0.00     0.180 C 
ATOM     31  C   UNL     1       3.467 -10.810  16.524  1.00  0.00     0.179 C 
ATOM     32  C   UNL     1       3.691 -10.090  17.885  1.00  0.00     0.177 C 
BRANCH  28  33
ATOM     33  O   UNL     1       0.095 -10.176  18.935  1.00  0.00    -0.384 OA
ATOM     34  H   UNL     1       0.297  -9.392  19.511  1.00  0.00     0.211 HD
ENDBRANCH  28  33
BRANCH  30  35
ATOM     35  O   UNL     1       2.000  -8.381  17.762  1.00  0.00    -0.387 OA
ATOM     36  H   UNL     1       1.813  -7.650  18.415  1.00  0.00     0.211 HD
ENDBRANCH  30  35
BRANCH  31  37
ATOM     37  C   UNL     1       3.410  -9.850  15.323  1.00  0.00     0.191 C 
BRANCH  37  38
ATOM     38  O   UNL     1       4.232  -8.737  15.564  1.00  0.00    -0.394 OA
ATOM     39  H   UNL     1       3.644  -7.946  15.573  1.00  0.00     0.210 HD
ENDBRANCH  37  38
ENDBRANCH  31  37
BRANCH  32  40
ATOM     40  O   UNL     1       4.257 -10.992  18.805  1.00  0.00    -0.387 OA
ATOM     41  H   UNL     1       3.679 -10.981  19.613  1.00  0.00     0.211 HD
ENDBRANCH  32  40
ENDBRANCH   1  27
TORSDOF 12
ENDMDL
MODEL 7
REMARK VINA RESULT:    -5.304     14.437     16.655
REMARK INTER + INTRA:          -9.201
REMARK INTER:                  -7.915
REMARK INTRA:                  -1.286
REMARK UNBOUND:                -1.416
REMARK SMILES O=c1c(O[C@H]2O[C@@H](CO)[C@H](O)[C@@H](O)[C@H]2O)c(-c2ccc(O)c(O)c2)oc2cc(O)cc(O)c12
REMARK SMILES IDX 4 1 3 2 16 3 25 4 2 5 26 6 1 7 33 8 27 9 31 10 28 11 30 12
REMARK SMILES IDX 17 13 18 14 19 15 20 16 24 17 22 18 21 19 23 21 32 23 29 25
REMARK SMILES IDX 5 27 14 28 6 29 12 30 7 31 10 32 15 33 13 35 8 37 9 38 11 40
REMARK H PARENT 21 20 23 22 32 24 29 26 15 34 13 36 9 39 11 41
REMARK Flexibility Score: inf
ROOT
ATOM      1  O   UNL     1       1.920 -10.164  14.005  1.00  0.00    -0.454 OA
ENDROOT
BRANCH   1   2
ATOM      2  C   UNL     1       0.615 -10.259  14.532  1.00  0.00     0.214 A 
ATOM      3  C   UNL     1      -0.448 -10.426  13.629  1.00  0.00     0.180 A 
ATOM      4  O   UNL     1      -1.700 -10.437  14.061  1.00  0.00    -0.452 OA
ATOM      5  C   UNL     1       0.313 -10.170  15.910  1.00  0.00     0.239 A 
ATOM      6  C   UNL     1      -2.029 -10.356  15.342  1.00  0.00     0.146 A 
ATOM      7  O   UNL     1       1.237  -9.968  16.734  1.00  0.00    -0.285 OA
ATOM      8  C   UNL     1      -1.032 -10.270  16.345  1.00  0.00     0.111 A 
ATOM      9  C   UNL     1      -3.384 -10.353  15.684  1.00  0.00     0.094 A 
ATOM     10  C   UNL     1      -1.445 -10.248  17.712  1.00  0.00     0.134 A 
ATOM     11  C   UNL     1      -3.775 -10.274  17.017  1.00  0.00     0.123 A 
ATOM     12  C   UNL     1      -2.809 -10.222  18.022  1.00  0.00     0.093 A 
BRANCH   3  13
ATOM     13  C   UNL     1      -0.207 -10.559  12.182  1.00  0.00     0.025 A 
ATOM     14  C   UNL     1       0.255 -11.772  11.657  1.00  0.00     0.016 A 
ATOM     15  C   UNL     1       0.491 -11.898  10.287  1.00  0.00     0.051 A 
ATOM     16  C   UNL     1       0.281 -10.810   9.428  1.00  0.00     0.157 A 
ATOM     17  C   UNL     1      -0.394  -9.464  11.327  1.00  0.00     0.062 A 
ATOM     18  C   UNL     1      -0.161  -9.586   9.953  1.00  0.00     0.158 A 
BRANCH  16  19
ATOM     19  O   UNL     1       0.512 -10.938   8.060  1.00  0.00    -0.504 OA
ATOM     20  H   UNL     1       0.476 -10.139   7.440  1.00  0.00     0.293 HD
ENDBRANCH  16  19
BRANCH  18  21
ATOM     21  O   UNL     1      -0.365  -8.480   9.130  1.00  0.00    -0.504 OA
ATOM     22  H   UNL     1      -0.485  -7.545   9.504  1.00  0.00     0.293 HD
ENDBRANCH  18  21
ENDBRANCH   3  13
BRANCH  10  23
ATOM     23  O   UNL     1      -0.564 -10.282  18.793  1.00  0.00    -0.507 OA
ATOM     24  H   UNL     1      -0.105 -11.114  19.127  1.00  0.00     0.293 HD
ENDBRANCH  10  23
BRANCH  11  25
ATOM     25  O   UNL     1      -5.131 -10.257  17.334  1.00  0.00    -0.508 OA
ATOM     26  H   UNL     1      -5.448 -10.310  18.295  1.00  0.00     0.293 HD
ENDBRANCH  11  25
ENDBRANCH   1   2
BRANCH   1  27
ATOM     27  C   UNL     1       2.824 -11.246  13.753  1.00  0.00     0.339 C 
ATOM     28  C   UNL     1       4.004 -11.208  14.736  1.00  0.00     0.214 C 
ATOM     29  O   UNL     1       3.257 -11.272  12.401  1.00  0.00    -0.332 OA
ATOM     30  C   UNL     1       4.899  -9.985  14.469  1.00  0.00     0.180 C 
ATOM     31  C   UNL     1       4.123 -10.201  12.032  1.00  0.00     0.179 C 
ATOM     32  C   UNL     1       5.329  -9.998  12.994  1.00  0.00     0.177 C 
BRANCH  28  33
ATOM     33  O   UNL     1       3.552 -11.207  16.063  1.00  0.00    -0.384 OA
ATOM     34  H   UNL     1       4.353 -11.124  16.643  1.00  0.00     0.211 HD
ENDBRANCH  28  33
BRANCH  30  35
ATOM     35  O   UNL     1       4.275  -8.754  14.765  1.00  0.00    -0.387 OA
ATOM     36  H   UNL     1       4.120  -8.701  15.749  1.00  0.00     0.211 HD
ENDBRANCH  30  35
BRANCH  31  37
ATOM     37  C   UNL     1       3.355  -8.903  11.728  1.00  0.00     0.191 C 
BRANCH  37  38
ATOM     38  O   UNL     1       4.232  -7.945  11.197  1.00  0.00    -0.394 OA
ATOM     39  H   UNL     1       4.402  -8.203  10.261  1.00  0.00     0.210 HD
ENDBRANCH  37  38
ENDBRANCH  31  37
BRANCH  32  40
ATOM     40  O   UNL     1       6.261 -11.035  12.802  1.00  0.00    -0.387 OA
ATOM     41  H   UNL     1       5.808 -11.735  12.262  1.00  0.00     0.211 HD
ENDBRANCH  32  40
ENDBRANCH   1  27
TORSDOF 12
ENDMDL
MODEL 8
REMARK VINA RESULT:    -5.138     14.634     16.894
REMARK INTER + INTRA:          -8.957
REMARK INTER:                  -7.297
REMARK INTRA:                  -1.660
REMARK UNBOUND:                -1.416
REMARK SMILES O=c1c(O[C@H]2O[C@@H](CO)[C@H](O)[C@@H](O)[C@H]2O)c(-c2ccc(O)c(O)c2)oc2cc(O)cc(O)c12
REMARK SMILES IDX 4 1 3 2 16 3 25 4 2 5 26 6 1 7 33 8 27 9 31 10 28 11 30 12
REMARK SMILES IDX 17 13 18 14 19 15 20 16 24 17 22 18 21 19 23 21 32 23 29 25
REMARK SMILES IDX 5 27 14 28 6 29 12 30 7 31 10 32 15 33 13 35 8 37 9 38 11 40
REMARK H PARENT 21 20 23 22 32 24 29 26 15 34 13 36 9 39 11 41
REMARK Flexibility Score: inf
ROOT
ATOM      1  O   UNL     1       3.217  -9.609  16.080  1.00  0.00    -0.454 OA
ENDROOT
BRANCH   1   2
ATOM      2  C   UNL     1       1.873  -9.981  15.868  1.00  0.00     0.214 A 
ATOM      3  C   UNL     1       1.513 -10.452  14.594  1.00  0.00     0.180 A 
ATOM      4  O   UNL     1       0.250 -10.737  14.315  1.00  0.00    -0.452 OA
ATOM      5  C   UNL     1       0.864  -9.886  16.854  1.00  0.00     0.239 A 
ATOM      6  C   UNL     1      -0.727 -10.661  15.207  1.00  0.00     0.146 A 
ATOM      7  O   UNL     1       1.145  -9.421  17.984  1.00  0.00    -0.285 OA
ATOM      8  C   UNL     1      -0.462 -10.279  16.546  1.00  0.00     0.111 A 
ATOM      9  C   UNL     1      -2.028 -10.962  14.797  1.00  0.00     0.094 A 
ATOM     10  C   UNL     1      -1.545 -10.276  17.476  1.00  0.00     0.134 A 
ATOM     11  C   UNL     1      -3.085 -10.900  15.701  1.00  0.00     0.123 A 
ATOM     12  C   UNL     1      -2.842 -10.559  17.031  1.00  0.00     0.093 A 
BRANCH   3  13
ATOM     13  C   UNL     1       2.518 -10.608  13.528  1.00  0.00     0.025 A 
ATOM     14  C   UNL     1       3.243 -11.800  13.418  1.00  0.00     0.016 A 
ATOM     15  C   UNL     1       4.200 -11.948  12.412  1.00  0.00     0.051 A 
ATOM     16  C   UNL     1       4.451 -10.903  11.513  1.00  0.00     0.157 A 
ATOM     17  C   UNL     1       2.785  -9.554  12.644  1.00  0.00     0.062 A 
ATOM     18  C   UNL     1       3.742  -9.698  11.633  1.00  0.00     0.158 A 
BRANCH  16  19
ATOM     19  O   UNL     1       5.403 -11.054  10.507  1.00  0.00    -0.504 OA
ATOM     20  H   UNL     1       6.092 -10.337  10.319  1.00  0.00     0.293 HD
ENDBRANCH  16  19
BRANCH  18  21
ATOM     21  O   UNL     1       3.977  -8.633  10.765  1.00  0.00    -0.504 OA
ATOM     22  H   UNL     1       4.611  -7.877  11.000  1.00  0.00     0.293 HD
ENDBRANCH  18  21
ENDBRANCH   3  13
BRANCH  10  23
ATOM     23  O   UNL     1      -1.398 -10.034  18.843  1.00  0.00    -0.507 OA
ATOM     24  H   UNL     1      -1.003 -10.690  19.497  1.00  0.00     0.293 HD
ENDBRANCH  10  23
BRANCH  11  25
ATOM     25  O   UNL     1      -4.376 -11.190  15.267  1.00  0.00    -0.508 OA
ATOM     26  H   UNL     1      -4.613 -11.188  14.281  1.00  0.00     0.293 HD
ENDBRANCH  11  25
ENDBRANCH   1   2
BRANCH   1  27
ATOM     27  C   UNL     1       4.260 -10.429  16.617  1.00  0.00     0.339 C 
ATOM     28  C   UNL     1       4.743  -9.879  17.968  1.00  0.00     0.214 C 
ATOM     29  O   UNL     1       5.329 -10.599  15.698  1.00  0.00    -0.332 OA
ATOM     30  C   UNL     1       5.467  -8.534  17.783  1.00  0.00     0.180 C 
ATOM     31  C   UNL     1       6.102  -9.425  15.462  1.00  0.00     0.179 C 
ATOM     32  C   UNL     1       6.595  -8.716  16.756  1.00  0.00     0.177 C 
BRANCH  28  33
ATOM     33  O   UNL     1       3.674  -9.743  18.865  1.00  0.00    -0.384 OA
ATOM     34  H   UNL     1       3.566 -10.617  19.323  1.00  0.00     0.211 HD
ENDBRANCH  28  33
BRANCH  30  35
ATOM     35  O   UNL     1       4.616  -7.487  17.365  1.00  0.00    -0.387 OA
ATOM     36  H   UNL     1       5.176  -6.714  17.076  1.00  0.00     0.211 HD
ENDBRANCH  30  35
BRANCH  31  37
ATOM     37  C   UNL     1       5.432  -8.472  14.457  1.00  0.00     0.191 C 
BRANCH  37  38
ATOM     38  O   UNL     1       6.004  -7.194  14.558  1.00  0.00    -0.394 OA
ATOM     39  H   UNL     1       6.976  -7.325  14.649  1.00  0.00     0.210 HD
ENDBRANCH  37  38
ENDBRANCH  31  37
BRANCH  32  40
ATOM     40  O   UNL     1       7.625  -9.474  17.343  1.00  0.00    -0.387 OA
ATOM     41  H   UNL     1       7.190 -10.152  17.924  1.00  0.00     0.211 HD
ENDBRANCH  32  40
ENDBRANCH   1  27
TORSDOF 12
ENDMDL
