MODEL 1
REMARK VINA RESULT:    -2.770      0.000      0.000
REMARK INTER + INTRA:          -9.135
REMARK INTER:                  -7.304
REMARK INTRA:                  -1.831
REMARK UNBOUND:                -1.831
REMARK SMILES CCCCCCCCCCCCCCCCCCCCCCCCCCCCCC(=O)[O-]
REMARK SMILES IDX 16 1 17 2 18 3 19 4 20 5 21 6 22 7 23 8 24 9 25 10 26 11
REMARK SMILES IDX 27 12 28 13 29 14 30 15 31 16 32 17 15 18 14 19 13 20 12 21
REMARK SMILES IDX 11 22 10 23 9 24 8 25 7 26 6 27 5 28 4 29 3 30 2 31 1 32
REMARK H PARENT
REMARK Flexibility Score: inf
ROOT
ATOM      1  C   UNL     1      -6.212  -7.561   1.533  1.00  0.00     0.000 C 
ENDROOT
BRANCH   1   2
ATOM      2  C   UNL     1      -5.429  -6.390   0.915  1.00  0.00     0.000 C 
BRANCH   2   3
ATOM      3  C   UNL     1      -5.917  -5.986  -0.490  1.00  0.00     0.000 C 
BRANCH   3   4
ATOM      4  C   UNL     1      -6.105  -4.468  -0.633  1.00  0.00     0.000 C 
BRANCH   4   5
ATOM      5  C   UNL     1      -4.876  -3.829  -1.299  1.00  0.00     0.000 C 
BRANCH   5   6
ATOM      6  C   UNL     1      -5.249  -2.784  -2.361  1.00  0.00     0.000 C 
BRANCH   6   7
ATOM      7  C   UNL     1      -4.884  -1.350  -1.944  1.00  0.00     0.000 C 
BRANCH   7   8
ATOM      8  C   UNL     1      -5.639  -0.876  -0.691  1.00  0.00     0.000 C 
BRANCH   8   9
ATOM      9  C   UNL     1      -4.929  -1.208   0.642  1.00  0.00     0.000 C 
BRANCH   9  10
ATOM     10  C   UNL     1      -5.842  -1.214   1.885  1.00  0.00     0.000 C 
BRANCH  10  11
ATOM     11  C   UNL     1      -6.392  -2.593   2.310  1.00  0.00     0.000 C 
BRANCH  11  12
ATOM     12  C   UNL     1      -7.702  -2.526   3.120  1.00  0.00     0.000 C 
BRANCH  12  13
ATOM     13  C   UNL     1      -8.843  -3.313   2.453  1.00  0.00     0.006 C 
BRANCH  13  14
ATOM     14  C   UNL     1     -10.209  -3.001   3.079  1.00  0.00     0.053 C 
BRANCH  14  15
ATOM     15  C   UNL     1     -11.211  -4.086   2.820  1.00  0.00     0.041 C 
ATOM     16  O   UNL     1     -12.373  -3.792   2.428  1.00  0.00    -0.550 OA
ATOM     17  O   UNL     1     -10.858  -5.417   2.991  1.00  0.00    -0.550 OA
ENDBRANCH  14  15
ENDBRANCH  13  14
ENDBRANCH  12  13
ENDBRANCH  11  12
ENDBRANCH  10  11
ENDBRANCH   9  10
ENDBRANCH   8   9
ENDBRANCH   7   8
ENDBRANCH   6   7
ENDBRANCH   5   6
ENDBRANCH   4   5
ENDBRANCH   3   4
ENDBRANCH   2   3
ENDBRANCH   1   2
BRANCH   1  18
ATOM     18  C   UNL     1      -5.328  -8.802   1.761  1.00  0.00     0.000 C 
BRANCH  18  19
ATOM     19  C   UNL     1      -6.081  -9.954   2.454  1.00  0.00     0.000 C 
BRANCH  19  20
ATOM     20  C   UNL     1      -5.635 -11.370   2.045  1.00  0.00     0.000 C 
BRANCH  20  21
ATOM     21  C   UNL     1      -4.997 -11.421   0.647  1.00  0.00     0.000 C 
BRANCH  21  22
ATOM     22  C   UNL     1      -4.953 -12.845   0.064  1.00  0.00     0.000 C 
BRANCH  22  23
ATOM     23  C   UNL     1      -5.137 -13.955   1.121  1.00  0.00     0.000 C 
BRANCH  23  24
ATOM     24  C   UNL     1      -6.353 -14.846   0.816  1.00  0.00    -0.000 C 
BRANCH  24  25
ATOM     25  C   UNL     1      -6.713 -15.798   1.973  1.00  0.00    -0.000 C 
BRANCH  25  26
ATOM     26  C   UNL     1      -5.512 -16.414   2.714  1.00  0.00    -0.000 C 
BRANCH  26  27
ATOM     27  C   UNL     1      -5.163 -17.859   2.307  1.00  0.00    -0.000 C 
BRANCH  27  28
ATOM     28  C   UNL     1      -6.305 -18.868   2.553  1.00  0.00    -0.000 C 
BRANCH  28  29
ATOM     29  C   UNL     1      -6.464 -19.865   1.395  1.00  0.00    -0.000 C 
BRANCH  29  30
ATOM     30  C   UNL     1      -6.289 -19.171   0.039  1.00  0.00    -0.000 C 
BRANCH  30  31
ATOM     31  C   UNL     1      -5.885 -20.177  -1.045  1.00  0.00    -0.003 C 
ATOM     32  C   UNL     1      -7.111 -20.789  -1.714  1.00  0.00     0.004 C 
ENDBRANCH  30  31
ENDBRANCH  29  30
ENDBRANCH  28  29
ENDBRANCH  27  28
ENDBRANCH  26  27
ENDBRANCH  25  26
ENDBRANCH  24  25
ENDBRANCH  23  24
ENDBRANCH  22  23
ENDBRANCH  21  22
ENDBRANCH  20  21
ENDBRANCH  19  20
ENDBRANCH  18  19
ENDBRANCH   1  18
TORSDOF 28
ENDMDL
MODEL 2
REMARK VINA RESULT:    -2.562      1.349      2.620
REMARK INTER + INTRA:          -8.586
REMARK INTER:                  -6.961
REMARK INTRA:                  -1.625
REMARK UNBOUND:                -1.831
REMARK SMILES CCCCCCCCCCCCCCCCCCCCCCCCCCCCCC(=O)[O-]
REMARK SMILES IDX 16 1 17 2 18 3 19 4 20 5 21 6 22 7 23 8 24 9 25 10 26 11
REMARK SMILES IDX 27 12 28 13 29 14 30 15 31 16 32 17 15 18 14 19 13 20 12 21
REMARK SMILES IDX 11 22 10 23 9 24 8 25 7 26 6 27 5 28 4 29 3 30 2 31 1 32
REMARK H PARENT
REMARK Flexibility Score: inf
ROOT
ATOM      1  C   UNL     1      -6.156 -10.793   2.178  1.00  0.00     0.000 C 
ENDROOT
BRANCH   1   2
ATOM      2  C   UNL     1      -7.031  -9.952   3.123  1.00  0.00     0.000 C 
BRANCH   2   3
ATOM      3  C   UNL     1      -6.722  -8.443   3.081  1.00  0.00     0.000 C 
BRANCH   3   4
ATOM      4  C   UNL     1      -7.447  -7.725   1.933  1.00  0.00     0.000 C 
BRANCH   4   5
ATOM      5  C   UNL     1      -6.965  -6.271   1.809  1.00  0.00     0.000 C 
BRANCH   5   6
ATOM      6  C   UNL     1      -5.490  -6.097   2.202  1.00  0.00     0.000 C 
BRANCH   6   7
ATOM      7  C   UNL     1      -4.954  -4.687   1.909  1.00  0.00     0.000 C 
BRANCH   7   8
ATOM      8  C   UNL     1      -5.587  -4.048   0.661  1.00  0.00     0.000 C 
BRANCH   8   9
ATOM      9  C   UNL     1      -5.027  -2.651   0.309  1.00  0.00     0.000 C 
BRANCH   9  10
ATOM     10  C   UNL     1      -5.897  -1.463   0.768  1.00  0.00     0.000 C 
BRANCH  10  11
ATOM     11  C   UNL     1      -5.904  -1.181   2.287  1.00  0.00     0.000 C 
BRANCH  11  12
ATOM     12  C   UNL     1      -6.711  -2.202   3.113  1.00  0.00     0.000 C 
BRANCH  12  13
ATOM     13  C   UNL     1      -8.203  -2.209   2.739  1.00  0.00     0.006 C 
BRANCH  13  14
ATOM     14  C   UNL     1      -8.837  -3.597   2.901  1.00  0.00     0.053 C 
BRANCH  14  15
ATOM     15  C   UNL     1     -10.281  -3.611   2.496  1.00  0.00     0.041 C 
ATOM     16  O   UNL     1     -10.840  -4.697   2.186  1.00  0.00    -0.550 OA
ATOM     17  O   UNL     1     -11.012  -2.430   2.483  1.00  0.00    -0.550 OA
ENDBRANCH  14  15
ENDBRANCH  13  14
ENDBRANCH  12  13
ENDBRANCH  11  12
ENDBRANCH  10  11
ENDBRANCH   9  10
ENDBRANCH   8   9
ENDBRANCH   7   8
ENDBRANCH   6   7
ENDBRANCH   5   6
ENDBRANCH   4   5
ENDBRANCH   3   4
ENDBRANCH   2   3
ENDBRANCH   1   2
BRANCH   1  18
ATOM     18  C   UNL     1      -5.311  -9.921   1.230  1.00  0.00     0.000 C 
BRANCH  18  19
ATOM     19  C   UNL     1      -5.615 -10.187  -0.257  1.00  0.00     0.000 C 
BRANCH  19  20
ATOM     20  C   UNL     1      -6.252 -11.555  -0.563  1.00  0.00     0.000 C 
BRANCH  20  21
ATOM     21  C   UNL     1      -5.247 -12.577  -1.120  1.00  0.00     0.000 C 
BRANCH  21  22
ATOM     22  C   UNL     1      -4.875 -13.665  -0.097  1.00  0.00     0.000 C 
BRANCH  22  23
ATOM     23  C   UNL     1      -6.055 -14.582   0.291  1.00  0.00     0.000 C 
BRANCH  23  24
ATOM     24  C   UNL     1      -5.581 -15.873   0.981  1.00  0.00    -0.000 C 
BRANCH  24  25
ATOM     25  C   UNL     1      -5.862 -15.891   2.495  1.00  0.00    -0.000 C 
BRANCH  25  26
ATOM     26  C   UNL     1      -5.977 -17.293   3.124  1.00  0.00    -0.000 C 
BRANCH  26  27
ATOM     27  C   UNL     1      -4.877 -18.288   2.708  1.00  0.00    -0.000 C 
BRANCH  27  28
ATOM     28  C   UNL     1      -5.134 -18.970   1.348  1.00  0.00    -0.000 C 
BRANCH  28  29
ATOM     29  C   UNL     1      -6.629 -19.206   1.083  1.00  0.00    -0.000 C 
BRANCH  29  30
ATOM     30  C   UNL     1      -6.840 -20.079  -0.160  1.00  0.00    -0.000 C 
BRANCH  30  31
ATOM     31  C   UNL     1      -5.500 -20.575  -0.715  1.00  0.00    -0.003 C 
ATOM     32  C   UNL     1      -5.417 -20.368  -2.223  1.00  0.00     0.004 C 
ENDBRANCH  30  31
ENDBRANCH  29  30
ENDBRANCH  28  29
ENDBRANCH  27  28
ENDBRANCH  26  27
ENDBRANCH  25  26
ENDBRANCH  24  25
ENDBRANCH  23  24
ENDBRANCH  22  23
ENDBRANCH  21  22
ENDBRANCH  20  21
ENDBRANCH  19  20
ENDBRANCH  18  19
ENDBRANCH   1  18
TORSDOF 28
ENDMDL
MODEL 3
REMARK VINA RESULT:    -0.787      1.443      2.655
REMARK INTER + INTRA:          -3.906
REMARK INTER:                  -4.158
REMARK INTRA:                   0.252
REMARK UNBOUND:                -1.831
REMARK SMILES CCCCCCCCCCCCCCCCCCCCCCCCCCCCCC(=O)[O-]
REMARK SMILES IDX 16 1 17 2 18 3 19 4 20 5 21 6 22 7 23 8 24 9 25 10 26 11
REMARK SMILES IDX 27 12 28 13 29 14 30 15 31 16 32 17 15 18 14 19 13 20 12 21
REMARK SMILES IDX 11 22 10 23 9 24 8 25 7 26 6 27 5 28 4 29 3 30 2 31 1 32
REMARK H PARENT
REMARK Flexibility Score: inf
ROOT
ATOM      1  C   UNL     1      -6.682  -6.778   0.957  1.00  0.00     0.000 C 
ENDROOT
BRANCH   1   2
ATOM      2  C   UNL     1      -5.628  -5.658   0.992  1.00  0.00     0.000 C 
BRANCH   2   3
ATOM      3  C   UNL     1      -5.699  -4.696  -0.210  1.00  0.00     0.000 C 
BRANCH   3   4
ATOM      4  C   UNL     1      -5.911  -3.236   0.218  1.00  0.00     0.000 C 
BRANCH   4   5
ATOM      5  C   UNL     1      -4.877  -2.825   1.279  1.00  0.00     0.000 C 
BRANCH   5   6
ATOM      6  C   UNL     1      -5.330  -1.620   2.117  1.00  0.00     0.000 C 
BRANCH   6   7
ATOM      7  C   UNL     1      -6.534  -1.936   3.018  1.00  0.00     0.000 C 
BRANCH   7   8
ATOM      8  C   UNL     1      -7.874  -1.920   2.263  1.00  0.00     0.000 C 
BRANCH   8   9
ATOM      9  C   UNL     1      -9.094  -2.321   3.124  1.00  0.00     0.000 C 
BRANCH   9  10
ATOM     10  C   UNL     1      -9.488  -3.810   3.049  1.00  0.00     0.000 C 
BRANCH  10  11
ATOM     11  C   UNL     1      -8.544  -4.714   2.227  1.00  0.00     0.000 C 
BRANCH  11  12
ATOM     12  C   UNL     1      -9.271  -5.655   1.244  1.00  0.00     0.000 C 
BRANCH  12  13
ATOM     13  C   UNL     1     -10.799  -5.620   1.422  1.00  0.00     0.006 C 
BRANCH  13  14
ATOM     14  C   UNL     1     -11.452  -4.487   0.621  1.00  0.00     0.053 C 
BRANCH  14  15
ATOM     15  C   UNL     1     -12.543  -3.804   1.391  1.00  0.00     0.041 C 
ATOM     16  O   UNL     1     -12.255  -3.040   2.352  1.00  0.00    -0.550 OA
ATOM     17  O   UNL     1     -13.871  -3.993   1.034  1.00  0.00    -0.550 OA
ENDBRANCH  14  15
ENDBRANCH  13  14
ENDBRANCH  12  13
ENDBRANCH  11  12
ENDBRANCH  10  11
ENDBRANCH   9  10
ENDBRANCH   8   9
ENDBRANCH   7   8
ENDBRANCH   6   7
ENDBRANCH   5   6
ENDBRANCH   4   5
ENDBRANCH   3   4
ENDBRANCH   2   3
ENDBRANCH   1   2
BRANCH   1  18
ATOM     18  C   UNL     1      -6.074  -8.165   1.237  1.00  0.00     0.000 C 
BRANCH  18  19
ATOM     19  C   UNL     1      -6.510  -8.747   2.594  1.00  0.00     0.000 C 
BRANCH  19  20
ATOM     20  C   UNL     1      -6.029 -10.181   2.881  1.00  0.00     0.000 C 
BRANCH  20  21
ATOM     21  C   UNL     1      -4.928 -10.651   1.915  1.00  0.00     0.000 C 
BRANCH  21  22
ATOM     22  C   UNL     1      -5.475 -11.025   0.526  1.00  0.00     0.000 C 
BRANCH  22  23
ATOM     23  C   UNL     1      -5.932 -12.496   0.413  1.00  0.00     0.000 C 
BRANCH  23  24
ATOM     24  C   UNL     1      -4.958 -13.459   1.112  1.00  0.00    -0.000 C 
BRANCH  24  25
ATOM     25  C   UNL     1      -5.615 -14.786   1.536  1.00  0.00    -0.000 C 
BRANCH  25  26
ATOM     26  C   UNL     1      -5.180 -15.324   2.912  1.00  0.00    -0.000 C 
BRANCH  26  27
ATOM     27  C   UNL     1      -4.959 -16.847   2.979  1.00  0.00    -0.000 C 
BRANCH  27  28
ATOM     28  C   UNL     1      -5.141 -17.564   1.625  1.00  0.00    -0.000 C 
BRANCH  28  29
ATOM     29  C   UNL     1      -6.462 -18.344   1.546  1.00  0.00    -0.000 C 
BRANCH  29  30
ATOM     30  C   UNL     1      -6.481 -19.279   0.331  1.00  0.00    -0.000 C 
BRANCH  30  31
ATOM     31  C   UNL     1      -5.451 -18.838  -0.716  1.00  0.00    -0.003 C 
ATOM     32  C   UNL     1      -4.875 -20.037  -1.461  1.00  0.00     0.004 C 
ENDBRANCH  30  31
ENDBRANCH  29  30
ENDBRANCH  28  29
ENDBRANCH  27  28
ENDBRANCH  26  27
ENDBRANCH  25  26
ENDBRANCH  24  25
ENDBRANCH  23  24
ENDBRANCH  22  23
ENDBRANCH  21  22
ENDBRANCH  20  21
ENDBRANCH  19  20
ENDBRANCH  18  19
ENDBRANCH   1  18
TORSDOF 28
ENDMDL
MODEL 4
REMARK VINA RESULT:    -0.635     20.943     25.705
REMARK INTER + INTRA:          -3.504
REMARK INTER:                  -3.227
REMARK INTRA:                  -0.277
REMARK UNBOUND:                -1.831
REMARK SMILES CCCCCCCCCCCCCCCCCCCCCCCCCCCCCC(=O)[O-]
REMARK SMILES IDX 16 1 17 2 18 3 19 4 20 5 21 6 22 7 23 8 24 9 25 10 26 11
REMARK SMILES IDX 27 12 28 13 29 14 30 15 31 16 32 17 15 18 14 19 13 20 12 21
REMARK SMILES IDX 11 22 10 23 9 24 8 25 7 26 6 27 5 28 4 29 3 30 2 31 1 32
REMARK H PARENT
REMARK Flexibility Score: inf
ROOT
ATOM      1  C   UNL     1     -22.097  -5.361 -15.962  1.00  0.00     0.000 C 
ENDROOT
BRANCH   1   2
ATOM      2  C   UNL     1     -21.596  -6.816 -15.963  1.00  0.00     0.000 C 
BRANCH   2   3
ATOM      3  C   UNL     1     -21.431  -7.419 -14.555  1.00  0.00     0.000 C 
BRANCH   3   4
ATOM      4  C   UNL     1     -21.518  -8.953 -14.558  1.00  0.00     0.000 C 
BRANCH   4   5
ATOM      5  C   UNL     1     -22.529  -9.437 -15.609  1.00  0.00     0.000 C 
BRANCH   5   6
ATOM      6  C   UNL     1     -22.650 -10.968 -15.659  1.00  0.00     0.000 C 
BRANCH   6   7
ATOM      7  C   UNL     1     -22.824 -11.509 -17.087  1.00  0.00     0.000 C 
BRANCH   7   8
ATOM      8  C   UNL     1     -23.237 -12.990 -17.124  1.00  0.00     0.000 C 
BRANCH   8   9
ATOM      9  C   UNL     1     -22.246 -13.943 -16.417  1.00  0.00     0.000 C 
BRANCH   9  10
ATOM     10  C   UNL     1     -22.136 -15.351 -17.038  1.00  0.00     0.000 C 
BRANCH  10  11
ATOM     11  C   UNL     1     -20.711 -15.939 -17.123  1.00  0.00     0.000 C 
BRANCH  11  12
ATOM     12  C   UNL     1     -20.630 -17.444 -16.794  1.00  0.00     0.000 C 
BRANCH  12  13
ATOM     13  C   UNL     1     -19.247 -17.851 -16.257  1.00  0.00     0.006 C 
BRANCH  13  14
ATOM     14  C   UNL     1     -19.339 -18.936 -15.177  1.00  0.00     0.053 C 
BRANCH  14  15
ATOM     15  C   UNL     1     -18.005 -19.238 -14.561  1.00  0.00     0.041 C 
ATOM     16  O   UNL     1     -16.947 -19.050 -15.221  1.00  0.00    -0.550 OA
ATOM     17  O   UNL     1     -17.929 -19.705 -13.256  1.00  0.00    -0.550 OA
ENDBRANCH  14  15
ENDBRANCH  13  14
ENDBRANCH  12  13
ENDBRANCH  11  12
ENDBRANCH  10  11
ENDBRANCH   9  10
ENDBRANCH   8   9
ENDBRANCH   7   8
ENDBRANCH   6   7
ENDBRANCH   5   6
ENDBRANCH   4   5
ENDBRANCH   3   4
ENDBRANCH   2   3
ENDBRANCH   1   2
BRANCH   1  18
ATOM     18  C   UNL     1     -23.582  -5.253 -16.356  1.00  0.00     0.000 C 
BRANCH  18  19
ATOM     19  C   UNL     1     -24.536  -5.546 -15.183  1.00  0.00     0.000 C 
BRANCH  19  20
ATOM     20  C   UNL     1     -25.101  -4.305 -14.469  1.00  0.00     0.000 C 
BRANCH  20  21
ATOM     21  C   UNL     1     -24.008  -3.336 -13.988  1.00  0.00     0.000 C 
BRANCH  21  22
ATOM     22  C   UNL     1     -24.582  -2.086 -13.297  1.00  0.00     0.000 C 
BRANCH  22  23
ATOM     23  C   UNL     1     -24.053  -1.871 -11.863  1.00  0.00     0.000 C 
BRANCH  23  24
ATOM     24  C   UNL     1     -22.549  -1.550 -11.844  1.00  0.00    -0.000 C 
BRANCH  24  25
ATOM     25  C   UNL     1     -21.665  -2.762 -12.191  1.00  0.00    -0.000 C 
BRANCH  25  26
ATOM     26  C   UNL     1     -21.270  -2.882 -13.675  1.00  0.00    -0.000 C 
BRANCH  26  27
ATOM     27  C   UNL     1     -21.174  -1.547 -14.437  1.00  0.00    -0.000 C 
BRANCH  27  28
ATOM     28  C   UNL     1     -21.146  -1.706 -15.973  1.00  0.00    -0.000 C 
BRANCH  28  29
ATOM     29  C   UNL     1     -20.218  -2.843 -16.428  1.00  0.00    -0.000 C 
BRANCH  29  30
ATOM     30  C   UNL     1     -18.764  -2.562 -16.031  1.00  0.00    -0.000 C 
BRANCH  30  31
ATOM     31  C   UNL     1     -18.417  -1.082 -16.228  1.00  0.00    -0.003 C 
ATOM     32  C   UNL     1     -16.920  -0.890 -16.446  1.00  0.00     0.004 C 
ENDBRANCH  30  31
ENDBRANCH  29  30
ENDBRANCH  28  29
ENDBRANCH  27  28
ENDBRANCH  26  27
ENDBRANCH  25  26
ENDBRANCH  24  25
ENDBRANCH  23  24
ENDBRANCH  22  23
ENDBRANCH  21  22
ENDBRANCH  20  21
ENDBRANCH  19  20
ENDBRANCH  18  19
ENDBRANCH   1  18
TORSDOF 28
ENDMDL
MODEL 5
REMARK VINA RESULT:    -0.546     20.741     22.522
REMARK INTER + INTRA:          -3.272
REMARK INTER:                  -0.602
REMARK INTRA:                  -2.670
REMARK UNBOUND:                -1.831
REMARK SMILES CCCCCCCCCCCCCCCCCCCCCCCCCCCCCC(=O)[O-]
REMARK SMILES IDX 16 1 17 2 18 3 19 4 20 5 21 6 22 7 23 8 24 9 25 10 26 11
REMARK SMILES IDX 27 12 28 13 29 14 30 15 31 16 32 17 15 18 14 19 13 20 12 21
REMARK SMILES IDX 11 22 10 23 9 24 8 25 7 26 6 27 5 28 4 29 3 30 2 31 1 32
REMARK H PARENT
REMARK Flexibility Score: inf
ROOT
ATOM      1  C   UNL     1     -21.230  -8.138 -13.445  1.00  0.00     0.000 C 
ENDROOT
BRANCH   1   2
ATOM      2  C   UNL     1     -21.733  -6.743 -13.855  1.00  0.00     0.000 C 
BRANCH   2   3
ATOM      3  C   UNL     1     -21.355  -6.341 -15.294  1.00  0.00     0.000 C 
BRANCH   3   4
ATOM      4  C   UNL     1     -22.484  -5.584 -16.009  1.00  0.00     0.000 C 
BRANCH   4   5
ATOM      5  C   UNL     1     -23.856  -6.008 -15.459  1.00  0.00     0.000 C 
BRANCH   5   6
ATOM      6  C   UNL     1     -24.722  -4.813 -15.033  1.00  0.00     0.000 C 
BRANCH   6   7
ATOM      7  C   UNL     1     -24.685  -4.558 -13.517  1.00  0.00     0.000 C 
BRANCH   7   8
ATOM      8  C   UNL     1     -24.860  -3.074 -13.152  1.00  0.00     0.000 C 
BRANCH   8   9
ATOM      9  C   UNL     1     -24.958  -2.127 -14.370  1.00  0.00     0.000 C 
BRANCH   9  10
ATOM     10  C   UNL     1     -23.672  -1.339 -14.691  1.00  0.00     0.000 C 
BRANCH  10  11
ATOM     11  C   UNL     1     -22.686  -1.154 -13.517  1.00  0.00     0.000 C 
BRANCH  11  12
ATOM     12  C   UNL     1     -21.605  -2.250 -13.423  1.00  0.00     0.000 C 
BRANCH  12  13
ATOM     13  C   UNL     1     -21.140  -2.733 -14.807  1.00  0.00     0.006 C 
BRANCH  13  14
ATOM     14  C   UNL     1     -19.614  -2.864 -14.895  1.00  0.00     0.053 C 
BRANCH  14  15
ATOM     15  C   UNL     1     -19.139  -3.022 -16.309  1.00  0.00     0.041 C 
ATOM     16  O   UNL     1     -19.797  -3.725 -17.122  1.00  0.00    -0.550 OA
ATOM     17  O   UNL     1     -17.984  -2.378 -16.732  1.00  0.00    -0.550 OA
ENDBRANCH  14  15
ENDBRANCH  13  14
ENDBRANCH  12  13
ENDBRANCH  11  12
ENDBRANCH  10  11
ENDBRANCH   9  10
ENDBRANCH   8   9
ENDBRANCH   7   8
ENDBRANCH   6   7
ENDBRANCH   5   6
ENDBRANCH   4   5
ENDBRANCH   3   4
ENDBRANCH   2   3
ENDBRANCH   1   2
BRANCH   1  18
ATOM     18  C   UNL     1     -21.162  -9.110 -14.638  1.00  0.00     0.000 C 
BRANCH  18  19
ATOM     19  C   UNL     1     -22.552  -9.560 -15.123  1.00  0.00     0.000 C 
BRANCH  19  20
ATOM     20  C   UNL     1     -22.737 -11.082 -15.269  1.00  0.00     0.000 C 
BRANCH  20  21
ATOM     21  C   UNL     1     -22.642 -11.564 -16.726  1.00  0.00     0.000 C 
BRANCH  21  22
ATOM     22  C   UNL     1     -22.994 -13.053 -16.885  1.00  0.00     0.000 C 
BRANCH  22  23
ATOM     23  C   UNL     1     -21.768 -13.961 -17.122  1.00  0.00     0.000 C 
BRANCH  23  24
ATOM     24  C   UNL     1     -22.132 -15.453 -17.059  1.00  0.00    -0.000 C 
BRANCH  24  25
ATOM     25  C   UNL     1     -21.055 -16.313 -16.371  1.00  0.00    -0.000 C 
BRANCH  25  26
ATOM     26  C   UNL     1     -19.655 -15.676 -16.299  1.00  0.00    -0.000 C 
BRANCH  26  27
ATOM     27  C   UNL     1     -18.502 -16.572 -16.791  1.00  0.00    -0.000 C 
BRANCH  27  28
ATOM     28  C   UNL     1     -18.859 -18.072 -16.849  1.00  0.00    -0.000 C 
BRANCH  28  29
ATOM     29  C   UNL     1     -17.626 -18.975 -16.698  1.00  0.00    -0.000 C 
BRANCH  29  30
ATOM     30  C   UNL     1     -17.880 -20.095 -15.682  1.00  0.00    -0.000 C 
BRANCH  30  31
ATOM     31  C   UNL     1     -18.953 -19.682 -14.668  1.00  0.00    -0.003 C 
ATOM     32  C   UNL     1     -19.525 -20.896 -13.945  1.00  0.00     0.004 C 
ENDBRANCH  30  31
ENDBRANCH  29  30
ENDBRANCH  28  29
ENDBRANCH  27  28
ENDBRANCH  26  27
ENDBRANCH  25  26
ENDBRANCH  24  25
ENDBRANCH  23  24
ENDBRANCH  22  23
ENDBRANCH  21  22
ENDBRANCH  20  21
ENDBRANCH  19  20
ENDBRANCH  18  19
ENDBRANCH   1  18
TORSDOF 28
ENDMDL
MODEL 6
REMARK VINA RESULT:    -0.497     21.227     25.767
REMARK INTER + INTRA:          -3.142
REMARK INTER:                  -0.066
REMARK INTRA:                  -3.076
REMARK UNBOUND:                -1.831
REMARK SMILES CCCCCCCCCCCCCCCCCCCCCCCCCCCCCC(=O)[O-]
REMARK SMILES IDX 16 1 17 2 18 3 19 4 20 5 21 6 22 7 23 8 24 9 25 10 26 11
REMARK SMILES IDX 27 12 28 13 29 14 30 15 31 16 32 17 15 18 14 19 13 20 12 21
REMARK SMILES IDX 11 22 10 23 9 24 8 25 7 26 6 27 5 28 4 29 3 30 2 31 1 32
REMARK H PARENT
REMARK Flexibility Score: inf
ROOT
ATOM      1  C   UNL     1     -21.483  -7.202 -12.938  1.00  0.00     0.000 C 
ENDROOT
BRANCH   1   2
ATOM      2  C   UNL     1     -20.722  -8.296 -13.708  1.00  0.00     0.000 C 
BRANCH   2   3
ATOM      3  C   UNL     1     -21.637  -9.355 -14.354  1.00  0.00     0.000 C 
BRANCH   3   4
ATOM      4  C   UNL     1     -22.615  -8.746 -15.371  1.00  0.00     0.000 C 
BRANCH   4   5
ATOM      5  C   UNL     1     -22.850  -9.711 -16.544  1.00  0.00     0.000 C 
BRANCH   5   6
ATOM      6  C   UNL     1     -24.190 -10.455 -16.444  1.00  0.00     0.000 C 
BRANCH   6   7
ATOM      7  C   UNL     1     -24.063 -11.959 -16.733  1.00  0.00     0.000 C 
BRANCH   7   8
ATOM      8  C   UNL     1     -22.640 -12.498 -16.509  1.00  0.00     0.000 C 
BRANCH   8   9
ATOM      9  C   UNL     1     -22.514 -14.034 -16.640  1.00  0.00     0.000 C 
BRANCH   9  10
ATOM     10  C   UNL     1     -21.140 -14.539 -17.125  1.00  0.00     0.000 C 
BRANCH  10  11
ATOM     11  C   UNL     1     -20.080 -14.764 -16.025  1.00  0.00     0.000 C 
BRANCH  11  12
ATOM     12  C   UNL     1     -19.198 -16.010 -16.246  1.00  0.00     0.000 C 
BRANCH  12  13
ATOM     13  C   UNL     1     -19.903 -17.308 -15.818  1.00  0.00     0.006 C 
BRANCH  13  14
ATOM     14  C   UNL     1     -19.593 -18.477 -16.761  1.00  0.00     0.053 C 
BRANCH  14  15
ATOM     15  C   UNL     1     -19.044 -19.666 -16.030  1.00  0.00     0.041 C 
ATOM     16  O   UNL     1     -18.123 -19.517 -15.182  1.00  0.00    -0.550 OA
ATOM     17  O   UNL     1     -19.562 -20.932 -16.269  1.00  0.00    -0.550 OA
ENDBRANCH  14  15
ENDBRANCH  13  14
ENDBRANCH  12  13
ENDBRANCH  11  12
ENDBRANCH  10  11
ENDBRANCH   9  10
ENDBRANCH   8   9
ENDBRANCH   7   8
ENDBRANCH   6   7
ENDBRANCH   5   6
ENDBRANCH   4   5
ENDBRANCH   3   4
ENDBRANCH   2   3
ENDBRANCH   1   2
BRANCH   1  18
ATOM     18  C   UNL     1     -20.947  -5.791 -13.243  1.00  0.00     0.000 C 
BRANCH  18  19
ATOM     19  C   UNL     1     -21.560  -5.180 -14.517  1.00  0.00     0.000 C 
BRANCH  19  20
ATOM     20  C   UNL     1     -23.097  -5.222 -14.593  1.00  0.00     0.000 C 
BRANCH  20  21
ATOM     21  C   UNL     1     -23.621  -5.684 -15.962  1.00  0.00     0.000 C 
BRANCH  21  22
ATOM     22  C   UNL     1     -24.189  -4.527 -16.804  1.00  0.00     0.000 C 
BRANCH  22  23
ATOM     23  C   UNL     1     -24.310  -3.196 -16.031  1.00  0.00     0.000 C 
BRANCH  23  24
ATOM     24  C   UNL     1     -23.410  -2.099 -16.624  1.00  0.00    -0.000 C 
BRANCH  24  25
ATOM     25  C   UNL     1     -22.053  -2.630 -17.123  1.00  0.00    -0.000 C 
BRANCH  25  26
ATOM     26  C   UNL     1     -20.849  -2.303 -16.221  1.00  0.00    -0.000 C 
BRANCH  26  27
ATOM     27  C   UNL     1     -21.108  -1.230 -15.147  1.00  0.00    -0.000 C 
BRANCH  27  28
ATOM     28  C   UNL     1     -21.112  -1.779 -13.705  1.00  0.00    -0.000 C 
BRANCH  28  29
ATOM     29  C   UNL     1     -22.480  -1.625 -13.023  1.00  0.00    -0.000 C 
BRANCH  29  30
ATOM     30  C   UNL     1     -22.495  -2.312 -11.652  1.00  0.00    -0.000 C 
BRANCH  30  31
ATOM     31  C   UNL     1     -22.627  -1.283 -10.523  1.00  0.00    -0.003 C 
ATOM     32  C   UNL     1     -21.347  -1.200  -9.700  1.00  0.00     0.004 C 
ENDBRANCH  30  31
ENDBRANCH  29  30
ENDBRANCH  28  29
ENDBRANCH  27  28
ENDBRANCH  26  27
ENDBRANCH  25  26
ENDBRANCH  24  25
ENDBRANCH  23  24
ENDBRANCH  22  23
ENDBRANCH  21  22
ENDBRANCH  20  21
ENDBRANCH  19  20
ENDBRANCH  18  19
ENDBRANCH   1  18
TORSDOF 28
ENDMDL
MODEL 7
REMARK VINA RESULT:    -0.419     21.116     23.432
REMARK INTER + INTRA:          -2.936
REMARK INTER:                  -0.835
REMARK INTRA:                  -2.102
REMARK UNBOUND:                -1.831
REMARK SMILES CCCCCCCCCCCCCCCCCCCCCCCCCCCCCC(=O)[O-]
REMARK SMILES IDX 16 1 17 2 18 3 19 4 20 5 21 6 22 7 23 8 24 9 25 10 26 11
REMARK SMILES IDX 27 12 28 13 29 14 30 15 31 16 32 17 15 18 14 19 13 20 12 21
REMARK SMILES IDX 11 22 10 23 9 24 8 25 7 26 6 27 5 28 4 29 3 30 2 31 1 32
REMARK H PARENT
REMARK Flexibility Score: inf
ROOT
ATOM      1  C   UNL     1     -21.284 -13.615 -16.025  1.00  0.00     0.000 C 
ENDROOT
BRANCH   1   2
ATOM      2  C   UNL     1     -22.605 -12.972 -15.565  1.00  0.00     0.000 C 
BRANCH   2   3
ATOM      3  C   UNL     1     -22.978 -11.692 -16.338  1.00  0.00     0.000 C 
BRANCH   3   4
ATOM      4  C   UNL     1     -24.295 -11.837 -17.114  1.00  0.00     0.000 C 
BRANCH   4   5
ATOM      5  C   UNL     1     -25.069 -10.509 -17.123  1.00  0.00     0.000 C 
BRANCH   5   6
ATOM      6  C   UNL     1     -24.148  -9.281 -17.067  1.00  0.00     0.000 C 
BRANCH   6   7
ATOM      7  C   UNL     1     -24.808  -8.066 -16.396  1.00  0.00     0.000 C 
BRANCH   7   8
ATOM      8  C   UNL     1     -24.249  -6.724 -16.896  1.00  0.00     0.000 C 
BRANCH   8   9
ATOM      9  C   UNL     1     -24.694  -5.500 -16.061  1.00  0.00     0.000 C 
BRANCH   9  10
ATOM     10  C   UNL     1     -23.799  -5.176 -14.848  1.00  0.00     0.000 C 
BRANCH  10  11
ATOM     11  C   UNL     1     -22.299  -5.505 -15.011  1.00  0.00     0.000 C 
BRANCH  11  12
ATOM     12  C   UNL     1     -21.469  -5.318 -13.725  1.00  0.00     0.000 C 
BRANCH  12  13
ATOM     13  C   UNL     1     -20.347  -6.362 -13.596  1.00  0.00     0.006 C 
BRANCH  13  14
ATOM     14  C   UNL     1     -20.794  -7.756 -14.054  1.00  0.00     0.053 C 
BRANCH  14  15
ATOM     15  C   UNL     1     -20.006  -8.849 -13.396  1.00  0.00     0.041 C 
ATOM     16  O   UNL     1     -20.601  -9.793 -12.810  1.00  0.00    -0.550 OA
ATOM     17  O   UNL     1     -18.618  -8.837 -13.449  1.00  0.00    -0.550 OA
ENDBRANCH  14  15
ENDBRANCH  13  14
ENDBRANCH  12  13
ENDBRANCH  11  12
ENDBRANCH  10  11
ENDBRANCH   9  10
ENDBRANCH   8   9
ENDBRANCH   7   8
ENDBRANCH   6   7
ENDBRANCH   5   6
ENDBRANCH   4   5
ENDBRANCH   3   4
ENDBRANCH   2   3
ENDBRANCH   1   2
BRANCH   1  18
ATOM     18  C   UNL     1     -21.496 -15.006 -16.650  1.00  0.00     0.000 C 
BRANCH  18  19
ATOM     19  C   UNL     1     -22.953 -15.251 -17.087  1.00  0.00     0.000 C 
BRANCH  19  20
ATOM     20  C   UNL     1     -23.668 -16.411 -16.371  1.00  0.00     0.000 C 
BRANCH  20  21
ATOM     21  C   UNL     1     -23.553 -17.746 -17.125  1.00  0.00     0.000 C 
BRANCH  21  22
ATOM     22  C   UNL     1     -24.473 -18.837 -16.548  1.00  0.00     0.000 C 
BRANCH  22  23
ATOM     23  C   UNL     1     -23.716 -19.963 -15.811  1.00  0.00     0.000 C 
BRANCH  23  24
ATOM     24  C   UNL     1     -22.761 -19.412 -14.739  1.00  0.00    -0.000 C 
BRANCH  24  25
ATOM     25  C   UNL     1     -21.401 -20.134 -14.707  1.00  0.00    -0.000 C 
BRANCH  25  26
ATOM     26  C   UNL     1     -21.049 -20.926 -15.980  1.00  0.00    -0.000 C 
BRANCH  26  27
ATOM     27  C   UNL     1     -19.916 -20.326 -16.832  1.00  0.00    -0.000 C 
BRANCH  27  28
ATOM     28  C   UNL     1     -19.896 -18.782 -16.846  1.00  0.00    -0.000 C 
BRANCH  28  29
ATOM     29  C   UNL     1     -19.153 -18.195 -15.636  1.00  0.00    -0.000 C 
BRANCH  29  30
ATOM     30  C   UNL     1     -17.671 -18.589 -15.653  1.00  0.00    -0.000 C 
BRANCH  30  31
ATOM     31  C   UNL     1     -17.439 -19.884 -14.865  1.00  0.00    -0.003 C 
ATOM     32  C   UNL     1     -16.492 -20.820 -15.609  1.00  0.00     0.004 C 
ENDBRANCH  30  31
ENDBRANCH  29  30
ENDBRANCH  28  29
ENDBRANCH  27  28
ENDBRANCH  26  27
ENDBRANCH  25  26
ENDBRANCH  24  25
ENDBRANCH  23  24
ENDBRANCH  22  23
ENDBRANCH  21  22
ENDBRANCH  20  21
ENDBRANCH  19  20
ENDBRANCH  18  19
ENDBRANCH   1  18
TORSDOF 28
ENDMDL
