MODEL 1
REMARK VINA RESULT:    -3.317      0.000      0.000
REMARK INTER + INTRA:         -13.148
REMARK INTER:                  -8.746
REMARK INTRA:                  -4.402
REMARK UNBOUND:                -4.402
REMARK SMILES CCCCCCCCCCCCCCCCCCCCCCCCCCCCCC(=O)[O-]
REMARK SMILES IDX 16 1 17 2 18 3 19 4 20 5 21 6 22 7 23 8 24 9 25 10 26 11
REMARK SMILES IDX 27 12 28 13 29 14 30 15 31 16 32 17 15 18 14 19 13 20 12 21
REMARK SMILES IDX 11 22 10 23 9 24 8 25 7 26 6 27 5 28 4 29 3 30 2 31 1 32
REMARK H PARENT
REMARK Flexibility Score: inf
ROOT
ATOM      1  C   UNL     1       3.580  -3.384  -4.442  1.00  0.00     0.000 C 
ENDROOT
BRANCH   1   2
ATOM      2  C   UNL     1       2.805  -2.374  -5.309  1.00  0.00     0.000 C 
BRANCH   2   3
ATOM      3  C   UNL     1       3.182  -2.332  -6.808  1.00  0.00     0.000 C 
BRANCH   3   4
ATOM      4  C   UNL     1       3.937  -1.068  -7.281  1.00  0.00     0.000 C 
BRANCH   4   5
ATOM      5  C   UNL     1       5.267  -1.348  -8.003  1.00  0.00     0.000 C 
BRANCH   5   6
ATOM      6  C   UNL     1       6.270  -0.182  -7.913  1.00  0.00     0.000 C 
BRANCH   6   7
ATOM      7  C   UNL     1       5.627   1.137  -7.430  1.00  0.00     0.000 C 
BRANCH   7   8
ATOM      8  C   UNL     1       5.709   2.293  -8.447  1.00  0.00     0.000 C 
BRANCH   8   9
ATOM      9  C   UNL     1       4.761   2.187  -9.652  1.00  0.00     0.000 C 
BRANCH   9  10
ATOM     10  C   UNL     1       3.339   2.686  -9.344  1.00  0.00     0.000 C 
BRANCH  10  11
ATOM     11  C   UNL     1       2.264   1.609  -9.567  1.00  0.00     0.000 C 
BRANCH  11  12
ATOM     12  C   UNL     1       0.851   2.046  -9.126  1.00  0.00     0.000 C 
BRANCH  12  13
ATOM     13  C   UNL     1      -0.108   0.850  -9.002  1.00  0.00     0.006 C 
BRANCH  13  14
ATOM     14  C   UNL     1       0.505  -0.303  -8.199  1.00  0.00     0.053 C 
BRANCH  14  15
ATOM     15  C   UNL     1      -0.501  -0.954  -7.298  1.00  0.00     0.041 C 
ATOM     16  O   UNL     1      -0.681  -0.518  -6.130  1.00  0.00    -0.550 OA
ATOM     17  O   UNL     1      -1.235  -2.045  -7.749  1.00  0.00    -0.550 OA
ENDBRANCH  14  15
ENDBRANCH  13  14
ENDBRANCH  12  13
ENDBRANCH  11  12
ENDBRANCH  10  11
ENDBRANCH   9  10
ENDBRANCH   8   9
ENDBRANCH   7   8
ENDBRANCH   6   7
ENDBRANCH   5   6
ENDBRANCH   4   5
ENDBRANCH   3   4
ENDBRANCH   2   3
ENDBRANCH   1   2
BRANCH   1  18
ATOM     18  C   UNL     1       4.557  -2.718  -3.459  1.00  0.00     0.000 C 
BRANCH  18  19
ATOM     19  C   UNL     1       4.466  -1.181  -3.478  1.00  0.00     0.000 C 
BRANCH  19  20
ATOM     20  C   UNL     1       5.681  -0.460  -4.096  1.00  0.00     0.000 C 
BRANCH  20  21
ATOM     21  C   UNL     1       6.859  -1.377  -4.483  1.00  0.00     0.000 C 
BRANCH  21  22
ATOM     22  C   UNL     1       8.244  -0.704  -4.486  1.00  0.00     0.000 C 
BRANCH  22  23
ATOM     23  C   UNL     1       8.184   0.801  -4.178  1.00  0.00     0.000 C 
BRANCH  23  24
ATOM     24  C   UNL     1       8.901   1.659  -5.236  1.00  0.00    -0.000 C 
BRANCH  24  25
ATOM     25  C   UNL     1       8.523   3.152  -5.235  1.00  0.00    -0.000 C 
BRANCH  25  26
ATOM     26  C   UNL     1       7.033   3.394  -4.943  1.00  0.00    -0.000 C 
BRANCH  26  27
ATOM     27  C   UNL     1       6.775   4.772  -4.311  1.00  0.00    -0.000 C 
BRANCH  27  28
ATOM     28  C   UNL     1       7.533   4.963  -2.985  1.00  0.00    -0.000 C 
BRANCH  28  29
ATOM     29  C   UNL     1       6.620   5.449  -1.845  1.00  0.00    -0.000 C 
BRANCH  29  30
ATOM     30  C   UNL     1       5.139   5.634  -2.233  1.00  0.00    -0.000 C 
BRANCH  30  31
ATOM     31  C   UNL     1       4.623   7.075  -2.039  1.00  0.00    -0.003 C 
ATOM     32  C   UNL     1       4.302   7.761  -3.367  1.00  0.00     0.004 C 
ENDBRANCH  30  31
ENDBRANCH  29  30
ENDBRANCH  28  29
ENDBRANCH  27  28
ENDBRANCH  26  27
ENDBRANCH  25  26
ENDBRANCH  24  25
ENDBRANCH  23  24
ENDBRANCH  22  23
ENDBRANCH  21  22
ENDBRANCH  20  21
ENDBRANCH  19  20
ENDBRANCH  18  19
ENDBRANCH   1  18
TORSDOF 28
ENDMDL
MODEL 2
REMARK VINA RESULT:    -3.301      4.157     10.066
REMARK INTER + INTRA:         -13.108
REMARK INTER:                  -9.370
REMARK INTRA:                  -3.738
REMARK UNBOUND:                -4.402
REMARK SMILES CCCCCCCCCCCCCCCCCCCCCCCCCCCCCC(=O)[O-]
REMARK SMILES IDX 16 1 17 2 18 3 19 4 20 5 21 6 22 7 23 8 24 9 25 10 26 11
REMARK SMILES IDX 27 12 28 13 29 14 30 15 31 16 32 17 15 18 14 19 13 20 12 21
REMARK SMILES IDX 11 22 10 23 9 24 8 25 7 26 6 27 5 28 4 29 3 30 2 31 1 32
REMARK H PARENT
REMARK Flexibility Score: inf
ROOT
ATOM      1  C   UNL     1      -0.318  -0.683  -7.209  1.00  0.00     0.000 C 
ENDROOT
BRANCH   1   2
ATOM      2  C   UNL     1       0.221   0.002  -8.480  1.00  0.00     0.000 C 
BRANCH   2   3
ATOM      3  C   UNL     1      -0.118   1.502  -8.642  1.00  0.00     0.000 C 
BRANCH   3   4
ATOM      4  C   UNL     1       0.610   2.240  -9.789  1.00  0.00     0.000 C 
BRANCH   4   5
ATOM      5  C   UNL     1       0.786   3.753  -9.568  1.00  0.00     0.000 C 
BRANCH   5   6
ATOM      6  C   UNL     1       2.260   4.191  -9.477  1.00  0.00     0.000 C 
BRANCH   6   7
ATOM      7  C   UNL     1       3.250   3.085  -9.903  1.00  0.00     0.000 C 
BRANCH   7   8
ATOM      8  C   UNL     1       4.586   3.095  -9.132  1.00  0.00     0.000 C 
BRANCH   8   9
ATOM      9  C   UNL     1       5.052   1.735  -8.592  1.00  0.00     0.000 C 
BRANCH   9  10
ATOM     10  C   UNL     1       3.936   0.677  -8.577  1.00  0.00     0.000 C 
BRANCH  10  11
ATOM     11  C   UNL     1       4.400  -0.678  -8.020  1.00  0.00     0.000 C 
BRANCH  11  12
ATOM     12  C   UNL     1       5.090  -0.577  -6.644  1.00  0.00     0.000 C 
BRANCH  12  13
ATOM     13  C   UNL     1       4.382  -1.434  -5.581  1.00  0.00     0.006 C 
BRANCH  13  14
ATOM     14  C   UNL     1       3.125  -2.118  -6.132  1.00  0.00     0.053 C 
BRANCH  14  15
ATOM     15  C   UNL     1       2.282  -2.701  -5.039  1.00  0.00     0.041 C 
ATOM     16  O   UNL     1       1.462  -3.622  -5.293  1.00  0.00    -0.550 OA
ATOM     17  O   UNL     1       2.399  -2.220  -3.739  1.00  0.00    -0.550 OA
ENDBRANCH  14  15
ENDBRANCH  13  14
ENDBRANCH  12  13
ENDBRANCH  11  12
ENDBRANCH  10  11
ENDBRANCH   9  10
ENDBRANCH   8   9
ENDBRANCH   7   8
ENDBRANCH   6   7
ENDBRANCH   5   6
ENDBRANCH   4   5
ENDBRANCH   3   4
ENDBRANCH   2   3
ENDBRANCH   1   2
BRANCH   1  18
ATOM     18  C   UNL     1      -0.796  -2.123  -7.452  1.00  0.00     0.000 C 
BRANCH  18  19
ATOM     19  C   UNL     1      -2.310  -2.294  -7.231  1.00  0.00     0.000 C 
BRANCH  19  20
ATOM     20  C   UNL     1      -3.047  -1.033  -6.735  1.00  0.00     0.000 C 
BRANCH  20  21
ATOM     21  C   UNL     1      -4.021  -0.403  -7.750  1.00  0.00     0.000 C 
BRANCH  21  22
ATOM     22  C   UNL     1      -5.376   0.047  -7.172  1.00  0.00     0.000 C 
BRANCH  22  23
ATOM     23  C   UNL     1      -6.566  -0.743  -7.742  1.00  0.00     0.000 C 
BRANCH  23  24
ATOM     24  C   UNL     1      -6.422  -2.264  -7.555  1.00  0.00    -0.000 C 
BRANCH  24  25
ATOM     25  C   UNL     1      -7.453  -2.909  -6.611  1.00  0.00    -0.000 C 
BRANCH  25  26
ATOM     26  C   UNL     1      -7.899  -1.971  -5.477  1.00  0.00    -0.000 C 
BRANCH  26  27
ATOM     27  C   UNL     1      -7.241  -2.322  -4.132  1.00  0.00    -0.000 C 
BRANCH  27  28
ATOM     28  C   UNL     1      -5.859  -1.664  -3.962  1.00  0.00    -0.000 C 
BRANCH  28  29
ATOM     29  C   UNL     1      -4.811  -2.629  -3.381  1.00  0.00    -0.000 C 
BRANCH  29  30
ATOM     30  C   UNL     1      -4.175  -3.590  -4.405  1.00  0.00    -0.000 C 
BRANCH  30  31
ATOM     31  C   UNL     1      -4.213  -5.071  -3.972  1.00  0.00    -0.003 C 
ATOM     32  C   UNL     1      -4.371  -5.231  -2.460  1.00  0.00     0.004 C 
ENDBRANCH  30  31
ENDBRANCH  29  30
ENDBRANCH  28  29
ENDBRANCH  27  28
ENDBRANCH  26  27
ENDBRANCH  25  26
ENDBRANCH  24  25
ENDBRANCH  23  24
ENDBRANCH  22  23
ENDBRANCH  21  22
ENDBRANCH  20  21
ENDBRANCH  19  20
ENDBRANCH  18  19
ENDBRANCH   1  18
TORSDOF 28
ENDMDL
MODEL 3
REMARK VINA RESULT:    -3.206      2.890      7.727
REMARK INTER + INTRA:         -12.857
REMARK INTER:                  -8.892
REMARK INTRA:                  -3.965
REMARK UNBOUND:                -4.402
REMARK SMILES CCCCCCCCCCCCCCCCCCCCCCCCCCCCCC(=O)[O-]
REMARK SMILES IDX 16 1 17 2 18 3 19 4 20 5 21 6 22 7 23 8 24 9 25 10 26 11
REMARK SMILES IDX 27 12 28 13 29 14 30 15 31 16 32 17 15 18 14 19 13 20 12 21
REMARK SMILES IDX 11 22 10 23 9 24 8 25 7 26 6 27 5 28 4 29 3 30 2 31 1 32
REMARK H PARENT
REMARK Flexibility Score: inf
ROOT
ATOM      1  C   UNL     1      -0.123   2.450  -9.067  1.00  0.00     0.000 C 
ENDROOT
BRANCH   1   2
ATOM      2  C   UNL     1       1.057   3.372  -9.428  1.00  0.00     0.000 C 
BRANCH   2   3
ATOM      3  C   UNL     1       2.387   2.668  -9.787  1.00  0.00     0.000 C 
BRANCH   3   4
ATOM      4  C   UNL     1       3.678   3.457  -9.468  1.00  0.00     0.000 C 
BRANCH   4   5
ATOM      5  C   UNL     1       4.870   2.586  -9.033  1.00  0.00     0.000 C 
BRANCH   5   6
ATOM      6  C   UNL     1       4.453   1.213  -8.473  1.00  0.00     0.000 C 
BRANCH   6   7
ATOM      7  C   UNL     1       5.654   0.291  -8.164  1.00  0.00     0.000 C 
BRANCH   7   8
ATOM      8  C   UNL     1       5.364  -0.799  -7.113  1.00  0.00     0.000 C 
BRANCH   8   9
ATOM      9  C   UNL     1       6.134  -0.668  -5.790  1.00  0.00     0.000 C 
BRANCH   9  10
ATOM     10  C   UNL     1       5.549   0.404  -4.856  1.00  0.00     0.000 C 
BRANCH  10  11
ATOM     11  C   UNL     1       6.581   1.466  -4.442  1.00  0.00     0.000 C 
BRANCH  11  12
ATOM     12  C   UNL     1       7.016   2.389  -5.601  1.00  0.00     0.000 C 
BRANCH  12  13
ATOM     13  C   UNL     1       7.128   3.857  -5.156  1.00  0.00     0.006 C 
BRANCH  13  14
ATOM     14  C   UNL     1       6.965   4.017  -3.640  1.00  0.00     0.053 C 
BRANCH  14  15
ATOM     15  C   UNL     1       6.173   5.240  -3.289  1.00  0.00     0.041 C 
ATOM     16  O   UNL     1       5.335   5.205  -2.350  1.00  0.00    -0.550 OA
ATOM     17  O   UNL     1       6.358   6.417  -4.005  1.00  0.00    -0.550 OA
ENDBRANCH  14  15
ENDBRANCH  13  14
ENDBRANCH  12  13
ENDBRANCH  11  12
ENDBRANCH  10  11
ENDBRANCH   9  10
ENDBRANCH   8   9
ENDBRANCH   7   8
ENDBRANCH   6   7
ENDBRANCH   5   6
ENDBRANCH   4   5
ENDBRANCH   3   4
ENDBRANCH   2   3
ENDBRANCH   1   2
BRANCH   1  18
ATOM     18  C   UNL     1       0.306   1.006  -8.759  1.00  0.00     0.000 C 
BRANCH  18  19
ATOM     19  C   UNL     1      -0.889   0.074  -8.490  1.00  0.00     0.000 C 
BRANCH  19  20
ATOM     20  C   UNL     1      -0.827  -0.705  -7.161  1.00  0.00     0.000 C 
BRANCH  20  21
ATOM     21  C   UNL     1      -0.599  -2.223  -7.303  1.00  0.00     0.000 C 
BRANCH  21  22
ATOM     22  C   UNL     1       0.440  -2.637  -8.362  1.00  0.00     0.000 C 
BRANCH  22  23
ATOM     23  C   UNL     1       1.870  -2.720  -7.803  1.00  0.00     0.000 C 
BRANCH  23  24
ATOM     24  C   UNL     1       1.918  -3.221  -6.348  1.00  0.00    -0.000 C 
BRANCH  24  25
ATOM     25  C   UNL     1       2.557  -2.248  -5.340  1.00  0.00    -0.000 C 
BRANCH  25  26
ATOM     26  C   UNL     1       3.358  -2.963  -4.240  1.00  0.00    -0.000 C 
BRANCH  26  27
ATOM     27  C   UNL     1       3.715  -2.028  -3.072  1.00  0.00    -0.000 C 
BRANCH  27  28
ATOM     28  C   UNL     1       5.029  -2.430  -2.376  1.00  0.00    -0.000 C 
BRANCH  28  29
ATOM     29  C   UNL     1       5.904  -3.348  -3.247  1.00  0.00    -0.000 C 
BRANCH  29  30
ATOM     30  C   UNL     1       7.340  -3.562  -2.726  1.00  0.00    -0.000 C 
BRANCH  30  31
ATOM     31  C   UNL     1       7.969  -2.298  -2.104  1.00  0.00    -0.003 C 
ATOM     32  C   UNL     1       8.663  -1.422  -3.146  1.00  0.00     0.004 C 
ENDBRANCH  30  31
ENDBRANCH  29  30
ENDBRANCH  28  29
ENDBRANCH  27  28
ENDBRANCH  26  27
ENDBRANCH  25  26
ENDBRANCH  24  25
ENDBRANCH  23  24
ENDBRANCH  22  23
ENDBRANCH  21  22
ENDBRANCH  20  21
ENDBRANCH  19  20
ENDBRANCH  18  19
ENDBRANCH   1  18
TORSDOF 28
ENDMDL
MODEL 4
REMARK VINA RESULT:    -3.179      7.863     12.754
REMARK INTER + INTRA:         -12.785
REMARK INTER:                  -6.396
REMARK INTRA:                  -6.389
REMARK UNBOUND:                -4.402
REMARK SMILES CCCCCCCCCCCCCCCCCCCCCCCCCCCCCC(=O)[O-]
REMARK SMILES IDX 16 1 17 2 18 3 19 4 20 5 21 6 22 7 23 8 24 9 25 10 26 11
REMARK SMILES IDX 27 12 28 13 29 14 30 15 31 16 32 17 15 18 14 19 13 20 12 21
REMARK SMILES IDX 11 22 10 23 9 24 8 25 7 26 6 27 5 28 4 29 3 30 2 31 1 32
REMARK H PARENT
REMARK Flexibility Score: inf
ROOT
ATOM      1  C   UNL     1      -9.404  -3.651  -5.258  1.00  0.00     0.000 C 
ENDROOT
BRANCH   1   2
ATOM      2  C   UNL     1      -9.113  -2.275  -4.628  1.00  0.00     0.000 C 
BRANCH   2   3
ATOM      3  C   UNL     1      -8.646  -2.285  -3.154  1.00  0.00     0.000 C 
BRANCH   3   4
ATOM      4  C   UNL     1      -7.185  -1.843  -2.903  1.00  0.00     0.000 C 
BRANCH   4   5
ATOM      5  C   UNL     1      -6.168  -2.381  -3.926  1.00  0.00     0.000 C 
BRANCH   5   6
ATOM      6  C   UNL     1      -5.019  -1.399  -4.221  1.00  0.00     0.000 C 
BRANCH   6   7
ATOM      7  C   UNL     1      -5.007  -0.898  -5.682  1.00  0.00     0.000 C 
BRANCH   7   8
ATOM      8  C   UNL     1      -6.366  -1.007  -6.403  1.00  0.00     0.000 C 
BRANCH   8   9
ATOM      9  C   UNL     1      -6.361  -0.625  -7.891  1.00  0.00     0.000 C 
BRANCH   9  10
ATOM     10  C   UNL     1      -5.016  -0.905  -8.581  1.00  0.00     0.000 C 
BRANCH  10  11
ATOM     11  C   UNL     1      -4.947  -2.302  -9.218  1.00  0.00     0.000 C 
BRANCH  11  12
ATOM     12  C   UNL     1      -3.968  -3.259  -8.504  1.00  0.00     0.000 C 
BRANCH  12  13
ATOM     13  C   UNL     1      -2.525  -2.725  -8.523  1.00  0.00     0.006 C 
BRANCH  13  14
ATOM     14  C   UNL     1      -2.043  -2.310  -7.128  1.00  0.00     0.053 C 
BRANCH  14  15
ATOM     15  C   UNL     1      -1.347  -0.983  -7.150  1.00  0.00     0.041 C 
ATOM     16  O   UNL     1      -0.695  -0.592  -6.146  1.00  0.00    -0.550 OA
ATOM     17  O   UNL     1      -1.423  -0.176  -8.280  1.00  0.00    -0.550 OA
ENDBRANCH  14  15
ENDBRANCH  13  14
ENDBRANCH  12  13
ENDBRANCH  11  12
ENDBRANCH  10  11
ENDBRANCH   9  10
ENDBRANCH   8   9
ENDBRANCH   7   8
ENDBRANCH   6   7
ENDBRANCH   5   6
ENDBRANCH   4   5
ENDBRANCH   3   4
ENDBRANCH   2   3
ENDBRANCH   1   2
BRANCH   1  18
ATOM     18  C   UNL     1      -8.704  -3.860  -6.611  1.00  0.00     0.000 C 
BRANCH  18  19
ATOM     19  C   UNL     1      -7.341  -4.562  -6.474  1.00  0.00     0.000 C 
BRANCH  19  20
ATOM     20  C   UNL     1      -7.359  -6.083  -6.728  1.00  0.00     0.000 C 
BRANCH  20  21
ATOM     21  C   UNL     1      -7.051  -6.955  -5.495  1.00  0.00     0.000 C 
BRANCH  21  22
ATOM     22  C   UNL     1      -8.020  -6.788  -4.310  1.00  0.00     0.000 C 
BRANCH  22  23
ATOM     23  C   UNL     1      -7.314  -6.374  -3.008  1.00  0.00     0.000 C 
BRANCH  23  24
ATOM     24  C   UNL     1      -6.235  -7.378  -2.565  1.00  0.00    -0.000 C 
BRANCH  24  25
ATOM     25  C   UNL     1      -4.887  -6.755  -2.157  1.00  0.00    -0.000 C 
BRANCH  25  26
ATOM     26  C   UNL     1      -4.723  -5.306  -2.645  1.00  0.00    -0.000 C 
BRANCH  26  27
ATOM     27  C   UNL     1      -3.249  -4.874  -2.717  1.00  0.00    -0.000 C 
BRANCH  27  28
ATOM     28  C   UNL     1      -2.738  -4.764  -4.166  1.00  0.00    -0.000 C 
BRANCH  28  29
ATOM     29  C   UNL     1      -3.857  -4.948  -5.205  1.00  0.00    -0.000 C 
BRANCH  29  30
ATOM     30  C   UNL     1      -3.597  -6.052  -6.251  1.00  0.00    -0.000 C 
BRANCH  30  31
ATOM     31  C   UNL     1      -2.727  -7.212  -5.724  1.00  0.00    -0.003 C 
ATOM     32  C   UNL     1      -3.565  -8.357  -5.156  1.00  0.00     0.004 C 
ENDBRANCH  30  31
ENDBRANCH  29  30
ENDBRANCH  28  29
ENDBRANCH  27  28
ENDBRANCH  26  27
ENDBRANCH  25  26
ENDBRANCH  24  25
ENDBRANCH  23  24
ENDBRANCH  22  23
ENDBRANCH  21  22
ENDBRANCH  20  21
ENDBRANCH  19  20
ENDBRANCH  18  19
ENDBRANCH   1  18
TORSDOF 28
ENDMDL
MODEL 5
REMARK VINA RESULT:    -3.172      7.848     12.608
REMARK INTER + INTRA:         -12.766
REMARK INTER:                  -8.148
REMARK INTRA:                  -4.618
REMARK UNBOUND:                -4.402
REMARK SMILES CCCCCCCCCCCCCCCCCCCCCCCCCCCCCC(=O)[O-]
REMARK SMILES IDX 16 1 17 2 18 3 19 4 20 5 21 6 22 7 23 8 24 9 25 10 26 11
REMARK SMILES IDX 27 12 28 13 29 14 30 15 31 16 32 17 15 18 14 19 13 20 12 21
REMARK SMILES IDX 11 22 10 23 9 24 8 25 7 26 6 27 5 28 4 29 3 30 2 31 1 32
REMARK H PARENT
REMARK Flexibility Score: inf
ROOT
ATOM      1  C   UNL     1       0.146   6.700   1.921  1.00  0.00     0.000 C 
ENDROOT
BRANCH   1   2
ATOM      2  C   UNL     1       0.142   7.072   3.416  1.00  0.00     0.000 C 
BRANCH   2   3
ATOM      3  C   UNL     1       0.878   8.378   3.796  1.00  0.00     0.000 C 
BRANCH   3   4
ATOM      4  C   UNL     1       2.250   8.205   4.487  1.00  0.00     0.000 C 
BRANCH   4   5
ATOM      5  C   UNL     1       3.283   9.294   4.143  1.00  0.00     0.000 C 
BRANCH   5   6
ATOM      6  C   UNL     1       4.639   9.096   4.846  1.00  0.00     0.000 C 
BRANCH   6   7
ATOM      7  C   UNL     1       5.136   7.634   4.808  1.00  0.00     0.000 C 
BRANCH   7   8
ATOM      8  C   UNL     1       5.516   7.056   6.187  1.00  0.00     0.000 C 
BRANCH   8   9
ATOM      9  C   UNL     1       5.530   5.522   6.283  1.00  0.00     0.000 C 
BRANCH   9  10
ATOM     10  C   UNL     1       4.519   4.973   7.304  1.00  0.00     0.000 C 
BRANCH  10  11
ATOM     11  C   UNL     1       3.215   5.786   7.353  1.00  0.00     0.000 C 
BRANCH  11  12
ATOM     12  C   UNL     1       1.944   4.912   7.398  1.00  0.00     0.000 C 
BRANCH  12  13
ATOM     13  C   UNL     1       0.698   5.684   6.931  1.00  0.00     0.006 C 
BRANCH  13  14
ATOM     14  C   UNL     1      -0.231   4.818   6.071  1.00  0.00     0.053 C 
BRANCH  14  15
ATOM     15  C   UNL     1      -0.370   3.431   6.622  1.00  0.00     0.041 C 
ATOM     16  O   UNL     1       0.080   2.446   5.980  1.00  0.00    -0.550 OA
ATOM     17  O   UNL     1      -1.003   3.229   7.843  1.00  0.00    -0.550 OA
ENDBRANCH  14  15
ENDBRANCH  13  14
ENDBRANCH  12  13
ENDBRANCH  11  12
ENDBRANCH  10  11
ENDBRANCH   9  10
ENDBRANCH   8   9
ENDBRANCH   7   8
ENDBRANCH   6   7
ENDBRANCH   5   6
ENDBRANCH   4   5
ENDBRANCH   3   4
ENDBRANCH   2   3
ENDBRANCH   1   2
BRANCH   1  18
ATOM     18  C   UNL     1      -1.003   7.348   1.131  1.00  0.00     0.000 C 
BRANCH  18  19
ATOM     19  C   UNL     1      -0.506   8.220  -0.036  1.00  0.00     0.000 C 
BRANCH  19  20
ATOM     20  C   UNL     1       0.307   9.464   0.374  1.00  0.00     0.000 C 
BRANCH  20  21
ATOM     21  C   UNL     1       1.728   9.540  -0.217  1.00  0.00     0.000 C 
BRANCH  21  22
ATOM     22  C   UNL     1       2.445   8.187  -0.386  1.00  0.00     0.000 C 
BRANCH  22  23
ATOM     23  C   UNL     1       3.342   7.827   0.810  1.00  0.00     0.000 C 
BRANCH  23  24
ATOM     24  C   UNL     1       4.669   8.607   0.823  1.00  0.00    -0.000 C 
BRANCH  24  25
ATOM     25  C   UNL     1       5.896   7.806   1.295  1.00  0.00    -0.000 C 
BRANCH  25  26
ATOM     26  C   UNL     1       6.770   7.306   0.133  1.00  0.00    -0.000 C 
BRANCH  26  27
ATOM     27  C   UNL     1       6.375   5.895  -0.333  1.00  0.00    -0.000 C 
BRANCH  27  28
ATOM     28  C   UNL     1       6.160   5.816  -1.856  1.00  0.00    -0.000 C 
BRANCH  28  29
ATOM     29  C   UNL     1       4.715   6.146  -2.268  1.00  0.00    -0.000 C 
BRANCH  29  30
ATOM     30  C   UNL     1       4.578   7.261  -3.324  1.00  0.00    -0.000 C 
BRANCH  30  31
ATOM     31  C   UNL     1       5.170   8.614  -2.878  1.00  0.00    -0.003 C 
ATOM     32  C   UNL     1       6.348   9.048  -3.750  1.00  0.00     0.004 C 
ENDBRANCH  30  31
ENDBRANCH  29  30
ENDBRANCH  28  29
ENDBRANCH  27  28
ENDBRANCH  26  27
ENDBRANCH  25  26
ENDBRANCH  24  25
ENDBRANCH  23  24
ENDBRANCH  22  23
ENDBRANCH  21  22
ENDBRANCH  20  21
ENDBRANCH  19  20
ENDBRANCH  18  19
ENDBRANCH   1  18
TORSDOF 28
ENDMDL
MODEL 6
REMARK VINA RESULT:    -3.171      5.322     10.347
REMARK INTER + INTRA:         -12.763
REMARK INTER:                  -7.024
REMARK INTRA:                  -5.739
REMARK UNBOUND:                -4.402
REMARK SMILES CCCCCCCCCCCCCCCCCCCCCCCCCCCCCC(=O)[O-]
REMARK SMILES IDX 16 1 17 2 18 3 19 4 20 5 21 6 22 7 23 8 24 9 25 10 26 11
REMARK SMILES IDX 27 12 28 13 29 14 30 15 31 16 32 17 15 18 14 19 13 20 12 21
REMARK SMILES IDX 11 22 10 23 9 24 8 25 7 26 6 27 5 28 4 29 3 30 2 31 1 32
REMARK H PARENT
REMARK Flexibility Score: inf
ROOT
ATOM      1  C   UNL     1      -3.713  -1.498  -9.193  1.00  0.00     0.000 C 
ENDROOT
BRANCH   1   2
ATOM      2  C   UNL     1      -4.391  -2.582  -8.334  1.00  0.00     0.000 C 
BRANCH   2   3
ATOM      3  C   UNL     1      -3.601  -3.063  -7.095  1.00  0.00     0.000 C 
BRANCH   3   4
ATOM      4  C   UNL     1      -3.350  -2.003  -5.998  1.00  0.00     0.000 C 
BRANCH   4   5
ATOM      5  C   UNL     1      -4.573  -1.134  -5.653  1.00  0.00     0.000 C 
BRANCH   5   6
ATOM      6  C   UNL     1      -5.275  -1.556  -4.349  1.00  0.00     0.000 C 
BRANCH   6   7
ATOM      7  C   UNL     1      -6.757  -1.939  -4.551  1.00  0.00     0.000 C 
BRANCH   7   8
ATOM      8  C   UNL     1      -7.279  -1.723  -5.987  1.00  0.00     0.000 C 
BRANCH   8   9
ATOM      9  C   UNL     1      -7.674  -2.998  -6.749  1.00  0.00     0.000 C 
BRANCH   9  10
ATOM     10  C   UNL     1      -7.350  -4.287  -5.975  1.00  0.00     0.000 C 
BRANCH  10  11
ATOM     11  C   UNL     1      -6.509  -5.281  -6.792  1.00  0.00     0.000 C 
BRANCH  11  12
ATOM     12  C   UNL     1      -5.430  -6.006  -5.960  1.00  0.00     0.000 C 
BRANCH  12  13
ATOM     13  C   UNL     1      -5.548  -5.686  -4.460  1.00  0.00     0.006 C 
BRANCH  13  14
ATOM     14  C   UNL     1      -4.246  -5.115  -3.886  1.00  0.00     0.053 C 
BRANCH  14  15
ATOM     15  C   UNL     1      -4.315  -4.956  -2.397  1.00  0.00     0.041 C 
ATOM     16  O   UNL     1      -4.934  -3.984  -1.891  1.00  0.00    -0.550 OA
ATOM     17  O   UNL     1      -3.689  -5.882  -1.570  1.00  0.00    -0.550 OA
ENDBRANCH  14  15
ENDBRANCH  13  14
ENDBRANCH  12  13
ENDBRANCH  11  12
ENDBRANCH  10  11
ENDBRANCH   9  10
ENDBRANCH   8   9
ENDBRANCH   7   8
ENDBRANCH   6   7
ENDBRANCH   5   6
ENDBRANCH   4   5
ENDBRANCH   3   4
ENDBRANCH   2   3
ENDBRANCH   1   2
BRANCH   1  18
ATOM     18  C   UNL     1      -4.476  -0.162  -9.198  1.00  0.00     0.000 C 
BRANCH  18  19
ATOM     19  C   UNL     1      -3.547   1.053  -9.369  1.00  0.00     0.000 C 
BRANCH  19  20
ATOM     20  C   UNL     1      -2.142   0.734  -9.918  1.00  0.00     0.000 C 
BRANCH  20  21
ATOM     21  C   UNL     1      -1.008   1.622  -9.368  1.00  0.00     0.000 C 
BRANCH  21  22
ATOM     22  C   UNL     1       0.012   0.905  -8.464  1.00  0.00     0.000 C 
BRANCH  22  23
ATOM     23  C   UNL     1      -0.637  -0.120  -7.519  1.00  0.00     0.000 C 
BRANCH  23  24
ATOM     24  C   UNL     1       0.139  -1.447  -7.447  1.00  0.00    -0.000 C 
BRANCH  24  25
ATOM     25  C   UNL     1      -0.155  -2.441  -8.586  1.00  0.00    -0.000 C 
BRANCH  25  26
ATOM     26  C   UNL     1      -0.096  -3.909  -8.133  1.00  0.00    -0.000 C 
BRANCH  26  27
ATOM     27  C   UNL     1      -0.050  -4.050  -6.603  1.00  0.00    -0.000 C 
BRANCH  27  28
ATOM     28  C   UNL     1       0.968  -5.108  -6.139  1.00  0.00    -0.000 C 
BRANCH  28  29
ATOM     29  C   UNL     1       2.422  -4.616  -6.241  1.00  0.00    -0.000 C 
BRANCH  29  30
ATOM     30  C   UNL     1       2.932  -3.835  -5.012  1.00  0.00    -0.000 C 
BRANCH  30  31
ATOM     31  C   UNL     1       2.847  -2.303  -5.173  1.00  0.00    -0.003 C 
ATOM     32  C   UNL     1       3.703  -1.791  -6.331  1.00  0.00     0.004 C 
ENDBRANCH  30  31
ENDBRANCH  29  30
ENDBRANCH  28  29
ENDBRANCH  27  28
ENDBRANCH  26  27
ENDBRANCH  25  26
ENDBRANCH  24  25
ENDBRANCH  23  24
ENDBRANCH  22  23
ENDBRANCH  21  22
ENDBRANCH  20  21
ENDBRANCH  19  20
ENDBRANCH  18  19
ENDBRANCH   1  18
TORSDOF 28
ENDMDL
MODEL 7
REMARK VINA RESULT:    -3.151      3.316      8.006
REMARK INTER + INTRA:         -12.710
REMARK INTER:                  -8.643
REMARK INTRA:                  -4.067
REMARK UNBOUND:                -4.402
REMARK SMILES CCCCCCCCCCCCCCCCCCCCCCCCCCCCCC(=O)[O-]
REMARK SMILES IDX 16 1 17 2 18 3 19 4 20 5 21 6 22 7 23 8 24 9 25 10 26 11
REMARK SMILES IDX 27 12 28 13 29 14 30 15 31 16 32 17 15 18 14 19 13 20 12 21
REMARK SMILES IDX 11 22 10 23 9 24 8 25 7 26 6 27 5 28 4 29 3 30 2 31 1 32
REMARK H PARENT
REMARK Flexibility Score: inf
ROOT
ATOM      1  C   UNL     1       0.005   1.892  -8.985  1.00  0.00     0.000 C 
ENDROOT
BRANCH   1   2
ATOM      2  C   UNL     1      -0.101   0.371  -8.763  1.00  0.00     0.000 C 
BRANCH   2   3
ATOM      3  C   UNL     1      -0.404  -0.088  -7.318  1.00  0.00     0.000 C 
BRANCH   3   4
ATOM      4  C   UNL     1      -1.336  -1.314  -7.178  1.00  0.00     0.000 C 
BRANCH   4   5
ATOM      5  C   UNL     1      -2.414  -1.427  -8.271  1.00  0.00     0.000 C 
BRANCH   5   6
ATOM      6  C   UNL     1      -3.685  -0.614  -7.962  1.00  0.00     0.000 C 
BRANCH   6   7
ATOM      7  C   UNL     1      -4.256  -0.888  -6.554  1.00  0.00     0.000 C 
BRANCH   7   8
ATOM      8  C   UNL     1      -5.749  -1.277  -6.538  1.00  0.00     0.000 C 
BRANCH   8   9
ATOM      9  C   UNL     1      -6.301  -1.739  -5.180  1.00  0.00     0.000 C 
BRANCH   9  10
ATOM     10  C   UNL     1      -5.364  -1.410  -4.006  1.00  0.00     0.000 C 
BRANCH  10  11
ATOM     11  C   UNL     1      -5.239  -2.562  -2.997  1.00  0.00     0.000 C 
BRANCH  11  12
ATOM     12  C   UNL     1      -5.125  -3.952  -3.658  1.00  0.00     0.000 C 
BRANCH  12  13
ATOM     13  C   UNL     1      -3.661  -4.399  -3.809  1.00  0.00     0.006 C 
BRANCH  13  14
ATOM     14  C   UNL     1      -3.121  -4.144  -5.221  1.00  0.00     0.053 C 
BRANCH  14  15
ATOM     15  C   UNL     1      -1.888  -4.949  -5.501  1.00  0.00     0.041 C 
ATOM     16  O   UNL     1      -0.757  -4.518  -5.154  1.00  0.00    -0.550 OA
ATOM     17  O   UNL     1      -1.991  -6.174  -6.151  1.00  0.00    -0.550 OA
ENDBRANCH  14  15
ENDBRANCH  13  14
ENDBRANCH  12  13
ENDBRANCH  11  12
ENDBRANCH  10  11
ENDBRANCH   9  10
ENDBRANCH   8   9
ENDBRANCH   7   8
ENDBRANCH   6   7
ENDBRANCH   5   6
ENDBRANCH   4   5
ENDBRANCH   3   4
ENDBRANCH   2   3
ENDBRANCH   1   2
BRANCH   1  18
ATOM     18  C   UNL     1       1.414   2.349  -9.398  1.00  0.00     0.000 C 
BRANCH  18  19
ATOM     19  C   UNL     1       2.342   1.173  -9.750  1.00  0.00     0.000 C 
BRANCH  19  20
ATOM     20  C   UNL     1       3.677   1.138  -8.979  1.00  0.00     0.000 C 
BRANCH  20  21
ATOM     21  C   UNL     1       4.063  -0.239  -8.402  1.00  0.00     0.000 C 
BRANCH  21  22
ATOM     22  C   UNL     1       3.403  -1.450  -9.088  1.00  0.00     0.000 C 
BRANCH  22  23
ATOM     23  C   UNL     1       2.580  -2.316  -8.120  1.00  0.00     0.000 C 
BRANCH  23  24
ATOM     24  C   UNL     1       2.580  -1.773  -6.680  1.00  0.00    -0.000 C 
BRANCH  24  25
ATOM     25  C   UNL     1       2.250  -2.808  -5.589  1.00  0.00    -0.000 C 
BRANCH  25  26
ATOM     26  C   UNL     1       2.861  -2.455  -4.221  1.00  0.00    -0.000 C 
BRANCH  26  27
ATOM     27  C   UNL     1       4.215  -3.144  -3.988  1.00  0.00    -0.000 C 
BRANCH  27  28
ATOM     28  C   UNL     1       5.006  -2.511  -2.829  1.00  0.00    -0.000 C 
BRANCH  28  29
ATOM     29  C   UNL     1       6.265  -1.767  -3.309  1.00  0.00    -0.000 C 
BRANCH  29  30
ATOM     30  C   UNL     1       6.632  -1.997  -4.789  1.00  0.00    -0.000 C 
BRANCH  30  31
ATOM     31  C   UNL     1       6.403  -0.762  -5.684  1.00  0.00    -0.003 C 
ATOM     32  C   UNL     1       5.706   0.376  -4.937  1.00  0.00     0.004 C 
ENDBRANCH  30  31
ENDBRANCH  29  30
ENDBRANCH  28  29
ENDBRANCH  27  28
ENDBRANCH  26  27
ENDBRANCH  25  26
ENDBRANCH  24  25
ENDBRANCH  23  24
ENDBRANCH  22  23
ENDBRANCH  21  22
ENDBRANCH  20  21
ENDBRANCH  19  20
ENDBRANCH  18  19
ENDBRANCH   1  18
TORSDOF 28
ENDMDL
MODEL 8
REMARK VINA RESULT:    -3.124      3.222      7.298
REMARK INTER + INTRA:         -12.640
REMARK INTER:                  -7.554
REMARK INTRA:                  -5.086
REMARK UNBOUND:                -4.402
REMARK SMILES CCCCCCCCCCCCCCCCCCCCCCCCCCCCCC(=O)[O-]
REMARK SMILES IDX 16 1 17 2 18 3 19 4 20 5 21 6 22 7 23 8 24 9 25 10 26 11
REMARK SMILES IDX 27 12 28 13 29 14 30 15 31 16 32 17 15 18 14 19 13 20 12 21
REMARK SMILES IDX 11 22 10 23 9 24 8 25 7 26 6 27 5 28 4 29 3 30 2 31 1 32
REMARK H PARENT
REMARK Flexibility Score: inf
ROOT
ATOM      1  C   UNL     1       6.279   0.750  -4.491  1.00  0.00     0.000 C 
ENDROOT
BRANCH   1   2
ATOM      2  C   UNL     1       5.582  -0.016  -5.631  1.00  0.00     0.000 C 
BRANCH   2   3
ATOM      3  C   UNL     1       6.457  -1.027  -6.409  1.00  0.00     0.000 C 
BRANCH   3   4
ATOM      4  C   UNL     1       6.359  -0.962  -7.950  1.00  0.00     0.000 C 
BRANCH   4   5
ATOM      5  C   UNL     1       6.150  -2.323  -8.638  1.00  0.00     0.000 C 
BRANCH   5   6
ATOM      6  C   UNL     1       4.718  -2.526  -9.169  1.00  0.00     0.000 C 
BRANCH   6   7
ATOM      7  C   UNL     1       3.842  -1.259  -9.055  1.00  0.00     0.000 C 
BRANCH   7   8
ATOM      8  C   UNL     1       2.748  -1.339  -7.970  1.00  0.00     0.000 C 
BRANCH   8   9
ATOM      9  C   UNL     1       2.838  -2.545  -7.023  1.00  0.00     0.000 C 
BRANCH   9  10
ATOM     10  C   UNL     1       2.502  -2.192  -5.564  1.00  0.00     0.000 C 
BRANCH  10  11
ATOM     11  C   UNL     1       3.288  -3.034  -4.546  1.00  0.00     0.000 C 
BRANCH  11  12
ATOM     12  C   UNL     1       4.479  -3.797  -5.164  1.00  0.00     0.000 C 
BRANCH  12  13
ATOM     13  C   UNL     1       5.511  -4.209  -4.101  1.00  0.00     0.006 C 
BRANCH  13  14
ATOM     14  C   UNL     1       6.143  -2.997  -3.406  1.00  0.00     0.053 C 
BRANCH  14  15
ATOM     15  C   UNL     1       6.329  -3.229  -1.937  1.00  0.00     0.041 C 
ATOM     16  O   UNL     1       7.485  -3.384  -1.461  1.00  0.00    -0.550 OA
ATOM     17  O   UNL     1       5.223  -3.281  -1.096  1.00  0.00    -0.550 OA
ENDBRANCH  14  15
ENDBRANCH  13  14
ENDBRANCH  12  13
ENDBRANCH  11  12
ENDBRANCH  10  11
ENDBRANCH   9  10
ENDBRANCH   8   9
ENDBRANCH   7   8
ENDBRANCH   6   7
ENDBRANCH   5   6
ENDBRANCH   4   5
ENDBRANCH   3   4
ENDBRANCH   2   3
ENDBRANCH   1   2
BRANCH   1  18
ATOM     18  C   UNL     1       6.584   2.216  -4.842  1.00  0.00     0.000 C 
BRANCH  18  19
ATOM     19  C   UNL     1       7.916   2.383  -5.596  1.00  0.00     0.000 C 
BRANCH  19  20
ATOM     20  C   UNL     1       7.785   2.631  -7.112  1.00  0.00     0.000 C 
BRANCH  20  21
ATOM     21  C   UNL     1       6.815   3.762  -7.508  1.00  0.00     0.000 C 
BRANCH  21  22
ATOM     22  C   UNL     1       5.955   3.488  -8.756  1.00  0.00     0.000 C 
BRANCH  22  23
ATOM     23  C   UNL     1       5.068   2.239  -8.613  1.00  0.00     0.000 C 
BRANCH  23  24
ATOM     24  C   UNL     1       3.723   2.371  -9.349  1.00  0.00    -0.000 C 
BRANCH  24  25
ATOM     25  C   UNL     1       3.126   3.790  -9.376  1.00  0.00    -0.000 C 
BRANCH  25  26
ATOM     26  C   UNL     1       1.610   3.800  -9.635  1.00  0.00    -0.000 C 
BRANCH  26  27
ATOM     27  C   UNL     1       0.965   2.424  -9.400  1.00  0.00    -0.000 C 
BRANCH  27  28
ATOM     28  C   UNL     1      -0.566   2.506  -9.266  1.00  0.00    -0.000 C 
BRANCH  28  29
ATOM     29  C   UNL     1      -1.266   1.192  -9.655  1.00  0.00    -0.000 C 
BRANCH  29  30
ATOM     30  C   UNL     1      -0.392  -0.072  -9.528  1.00  0.00    -0.000 C 
BRANCH  30  31
ATOM     31  C   UNL     1      -0.883  -1.060  -8.450  1.00  0.00    -0.003 C 
ATOM     32  C   UNL     1      -0.723  -0.504  -7.035  1.00  0.00     0.004 C 
ENDBRANCH  30  31
ENDBRANCH  29  30
ENDBRANCH  28  29
ENDBRANCH  27  28
ENDBRANCH  26  27
ENDBRANCH  25  26
ENDBRANCH  24  25
ENDBRANCH  23  24
ENDBRANCH  22  23
ENDBRANCH  21  22
ENDBRANCH  20  21
ENDBRANCH  19  20
ENDBRANCH  18  19
ENDBRANCH   1  18
TORSDOF 28
ENDMDL
MODEL 9
REMARK VINA RESULT:    -3.098      7.312     12.103
REMARK INTER + INTRA:         -12.571
REMARK INTER:                  -6.460
REMARK INTRA:                  -6.111
REMARK UNBOUND:                -4.402
REMARK SMILES CCCCCCCCCCCCCCCCCCCCCCCCCCCCCC(=O)[O-]
REMARK SMILES IDX 16 1 17 2 18 3 19 4 20 5 21 6 22 7 23 8 24 9 25 10 26 11
REMARK SMILES IDX 27 12 28 13 29 14 30 15 31 16 32 17 15 18 14 19 13 20 12 21
REMARK SMILES IDX 11 22 10 23 9 24 8 25 7 26 6 27 5 28 4 29 3 30 2 31 1 32
REMARK H PARENT
REMARK Flexibility Score: inf
ROOT
ATOM      1  C   UNL     1      -4.849  -1.439  -4.401  1.00  0.00     0.000 C 
ENDROOT
BRANCH   1   2
ATOM      2  C   UNL     1      -3.892  -1.770  -5.561  1.00  0.00     0.000 C 
BRANCH   2   3
ATOM      3  C   UNL     1      -3.565  -3.268  -5.770  1.00  0.00     0.000 C 
BRANCH   3   4
ATOM      4  C   UNL     1      -4.324  -3.973  -6.918  1.00  0.00     0.000 C 
BRANCH   4   5
ATOM      5  C   UNL     1      -5.852  -4.025  -6.739  1.00  0.00     0.000 C 
BRANCH   5   6
ATOM      6  C   UNL     1      -6.620  -3.211  -7.798  1.00  0.00     0.000 C 
BRANCH   6   7
ATOM      7  C   UNL     1      -7.200  -1.890  -7.246  1.00  0.00     0.000 C 
BRANCH   7   8
ATOM      8  C   UNL     1      -6.929  -0.658  -8.134  1.00  0.00     0.000 C 
BRANCH   8   9
ATOM      9  C   UNL     1      -5.972   0.389  -7.544  1.00  0.00     0.000 C 
BRANCH   9  10
ATOM     10  C   UNL     1      -4.651   0.504  -8.322  1.00  0.00     0.000 C 
BRANCH  10  11
ATOM     11  C   UNL     1      -4.565  -0.474  -9.506  1.00  0.00     0.000 C 
BRANCH  11  12
ATOM     12  C   UNL     1      -3.347  -1.420  -9.439  1.00  0.00     0.000 C 
BRANCH  12  13
ATOM     13  C   UNL     1      -2.179  -0.799  -8.655  1.00  0.00     0.006 C 
BRANCH  13  14
ATOM     14  C   UNL     1      -1.089  -1.827  -8.329  1.00  0.00     0.053 C 
BRANCH  14  15
ATOM     15  C   UNL     1      -0.399  -1.519  -7.035  1.00  0.00     0.041 C 
ATOM     16  O   UNL     1       0.528  -2.262  -6.618  1.00  0.00    -0.550 OA
ATOM     17  O   UNL     1      -0.787  -0.413  -6.287  1.00  0.00    -0.550 OA
ENDBRANCH  14  15
ENDBRANCH  13  14
ENDBRANCH  12  13
ENDBRANCH  11  12
ENDBRANCH  10  11
ENDBRANCH   9  10
ENDBRANCH   8   9
ENDBRANCH   7   8
ENDBRANCH   6   7
ENDBRANCH   5   6
ENDBRANCH   4   5
ENDBRANCH   3   4
ENDBRANCH   2   3
ENDBRANCH   1   2
BRANCH   1  18
ATOM     18  C   UNL     1      -4.949  -2.563  -3.356  1.00  0.00     0.000 C 
BRANCH  18  19
ATOM     19  C   UNL     1      -6.289  -2.556  -2.599  1.00  0.00     0.000 C 
BRANCH  19  20
ATOM     20  C   UNL     1      -7.431  -1.787  -3.294  1.00  0.00     0.000 C 
BRANCH  20  21
ATOM     21  C   UNL     1      -8.439  -2.666  -4.060  1.00  0.00     0.000 C 
BRANCH  21  22
ATOM     22  C   UNL     1      -8.803  -3.999  -3.379  1.00  0.00     0.000 C 
BRANCH  22  23
ATOM     23  C   UNL     1      -8.358  -5.229  -4.186  1.00  0.00     0.000 C 
BRANCH  23  24
ATOM     24  C   UNL     1      -7.054  -5.854  -3.658  1.00  0.00    -0.000 C 
BRANCH  24  25
ATOM     25  C   UNL     1      -6.412  -6.908  -4.579  1.00  0.00    -0.000 C 
BRANCH  25  26
ATOM     26  C   UNL     1      -4.999  -7.317  -4.129  1.00  0.00    -0.000 C 
BRANCH  26  27
ATOM     27  C   UNL     1      -4.283  -6.200  -3.353  1.00  0.00    -0.000 C 
BRANCH  27  28
ATOM     28  C   UNL     1      -2.816  -6.028  -3.787  1.00  0.00    -0.000 C 
BRANCH  28  29
ATOM     29  C   UNL     1      -2.123  -7.370  -4.080  1.00  0.00    -0.000 C 
BRANCH  29  30
ATOM     30  C   UNL     1      -1.397  -7.443  -5.439  1.00  0.00    -0.000 C 
BRANCH  30  31
ATOM     31  C   UNL     1      -1.097  -6.062  -6.057  1.00  0.00    -0.003 C 
ATOM     32  C   UNL     1       0.394  -5.726  -6.034  1.00  0.00     0.004 C 
ENDBRANCH  30  31
ENDBRANCH  29  30
ENDBRANCH  28  29
ENDBRANCH  27  28
ENDBRANCH  26  27
ENDBRANCH  25  26
ENDBRANCH  24  25
ENDBRANCH  23  24
ENDBRANCH  22  23
ENDBRANCH  21  22
ENDBRANCH  20  21
ENDBRANCH  19  20
ENDBRANCH  18  19
ENDBRANCH   1  18
TORSDOF 28
ENDMDL
