MODEL 1
REMARK VINA RESULT:    -5.947      0.000      0.000
REMARK INTER + INTRA:         -19.756
REMARK INTER:                 -14.986
REMARK INTRA:                  -4.769
REMARK UNBOUND:                -4.769
REMARK SMILES CCCCCCCCCCCCCCCCCCCCCCCCCCCC(=O)[O-]
REMARK SMILES IDX 15 1 16 2 17 3 18 4 19 5 20 6 21 7 22 8 23 9 24 10 25 11
REMARK SMILES IDX 26 12 27 13 28 14 29 15 30 16 14 17 13 18 12 19 11 20 10 21
REMARK SMILES IDX 9 22 8 23 7 24 6 25 5 26 4 27 3 28 2 29 1 30
REMARK H PARENT
REMARK Flexibility Score: inf
ROOT
ATOM      1  C   UNL     1     105.392  24.490 197.854  1.00  0.00     0.000 C 
ENDROOT
BRANCH   1   2
ATOM      2  C   UNL     1     104.894  25.616 196.937  1.00  0.00     0.000 C 
BRANCH   2   3
ATOM      3  C   UNL     1     105.218  25.365 195.454  1.00  0.00     0.000 C 
BRANCH   3   4
ATOM      4  C   UNL     1     104.464  24.184 194.810  1.00  0.00     0.000 C 
BRANCH   4   5
ATOM      5  C   UNL     1     105.348  22.990 194.409  1.00  0.00     0.000 C 
BRANCH   5   6
ATOM      6  C   UNL     1     104.745  22.159 193.266  1.00  0.00     0.000 C 
BRANCH   6   7
ATOM      7  C   UNL     1     105.664  20.987 192.898  1.00  0.00     0.000 C 
BRANCH   7   8
ATOM      8  C   UNL     1     107.026  21.038 193.612  1.00  0.00     0.000 C 
BRANCH   8   9
ATOM      9  C   UNL     1     108.250  21.063 192.677  1.00  0.00     0.000 C 
BRANCH   9  10
ATOM     10  C   UNL     1     109.557  20.668 193.386  1.00  0.00     0.000 C 
BRANCH  10  11
ATOM     11  C   UNL     1     109.342  20.303 194.862  1.00  0.00     0.000 C 
BRANCH  11  12
ATOM     12  C   UNL     1     110.619  19.778 195.535  1.00  0.00     0.006 C 
BRANCH  12  13
ATOM     13  C   UNL     1     111.713  20.850 195.555  1.00  0.00     0.053 C 
BRANCH  13  14
ATOM     14  C   UNL     1     111.834  21.470 196.915  1.00  0.00     0.041 C 
ATOM     15  O   UNL     1     110.937  22.245 197.339  1.00  0.00    -0.550 OA
ATOM     16  O   UNL     1     112.947  21.211 197.709  1.00  0.00    -0.550 OA
ENDBRANCH  13  14
ENDBRANCH  12  13
ENDBRANCH  11  12
ENDBRANCH  10  11
ENDBRANCH   9  10
ENDBRANCH   8   9
ENDBRANCH   7   8
ENDBRANCH   6   7
ENDBRANCH   5   6
ENDBRANCH   4   5
ENDBRANCH   3   4
ENDBRANCH   2   3
ENDBRANCH   1   2
BRANCH   1  17
ATOM     17  C   UNL     1     104.245  23.919 198.697  1.00  0.00     0.000 C 
BRANCH  17  18
ATOM     18  C   UNL     1     104.746  23.223 199.972  1.00  0.00     0.000 C 
BRANCH  18  19
ATOM     19  C   UNL     1     106.280  23.179 200.053  1.00  0.00     0.000 C 
BRANCH  19  20
ATOM     20  C   UNL     1     106.843  21.774 199.786  1.00  0.00     0.000 C 
BRANCH  20  21
ATOM     21  C   UNL     1     107.713  21.690 198.510  1.00  0.00     0.000 C 
BRANCH  21  22
ATOM     22  C   UNL     1     106.927  21.312 197.237  1.00  0.00    -0.000 C 
BRANCH  22  23
ATOM     23  C   UNL     1     106.104  20.020 197.379  1.00  0.00    -0.000 C 
BRANCH  23  24
ATOM     24  C   UNL     1     104.822  20.022 196.518  1.00  0.00    -0.000 C 
BRANCH  24  25
ATOM     25  C   UNL     1     103.679  20.816 197.178  1.00  0.00    -0.000 C 
BRANCH  25  26
ATOM     26  C   UNL     1     102.568  21.211 196.185  1.00  0.00    -0.000 C 
BRANCH  26  27
ATOM     27  C   UNL     1     101.697  22.360 196.717  1.00  0.00    -0.000 C 
BRANCH  27  28
ATOM     28  C   UNL     1     101.090  22.058 198.097  1.00  0.00    -0.000 C 
BRANCH  28  29
ATOM     29  C   UNL     1     100.250  23.217 198.674  1.00  0.00    -0.003 C 
ATOM     30  C   UNL     1     100.855  23.794 199.955  1.00  0.00     0.004 C 
ENDBRANCH  28  29
ENDBRANCH  27  28
ENDBRANCH  26  27
ENDBRANCH  25  26
ENDBRANCH  24  25
ENDBRANCH  23  24
ENDBRANCH  22  23
ENDBRANCH  21  22
ENDBRANCH  20  21
ENDBRANCH  19  20
ENDBRANCH  18  19
ENDBRANCH  17  18
ENDBRANCH   1  17
TORSDOF 26
ENDMDL
MODEL 2
REMARK VINA RESULT:    -5.887      2.365      7.520
REMARK INTER + INTRA:         -19.605
REMARK INTER:                 -15.869
REMARK INTRA:                  -3.736
REMARK UNBOUND:                -4.769
REMARK SMILES CCCCCCCCCCCCCCCCCCCCCCCCCCCC(=O)[O-]
REMARK SMILES IDX 15 1 16 2 17 3 18 4 19 5 20 6 21 7 22 8 23 9 24 10 25 11
REMARK SMILES IDX 26 12 27 13 28 14 29 15 30 16 14 17 13 18 12 19 11 20 10 21
REMARK SMILES IDX 9 22 8 23 7 24 6 25 5 26 4 27 3 28 2 29 1 30
REMARK H PARENT
REMARK Flexibility Score: inf
ROOT
ATOM      1  C   UNL     1     102.782  20.159 197.171  1.00  0.00     0.000 C 
ENDROOT
BRANCH   1   2
ATOM      2  C   UNL     1     103.816  19.045 196.961  1.00  0.00     0.000 C 
BRANCH   2   3
ATOM      3  C   UNL     1     105.254  19.581 196.837  1.00  0.00     0.000 C 
BRANCH   3   4
ATOM      4  C   UNL     1     106.251  19.027 197.873  1.00  0.00     0.000 C 
BRANCH   4   5
ATOM      5  C   UNL     1     107.163  20.083 198.525  1.00  0.00     0.000 C 
BRANCH   5   6
ATOM      6  C   UNL     1     106.578  21.501 198.451  1.00  0.00     0.000 C 
BRANCH   6   7
ATOM      7  C   UNL     1     106.496  22.133 199.847  1.00  0.00     0.000 C 
BRANCH   7   8
ATOM      8  C   UNL     1     105.727  23.466 199.864  1.00  0.00     0.000 C 
BRANCH   8   9
ATOM      9  C   UNL     1     104.205  23.336 200.058  1.00  0.00     0.000 C 
BRANCH   9  10
ATOM     10  C   UNL     1     103.462  22.976 198.759  1.00  0.00     0.000 C 
BRANCH  10  11
ATOM     11  C   UNL     1     102.396  24.016 198.379  1.00  0.00     0.000 C 
BRANCH  11  12
ATOM     12  C   UNL     1     102.876  24.984 197.287  1.00  0.00     0.006 C 
BRANCH  12  13
ATOM     13  C   UNL     1     104.152  24.469 196.615  1.00  0.00     0.053 C 
BRANCH  13  14
ATOM     14  C   UNL     1     105.067  25.602 196.258  1.00  0.00     0.041 C 
ATOM     15  O   UNL     1     105.618  26.281 197.165  1.00  0.00    -0.550 OA
ATOM     16  O   UNL     1     105.299  25.925 194.925  1.00  0.00    -0.550 OA
ENDBRANCH  13  14
ENDBRANCH  12  13
ENDBRANCH  11  12
ENDBRANCH  10  11
ENDBRANCH   9  10
ENDBRANCH   8   9
ENDBRANCH   7   8
ENDBRANCH   6   7
ENDBRANCH   5   6
ENDBRANCH   4   5
ENDBRANCH   3   4
ENDBRANCH   2   3
ENDBRANCH   1   2
BRANCH   1  17
ATOM     17  C   UNL     1     101.506  19.885 196.365  1.00  0.00     0.000 C 
BRANCH  17  18
ATOM     18  C   UNL     1     101.124  21.064 195.456  1.00  0.00     0.000 C 
BRANCH  18  19
ATOM     19  C   UNL     1     102.308  22.005 195.187  1.00  0.00     0.000 C 
BRANCH  19  20
ATOM     20  C   UNL     1     102.501  22.295 193.690  1.00  0.00     0.000 C 
BRANCH  20  21
ATOM     21  C   UNL     1     103.937  22.741 193.327  1.00  0.00     0.000 C 
BRANCH  21  22
ATOM     22  C   UNL     1     105.038  21.782 193.828  1.00  0.00    -0.000 C 
BRANCH  22  23
ATOM     23  C   UNL     1     105.923  21.215 192.705  1.00  0.00    -0.000 C 
BRANCH  23  24
ATOM     24  C   UNL     1     107.369  20.928 193.162  1.00  0.00    -0.000 C 
BRANCH  24  25
ATOM     25  C   UNL     1     107.503  20.915 194.696  1.00  0.00    -0.000 C 
BRANCH  25  26
ATOM     26  C   UNL     1     108.805  20.247 195.183  1.00  0.00    -0.000 C 
BRANCH  26  27
ATOM     27  C   UNL     1     109.998  20.566 194.268  1.00  0.00    -0.000 C 
BRANCH  27  28
ATOM     28  C   UNL     1     111.347  20.166 194.889  1.00  0.00    -0.000 C 
BRANCH  28  29
ATOM     29  C   UNL     1     112.068  21.326 195.607  1.00  0.00    -0.003 C 
ATOM     30  C   UNL     1     112.051  21.171 197.128  1.00  0.00     0.004 C 
ENDBRANCH  28  29
ENDBRANCH  27  28
ENDBRANCH  26  27
ENDBRANCH  25  26
ENDBRANCH  24  25
ENDBRANCH  23  24
ENDBRANCH  22  23
ENDBRANCH  21  22
ENDBRANCH  20  21
ENDBRANCH  19  20
ENDBRANCH  18  19
ENDBRANCH  17  18
ENDBRANCH   1  17
TORSDOF 26
ENDMDL
MODEL 3
REMARK VINA RESULT:    -5.872      1.553      4.247
REMARK INTER + INTRA:         -19.567
REMARK INTER:                 -15.353
REMARK INTRA:                  -4.214
REMARK UNBOUND:                -4.769
REMARK SMILES CCCCCCCCCCCCCCCCCCCCCCCCCCCC(=O)[O-]
REMARK SMILES IDX 15 1 16 2 17 3 18 4 19 5 20 6 21 7 22 8 23 9 24 10 25 11
REMARK SMILES IDX 26 12 27 13 28 14 29 15 30 16 14 17 13 18 12 19 11 20 10 21
REMARK SMILES IDX 9 22 8 23 7 24 6 25 5 26 4 27 3 28 2 29 1 30
REMARK H PARENT
REMARK Flexibility Score: inf
ROOT
ATOM      1  C   UNL     1     104.169  22.177 193.614  1.00  0.00     0.000 C 
ENDROOT
BRANCH   1   2
ATOM      2  C   UNL     1     102.890  23.026 193.614  1.00  0.00     0.000 C 
BRANCH   2   3
ATOM      3  C   UNL     1     101.611  22.178 193.738  1.00  0.00     0.000 C 
BRANCH   3   4
ATOM      4  C   UNL     1     101.133  21.921 195.181  1.00  0.00     0.000 C 
BRANCH   4   5
ATOM      5  C   UNL     1     101.332  20.480 195.684  1.00  0.00     0.000 C 
BRANCH   5   6
ATOM      6  C   UNL     1     101.987  20.420 197.073  1.00  0.00     0.000 C 
BRANCH   6   7
ATOM      7  C   UNL     1     102.361  18.978 197.439  1.00  0.00     0.000 C 
BRANCH   7   8
ATOM      8  C   UNL     1     103.881  18.735 197.467  1.00  0.00     0.000 C 
BRANCH   8   9
ATOM      9  C   UNL     1     104.723  19.808 196.752  1.00  0.00     0.000 C 
BRANCH   9  10
ATOM     10  C   UNL     1     106.230  19.501 196.772  1.00  0.00     0.000 C 
BRANCH  10  11
ATOM     11  C   UNL     1     107.092  20.752 196.541  1.00  0.00     0.000 C 
BRANCH  11  12
ATOM     12  C   UNL     1     108.251  20.502 195.563  1.00  0.00     0.006 C 
BRANCH  12  13
ATOM     13  C   UNL     1     109.480  19.954 196.295  1.00  0.00     0.053 C 
BRANCH  13  14
ATOM     14  C   UNL     1     110.538  21.007 196.433  1.00  0.00     0.041 C 
ATOM     15  O   UNL     1     110.427  21.904 197.310  1.00  0.00    -0.550 OA
ATOM     16  O   UNL     1     111.639  21.014 195.583  1.00  0.00    -0.550 OA
ENDBRANCH  13  14
ENDBRANCH  12  13
ENDBRANCH  11  12
ENDBRANCH  10  11
ENDBRANCH   9  10
ENDBRANCH   8   9
ENDBRANCH   7   8
ENDBRANCH   6   7
ENDBRANCH   5   6
ENDBRANCH   4   5
ENDBRANCH   3   4
ENDBRANCH   2   3
ENDBRANCH   1   2
BRANCH   1  17
ATOM     17  C   UNL     1     105.258  22.824 194.481  1.00  0.00     0.000 C 
BRANCH  17  18
ATOM     18  C   UNL     1     104.949  24.293 194.809  1.00  0.00     0.000 C 
BRANCH  18  19
ATOM     19  C   UNL     1     105.780  24.818 195.989  1.00  0.00     0.000 C 
BRANCH  19  20
ATOM     20  C   UNL     1     104.903  25.339 197.140  1.00  0.00     0.000 C 
BRANCH  20  21
ATOM     21  C   UNL     1     103.557  24.590 197.278  1.00  0.00     0.000 C 
BRANCH  21  22
ATOM     22  C   UNL     1     103.678  23.198 197.934  1.00  0.00    -0.000 C 
BRANCH  22  23
ATOM     23  C   UNL     1     104.574  23.178 199.184  1.00  0.00    -0.000 C 
BRANCH  23  24
ATOM     24  C   UNL     1     103.772  23.151 200.503  1.00  0.00    -0.000 C 
BRANCH  24  25
ATOM     25  C   UNL     1     102.280  22.849 200.271  1.00  0.00    -0.000 C 
BRANCH  25  26
ATOM     26  C   UNL     1     101.366  24.055 200.567  1.00  0.00    -0.000 C 
BRANCH  26  27
ATOM     27  C   UNL     1      99.973  23.896 199.938  1.00  0.00    -0.000 C 
BRANCH  27  28
ATOM     28  C   UNL     1      99.994  23.057 198.649  1.00  0.00    -0.000 C 
BRANCH  28  29
ATOM     29  C   UNL     1      98.598  22.838 198.028  1.00  0.00    -0.003 C 
ATOM     30  C   UNL     1      97.499  23.582 198.788  1.00  0.00     0.004 C 
ENDBRANCH  28  29
ENDBRANCH  27  28
ENDBRANCH  26  27
ENDBRANCH  25  26
ENDBRANCH  24  25
ENDBRANCH  23  24
ENDBRANCH  22  23
ENDBRANCH  21  22
ENDBRANCH  20  21
ENDBRANCH  19  20
ENDBRANCH  18  19
ENDBRANCH  17  18
ENDBRANCH   1  17
TORSDOF 26
ENDMDL
MODEL 4
REMARK VINA RESULT:    -5.864      2.453      6.863
REMARK INTER + INTRA:         -19.546
REMARK INTER:                 -14.977
REMARK INTRA:                  -4.569
REMARK UNBOUND:                -4.769
REMARK SMILES CCCCCCCCCCCCCCCCCCCCCCCCCCCC(=O)[O-]
REMARK SMILES IDX 15 1 16 2 17 3 18 4 19 5 20 6 21 7 22 8 23 9 24 10 25 11
REMARK SMILES IDX 26 12 27 13 28 14 29 15 30 16 14 17 13 18 12 19 11 20 10 21
REMARK SMILES IDX 9 22 8 23 7 24 6 25 5 26 4 27 3 28 2 29 1 30
REMARK H PARENT
REMARK Flexibility Score: inf
ROOT
ATOM      1  C   UNL     1     101.630  22.769 196.232  1.00  0.00     0.000 C 
ENDROOT
BRANCH   1   2
ATOM      2  C   UNL     1     100.209  22.598 196.786  1.00  0.00     0.000 C 
BRANCH   2   3
ATOM      3  C   UNL     1     100.111  22.921 198.288  1.00  0.00     0.000 C 
BRANCH   3   4
ATOM      4  C   UNL     1     101.320  23.675 198.876  1.00  0.00     0.000 C 
BRANCH   4   5
ATOM      5  C   UNL     1     101.718  23.251 200.302  1.00  0.00     0.000 C 
BRANCH   5   6
ATOM      6  C   UNL     1     103.239  23.234 200.515  1.00  0.00     0.000 C 
BRANCH   6   7
ATOM      7  C   UNL     1     103.970  22.882 199.212  1.00  0.00     0.000 C 
BRANCH   7   8
ATOM      8  C   UNL     1     105.065  23.897 198.839  1.00  0.00     0.000 C 
BRANCH   8   9
ATOM      9  C   UNL     1     104.569  25.133 198.065  1.00  0.00     0.000 C 
BRANCH   9  10
ATOM     10  C   UNL     1     105.500  25.530 196.906  1.00  0.00     0.000 C 
BRANCH  10  11
ATOM     11  C   UNL     1     106.073  24.314 196.164  1.00  0.00     0.000 C 
BRANCH  11  12
ATOM     12  C   UNL     1     105.140  23.800 195.057  1.00  0.00     0.006 C 
BRANCH  12  13
ATOM     13  C   UNL     1     105.482  22.358 194.672  1.00  0.00     0.053 C 
BRANCH  13  14
ATOM     14  C   UNL     1     104.928  22.014 193.322  1.00  0.00     0.041 C 
ATOM     15  O   UNL     1     103.798  22.447 192.973  1.00  0.00    -0.550 OA
ATOM     16  O   UNL     1     105.647  21.200 192.453  1.00  0.00    -0.550 OA
ENDBRANCH  13  14
ENDBRANCH  12  13
ENDBRANCH  11  12
ENDBRANCH  10  11
ENDBRANCH   9  10
ENDBRANCH   8   9
ENDBRANCH   7   8
ENDBRANCH   6   7
ENDBRANCH   5   6
ENDBRANCH   4   5
ENDBRANCH   3   4
ENDBRANCH   2   3
ENDBRANCH   1   2
BRANCH   1  17
ATOM     17  C   UNL     1     102.289  21.407 195.978  1.00  0.00     0.000 C 
BRANCH  17  18
ATOM     18  C   UNL     1     101.280  20.250 196.034  1.00  0.00     0.000 C 
BRANCH  18  19
ATOM     19  C   UNL     1     101.631  19.217 197.116  1.00  0.00     0.000 C 
BRANCH  19  20
ATOM     20  C   UNL     1     103.067  19.378 197.640  1.00  0.00     0.000 C 
BRANCH  20  21
ATOM     21  C   UNL     1     104.033  18.279 197.142  1.00  0.00     0.000 C 
BRANCH  21  22
ATOM     22  C   UNL     1     105.527  18.635 197.301  1.00  0.00    -0.000 C 
BRANCH  22  23
ATOM     23  C   UNL     1     105.781  20.128 197.572  1.00  0.00    -0.000 C 
BRANCH  23  24
ATOM     24  C   UNL     1     106.812  20.371 198.696  1.00  0.00    -0.000 C 
BRANCH  24  25
ATOM     25  C   UNL     1     107.758  21.543 198.374  1.00  0.00    -0.000 C 
BRANCH  25  26
ATOM     26  C   UNL     1     108.563  21.329 197.077  1.00  0.00    -0.000 C 
BRANCH  26  27
ATOM     27  C   UNL     1     109.999  21.865 197.189  1.00  0.00    -0.000 C 
BRANCH  27  28
ATOM     28  C   UNL     1     111.049  20.866 196.673  1.00  0.00    -0.000 C 
BRANCH  28  29
ATOM     29  C   UNL     1     110.524  19.933 195.561  1.00  0.00    -0.003 C 
ATOM     30  C   UNL     1     110.766  20.502 194.162  1.00  0.00     0.004 C 
ENDBRANCH  28  29
ENDBRANCH  27  28
ENDBRANCH  26  27
ENDBRANCH  25  26
ENDBRANCH  24  25
ENDBRANCH  23  24
ENDBRANCH  22  23
ENDBRANCH  21  22
ENDBRANCH  20  21
ENDBRANCH  19  20
ENDBRANCH  18  19
ENDBRANCH  17  18
ENDBRANCH   1  17
TORSDOF 26
ENDMDL
MODEL 5
REMARK VINA RESULT:    -5.863      1.424      4.424
REMARK INTER + INTRA:         -19.543
REMARK INTER:                 -15.736
REMARK INTRA:                  -3.807
REMARK UNBOUND:                -4.769
REMARK SMILES CCCCCCCCCCCCCCCCCCCCCCCCCCCC(=O)[O-]
REMARK SMILES IDX 15 1 16 2 17 3 18 4 19 5 20 6 21 7 22 8 23 9 24 10 25 11
REMARK SMILES IDX 26 12 27 13 28 14 29 15 30 16 14 17 13 18 12 19 11 20 10 21
REMARK SMILES IDX 9 22 8 23 7 24 6 25 5 26 4 27 3 28 2 29 1 30
REMARK H PARENT
REMARK Flexibility Score: inf
ROOT
ATOM      1  C   UNL     1     101.811  22.201 195.446  1.00  0.00     0.000 C 
ENDROOT
BRANCH   1   2
ATOM      2  C   UNL     1     101.233  20.908 196.037  1.00  0.00     0.000 C 
BRANCH   2   3
ATOM      3  C   UNL     1     102.047  20.383 197.233  1.00  0.00     0.000 C 
BRANCH   3   4
ATOM      4  C   UNL     1     102.969  19.187 196.924  1.00  0.00     0.000 C 
BRANCH   4   5
ATOM      5  C   UNL     1     104.457  19.543 196.752  1.00  0.00     0.000 C 
BRANCH   5   6
ATOM      6  C   UNL     1     105.381  18.674 197.620  1.00  0.00     0.000 C 
BRANCH   6   7
ATOM      7  C   UNL     1     106.561  19.497 198.155  1.00  0.00     0.000 C 
BRANCH   7   8
ATOM      8  C   UNL     1     106.785  20.808 197.380  1.00  0.00     0.000 C 
BRANCH   8   9
ATOM      9  C   UNL     1     108.250  21.095 197.001  1.00  0.00     0.000 C 
BRANCH   9  10
ATOM     10  C   UNL     1     108.750  20.227 195.833  1.00  0.00     0.000 C 
BRANCH  10  11
ATOM     11  C   UNL     1     110.229  19.836 195.978  1.00  0.00     0.000 C 
BRANCH  11  12
ATOM     12  C   UNL     1     111.165  20.746 195.169  1.00  0.00     0.006 C 
BRANCH  12  13
ATOM     13  C   UNL     1     112.493  20.961 195.902  1.00  0.00     0.053 C 
BRANCH  13  14
ATOM     14  C   UNL     1     112.265  21.488 197.287  1.00  0.00     0.041 C 
ATOM     15  O   UNL     1     112.921  21.023 198.256  1.00  0.00    -0.550 OA
ATOM     16  O   UNL     1     111.314  22.477 197.515  1.00  0.00    -0.550 OA
ENDBRANCH  13  14
ENDBRANCH  12  13
ENDBRANCH  11  12
ENDBRANCH  10  11
ENDBRANCH   9  10
ENDBRANCH   8   9
ENDBRANCH   7   8
ENDBRANCH   6   7
ENDBRANCH   5   6
ENDBRANCH   4   5
ENDBRANCH   3   4
ENDBRANCH   2   3
ENDBRANCH   1   2
BRANCH   1  17
ATOM     17  C   UNL     1     101.885  22.122 193.915  1.00  0.00     0.000 C 
BRANCH  17  18
ATOM     18  C   UNL     1     103.181  22.732 193.360  1.00  0.00     0.000 C 
BRANCH  18  19
ATOM     19  C   UNL     1     104.439  22.113 193.990  1.00  0.00     0.000 C 
BRANCH  19  20
ATOM     20  C   UNL     1     105.214  23.114 194.861  1.00  0.00     0.000 C 
BRANCH  20  21
ATOM     21  C   UNL     1     104.584  24.526 194.889  1.00  0.00     0.000 C 
BRANCH  21  22
ATOM     22  C   UNL     1     105.538  25.630 195.392  1.00  0.00    -0.000 C 
BRANCH  22  23
ATOM     23  C   UNL     1     105.451  25.880 196.907  1.00  0.00    -0.000 C 
BRANCH  23  24
ATOM     24  C   UNL     1     104.434  24.959 197.615  1.00  0.00    -0.000 C 
BRANCH  24  25
ATOM     25  C   UNL     1     105.122  23.922 198.523  1.00  0.00    -0.000 C 
BRANCH  25  26
ATOM     26  C   UNL     1     104.152  22.850 199.056  1.00  0.00    -0.000 C 
BRANCH  26  27
ATOM     27  C   UNL     1     103.616  23.195 200.455  1.00  0.00    -0.000 C 
BRANCH  27  28
ATOM     28  C   UNL     1     102.089  23.047 200.560  1.00  0.00    -0.000 C 
BRANCH  28  29
ATOM     29  C   UNL     1     101.308  23.981 199.612  1.00  0.00    -0.003 C 
ATOM     30  C   UNL     1     100.238  23.238 198.812  1.00  0.00     0.004 C 
ENDBRANCH  28  29
ENDBRANCH  27  28
ENDBRANCH  26  27
ENDBRANCH  25  26
ENDBRANCH  24  25
ENDBRANCH  23  24
ENDBRANCH  22  23
ENDBRANCH  21  22
ENDBRANCH  20  21
ENDBRANCH  19  20
ENDBRANCH  18  19
ENDBRANCH  17  18
ENDBRANCH   1  17
TORSDOF 26
ENDMDL
MODEL 6
REMARK VINA RESULT:    -5.844      1.389      4.804
REMARK INTER + INTRA:         -19.495
REMARK INTER:                 -15.070
REMARK INTRA:                  -4.425
REMARK UNBOUND:                -4.769
REMARK SMILES CCCCCCCCCCCCCCCCCCCCCCCCCCCC(=O)[O-]
REMARK SMILES IDX 15 1 16 2 17 3 18 4 19 5 20 6 21 7 22 8 23 9 24 10 25 11
REMARK SMILES IDX 26 12 27 13 28 14 29 15 30 16 14 17 13 18 12 19 11 20 10 21
REMARK SMILES IDX 9 22 8 23 7 24 6 25 5 26 4 27 3 28 2 29 1 30
REMARK H PARENT
REMARK Flexibility Score: inf
ROOT
ATOM      1  C   UNL     1     101.648  21.027 196.165  1.00  0.00     0.000 C 
ENDROOT
BRANCH   1   2
ATOM      2  C   UNL     1     102.392  20.484 197.393  1.00  0.00     0.000 C 
BRANCH   2   3
ATOM      3  C   UNL     1     102.644  18.967 197.315  1.00  0.00     0.000 C 
BRANCH   3   4
ATOM      4  C   UNL     1     104.113  18.558 197.088  1.00  0.00     0.000 C 
BRANCH   4   5
ATOM      5  C   UNL     1     105.113  19.728 197.041  1.00  0.00     0.000 C 
BRANCH   5   6
ATOM      6  C   UNL     1     106.217  19.610 198.102  1.00  0.00     0.000 C 
BRANCH   6   7
ATOM      7  C   UNL     1     107.349  20.609 197.827  1.00  0.00     0.000 C 
BRANCH   7   8
ATOM      8  C   UNL     1     107.446  21.022 196.348  1.00  0.00     0.000 C 
BRANCH   8   9
ATOM      9  C   UNL     1     108.487  20.243 195.523  1.00  0.00     0.000 C 
BRANCH   9  10
ATOM     10  C   UNL     1     109.796  19.991 196.290  1.00  0.00     0.000 C 
BRANCH  10  11
ATOM     11  C   UNL     1     111.041  20.137 195.401  1.00  0.00     0.000 C 
BRANCH  11  12
ATOM     12  C   UNL     1     111.944  21.303 195.830  1.00  0.00     0.006 C 
BRANCH  12  13
ATOM     13  C   UNL     1     111.363  22.031 197.047  1.00  0.00     0.053 C 
BRANCH  13  14
ATOM     14  C   UNL     1     112.346  22.056 198.179  1.00  0.00     0.041 C 
ATOM     15  O   UNL     1     112.442  23.077 198.910  1.00  0.00    -0.550 OA
ATOM     16  O   UNL     1     113.171  20.962 198.418  1.00  0.00    -0.550 OA
ENDBRANCH  13  14
ENDBRANCH  12  13
ENDBRANCH  11  12
ENDBRANCH  10  11
ENDBRANCH   9  10
ENDBRANCH   8   9
ENDBRANCH   7   8
ENDBRANCH   6   7
ENDBRANCH   5   6
ENDBRANCH   4   5
ENDBRANCH   3   4
ENDBRANCH   2   3
ENDBRANCH   1   2
BRANCH   1  17
ATOM     17  C   UNL     1     101.009  22.389 196.466  1.00  0.00     0.000 C 
BRANCH  17  18
ATOM     18  C   UNL     1      99.675  22.255 197.217  1.00  0.00     0.000 C 
BRANCH  18  19
ATOM     19  C   UNL     1      99.676  23.011 198.555  1.00  0.00     0.000 C 
BRANCH  19  20
ATOM     20  C   UNL     1     101.065  23.558 198.921  1.00  0.00     0.000 C 
BRANCH  20  21
ATOM     21  C   UNL     1     101.332  23.597 200.444  1.00  0.00     0.000 C 
BRANCH  21  22
ATOM     22  C   UNL     1     102.801  23.328 200.832  1.00  0.00    -0.000 C 
BRANCH  22  23
ATOM     23  C   UNL     1     103.670  22.834 199.662  1.00  0.00    -0.000 C 
BRANCH  23  24
ATOM     24  C   UNL     1     105.109  23.391 199.700  1.00  0.00    -0.000 C 
BRANCH  24  25
ATOM     25  C   UNL     1     105.460  24.183 198.427  1.00  0.00    -0.000 C 
BRANCH  25  26
ATOM     26  C   UNL     1     104.327  24.178 197.381  1.00  0.00    -0.000 C 
BRANCH  26  27
ATOM     27  C   UNL     1     104.658  23.290 196.171  1.00  0.00    -0.000 C 
BRANCH  27  28
ATOM     28  C   UNL     1     104.133  23.871 194.847  1.00  0.00    -0.000 C 
BRANCH  28  29
ATOM     29  C   UNL     1     103.959  22.817 193.733  1.00  0.00    -0.003 C 
ATOM     30  C   UNL     1     105.161  21.878 193.626  1.00  0.00     0.004 C 
ENDBRANCH  28  29
ENDBRANCH  27  28
ENDBRANCH  26  27
ENDBRANCH  25  26
ENDBRANCH  24  25
ENDBRANCH  23  24
ENDBRANCH  22  23
ENDBRANCH  21  22
ENDBRANCH  20  21
ENDBRANCH  19  20
ENDBRANCH  18  19
ENDBRANCH  17  18
ENDBRANCH   1  17
TORSDOF 26
ENDMDL
MODEL 7
REMARK VINA RESULT:    -5.796      3.416      7.405
REMARK INTER + INTRA:         -19.374
REMARK INTER:                 -14.970
REMARK INTRA:                  -4.404
REMARK UNBOUND:                -4.769
REMARK SMILES CCCCCCCCCCCCCCCCCCCCCCCCCCCC(=O)[O-]
REMARK SMILES IDX 15 1 16 2 17 3 18 4 19 5 20 6 21 7 22 8 23 9 24 10 25 11
REMARK SMILES IDX 26 12 27 13 28 14 29 15 30 16 14 17 13 18 12 19 11 20 10 21
REMARK SMILES IDX 9 22 8 23 7 24 6 25 5 26 4 27 3 28 2 29 1 30
REMARK H PARENT
REMARK Flexibility Score: inf
ROOT
ATOM      1  C   UNL     1     101.324  22.259 194.924  1.00  0.00     0.000 C 
ENDROOT
BRANCH   1   2
ATOM      2  C   UNL     1     101.720  22.502 193.461  1.00  0.00     0.000 C 
BRANCH   2   3
ATOM      3  C   UNL     1     103.113  23.140 193.318  1.00  0.00     0.000 C 
BRANCH   3   4
ATOM      4  C   UNL     1     104.280  22.143 193.184  1.00  0.00     0.000 C 
BRANCH   4   5
ATOM      5  C   UNL     1     105.148  21.985 194.445  1.00  0.00     0.000 C 
BRANCH   5   6
ATOM      6  C   UNL     1     104.676  22.873 195.607  1.00  0.00     0.000 C 
BRANCH   6   7
ATOM      7  C   UNL     1     105.821  23.756 196.121  1.00  0.00     0.000 C 
BRANCH   7   8
ATOM      8  C   UNL     1     105.333  25.070 196.758  1.00  0.00     0.000 C 
BRANCH   8   9
ATOM      9  C   UNL     1     105.280  25.066 198.297  1.00  0.00     0.000 C 
BRANCH   9  10
ATOM     10  C   UNL     1     105.383  23.653 198.898  1.00  0.00     0.000 C 
BRANCH  10  11
ATOM     11  C   UNL     1     104.170  23.292 199.770  1.00  0.00     0.000 C 
BRANCH  11  12
ATOM     12  C   UNL     1     103.009  22.699 198.955  1.00  0.00     0.006 C 
BRANCH  12  13
ATOM     13  C   UNL     1     102.001  23.783 198.563  1.00  0.00     0.053 C 
BRANCH  13  14
ATOM     14  C   UNL     1     100.698  23.592 199.281  1.00  0.00     0.041 C 
ATOM     15  O   UNL     1     100.572  23.971 200.474  1.00  0.00    -0.550 OA
ATOM     16  O   UNL     1      99.627  22.976 198.641  1.00  0.00    -0.550 OA
ENDBRANCH  13  14
ENDBRANCH  12  13
ENDBRANCH  11  12
ENDBRANCH  10  11
ENDBRANCH   9  10
ENDBRANCH   8   9
ENDBRANCH   7   8
ENDBRANCH   6   7
ENDBRANCH   5   6
ENDBRANCH   4   5
ENDBRANCH   3   4
ENDBRANCH   2   3
ENDBRANCH   1   2
BRANCH   1  17
ATOM     17  C   UNL     1     101.213  20.758 195.222  1.00  0.00     0.000 C 
BRANCH  17  18
ATOM     18  C   UNL     1     101.143  20.465 196.729  1.00  0.00     0.000 C 
BRANCH  18  19
ATOM     19  C   UNL     1     101.976  19.236 197.127  1.00  0.00     0.000 C 
BRANCH  19  20
ATOM     20  C   UNL     1     103.465  19.397 196.782  1.00  0.00     0.000 C 
BRANCH  20  21
ATOM     21  C   UNL     1     104.352  18.255 197.330  1.00  0.00     0.000 C 
BRANCH  21  22
ATOM     22  C   UNL     1     105.783  18.697 197.706  1.00  0.00    -0.000 C 
BRANCH  22  23
ATOM     23  C   UNL     1     105.964  20.223 197.767  1.00  0.00    -0.000 C 
BRANCH  23  24
ATOM     24  C   UNL     1     107.415  20.648 198.081  1.00  0.00    -0.000 C 
BRANCH  24  25
ATOM     25  C   UNL     1     108.119  21.259 196.856  1.00  0.00    -0.000 C 
BRANCH  25  26
ATOM     26  C   UNL     1     108.591  20.200 195.839  1.00  0.00    -0.000 C 
BRANCH  26  27
ATOM     27  C   UNL     1     110.069  19.827 196.034  1.00  0.00    -0.000 C 
BRANCH  27  28
ATOM     28  C   UNL     1     111.015  20.671 195.162  1.00  0.00    -0.000 C 
BRANCH  28  29
ATOM     29  C   UNL     1     112.291  21.133 195.898  1.00  0.00    -0.003 C 
ATOM     30  C   UNL     1     111.979  21.825 197.226  1.00  0.00     0.004 C 
ENDBRANCH  28  29
ENDBRANCH  27  28
ENDBRANCH  26  27
ENDBRANCH  25  26
ENDBRANCH  24  25
ENDBRANCH  23  24
ENDBRANCH  22  23
ENDBRANCH  21  22
ENDBRANCH  20  21
ENDBRANCH  19  20
ENDBRANCH  18  19
ENDBRANCH  17  18
ENDBRANCH   1  17
TORSDOF 26
ENDMDL
MODEL 8
REMARK VINA RESULT:    -5.793      2.858      7.558
REMARK INTER + INTRA:         -19.367
REMARK INTER:                 -15.356
REMARK INTRA:                  -4.011
REMARK UNBOUND:                -4.769
REMARK SMILES CCCCCCCCCCCCCCCCCCCCCCCCCCCC(=O)[O-]
REMARK SMILES IDX 15 1 16 2 17 3 18 4 19 5 20 6 21 7 22 8 23 9 24 10 25 11
REMARK SMILES IDX 26 12 27 13 28 14 29 15 30 16 14 17 13 18 12 19 11 20 10 21
REMARK SMILES IDX 9 22 8 23 7 24 6 25 5 26 4 27 3 28 2 29 1 30
REMARK H PARENT
REMARK Flexibility Score: inf
ROOT
ATOM      1  C   UNL     1     105.036  23.478 197.973  1.00  0.00     0.000 C 
ENDROOT
BRANCH   1   2
ATOM      2  C   UNL     1     105.503  23.231 199.414  1.00  0.00     0.000 C 
BRANCH   2   3
ATOM      3  C   UNL     1     106.549  22.107 199.518  1.00  0.00     0.000 C 
BRANCH   3   4
ATOM      4  C   UNL     1     106.836  21.356 198.203  1.00  0.00     0.000 C 
BRANCH   4   5
ATOM      5  C   UNL     1     106.897  19.823 198.331  1.00  0.00     0.000 C 
BRANCH   5   6
ATOM      6  C   UNL     1     105.698  19.123 197.675  1.00  0.00     0.000 C 
BRANCH   6   7
ATOM      7  C   UNL     1     104.886  20.110 196.824  1.00  0.00     0.000 C 
BRANCH   7   8
ATOM      8  C   UNL     1     103.479  20.380 197.388  1.00  0.00     0.000 C 
BRANCH   8   9
ATOM      9  C   UNL     1     102.331  19.696 196.623  1.00  0.00     0.000 C 
BRANCH   9  10
ATOM     10  C   UNL     1     101.434  20.692 195.867  1.00  0.00     0.000 C 
BRANCH  10  11
ATOM     11  C   UNL     1     101.795  22.155 196.165  1.00  0.00     0.000 C 
BRANCH  11  12
ATOM     12  C   UNL     1     100.848  22.803 197.188  1.00  0.00     0.006 C 
BRANCH  12  13
ATOM     13  C   UNL     1     101.616  23.716 198.149  1.00  0.00     0.053 C 
BRANCH  13  14
ATOM     14  C   UNL     1     101.127  23.549 199.556  1.00  0.00     0.041 C 
ATOM     15  O   UNL     1     101.851  22.982 200.415  1.00  0.00    -0.550 OA
ATOM     16  O   UNL     1      99.862  24.002 199.919  1.00  0.00    -0.550 OA
ENDBRANCH  13  14
ENDBRANCH  12  13
ENDBRANCH  11  12
ENDBRANCH  10  11
ENDBRANCH   9  10
ENDBRANCH   8   9
ENDBRANCH   7   8
ENDBRANCH   6   7
ENDBRANCH   5   6
ENDBRANCH   4   5
ENDBRANCH   3   4
ENDBRANCH   2   3
ENDBRANCH   1   2
BRANCH   1  17
ATOM     17  C   UNL     1     105.117  24.969 197.616  1.00  0.00     0.000 C 
BRANCH  17  18
ATOM     18  C   UNL     1     105.561  25.199 196.164  1.00  0.00     0.000 C 
BRANCH  18  19
ATOM     19  C   UNL     1     104.651  24.485 195.152  1.00  0.00     0.000 C 
BRANCH  19  20
ATOM     20  C   UNL     1     105.183  23.097 194.759  1.00  0.00     0.000 C 
BRANCH  20  21
ATOM     21  C   UNL     1     104.440  22.469 193.557  1.00  0.00     0.000 C 
BRANCH  21  22
ATOM     22  C   UNL     1     105.294  21.477 192.739  1.00  0.00    -0.000 C 
BRANCH  22  23
ATOM     23  C   UNL     1     106.517  20.938 193.502  1.00  0.00    -0.000 C 
BRANCH  23  24
ATOM     24  C   UNL     1     107.828  21.044 192.694  1.00  0.00    -0.000 C 
BRANCH  24  25
ATOM     25  C   UNL     1     109.066  20.717 193.549  1.00  0.00    -0.000 C 
BRANCH  25  26
ATOM     26  C   UNL     1     108.740  20.562 195.048  1.00  0.00    -0.000 C 
BRANCH  26  27
ATOM     27  C   UNL     1     109.968  20.135 195.868  1.00  0.00    -0.000 C 
BRANCH  27  28
ATOM     28  C   UNL     1     111.296  20.458 195.162  1.00  0.00    -0.000 C 
BRANCH  28  29
ATOM     29  C   UNL     1     112.232  21.368 195.986  1.00  0.00    -0.003 C 
ATOM     30  C   UNL     1     111.584  21.843 197.288  1.00  0.00     0.004 C 
ENDBRANCH  28  29
ENDBRANCH  27  28
ENDBRANCH  26  27
ENDBRANCH  25  26
ENDBRANCH  24  25
ENDBRANCH  23  24
ENDBRANCH  22  23
ENDBRANCH  21  22
ENDBRANCH  20  21
ENDBRANCH  19  20
ENDBRANCH  18  19
ENDBRANCH  17  18
ENDBRANCH   1  17
TORSDOF 26
ENDMDL
MODEL 9
REMARK VINA RESULT:    -5.779      1.376      4.753
REMARK INTER + INTRA:         -19.332
REMARK INTER:                 -14.470
REMARK INTRA:                  -4.861
REMARK UNBOUND:                -4.769
REMARK SMILES CCCCCCCCCCCCCCCCCCCCCCCCCCCC(=O)[O-]
REMARK SMILES IDX 15 1 16 2 17 3 18 4 19 5 20 6 21 7 22 8 23 9 24 10 25 11
REMARK SMILES IDX 26 12 27 13 28 14 29 15 30 16 14 17 13 18 12 19 11 20 10 21
REMARK SMILES IDX 9 22 8 23 7 24 6 25 5 26 4 27 3 28 2 29 1 30
REMARK H PARENT
REMARK Flexibility Score: inf
ROOT
ATOM      1  C   UNL     1      99.400  22.827 197.121  1.00  0.00     0.000 C 
ENDROOT
BRANCH   1   2
ATOM      2  C   UNL     1     100.626  23.243 196.297  1.00  0.00     0.000 C 
BRANCH   2   3
ATOM      3  C   UNL     1     100.973  22.229 195.192  1.00  0.00     0.000 C 
BRANCH   3   4
ATOM      4  C   UNL     1     101.354  20.821 195.691  1.00  0.00     0.000 C 
BRANCH   4   5
ATOM      5  C   UNL     1     102.600  20.766 196.593  1.00  0.00     0.000 C 
BRANCH   5   6
ATOM      6  C   UNL     1     102.638  19.512 197.480  1.00  0.00     0.000 C 
BRANCH   6   7
ATOM      7  C   UNL     1     103.815  18.606 197.095  1.00  0.00     0.000 C 
BRANCH   7   8
ATOM      8  C   UNL     1     105.111  19.386 196.809  1.00  0.00     0.000 C 
BRANCH   8   9
ATOM      9  C   UNL     1     105.997  19.648 198.041  1.00  0.00     0.000 C 
BRANCH   9  10
ATOM     10  C   UNL     1     107.121  20.662 197.769  1.00  0.00     0.000 C 
BRANCH  10  11
ATOM     11  C   UNL     1     107.083  21.218 196.337  1.00  0.00     0.000 C 
BRANCH  11  12
ATOM     12  C   UNL     1     108.058  20.495 195.394  1.00  0.00     0.006 C 
BRANCH  12  13
ATOM     13  C   UNL     1     109.278  19.972 196.158  1.00  0.00     0.053 C 
BRANCH  13  14
ATOM     14  C   UNL     1     110.543  20.590 195.639  1.00  0.00     0.041 C 
ATOM     15  O   UNL     1     111.320  21.193 196.424  1.00  0.00    -0.550 OA
ATOM     16  O   UNL     1     110.856  20.518 194.286  1.00  0.00    -0.550 OA
ENDBRANCH  13  14
ENDBRANCH  12  13
ENDBRANCH  11  12
ENDBRANCH  10  11
ENDBRANCH   9  10
ENDBRANCH   8   9
ENDBRANCH   7   8
ENDBRANCH   6   7
ENDBRANCH   5   6
ENDBRANCH   4   5
ENDBRANCH   3   4
ENDBRANCH   2   3
ENDBRANCH   1   2
BRANCH   1  17
ATOM     17  C   UNL     1      99.692  22.917 198.625  1.00  0.00     0.000 C 
BRANCH  17  18
ATOM     18  C   UNL     1     101.041  23.591 198.920  1.00  0.00     0.000 C 
BRANCH  18  19
ATOM     19  C   UNL     1     101.365  23.625 200.422  1.00  0.00     0.000 C 
BRANCH  19  20
ATOM     20  C   UNL     1     102.811  23.200 200.721  1.00  0.00     0.000 C 
BRANCH  20  21
ATOM     21  C   UNL     1     103.609  22.795 199.460  1.00  0.00     0.000 C 
BRANCH  21  22
ATOM     22  C   UNL     1     105.057  23.330 199.434  1.00  0.00    -0.000 C 
BRANCH  22  23
ATOM     23  C   UNL     1     105.358  24.243 198.233  1.00  0.00    -0.000 C 
BRANCH  23  24
ATOM     24  C   UNL     1     104.178  25.167 197.865  1.00  0.00    -0.000 C 
BRANCH  24  25
ATOM     25  C   UNL     1     103.847  25.118 196.362  1.00  0.00    -0.000 C 
BRANCH  25  26
ATOM     26  C   UNL     1     105.078  25.351 195.465  1.00  0.00    -0.000 C 
BRANCH  26  27
ATOM     27  C   UNL     1     105.405  24.125 194.597  1.00  0.00    -0.000 C 
BRANCH  27  28
ATOM     28  C   UNL     1     104.281  23.074 194.605  1.00  0.00    -0.000 C 
BRANCH  28  29
ATOM     29  C   UNL     1     104.187  22.257 193.299  1.00  0.00    -0.003 C 
ATOM     30  C   UNL     1     105.515  21.595 192.929  1.00  0.00     0.004 C 
ENDBRANCH  28  29
ENDBRANCH  27  28
ENDBRANCH  26  27
ENDBRANCH  25  26
ENDBRANCH  24  25
ENDBRANCH  23  24
ENDBRANCH  22  23
ENDBRANCH  21  22
ENDBRANCH  20  21
ENDBRANCH  19  20
ENDBRANCH  18  19
ENDBRANCH  17  18
ENDBRANCH   1  17
TORSDOF 26
ENDMDL
