MODEL 1
REMARK VINA RESULT:    14.844      0.000      0.000
REMARK INTER + INTRA:          24.614
REMARK INTER:                  25.258
REMARK INTRA:                  -0.643
REMARK UNBOUND:                -0.643
REMARK SMILES CCCCCCCCCCCCCC(=O)[O-]
REMARK SMILES IDX 8 1 9 2 10 3 11 4 12 5 13 6 14 7 15 8 16 9 7 10 6 11 5 12
REMARK SMILES IDX 4 13 3 14 2 15 1 16
REMARK H PARENT
REMARK Flexibility Score: inf
ROOT
ATOM      1  C   UNL     1     -16.544 -13.815 -22.702  1.00  0.00     0.000 C 
ENDROOT
BRANCH   1   2
ATOM      2  C   UNL     1     -15.647 -12.611 -22.393  1.00  0.00     0.000 C 
BRANCH   2   3
ATOM      3  C   UNL     1     -14.685 -12.329 -23.554  1.00  0.00     0.000 C 
BRANCH   3   4
ATOM      4  C   UNL     1     -13.724 -11.186 -23.208  1.00  0.00     0.000 C 
BRANCH   4   5
ATOM      5  C   UNL     1     -14.049  -9.927 -24.025  1.00  0.00     0.006 C 
BRANCH   5   6
ATOM      6  C   UNL     1     -14.048  -8.657 -23.163  1.00  0.00     0.053 C 
BRANCH   6   7
ATOM      7  C   UNL     1     -15.185  -7.746 -23.513  1.00  0.00     0.041 C 
ATOM      8  O   UNL     1     -15.094  -6.972 -24.502  1.00  0.00    -0.550 OA
ATOM      9  O   UNL     1     -16.357  -7.777 -22.768  1.00  0.00    -0.550 OA
ENDBRANCH   6   7
ENDBRANCH   5   6
ENDBRANCH   4   5
ENDBRANCH   3   4
ENDBRANCH   2   3
ENDBRANCH   1   2
BRANCH   1  10
ATOM     10  C   UNL     1     -17.313 -13.608 -24.012  1.00  0.00     0.000 C 
BRANCH  10  11
ATOM     11  C   UNL     1     -18.643 -12.880 -23.762  1.00  0.00    -0.000 C 
BRANCH  11  12
ATOM     12  C   UNL     1     -19.655 -13.106 -24.904  1.00  0.00    -0.000 C 
BRANCH  12  13
ATOM     13  C   UNL     1     -21.123 -13.074 -24.444  1.00  0.00    -0.000 C 
BRANCH  13  14
ATOM     14  C   UNL     1     -21.780 -14.461 -24.449  1.00  0.00    -0.000 C 
BRANCH  14  15
ATOM     15  C   UNL     1     -22.497 -14.733 -23.120  1.00  0.00    -0.003 C 
ATOM     16  C   UNL     1     -21.900 -13.897 -21.991  1.00  0.00     0.004 C 
ENDBRANCH  14  15
ENDBRANCH  13  14
ENDBRANCH  12  13
ENDBRANCH  11  12
ENDBRANCH  10  11
ENDBRANCH   1  10
TORSDOF 12
ENDMDL
MODEL 2
REMARK VINA RESULT:    14.937      3.221      7.604
REMARK INTER + INTRA:          24.772
REMARK INTER:                  25.366
REMARK INTRA:                  -0.594
REMARK UNBOUND:                -0.643
REMARK SMILES CCCCCCCCCCCCCC(=O)[O-]
REMARK SMILES IDX 8 1 9 2 10 3 11 4 12 5 13 6 14 7 15 8 16 9 7 10 6 11 5 12
REMARK SMILES IDX 4 13 3 14 2 15 1 16
REMARK H PARENT
REMARK Flexibility Score: inf
ROOT
ATOM      1  C   UNL     1     -16.766 -13.766 -22.552  1.00  0.00     0.000 C 
ENDROOT
BRANCH   1   2
ATOM      2  C   UNL     1     -17.269 -13.586 -23.989  1.00  0.00     0.000 C 
BRANCH   2   3
ATOM      3  C   UNL     1     -18.580 -12.791 -24.018  1.00  0.00     0.000 C 
BRANCH   3   4
ATOM      4  C   UNL     1     -19.551 -13.369 -25.054  1.00  0.00     0.000 C 
BRANCH   4   5
ATOM      5  C   UNL     1     -21.008 -13.067 -24.672  1.00  0.00     0.006 C 
BRANCH   5   6
ATOM      6  C   UNL     1     -21.787 -14.336 -24.300  1.00  0.00     0.053 C 
BRANCH   6   7
ATOM      7  C   UNL     1     -22.141 -14.365 -22.845  1.00  0.00     0.041 C 
ATOM      8  O   UNL     1     -21.802 -13.414 -22.092  1.00  0.00    -0.550 OA
ATOM      9  O   UNL     1     -22.875 -15.425 -22.327  1.00  0.00    -0.550 OA
ENDBRANCH   6   7
ENDBRANCH   5   6
ENDBRANCH   4   5
ENDBRANCH   3   4
ENDBRANCH   2   3
ENDBRANCH   1   2
BRANCH   1  10
ATOM     10  C   UNL     1     -15.712 -12.709 -22.201  1.00  0.00     0.000 C 
BRANCH  10  11
ATOM     11  C   UNL     1     -14.805 -12.412 -23.405  1.00  0.00    -0.000 C 
BRANCH  11  12
ATOM     12  C   UNL     1     -13.862 -11.220 -23.144  1.00  0.00    -0.000 C 
BRANCH  12  13
ATOM     13  C   UNL     1     -14.171  -9.987 -24.012  1.00  0.00    -0.000 C 
BRANCH  13  14
ATOM     14  C   UNL     1     -13.959  -8.663 -23.266  1.00  0.00    -0.000 C 
BRANCH  14  15
ATOM     15  C   UNL     1     -15.189  -7.757 -23.399  1.00  0.00    -0.003 C 
ATOM     16  C   UNL     1     -15.020  -6.762 -24.544  1.00  0.00     0.004 C 
ENDBRANCH  14  15
ENDBRANCH  13  14
ENDBRANCH  12  13
ENDBRANCH  11  12
ENDBRANCH  10  11
ENDBRANCH   1  10
TORSDOF 12
ENDMDL
MODEL 3
REMARK VINA RESULT:    15.168      3.300      7.730
REMARK INTER + INTRA:          25.166
REMARK INTER:                  25.731
REMARK INTRA:                  -0.566
REMARK UNBOUND:                -0.643
REMARK SMILES CCCCCCCCCCCCCC(=O)[O-]
REMARK SMILES IDX 8 1 9 2 10 3 11 4 12 5 13 6 14 7 15 8 16 9 7 10 6 11 5 12
REMARK SMILES IDX 4 13 3 14 2 15 1 16
REMARK H PARENT
REMARK Flexibility Score: inf
ROOT
ATOM      1  C   UNL     1     -15.301 -12.073 -22.661  1.00  0.00     0.000 C 
ENDROOT
BRANCH   1   2
ATOM      2  C   UNL     1     -15.929 -13.330 -23.273  1.00  0.00     0.000 C 
BRANCH   2   3
ATOM      3  C   UNL     1     -17.455 -13.314 -23.119  1.00  0.00     0.000 C 
BRANCH   3   4
ATOM      4  C   UNL     1     -18.147 -13.396 -24.484  1.00  0.00     0.000 C 
BRANCH   4   5
ATOM      5  C   UNL     1     -19.504 -12.676 -24.458  1.00  0.00     0.006 C 
BRANCH   5   6
ATOM      6  C   UNL     1     -20.631 -13.536 -25.045  1.00  0.00     0.053 C 
BRANCH   6   7
ATOM      7  C   UNL     1     -21.626 -13.938 -24.000  1.00  0.00     0.041 C 
ATOM      8  O   UNL     1     -21.650 -13.346 -22.889  1.00  0.00    -0.550 OA
ATOM      9  O   UNL     1     -22.549 -14.941 -24.266  1.00  0.00    -0.550 OA
ENDBRANCH   6   7
ENDBRANCH   5   6
ENDBRANCH   4   5
ENDBRANCH   3   4
ENDBRANCH   2   3
ENDBRANCH   1   2
BRANCH   1  10
ATOM     10  C   UNL     1     -14.254 -11.466 -23.603  1.00  0.00     0.000 C 
BRANCH  10  11
ATOM     11  C   UNL     1     -14.601 -10.010 -23.949  1.00  0.00    -0.000 C 
BRANCH  11  12
ATOM     12  C   UNL     1     -13.911  -9.005 -23.004  1.00  0.00    -0.000 C 
BRANCH  12  13
ATOM     13  C   UNL     1     -14.263  -7.537 -23.301  1.00  0.00    -0.000 C 
BRANCH  13  14
ATOM     14  C   UNL     1     -15.152  -7.375 -24.541  1.00  0.00    -0.000 C 
BRANCH  14  15
ATOM     15  C   UNL     1     -15.059  -5.951 -25.101  1.00  0.00    -0.003 C 
ATOM     16  C   UNL     1     -13.815  -5.235 -24.582  1.00  0.00     0.004 C 
ENDBRANCH  14  15
ENDBRANCH  13  14
ENDBRANCH  12  13
ENDBRANCH  11  12
ENDBRANCH  10  11
ENDBRANCH   1  10
TORSDOF 12
ENDMDL
MODEL 4
REMARK VINA RESULT:    15.482      3.442      7.815
REMARK INTER + INTRA:          25.700
REMARK INTER:                  26.204
REMARK INTRA:                  -0.504
REMARK UNBOUND:                -0.643
REMARK SMILES CCCCCCCCCCCCCC(=O)[O-]
REMARK SMILES IDX 8 1 9 2 10 3 11 4 12 5 13 6 14 7 15 8 16 9 7 10 6 11 5 12
REMARK SMILES IDX 4 13 3 14 2 15 1 16
REMARK H PARENT
REMARK Flexibility Score: inf
ROOT
ATOM      1  C   UNL     1     -15.160 -12.634 -22.854  1.00  0.00     0.000 C 
ENDROOT
BRANCH   1   2
ATOM      2  C   UNL     1     -16.055 -13.681 -23.526  1.00  0.00     0.000 C 
BRANCH   2   3
ATOM      3  C   UNL     1     -17.539 -13.357 -23.312  1.00  0.00     0.000 C 
BRANCH   3   4
ATOM      4  C   UNL     1     -18.304 -13.376 -24.640  1.00  0.00     0.000 C 
BRANCH   4   5
ATOM      5  C   UNL     1     -19.655 -12.658 -24.508  1.00  0.00     0.006 C 
BRANCH   5   6
ATOM      6  C   UNL     1     -20.823 -13.518 -25.010  1.00  0.00     0.053 C 
BRANCH   6   7
ATOM      7  C   UNL     1     -21.712 -13.958 -23.887  1.00  0.00     0.041 C 
ATOM      8  O   UNL     1     -21.734 -13.313 -22.806  1.00  0.00    -0.550 OA
ATOM      9  O   UNL     1     -22.542 -15.061 -24.048  1.00  0.00    -0.550 OA
ENDBRANCH   6   7
ENDBRANCH   5   6
ENDBRANCH   4   5
ENDBRANCH   3   4
ENDBRANCH   2   3
ENDBRANCH   1   2
BRANCH   1  10
ATOM     10  C   UNL     1     -14.508 -11.718 -23.897  1.00  0.00     0.000 C 
BRANCH  10  11
ATOM     11  C   UNL     1     -13.775 -10.548 -23.222  1.00  0.00    -0.000 C 
BRANCH  11  12
ATOM     12  C   UNL     1     -14.237  -9.179 -23.764  1.00  0.00    -0.000 C 
BRANCH  12  13
ATOM     13  C   UNL     1     -14.130  -8.041 -22.735  1.00  0.00    -0.000 C 
BRANCH  13  14
ATOM     14  C   UNL     1     -12.938  -8.206 -21.783  1.00  0.00    -0.000 C 
BRANCH  14  15
ATOM     15  C   UNL     1     -13.234  -7.575 -20.417  1.00  0.00    -0.003 C 
ATOM     16  C   UNL     1     -12.463  -8.280 -19.305  1.00  0.00     0.004 C 
ENDBRANCH  14  15
ENDBRANCH  13  14
ENDBRANCH  12  13
ENDBRANCH  11  12
ENDBRANCH  10  11
ENDBRANCH   1  10
TORSDOF 12
ENDMDL
MODEL 5
REMARK VINA RESULT:    15.806     14.329     16.309
REMARK INTER + INTRA:          26.251
REMARK INTER:                  27.033
REMARK INTRA:                  -0.782
REMARK UNBOUND:                -0.643
REMARK SMILES CCCCCCCCCCCCCC(=O)[O-]
REMARK SMILES IDX 8 1 9 2 10 3 11 4 12 5 13 6 14 7 15 8 16 9 7 10 6 11 5 12
REMARK SMILES IDX 4 13 3 14 2 15 1 16
REMARK H PARENT
REMARK Flexibility Score: inf
ROOT
ATOM      1  C   UNL     1     -24.763  -4.077 -14.293  1.00  0.00     0.000 C 
ENDROOT
BRANCH   1   2
ATOM      2  C   UNL     1     -24.384  -3.155 -13.129  1.00  0.00     0.000 C 
BRANCH   2   3
ATOM      3  C   UNL     1     -25.393  -3.275 -11.980  1.00  0.00     0.000 C 
BRANCH   3   4
ATOM      4  C   UNL     1     -25.778  -4.738 -11.736  1.00  0.00     0.000 C 
BRANCH   4   5
ATOM      5  C   UNL     1     -27.301  -4.894 -11.612  1.00  0.00     0.006 C 
BRANCH   5   6
ATOM      6  C   UNL     1     -28.018  -3.541 -11.515  1.00  0.00     0.053 C 
BRANCH   6   7
ATOM      7  C   UNL     1     -29.385  -3.678 -10.919  1.00  0.00     0.041 C 
ATOM      8  O   UNL     1     -30.301  -2.877 -11.244  1.00  0.00    -0.550 OA
ATOM      9  O   UNL     1     -29.658  -4.711 -10.031  1.00  0.00    -0.550 OA
ENDBRANCH   6   7
ENDBRANCH   5   6
ENDBRANCH   4   5
ENDBRANCH   3   4
ENDBRANCH   2   3
ENDBRANCH   1   2
BRANCH   1  10
ATOM     10  C   UNL     1     -25.202  -3.266 -15.517  1.00  0.00     0.000 C 
BRANCH  10  11
ATOM     11  C   UNL     1     -24.995  -4.065 -16.813  1.00  0.00    -0.000 C 
BRANCH  11  12
ATOM     12  C   UNL     1     -26.332  -4.477 -17.464  1.00  0.00    -0.000 C 
BRANCH  12  13
ATOM     13  C   UNL     1     -27.273  -5.238 -16.514  1.00  0.00    -0.000 C 
BRANCH  13  14
ATOM     14  C   UNL     1     -28.462  -5.880 -17.239  1.00  0.00    -0.000 C 
BRANCH  14  15
ATOM     15  C   UNL     1     -29.663  -4.926 -17.276  1.00  0.00    -0.003 C 
ATOM     16  C   UNL     1     -29.956  -4.465 -18.701  1.00  0.00     0.004 C 
ENDBRANCH  14  15
ENDBRANCH  13  14
ENDBRANCH  12  13
ENDBRANCH  11  12
ENDBRANCH  10  11
ENDBRANCH   1  10
TORSDOF 12
ENDMDL
MODEL 6
REMARK VINA RESULT:    15.857     14.491     16.361
REMARK INTER + INTRA:          26.338
REMARK INTER:                  26.565
REMARK INTRA:                  -0.227
REMARK UNBOUND:                -0.643
REMARK SMILES CCCCCCCCCCCCCC(=O)[O-]
REMARK SMILES IDX 8 1 9 2 10 3 11 4 12 5 13 6 14 7 15 8 16 9 7 10 6 11 5 12
REMARK SMILES IDX 4 13 3 14 2 15 1 16
REMARK H PARENT
REMARK Flexibility Score: inf
ROOT
ATOM      1  C   UNL     1     -25.789  -5.028 -11.944  1.00  0.00     0.000 C 
ENDROOT
BRANCH   1   2
ATOM      2  C   UNL     1     -25.183  -3.623 -12.036  1.00  0.00     0.000 C 
BRANCH   2   3
ATOM      3  C   UNL     1     -24.337  -3.469 -13.306  1.00  0.00     0.000 C 
BRANCH   3   4
ATOM      4  C   UNL     1     -25.099  -3.967 -14.539  1.00  0.00     0.000 C 
BRANCH   4   5
ATOM      5  C   UNL     1     -24.686  -3.186 -15.795  1.00  0.00     0.006 C 
BRANCH   5   6
ATOM      6  C   UNL     1     -25.007  -3.950 -17.087  1.00  0.00     0.053 C 
BRANCH   6   7
ATOM      7  C   UNL     1     -23.764  -4.369 -17.809  1.00  0.00     0.041 C 
ATOM      8  O   UNL     1     -22.769  -3.598 -17.858  1.00  0.00    -0.550 OA
ATOM      9  O   UNL     1     -23.690  -5.625 -18.398  1.00  0.00    -0.550 OA
ENDBRANCH   6   7
ENDBRANCH   5   6
ENDBRANCH   4   5
ENDBRANCH   3   4
ENDBRANCH   2   3
ENDBRANCH   1   2
BRANCH   1  10
ATOM     10  C   UNL     1     -27.285  -4.962 -11.615  1.00  0.00     0.000 C 
BRANCH  10  11
ATOM     11  C   UNL     1     -27.667  -3.582 -11.057  1.00  0.00    -0.000 C 
BRANCH  11  12
ATOM     12  C   UNL     1     -29.053  -3.117 -11.549  1.00  0.00    -0.000 C 
BRANCH  12  13
ATOM     13  C   UNL     1     -30.215  -3.593 -10.659  1.00  0.00    -0.000 C 
BRANCH  13  14
ATOM     14  C   UNL     1     -29.900  -4.896  -9.912  1.00  0.00    -0.000 C 
BRANCH  14  15
ATOM     15  C   UNL     1     -29.578  -4.619  -8.439  1.00  0.00    -0.003 C 
ATOM     16  C   UNL     1     -30.469  -5.446  -7.515  1.00  0.00     0.004 C 
ENDBRANCH  14  15
ENDBRANCH  13  14
ENDBRANCH  12  13
ENDBRANCH  11  12
ENDBRANCH  10  11
ENDBRANCH   1  10
TORSDOF 12
ENDMDL
MODEL 7
REMARK VINA RESULT:    16.256      1.778      2.395
REMARK INTER + INTRA:          27.017
REMARK INTER:                  27.561
REMARK INTRA:                  -0.544
REMARK UNBOUND:                -0.643
REMARK SMILES CCCCCCCCCCCCCC(=O)[O-]
REMARK SMILES IDX 8 1 9 2 10 3 11 4 12 5 13 6 14 7 15 8 16 9 7 10 6 11 5 12
REMARK SMILES IDX 4 13 3 14 2 15 1 16
REMARK H PARENT
REMARK Flexibility Score: inf
ROOT
ATOM      1  C   UNL     1     -15.702 -12.456 -22.515  1.00  0.00     0.000 C 
ENDROOT
BRANCH   1   2
ATOM      2  C   UNL     1     -14.581 -12.150 -23.514  1.00  0.00     0.000 C 
BRANCH   2   3
ATOM      3  C   UNL     1     -13.775 -10.920 -23.079  1.00  0.00     0.000 C 
BRANCH   3   4
ATOM      4  C   UNL     1     -14.314  -9.646 -23.741  1.00  0.00     0.000 C 
BRANCH   4   5
ATOM      5  C   UNL     1     -13.928  -8.399 -22.931  1.00  0.00     0.006 C 
BRANCH   5   6
ATOM      6  C   UNL     1     -12.762  -8.667 -21.970  1.00  0.00     0.053 C 
BRANCH   6   7
ATOM      7  C   UNL     1     -12.967  -7.998 -20.645  1.00  0.00     0.041 C 
ATOM      8  O   UNL     1     -12.329  -8.389 -19.633  1.00  0.00    -0.550 OA
ATOM      9  O   UNL     1     -13.838  -6.921 -20.537  1.00  0.00    -0.550 OA
ENDBRANCH   6   7
ENDBRANCH   5   6
ENDBRANCH   4   5
ENDBRANCH   3   4
ENDBRANCH   2   3
ENDBRANCH   1   2
BRANCH   1  10
ATOM     10  C   UNL     1     -16.420 -13.761 -22.876  1.00  0.00     0.000 C 
BRANCH  10  11
ATOM     11  C   UNL     1     -17.199 -13.618 -24.193  1.00  0.00    -0.000 C 
BRANCH  11  12
ATOM     12  C   UNL     1     -18.494 -12.798 -24.019  1.00  0.00    -0.000 C 
BRANCH  12  13
ATOM     13  C   UNL     1     -19.676 -13.329 -24.848  1.00  0.00    -0.000 C 
BRANCH  13  14
ATOM     14  C   UNL     1     -21.034 -13.080 -24.179  1.00  0.00    -0.000 C 
BRANCH  14  15
ATOM     15  C   UNL     1     -21.901 -14.345 -24.208  1.00  0.00    -0.003 C 
ATOM     16  C   UNL     1     -22.414 -14.693 -22.813  1.00  0.00     0.004 C 
ENDBRANCH  14  15
ENDBRANCH  13  14
ENDBRANCH  12  13
ENDBRANCH  11  12
ENDBRANCH  10  11
ENDBRANCH   1  10
TORSDOF 12
ENDMDL
MODEL 8
REMARK VINA RESULT:    16.331     15.402     17.910
REMARK INTER + INTRA:          27.144
REMARK INTER:                  27.926
REMARK INTRA:                  -0.781
REMARK UNBOUND:                -0.643
REMARK SMILES CCCCCCCCCCCCCC(=O)[O-]
REMARK SMILES IDX 8 1 9 2 10 3 11 4 12 5 13 6 14 7 15 8 16 9 7 10 6 11 5 12
REMARK SMILES IDX 4 13 3 14 2 15 1 16
REMARK H PARENT
REMARK Flexibility Score: inf
ROOT
ATOM      1  C   UNL     1     -25.859  -4.890 -12.266  1.00  0.00     0.000 C 
ENDROOT
BRANCH   1   2
ATOM      2  C   UNL     1     -27.175  -4.908 -11.481  1.00  0.00     0.000 C 
BRANCH   2   3
ATOM      3  C   UNL     1     -27.651  -3.483 -11.171  1.00  0.00     0.000 C 
BRANCH   3   4
ATOM      4  C   UNL     1     -29.173  -3.438 -10.993  1.00  0.00     0.000 C 
BRANCH   4   5
ATOM      5  C   UNL     1     -29.721  -4.812 -10.581  1.00  0.00     0.006 C 
BRANCH   5   6
ATOM      6  C   UNL     1     -30.819  -4.704  -9.515  1.00  0.00     0.053 C 
BRANCH   6   7
ATOM      7  C   UNL     1     -30.314  -5.080  -8.156  1.00  0.00     0.041 C 
ATOM      8  O   UNL     1     -31.125  -5.374  -7.238  1.00  0.00    -0.550 OA
ATOM      9  O   UNL     1     -28.948  -5.139  -7.913  1.00  0.00    -0.550 OA
ENDBRANCH   6   7
ENDBRANCH   5   6
ENDBRANCH   4   5
ENDBRANCH   3   4
ENDBRANCH   2   3
ENDBRANCH   1   2
BRANCH   1  10
ATOM     10  C   UNL     1     -25.139  -3.546 -12.104  1.00  0.00     0.000 C 
BRANCH  10  11
ATOM     11  C   UNL     1     -24.647  -3.015 -13.460  1.00  0.00    -0.000 C 
BRANCH  11  12
ATOM     12  C   UNL     1     -24.993  -3.971 -14.621  1.00  0.00    -0.000 C 
BRANCH  12  13
ATOM     13  C   UNL     1     -24.611  -3.422 -16.006  1.00  0.00    -0.000 C 
BRANCH  13  14
ATOM     14  C   UNL     1     -25.075  -4.326 -17.156  1.00  0.00    -0.000 C 
BRANCH  14  15
ATOM     15  C   UNL     1     -23.876  -4.903 -17.918  1.00  0.00    -0.003 C 
ATOM     16  C   UNL     1     -22.655  -3.995 -17.795  1.00  0.00     0.004 C 
ENDBRANCH  14  15
ENDBRANCH  13  14
ENDBRANCH  12  13
ENDBRANCH  11  12
ENDBRANCH  10  11
ENDBRANCH   1  10
TORSDOF 12
ENDMDL
MODEL 9
REMARK VINA RESULT:    16.454      5.166      6.633
REMARK INTER + INTRA:          27.353
REMARK INTER:                  27.824
REMARK INTRA:                  -0.471
REMARK UNBOUND:                -0.643
REMARK SMILES CCCCCCCCCCCCCC(=O)[O-]
REMARK SMILES IDX 8 1 9 2 10 3 11 4 12 5 13 6 14 7 15 8 16 9 7 10 6 11 5 12
REMARK SMILES IDX 4 13 3 14 2 15 1 16
REMARK H PARENT
REMARK Flexibility Score: inf
ROOT
ATOM      1  C   UNL     1     -16.731 -13.070 -22.508  1.00  0.00     0.000 C 
ENDROOT
BRANCH   1   2
ATOM      2  C   UNL     1     -16.103 -14.127 -21.593  1.00  0.00     0.000 C 
BRANCH   2   3
ATOM      3  C   UNL     1     -17.117 -14.633 -20.559  1.00  0.00     0.000 C 
BRANCH   3   4
ATOM      4  C   UNL     1     -16.431 -15.487 -19.486  1.00  0.00     0.000 C 
BRANCH   4   5
ATOM      5  C   UNL     1     -17.451 -16.013 -18.465  1.00  0.00     0.006 C 
BRANCH   5   6
ATOM      6  C   UNL     1     -17.172 -15.499 -17.047  1.00  0.00     0.053 C 
BRANCH   6   7
ATOM      7  C   UNL     1     -17.470 -16.538 -16.010  1.00  0.00     0.041 C 
ATOM      8  O   UNL     1     -16.553 -16.964 -15.259  1.00  0.00    -0.550 OA
ATOM      9  O   UNL     1     -18.766 -17.011 -15.849  1.00  0.00    -0.550 OA
ENDBRANCH   6   7
ENDBRANCH   5   6
ENDBRANCH   4   5
ENDBRANCH   3   4
ENDBRANCH   2   3
ENDBRANCH   1   2
BRANCH   1  10
ATOM     10  C   UNL     1     -17.336 -13.716 -23.760  1.00  0.00     0.000 C 
BRANCH  10  11
ATOM     11  C   UNL     1     -18.227 -12.721 -24.519  1.00  0.00    -0.000 C 
BRANCH  11  12
ATOM     12  C   UNL     1     -19.538 -13.370 -25.012  1.00  0.00    -0.000 C 
BRANCH  12  13
ATOM     13  C   UNL     1     -20.696 -13.262 -24.005  1.00  0.00    -0.000 C 
BRANCH  13  14
ATOM     14  C   UNL     1     -21.896 -14.142 -24.378  1.00  0.00    -0.000 C 
BRANCH  14  15
ATOM     15  C   UNL     1     -22.529 -14.765 -23.128  1.00  0.00    -0.003 C 
ATOM     16  C   UNL     1     -22.032 -14.079 -21.858  1.00  0.00     0.004 C 
ENDBRANCH  14  15
ENDBRANCH  13  14
ENDBRANCH  12  13
ENDBRANCH  11  12
ENDBRANCH  10  11
ENDBRANCH   1  10
TORSDOF 12
ENDMDL
