MODEL 1
REMARK VINA RESULT:    39.857      0.000      0.000
REMARK INTER + INTRA:          47.770
REMARK INTER:                  48.012
REMARK INTRA:                  -0.243
REMARK UNBOUND:                -0.243
REMARK SMILES O=c1c(O)c(-c2ccc(O)c(O)c2)oc2cc(O)cc(O)c12
REMARK SMILES IDX 5 1 3 2 2 3 1 4 22 5 20 6 19 7 17 8 16 9 15 10 14 11 6 12
REMARK SMILES IDX 7 13 8 14 9 15 13 16 11 17 10 18 12 20 4 22 21 24 18 26
REMARK H PARENT 10 19 12 21 4 23 21 25 18 27
REMARK Flexibility Score: inf
ROOT
ATOM      1  C   UNL     1       9.791  60.514  22.398  1.00  0.00     0.180 A 
ATOM      2  C   UNL     1      11.143  60.730  22.078  1.00  0.00     0.208 A 
ATOM      3  C   UNL     1      11.807  61.832  22.639  1.00  0.00     0.238 A 
ATOM      4  O   UNL     1      12.994  62.063  22.290  1.00  0.00    -0.285 OA
ATOM      5  C   UNL     1      11.130  62.672  23.556  1.00  0.00     0.111 A 
ATOM      6  C   UNL     1      11.718  63.791  24.221  1.00  0.00     0.134 A 
ATOM      7  C   UNL     1      10.920  64.613  25.026  1.00  0.00     0.093 A 
ATOM      8  C   UNL     1       9.572  64.320  25.243  1.00  0.00     0.123 A 
ATOM      9  C   UNL     1       9.003  63.200  24.643  1.00  0.00     0.094 A 
ATOM     10  C   UNL     1       9.762  62.382  23.804  1.00  0.00     0.146 A 
ATOM     11  O   UNL     1       9.173  61.336  23.236  1.00  0.00    -0.452 OA
ENDROOT
BRANCH   1  12
ATOM     12  C   UNL     1       9.019  59.382  21.835  1.00  0.00     0.025 A 
ATOM     13  C   UNL     1       9.248  58.061  22.250  1.00  0.00     0.016 A 
ATOM     14  C   UNL     1       8.524  57.009  21.686  1.00  0.00     0.051 A 
ATOM     15  C   UNL     1       7.571  57.249  20.692  1.00  0.00     0.157 A 
ATOM     16  C   UNL     1       8.079  59.625  20.821  1.00  0.00     0.062 A 
ATOM     17  C   UNL     1       7.348  58.576  20.250  1.00  0.00     0.158 A 
BRANCH  15  18
ATOM     18  O   UNL     1       6.878  56.155  20.172  1.00  0.00    -0.504 OA
ATOM     19  H   UNL     1       5.872  56.102  20.106  1.00  0.00     0.293 HD
ENDBRANCH  15  18
BRANCH  17  20
ATOM     20  O   UNL     1       6.421  58.893  19.255  1.00  0.00    -0.504 OA
ATOM     21  H   UNL     1       6.546  59.635  18.582  1.00  0.00     0.293 HD
ENDBRANCH  17  20
ENDBRANCH   1  12
BRANCH   2  22
ATOM     22  O   UNL     1      11.816  59.845  21.229  1.00  0.00    -0.502 OA
ATOM     23  H   UNL     1      11.412  59.511  20.363  1.00  0.00     0.293 HD
ENDBRANCH   2  22
BRANCH   6  24
ATOM     24  O   UNL     1      13.074  64.123  24.145  1.00  0.00    -0.507 OA
ATOM     25  H   UNL     1      13.688  64.227  24.938  1.00  0.00     0.293 HD
ENDBRANCH   6  24
BRANCH   8  26
ATOM     26  O   UNL     1       8.791  65.134  26.060  1.00  0.00    -0.508 OA
ATOM     27  H   UNL     1       9.026  66.106  26.221  1.00  0.00     0.293 HD
ENDBRANCH   8  26
TORSDOF 6
ENDMDL
MODEL 2
REMARK VINA RESULT:    42.249      1.583      2.282
REMARK INTER + INTRA:          50.651
REMARK INTER:                  50.633
REMARK INTRA:                   0.018
REMARK UNBOUND:                -0.243
REMARK SMILES O=c1c(O)c(-c2ccc(O)c(O)c2)oc2cc(O)cc(O)c12
REMARK SMILES IDX 5 1 3 2 2 3 1 4 22 5 20 6 19 7 17 8 16 9 15 10 14 11 6 12
REMARK SMILES IDX 7 13 8 14 9 15 13 16 11 17 10 18 12 20 4 22 21 24 18 26
REMARK H PARENT 10 19 12 21 4 23 21 25 18 27
REMARK Flexibility Score: inf
ROOT
ATOM      1  C   UNL     1      10.335  61.933  23.082  1.00  0.00     0.180 A 
ATOM      2  C   UNL     1      11.365  62.810  22.704  1.00  0.00     0.208 A 
ATOM      3  C   UNL     1      11.385  64.109  23.238  1.00  0.00     0.238 A 
ATOM      4  O   UNL     1      12.267  64.913  22.837  1.00  0.00    -0.285 OA
ATOM      5  C   UNL     1      10.407  64.496  24.185  1.00  0.00     0.111 A 
ATOM      6  C   UNL     1      10.355  65.772  24.825  1.00  0.00     0.134 A 
ATOM      7  C   UNL     1       9.279  66.079  25.666  1.00  0.00     0.093 A 
ATOM      8  C   UNL     1       8.286  65.136  25.941  1.00  0.00     0.123 A 
ATOM      9  C   UNL     1       8.356  63.871  25.365  1.00  0.00     0.094 A 
ATOM     10  C   UNL     1       9.397  63.546  24.491  1.00  0.00     0.146 A 
ATOM     11  O   UNL     1       9.413  62.335  23.948  1.00  0.00    -0.452 OA
ENDROOT
BRANCH   1  12
ATOM     12  C   UNL     1      10.239  60.554  22.551  1.00  0.00     0.025 A 
ATOM     13  C   UNL     1      11.345  59.689  22.555  1.00  0.00     0.016 A 
ATOM     14  C   UNL     1      11.235  58.402  22.026  1.00  0.00     0.051 A 
ATOM     15  C   UNL     1      10.031  57.956  21.473  1.00  0.00     0.157 A 
ATOM     16  C   UNL     1       9.035  60.118  21.976  1.00  0.00     0.062 A 
ATOM     17  C   UNL     1       8.916  58.828  21.444  1.00  0.00     0.158 A 
BRANCH  15  18
ATOM     18  O   UNL     1       9.986  56.657  20.965  1.00  0.00    -0.504 OA
ATOM     19  H   UNL     1      10.090  56.428  19.987  1.00  0.00     0.293 HD
ENDBRANCH  15  18
BRANCH  17  20
ATOM     20  O   UNL     1       7.684  58.458  20.899  1.00  0.00    -0.504 OA
ATOM     21  H   UNL     1       7.416  58.630  19.941  1.00  0.00     0.293 HD
ENDBRANCH  17  20
ENDBRANCH   1  12
BRANCH   2  22
ATOM     22  O   UNL     1      12.366  62.384  21.825  1.00  0.00    -0.502 OA
ATOM     23  H   UNL     1      12.455  61.418  21.530  1.00  0.00     0.293 HD
ENDBRANCH   2  22
BRANCH   6  24
ATOM     24  O   UNL     1      11.340  66.755  24.691  1.00  0.00    -0.507 OA
ATOM     25  H   UNL     1      12.258  66.604  24.302  1.00  0.00     0.293 HD
ENDBRANCH   6  24
BRANCH   8  26
ATOM     26  O   UNL     1       7.228  65.446  26.793  1.00  0.00    -0.508 OA
ATOM     27  H   UNL     1       6.404  65.932  26.461  1.00  0.00     0.293 HD
ENDBRANCH   8  26
TORSDOF 6
ENDMDL
