MODEL 1
REMARK VINA RESULT:    -5.947      0.000      0.000
REMARK INTER + INTRA:         -13.017
REMARK INTER:                 -11.509
REMARK INTRA:                  -1.508
REMARK UNBOUND:                -1.508
REMARK SMILES CCCCCCCCCCCCCCCCCC(=O)[O-]
REMARK SMILES IDX 10 1 11 2 12 3 13 4 14 5 15 6 16 7 17 8 18 9 19 10 20 11
REMARK SMILES IDX 9 12 8 13 7 14 6 15 5 16 4 17 3 18 2 19 1 20
REMARK H PARENT
REMARK Flexibility Score: inf
ROOT
ATOM      1  C   UNL     1      49.967 -47.547 165.025  1.00  0.00     0.000 C 
ENDROOT
BRANCH   1   2
ATOM      2  C   UNL     1      50.537 -46.131 165.166  1.00  0.00     0.000 C 
BRANCH   2   3
ATOM      3  C   UNL     1      52.027 -46.172 165.536  1.00  0.00     0.000 C 
BRANCH   3   4
ATOM      4  C   UNL     1      52.590 -47.602 165.565  1.00  0.00     0.000 C 
BRANCH   4   5
ATOM      5  C   UNL     1      54.129 -47.628 165.583  1.00  0.00     0.000 C 
BRANCH   5   6
ATOM      6  C   UNL     1      54.692 -48.677 166.554  1.00  0.00     0.000 C 
BRANCH   6   7
ATOM      7  C   UNL     1      53.595 -49.496 167.250  1.00  0.00     0.006 C 
BRANCH   7   8
ATOM      8  C   UNL     1      54.175 -50.323 168.401  1.00  0.00     0.053 C 
BRANCH   8   9
ATOM      9  C   UNL     1      53.799 -51.764 168.253  1.00  0.00     0.041 C 
ATOM     10  O   UNL     1      52.983 -52.117 167.361  1.00  0.00    -0.550 OA
ATOM     11  O   UNL     1      54.393 -52.724 169.062  1.00  0.00    -0.550 OA
ENDBRANCH   8   9
ENDBRANCH   7   8
ENDBRANCH   6   7
ENDBRANCH   5   6
ENDBRANCH   4   5
ENDBRANCH   3   4
ENDBRANCH   2   3
ENDBRANCH   1   2
BRANCH   1  12
ATOM     12  C   UNL     1      48.433 -47.534 165.094  1.00  0.00     0.000 C 
BRANCH  12  13
ATOM     13  C   UNL     1      47.830 -46.132 164.884  1.00  0.00    -0.000 C 
BRANCH  13  14
ATOM     14  C   UNL     1      46.649 -45.786 165.811  1.00  0.00    -0.000 C 
BRANCH  14  15
ATOM     15  C   UNL     1      45.315 -45.523 165.091  1.00  0.00    -0.000 C 
BRANCH  15  16
ATOM     16  C   UNL     1      44.845 -46.698 164.205  1.00  0.00    -0.000 C 
BRANCH  16  17
ATOM     17  C   UNL     1      44.623 -47.987 165.011  1.00  0.00    -0.000 C 
BRANCH  17  18
ATOM     18  C   UNL     1      45.175 -49.240 164.306  1.00  0.00    -0.000 C 
BRANCH  18  19
ATOM     19  C   UNL     1      45.785 -48.986 162.917  1.00  0.00    -0.003 C 
ATOM     20  C   UNL     1      47.096 -49.738 162.692  1.00  0.00     0.004 C 
ENDBRANCH  18  19
ENDBRANCH  17  18
ENDBRANCH  16  17
ENDBRANCH  15  16
ENDBRANCH  14  15
ENDBRANCH  13  14
ENDBRANCH  12  13
ENDBRANCH   1  12
TORSDOF 16
ENDMDL
MODEL 2
REMARK VINA RESULT:    -5.889      4.015      5.262
REMARK INTER + INTRA:         -12.905
REMARK INTER:                 -11.384
REMARK INTRA:                  -1.521
REMARK UNBOUND:                -1.508
REMARK SMILES CCCCCCCCCCCCCCCCCC(=O)[O-]
REMARK SMILES IDX 10 1 11 2 12 3 13 4 14 5 15 6 16 7 17 8 18 9 19 10 20 11
REMARK SMILES IDX 9 12 8 13 7 14 6 15 5 16 4 17 3 18 2 19 1 20
REMARK H PARENT
REMARK Flexibility Score: inf
ROOT
ATOM      1  C   UNL     1      49.516 -48.276 165.213  1.00  0.00     0.000 C 
ENDROOT
BRANCH   1   2
ATOM      2  C   UNL     1      49.383 -46.820 164.751  1.00  0.00     0.000 C 
BRANCH   2   3
ATOM      3  C   UNL     1      50.694 -46.051 164.969  1.00  0.00     0.000 C 
BRANCH   3   4
ATOM      4  C   UNL     1      51.821 -46.945 165.511  1.00  0.00     0.000 C 
BRANCH   4   5
ATOM      5  C   UNL     1      52.783 -46.182 166.438  1.00  0.00     0.000 C 
BRANCH   5   6
ATOM      6  C   UNL     1      54.188 -46.027 165.836  1.00  0.00     0.000 C 
BRANCH   6   7
ATOM      7  C   UNL     1      54.708 -44.583 165.897  1.00  0.00     0.006 C 
BRANCH   7   8
ATOM      8  C   UNL     1      54.202 -43.768 164.704  1.00  0.00     0.053 C 
BRANCH   8   9
ATOM      9  C   UNL     1      53.536 -42.511 165.172  1.00  0.00     0.041 C 
ATOM     10  O   UNL     1      52.644 -41.967 164.471  1.00  0.00    -0.550 OA
ATOM     11  O   UNL     1      53.861 -41.973 166.411  1.00  0.00    -0.550 OA
ENDBRANCH   8   9
ENDBRANCH   7   8
ENDBRANCH   6   7
ENDBRANCH   5   6
ENDBRANCH   4   5
ENDBRANCH   3   4
ENDBRANCH   2   3
ENDBRANCH   1   2
BRANCH   1  12
ATOM     12  C   UNL     1      48.293 -49.103 164.791  1.00  0.00     0.000 C 
BRANCH  12  13
ATOM     13  C   UNL     1      48.300 -49.473 163.296  1.00  0.00    -0.000 C 
BRANCH  13  14
ATOM     14  C   UNL     1      46.934 -49.369 162.593  1.00  0.00    -0.000 C 
BRANCH  14  15
ATOM     15  C   UNL     1      45.714 -49.555 163.515  1.00  0.00    -0.000 C 
BRANCH  15  16
ATOM     16  C   UNL     1      44.606 -48.502 163.297  1.00  0.00    -0.000 C 
BRANCH  16  17
ATOM     17  C   UNL     1      45.150 -47.195 162.698  1.00  0.00    -0.000 C 
BRANCH  17  18
ATOM     18  C   UNL     1      45.969 -46.366 163.705  1.00  0.00    -0.000 C 
BRANCH  18  19
ATOM     19  C   UNL     1      45.427 -46.375 165.144  1.00  0.00    -0.003 C 
ATOM     20  C   UNL     1      46.054 -45.298 166.027  1.00  0.00     0.004 C 
ENDBRANCH  18  19
ENDBRANCH  17  18
ENDBRANCH  16  17
ENDBRANCH  15  16
ENDBRANCH  14  15
ENDBRANCH  13  14
ENDBRANCH  12  13
ENDBRANCH   1  12
TORSDOF 16
ENDMDL
MODEL 3
REMARK VINA RESULT:    -5.854      3.793      8.850
REMARK INTER + INTRA:         -12.838
REMARK INTER:                 -11.238
REMARK INTRA:                  -1.600
REMARK UNBOUND:                -1.508
REMARK SMILES CCCCCCCCCCCCCCCCCC(=O)[O-]
REMARK SMILES IDX 10 1 11 2 12 3 13 4 14 5 15 6 16 7 17 8 18 9 19 10 20 11
REMARK SMILES IDX 9 12 8 13 7 14 6 15 5 16 4 17 3 18 2 19 1 20
REMARK H PARENT
REMARK Flexibility Score: inf
ROOT
ATOM      1  C   UNL     1      51.486 -46.288 165.375  1.00  0.00     0.000 C 
ENDROOT
BRANCH   1   2
ATOM      2  C   UNL     1      50.073 -46.270 164.779  1.00  0.00     0.000 C 
BRANCH   2   3
ATOM      3  C   UNL     1      49.347 -47.596 165.044  1.00  0.00     0.000 C 
BRANCH   3   4
ATOM      4  C   UNL     1      47.864 -47.550 164.640  1.00  0.00     0.000 C 
BRANCH   4   5
ATOM      5  C   UNL     1      47.254 -46.147 164.803  1.00  0.00     0.000 C 
BRANCH   5   6
ATOM      6  C   UNL     1      45.808 -46.187 165.323  1.00  0.00     0.000 C 
BRANCH   6   7
ATOM      7  C   UNL     1      44.964 -47.284 164.658  1.00  0.00     0.006 C 
BRANCH   7   8
ATOM      8  C   UNL     1      44.454 -46.828 163.288  1.00  0.00     0.053 C 
BRANCH   8   9
ATOM      9  C   UNL     1      44.850 -47.809 162.229  1.00  0.00     0.041 C 
ATOM     10  O   UNL     1      45.334 -48.926 162.549  1.00  0.00    -0.550 OA
ATOM     11  O   UNL     1      44.632 -47.512 160.890  1.00  0.00    -0.550 OA
ENDBRANCH   8   9
ENDBRANCH   7   8
ENDBRANCH   6   7
ENDBRANCH   5   6
ENDBRANCH   4   5
ENDBRANCH   3   4
ENDBRANCH   2   3
ENDBRANCH   1   2
BRANCH   1  12
ATOM     12  C   UNL     1      51.934 -47.723 165.692  1.00  0.00     0.000 C 
BRANCH  12  13
ATOM     13  C   UNL     1      53.458 -47.918 165.581  1.00  0.00    -0.000 C 
BRANCH  13  14
ATOM     14  C   UNL     1      54.076 -48.831 166.657  1.00  0.00    -0.000 C 
BRANCH  14  15
ATOM     15  C   UNL     1      54.389 -48.137 167.995  1.00  0.00    -0.000 C 
BRANCH  15  16
ATOM     16  C   UNL     1      55.088 -46.770 167.836  1.00  0.00    -0.000 C 
BRANCH  16  17
ATOM     17  C   UNL     1      54.176 -45.596 168.227  1.00  0.00    -0.000 C 
BRANCH  17  18
ATOM     18  C   UNL     1      54.540 -44.285 167.505  1.00  0.00    -0.000 C 
BRANCH  18  19
ATOM     19  C   UNL     1      54.536 -44.370 165.969  1.00  0.00    -0.003 C 
ATOM     20  C   UNL     1      53.813 -43.198 165.306  1.00  0.00     0.004 C 
ENDBRANCH  18  19
ENDBRANCH  17  18
ENDBRANCH  16  17
ENDBRANCH  15  16
ENDBRANCH  14  15
ENDBRANCH  13  14
ENDBRANCH  12  13
ENDBRANCH   1  12
TORSDOF 16
ENDMDL
MODEL 4
REMARK VINA RESULT:    -5.835      1.035      2.367
REMARK INTER + INTRA:         -12.801
REMARK INTER:                 -11.346
REMARK INTRA:                  -1.454
REMARK UNBOUND:                -1.508
REMARK SMILES CCCCCCCCCCCCCCCCCC(=O)[O-]
REMARK SMILES IDX 10 1 11 2 12 3 13 4 14 5 15 6 16 7 17 8 18 9 19 10 20 11
REMARK SMILES IDX 9 12 8 13 7 14 6 15 5 16 4 17 3 18 2 19 1 20
REMARK H PARENT
REMARK Flexibility Score: inf
ROOT
ATOM      1  C   UNL     1      49.076 -46.480 164.629  1.00  0.00     0.000 C 
ENDROOT
BRANCH   1   2
ATOM      2  C   UNL     1      50.437 -45.775 164.699  1.00  0.00     0.000 C 
BRANCH   2   3
ATOM      3  C   UNL     1      51.444 -46.602 165.510  1.00  0.00     0.000 C 
BRANCH   3   4
ATOM      4  C   UNL     1      52.715 -45.810 165.858  1.00  0.00     0.000 C 
BRANCH   4   5
ATOM      5  C   UNL     1      53.786 -46.684 166.535  1.00  0.00     0.000 C 
BRANCH   5   6
ATOM      6  C   UNL     1      53.572 -48.184 166.283  1.00  0.00     0.000 C 
BRANCH   6   7
ATOM      7  C   UNL     1      54.616 -49.063 166.988  1.00  0.00     0.006 C 
BRANCH   7   8
ATOM      8  C   UNL     1      53.946 -50.032 167.966  1.00  0.00     0.053 C 
BRANCH   8   9
ATOM      9  C   UNL     1      53.910 -51.414 167.392  1.00  0.00     0.041 C 
ATOM     10  O   UNL     1      52.936 -52.174 167.633  1.00  0.00    -0.550 OA
ATOM     11  O   UNL     1      54.924 -51.841 166.545  1.00  0.00    -0.550 OA
ENDBRANCH   8   9
ENDBRANCH   7   8
ENDBRANCH   6   7
ENDBRANCH   5   6
ENDBRANCH   4   5
ENDBRANCH   3   4
ENDBRANCH   2   3
ENDBRANCH   1   2
BRANCH   1  12
ATOM     12  C   UNL     1      49.216 -47.980 164.928  1.00  0.00     0.000 C 
BRANCH  12  13
ATOM     13  C   UNL     1      47.910 -48.765 164.703  1.00  0.00    -0.000 C 
BRANCH  13  14
ATOM     14  C   UNL     1      47.716 -49.310 163.276  1.00  0.00    -0.000 C 
BRANCH  14  15
ATOM     15  C   UNL     1      46.249 -49.487 162.842  1.00  0.00    -0.000 C 
BRANCH  15  16
ATOM     16  C   UNL     1      45.263 -49.607 164.024  1.00  0.00    -0.000 C 
BRANCH  16  17
ATOM     17  C   UNL     1      44.087 -48.625 163.908  1.00  0.00    -0.000 C 
BRANCH  17  18
ATOM     18  C   UNL     1      44.061 -47.581 165.040  1.00  0.00    -0.000 C 
BRANCH  18  19
ATOM     19  C   UNL     1      45.076 -46.436 164.888  1.00  0.00    -0.003 C 
ATOM     20  C   UNL     1      45.374 -46.088 163.430  1.00  0.00     0.004 C 
ENDBRANCH  18  19
ENDBRANCH  17  18
ENDBRANCH  16  17
ENDBRANCH  15  16
ENDBRANCH  14  15
ENDBRANCH  13  14
ENDBRANCH  12  13
ENDBRANCH   1  12
TORSDOF 16
ENDMDL
MODEL 5
REMARK VINA RESULT:    -5.828      3.892      8.571
REMARK INTER + INTRA:         -12.787
REMARK INTER:                 -11.418
REMARK INTRA:                  -1.369
REMARK UNBOUND:                -1.508
REMARK SMILES CCCCCCCCCCCCCCCCCC(=O)[O-]
REMARK SMILES IDX 10 1 11 2 12 3 13 4 14 5 15 6 16 7 17 8 18 9 19 10 20 11
REMARK SMILES IDX 9 12 8 13 7 14 6 15 5 16 4 17 3 18 2 19 1 20
REMARK H PARENT
REMARK Flexibility Score: inf
ROOT
ATOM      1  C   UNL     1      49.599 -48.136 165.407  1.00  0.00     0.000 C 
ENDROOT
BRANCH   1   2
ATOM      2  C   UNL     1      48.316 -48.665 164.753  1.00  0.00     0.000 C 
BRANCH   2   3
ATOM      3  C   UNL     1      48.640 -49.532 163.528  1.00  0.00     0.000 C 
BRANCH   3   4
ATOM      4  C   UNL     1      47.457 -49.644 162.552  1.00  0.00     0.000 C 
BRANCH   4   5
ATOM      5  C   UNL     1      46.142 -49.125 163.161  1.00  0.00     0.000 C 
BRANCH   5   6
ATOM      6  C   UNL     1      45.299 -48.326 162.155  1.00  0.00     0.000 C 
BRANCH   6   7
ATOM      7  C   UNL     1      44.737 -47.025 162.749  1.00  0.00     0.006 C 
BRANCH   7   8
ATOM      8  C   UNL     1      45.783 -46.322 163.618  1.00  0.00     0.053 C 
BRANCH   8   9
ATOM      9  C   UNL     1      45.362 -46.331 165.054  1.00  0.00     0.041 C 
ATOM     10  O   UNL     1      45.957 -45.605 165.893  1.00  0.00    -0.550 OA
ATOM     11  O   UNL     1      44.276 -47.099 165.455  1.00  0.00    -0.550 OA
ENDBRANCH   8   9
ENDBRANCH   7   8
ENDBRANCH   6   7
ENDBRANCH   5   6
ENDBRANCH   4   5
ENDBRANCH   3   4
ENDBRANCH   2   3
ENDBRANCH   1   2
BRANCH   1  12
ATOM     12  C   UNL     1      49.911 -46.709 164.933  1.00  0.00     0.000 C 
BRANCH  12  13
ATOM     13  C   UNL     1      51.309 -46.222 165.362  1.00  0.00    -0.000 C 
BRANCH  13  14
ATOM     14  C   UNL     1      52.293 -47.339 165.758  1.00  0.00    -0.000 C 
BRANCH  14  15
ATOM     15  C   UNL     1      53.678 -46.850 166.219  1.00  0.00    -0.000 C 
BRANCH  15  16
ATOM     16  C   UNL     1      53.620 -45.775 167.326  1.00  0.00    -0.000 C 
BRANCH  16  17
ATOM     17  C   UNL     1      54.518 -44.567 167.017  1.00  0.00    -0.000 C 
BRANCH  17  18
ATOM     18  C   UNL     1      54.585 -44.234 165.515  1.00  0.00    -0.000 C 
BRANCH  18  19
ATOM     19  C   UNL     1      53.516 -43.244 165.023  1.00  0.00    -0.003 C 
ATOM     20  C   UNL     1      54.091 -42.121 164.161  1.00  0.00     0.004 C 
ENDBRANCH  18  19
ENDBRANCH  17  18
ENDBRANCH  16  17
ENDBRANCH  15  16
ENDBRANCH  14  15
ENDBRANCH  13  14
ENDBRANCH  12  13
ENDBRANCH   1  12
TORSDOF 16
ENDMDL
MODEL 6
REMARK VINA RESULT:    -5.810      3.893      4.712
REMARK INTER + INTRA:         -12.751
REMARK INTER:                 -11.274
REMARK INTRA:                  -1.478
REMARK UNBOUND:                -1.508
REMARK SMILES CCCCCCCCCCCCCCCCCC(=O)[O-]
REMARK SMILES IDX 10 1 11 2 12 3 13 4 14 5 15 6 16 7 17 8 18 9 19 10 20 11
REMARK SMILES IDX 9 12 8 13 7 14 6 15 5 16 4 17 3 18 2 19 1 20
REMARK H PARENT
REMARK Flexibility Score: inf
ROOT
ATOM      1  C   UNL     1      49.519 -46.334 164.732  1.00  0.00     0.000 C 
ENDROOT
BRANCH   1   2
ATOM      2  C   UNL     1      49.725 -47.796 165.146  1.00  0.00     0.000 C 
BRANCH   2   3
ATOM      3  C   UNL     1      51.137 -48.016 165.706  1.00  0.00     0.000 C 
BRANCH   3   4
ATOM      4  C   UNL     1      51.924 -46.703 165.860  1.00  0.00     0.000 C 
BRANCH   4   5
ATOM      5  C   UNL     1      53.433 -46.891 165.627  1.00  0.00     0.000 C 
BRANCH   5   6
ATOM      6  C   UNL     1      54.290 -46.099 166.627  1.00  0.00     0.000 C 
BRANCH   6   7
ATOM      7  C   UNL     1      54.145 -44.579 166.464  1.00  0.00     0.006 C 
BRANCH   7   8
ATOM      8  C   UNL     1      54.351 -44.162 165.005  1.00  0.00     0.053 C 
BRANCH   8   9
ATOM      9  C   UNL     1      54.025 -42.712 164.824  1.00  0.00     0.041 C 
ATOM     10  O   UNL     1      53.631 -42.024 165.802  1.00  0.00    -0.550 OA
ATOM     11  O   UNL     1      54.212 -42.108 163.587  1.00  0.00    -0.550 OA
ENDBRANCH   8   9
ENDBRANCH   7   8
ENDBRANCH   6   7
ENDBRANCH   5   6
ENDBRANCH   4   5
ENDBRANCH   3   4
ENDBRANCH   2   3
ENDBRANCH   1   2
BRANCH   1  12
ATOM     12  C   UNL     1      48.025 -46.005 164.591  1.00  0.00     0.000 C 
BRANCH  12  13
ATOM     13  C   UNL     1      47.386 -45.519 165.906  1.00  0.00    -0.000 C 
BRANCH  13  14
ATOM     14  C   UNL     1      45.854 -45.369 165.868  1.00  0.00    -0.000 C 
BRANCH  14  15
ATOM     15  C   UNL     1      45.157 -46.116 164.716  1.00  0.00    -0.000 C 
BRANCH  15  16
ATOM     16  C   UNL     1      44.232 -47.258 165.188  1.00  0.00    -0.000 C 
BRANCH  16  17
ATOM     17  C   UNL     1      44.398 -48.533 164.345  1.00  0.00    -0.000 C 
BRANCH  17  18
ATOM     18  C   UNL     1      45.859 -49.012 164.261  1.00  0.00    -0.000 C 
BRANCH  18  19
ATOM     19  C   UNL     1      46.407 -49.174 162.834  1.00  0.00    -0.003 C 
ATOM     20  C   UNL     1      47.839 -49.705 162.798  1.00  0.00     0.004 C 
ENDBRANCH  18  19
ENDBRANCH  17  18
ENDBRANCH  16  17
ENDBRANCH  15  16
ENDBRANCH  14  15
ENDBRANCH  13  14
ENDBRANCH  12  13
ENDBRANCH   1  12
TORSDOF 16
ENDMDL
MODEL 7
REMARK VINA RESULT:    -5.805      3.895      8.572
REMARK INTER + INTRA:         -12.743
REMARK INTER:                 -11.067
REMARK INTRA:                  -1.676
REMARK UNBOUND:                -1.508
REMARK SMILES CCCCCCCCCCCCCCCCCC(=O)[O-]
REMARK SMILES IDX 10 1 11 2 12 3 13 4 14 5 15 6 16 7 17 8 18 9 19 10 20 11
REMARK SMILES IDX 9 12 8 13 7 14 6 15 5 16 4 17 3 18 2 19 1 20
REMARK H PARENT
REMARK Flexibility Score: inf
ROOT
ATOM      1  C   UNL     1      52.239 -47.878 165.887  1.00  0.00     0.000 C 
ENDROOT
BRANCH   1   2
ATOM      2  C   UNL     1      51.631 -46.492 165.643  1.00  0.00     0.000 C 
BRANCH   2   3
ATOM      3  C   UNL     1      50.338 -46.595 164.821  1.00  0.00     0.000 C 
BRANCH   3   4
ATOM      4  C   UNL     1      49.419 -47.729 165.304  1.00  0.00     0.000 C 
BRANCH   4   5
ATOM      5  C   UNL     1      47.980 -47.583 164.780  1.00  0.00     0.000 C 
BRANCH   5   6
ATOM      6  C   UNL     1      47.523 -48.797 163.956  1.00  0.00     0.000 C 
BRANCH   6   7
ATOM      7  C   UNL     1      46.060 -48.693 163.500  1.00  0.00     0.006 C 
BRANCH   7   8
ATOM      8  C   UNL     1      45.109 -49.198 164.589  1.00  0.00     0.053 C 
BRANCH   8   9
ATOM      9  C   UNL     1      44.208 -48.095 165.049  1.00  0.00     0.041 C 
ATOM     10  O   UNL     1      43.124 -48.364 165.631  1.00  0.00    -0.550 OA
ATOM     11  O   UNL     1      44.592 -46.770 164.887  1.00  0.00    -0.550 OA
ENDBRANCH   8   9
ENDBRANCH   7   8
ENDBRANCH   6   7
ENDBRANCH   5   6
ENDBRANCH   4   5
ENDBRANCH   3   4
ENDBRANCH   2   3
ENDBRANCH   1   2
BRANCH   1  12
ATOM     12  C   UNL     1      53.652 -47.975 165.293  1.00  0.00     0.000 C 
BRANCH  12  13
ATOM     13  C   UNL     1      54.720 -48.365 166.332  1.00  0.00    -0.000 C 
BRANCH  13  14
ATOM     14  C   UNL     1      54.404 -47.942 167.779  1.00  0.00    -0.000 C 
BRANCH  14  15
ATOM     15  C   UNL     1      55.061 -46.624 168.228  1.00  0.00    -0.000 C 
BRANCH  15  16
ATOM     16  C   UNL     1      54.090 -45.424 168.249  1.00  0.00    -0.000 C 
BRANCH  16  17
ATOM     17  C   UNL     1      54.603 -44.241 167.412  1.00  0.00    -0.000 C 
BRANCH  17  18
ATOM     18  C   UNL     1      54.828 -44.604 165.933  1.00  0.00    -0.000 C 
BRANCH  18  19
ATOM     19  C   UNL     1      54.073 -43.720 164.927  1.00  0.00    -0.003 C 
ATOM     20  C   UNL     1      53.704 -42.349 165.492  1.00  0.00     0.004 C 
ENDBRANCH  18  19
ENDBRANCH  17  18
ENDBRANCH  16  17
ENDBRANCH  15  16
ENDBRANCH  14  15
ENDBRANCH  13  14
ENDBRANCH  12  13
ENDBRANCH   1  12
TORSDOF 16
ENDMDL
MODEL 8
REMARK VINA RESULT:    -5.785      3.676      8.524
REMARK INTER + INTRA:         -12.704
REMARK INTER:                 -11.032
REMARK INTRA:                  -1.671
REMARK UNBOUND:                -1.508
REMARK SMILES CCCCCCCCCCCCCCCCCC(=O)[O-]
REMARK SMILES IDX 10 1 11 2 12 3 13 4 14 5 15 6 16 7 17 8 18 9 19 10 20 11
REMARK SMILES IDX 9 12 8 13 7 14 6 15 5 16 4 17 3 18 2 19 1 20
REMARK H PARENT
REMARK Flexibility Score: inf
ROOT
ATOM      1  C   UNL     1      50.307 -48.244 165.431  1.00  0.00     0.000 C 
ENDROOT
BRANCH   1   2
ATOM      2  C   UNL     1      49.617 -47.001 164.857  1.00  0.00     0.000 C 
BRANCH   2   3
ATOM      3  C   UNL     1      48.114 -47.248 164.660  1.00  0.00     0.000 C 
BRANCH   3   4
ATOM      4  C   UNL     1      47.762 -48.744 164.613  1.00  0.00     0.000 C 
BRANCH   4   5
ATOM      5  C   UNL     1      47.454 -49.232 163.187  1.00  0.00     0.000 C 
BRANCH   5   6
ATOM      6  C   UNL     1      45.963 -49.543 162.976  1.00  0.00     0.000 C 
BRANCH   6   7
ATOM      7  C   UNL     1      45.154 -48.315 162.533  1.00  0.00     0.006 C 
BRANCH   7   8
ATOM      8  C   UNL     1      43.840 -48.215 163.312  1.00  0.00     0.053 C 
BRANCH   8   9
ATOM      9  C   UNL     1      44.105 -47.883 164.747  1.00  0.00     0.041 C 
ATOM     10  O   UNL     1      43.860 -48.728 165.648  1.00  0.00    -0.550 OA
ATOM     11  O   UNL     1      44.677 -46.663 165.084  1.00  0.00    -0.550 OA
ENDBRANCH   8   9
ENDBRANCH   7   8
ENDBRANCH   6   7
ENDBRANCH   5   6
ENDBRANCH   4   5
ENDBRANCH   3   4
ENDBRANCH   2   3
ENDBRANCH   1   2
BRANCH   1  12
ATOM     12  C   UNL     1      51.741 -47.922 165.879  1.00  0.00     0.000 C 
BRANCH  12  13
ATOM     13  C   UNL     1      52.048 -46.413 165.884  1.00  0.00    -0.000 C 
BRANCH  13  14
ATOM     14  C   UNL     1      53.491 -46.044 166.274  1.00  0.00    -0.000 C 
BRANCH  14  15
ATOM     15  C   UNL     1      53.637 -45.343 167.637  1.00  0.00    -0.000 C 
BRANCH  15  16
ATOM     16  C   UNL     1      54.642 -46.033 168.585  1.00  0.00    -0.000 C 
BRANCH  16  17
ATOM     17  C   UNL     1      55.074 -47.416 168.074  1.00  0.00    -0.000 C 
BRANCH  17  18
ATOM     18  C   UNL     1      54.494 -48.574 168.907  1.00  0.00    -0.000 C 
BRANCH  18  19
ATOM     19  C   UNL     1      54.077 -49.811 168.094  1.00  0.00    -0.003 C 
ATOM     20  C   UNL     1      54.748 -49.881 166.723  1.00  0.00     0.004 C 
ENDBRANCH  18  19
ENDBRANCH  17  18
ENDBRANCH  16  17
ENDBRANCH  15  16
ENDBRANCH  14  15
ENDBRANCH  13  14
ENDBRANCH  12  13
ENDBRANCH   1  12
TORSDOF 16
ENDMDL
MODEL 9
REMARK VINA RESULT:    -5.712      3.535      8.602
REMARK INTER + INTRA:         -12.563
REMARK INTER:                 -10.925
REMARK INTRA:                  -1.638
REMARK UNBOUND:                -1.508
REMARK SMILES CCCCCCCCCCCCCCCCCC(=O)[O-]
REMARK SMILES IDX 10 1 11 2 12 3 13 4 14 5 15 6 16 7 17 8 18 9 19 10 20 11
REMARK SMILES IDX 9 12 8 13 7 14 6 15 5 16 4 17 3 18 2 19 1 20
REMARK H PARENT
REMARK Flexibility Score: inf
ROOT
ATOM      1  C   UNL     1      49.489 -45.826 164.418  1.00  0.00     0.000 C 
ENDROOT
BRANCH   1   2
ATOM      2  C   UNL     1      48.954 -47.213 164.798  1.00  0.00     0.000 C 
BRANCH   2   3
ATOM      3  C   UNL     1      47.426 -47.270 164.657  1.00  0.00     0.000 C 
BRANCH   3   4
ATOM      4  C   UNL     1      46.723 -46.093 165.354  1.00  0.00     0.000 C 
BRANCH   4   5
ATOM      5  C   UNL     1      45.313 -45.836 164.794  1.00  0.00     0.000 C 
BRANCH   5   6
ATOM      6  C   UNL     1      45.208 -46.139 163.291  1.00  0.00     0.000 C 
BRANCH   6   7
ATOM      7  C   UNL     1      44.087 -47.136 162.961  1.00  0.00     0.006 C 
BRANCH   7   8
ATOM      8  C   UNL     1      44.639 -48.359 162.225  1.00  0.00     0.053 C 
BRANCH   8   9
ATOM      9  C   UNL     1      45.175 -49.360 163.201  1.00  0.00     0.041 C 
ATOM     10  O   UNL     1      46.197 -50.038 162.917  1.00  0.00    -0.550 OA
ATOM     11  O   UNL     1      44.578 -49.502 164.447  1.00  0.00    -0.550 OA
ENDBRANCH   8   9
ENDBRANCH   7   8
ENDBRANCH   6   7
ENDBRANCH   5   6
ENDBRANCH   4   5
ENDBRANCH   3   4
ENDBRANCH   2   3
ENDBRANCH   1   2
BRANCH   1  12
ATOM     12  C   UNL     1      50.979 -45.694 164.769  1.00  0.00     0.000 C 
BRANCH  12  13
ATOM     13  C   UNL     1      51.416 -46.633 165.910  1.00  0.00    -0.000 C 
BRANCH  13  14
ATOM     14  C   UNL     1      52.597 -47.561 165.571  1.00  0.00    -0.000 C 
BRANCH  14  15
ATOM     15  C   UNL     1      53.940 -47.164 166.213  1.00  0.00    -0.000 C 
BRANCH  15  16
ATOM     16  C   UNL     1      53.839 -45.949 167.160  1.00  0.00    -0.000 C 
BRANCH  16  17
ATOM     17  C   UNL     1      54.835 -44.837 166.793  1.00  0.00    -0.000 C 
BRANCH  17  18
ATOM     18  C   UNL     1      55.071 -44.716 165.277  1.00  0.00    -0.000 C 
BRANCH  18  19
ATOM     19  C   UNL     1      54.164 -43.703 164.558  1.00  0.00    -0.003 C 
ATOM     20  C   UNL     1      53.766 -42.523 165.444  1.00  0.00     0.004 C 
ENDBRANCH  18  19
ENDBRANCH  17  18
ENDBRANCH  16  17
ENDBRANCH  15  16
ENDBRANCH  14  15
ENDBRANCH  13  14
ENDBRANCH  12  13
ENDBRANCH   1  12
TORSDOF 16
ENDMDL
