MODEL 1
REMARK VINA RESULT:    -6.571      0.000      0.000
REMARK INTER + INTRA:         -12.744
REMARK INTER:                 -10.797
REMARK INTRA:                  -1.947
REMARK UNBOUND:                -1.947
REMARK SMILES C[C@H]1O[C@@H](OC[C@H]2O[C@@H](Oc3c(-c4ccc(O)c(O)c4)oc4cc(O)cc(O)c4c3=O)[C@@H](O)[C@@H](O)[C@@H]2O)[C@@H](O)[C@H](O)[C@H]1O
REMARK SMILES IDX 7 1 36 2 34 3 32 4 9 5 8 6 6 7 5 8 4 9 1 10 2 11 42 12 3 13
REMARK SMILES IDX 40 14 38 15 43 16 41 18 39 20 37 22 35 24 10 26 11 27 12 28
REMARK SMILES IDX 30 29 21 30 29 31 31 32 22 33 27 34 23 35 26 36 24 37 13 38
REMARK SMILES IDX 20 39 14 40 18 41 15 42 16 43 19 44 17 46 28 48 25 50 33 52
REMARK H PARENT 43 17 41 19 39 21 37 23 35 25 19 45 17 47 28 49 25 51 33 53
REMARK Flexibility Score: inf
ROOT
ATOM      1  C   UNL     1      13.581   3.702   1.878  1.00  0.00     0.180 C 
ATOM      2  C   UNL     1      14.176   3.827   0.435  1.00  0.00     0.177 C 
ATOM      3  C   UNL     1      13.890   2.551  -0.385  1.00  0.00     0.180 C 
ATOM      4  C   UNL     1      14.407   1.298   0.372  1.00  0.00     0.214 C 
ATOM      5  C   UNL     1      14.308   1.481   1.912  1.00  0.00     0.339 C 
ATOM      6  O   UNL     1      13.245   2.365   2.222  1.00  0.00    -0.332 OA
ENDROOT
BRANCH   1   7
ATOM      7  C   UNL     1      12.316   4.558   2.029  1.00  0.00     0.198 C 
BRANCH   7   8
ATOM      8  O   UNL     1      11.252   3.959   1.309  1.00  0.00    -0.347 OA
BRANCH   8   9
ATOM      9  C   UNL     1       9.976   4.474   1.670  1.00  0.00     0.281 C 
ATOM     10  C   UNL     1       9.893   1.545   0.643  1.00  0.00     0.041 C 
ATOM     11  C   UNL     1       8.760   2.517   1.017  1.00  0.00     0.150 C 
ATOM     12  C   UNL     1       8.130   3.245  -0.200  1.00  0.00     0.174 C 
ATOM     13  O   UNL     1       9.127   3.403   2.074  1.00  0.00    -0.344 OA
ATOM     14  C   UNL     1       9.009   4.415  -0.664  1.00  0.00     0.179 C 
ATOM     15  C   UNL     1       9.314   5.307   0.541  1.00  0.00     0.202 C 
BRANCH  12  16
ATOM     16  O   UNL     1       7.925   2.356  -1.270  1.00  0.00    -0.388 OA
ATOM     17  H   UNL     1       7.482   2.876  -1.993  1.00  0.00     0.211 HD
ENDBRANCH  12  16
BRANCH  14  18
ATOM     18  O   UNL     1       8.328   5.170  -1.634  1.00  0.00    -0.387 OA
ATOM     19  H   UNL     1       8.623   4.837  -2.522  1.00  0.00     0.211 HD
ENDBRANCH  14  18
BRANCH  15  20
ATOM     20  O   UNL     1      10.123   6.384   0.146  1.00  0.00    -0.385 OA
ATOM     21  H   UNL     1      10.942   6.353   0.708  1.00  0.00     0.211 HD
ENDBRANCH  15  20
ENDBRANCH   8   9
ENDBRANCH   7   8
ENDBRANCH   1   7
BRANCH   2  22
ATOM     22  O   UNL     1      15.565   4.027   0.526  1.00  0.00    -0.387 OA
ATOM     23  H   UNL     1      15.714   4.752   1.187  1.00  0.00     0.211 HD
ENDBRANCH   2  22
BRANCH   3  24
ATOM     24  O   UNL     1      12.504   2.467  -0.614  1.00  0.00    -0.387 OA
ATOM     25  H   UNL     1      12.381   1.983  -1.472  1.00  0.00     0.211 HD
ENDBRANCH   3  24
BRANCH   5  26
ATOM     26  O   UNL     1      14.075   0.222   2.549  1.00  0.00    -0.454 OA
BRANCH  26  27
ATOM     27  C   UNL     1      13.072  -0.018   3.507  1.00  0.00     0.214 A 
ATOM     28  C   UNL     1      13.385   0.105   4.877  1.00  0.00     0.180 A 
ATOM     29  C   UNL     1      11.742  -0.321   3.148  1.00  0.00     0.239 A 
ATOM     30  O   UNL     1      12.438  -0.065   5.798  1.00  0.00    -0.452 OA
ATOM     31  C   UNL     1      10.773  -0.515   4.154  1.00  0.00     0.111 A 
ATOM     32  O   UNL     1      11.416  -0.388   1.935  1.00  0.00    -0.285 OA
ATOM     33  C   UNL     1      11.182  -0.374   5.502  1.00  0.00     0.146 A 
ATOM     34  C   UNL     1       9.420  -0.832   3.875  1.00  0.00     0.134 A 
ATOM     35  C   UNL     1      10.264  -0.560   6.542  1.00  0.00     0.094 A 
ATOM     36  C   UNL     1       8.518  -1.022   4.933  1.00  0.00     0.093 A 
ATOM     37  C   UNL     1       8.936  -0.895   6.260  1.00  0.00     0.123 A 
BRANCH  28  38
ATOM     38  C   UNL     1      14.752   0.422   5.342  1.00  0.00     0.025 A 
ATOM     39  C   UNL     1      15.184   1.751   5.479  1.00  0.00     0.062 A 
ATOM     40  C   UNL     1      15.657  -0.622   5.594  1.00  0.00     0.016 A 
ATOM     41  C   UNL     1      16.486   2.035   5.911  1.00  0.00     0.158 A 
ATOM     42  C   UNL     1      16.959  -0.342   6.019  1.00  0.00     0.051 A 
ATOM     43  C   UNL     1      17.378   0.982   6.184  1.00  0.00     0.157 A 
BRANCH  41  44
ATOM     44  O   UNL     1      16.895   3.359   6.069  1.00  0.00    -0.504 OA
ATOM     45  H   UNL     1      17.101   3.953   5.270  1.00  0.00     0.293 HD
ENDBRANCH  41  44
BRANCH  43  46
ATOM     46  O   UNL     1      18.680   1.230   6.615  1.00  0.00    -0.504 OA
ATOM     47  H   UNL     1      19.171   2.085   6.377  1.00  0.00     0.293 HD
ENDBRANCH  43  46
ENDBRANCH  28  38
BRANCH  34  48
ATOM     48  O   UNL     1       8.967  -0.963   2.562  1.00  0.00    -0.507 OA
ATOM     49  H   UNL     1       8.370  -1.730   2.277  1.00  0.00     0.293 HD
ENDBRANCH  34  48
BRANCH  37  50
ATOM     50  O   UNL     1       8.028  -1.113   7.294  1.00  0.00    -0.508 OA
ATOM     51  H   UNL     1       8.325  -1.457   8.203  1.00  0.00     0.293 HD
ENDBRANCH  37  50
ENDBRANCH  26  27
ENDBRANCH   5  26
BRANCH   4  52
ATOM     52  O   UNL     1      13.759   0.128  -0.070  1.00  0.00    -0.384 OA
ATOM     53  H   UNL     1      12.823   0.368  -0.297  1.00  0.00     0.211 HD
ENDBRANCH   4  52
TORSDOF 16
ENDMDL
MODEL 2
REMARK VINA RESULT:    -6.376      2.082      5.262
REMARK INTER + INTRA:         -12.423
REMARK INTER:                 -10.126
REMARK INTRA:                  -2.297
REMARK UNBOUND:                -1.947
REMARK SMILES C[C@H]1O[C@@H](OC[C@H]2O[C@@H](Oc3c(-c4ccc(O)c(O)c4)oc4cc(O)cc(O)c4c3=O)[C@@H](O)[C@@H](O)[C@@H]2O)[C@@H](O)[C@H](O)[C@H]1O
REMARK SMILES IDX 7 1 36 2 34 3 32 4 9 5 8 6 6 7 5 8 4 9 1 10 2 11 42 12 3 13
REMARK SMILES IDX 40 14 38 15 43 16 41 18 39 20 37 22 35 24 10 26 11 27 12 28
REMARK SMILES IDX 30 29 21 30 29 31 31 32 22 33 27 34 23 35 26 36 24 37 13 38
REMARK SMILES IDX 20 39 14 40 18 41 15 42 16 43 19 44 17 46 28 48 25 50 33 52
REMARK H PARENT 43 17 41 19 39 21 37 23 35 25 19 45 17 47 28 49 25 51 33 53
REMARK Flexibility Score: inf
ROOT
ATOM      1  C   UNL     1      11.270   1.082  -0.786  1.00  0.00     0.180 C 
ATOM      2  C   UNL     1      11.068  -0.454  -1.020  1.00  0.00     0.177 C 
ATOM      3  C   UNL     1      10.485  -1.125   0.243  1.00  0.00     0.180 C 
ATOM      4  C   UNL     1      11.376  -0.817   1.475  1.00  0.00     0.214 C 
ATOM      5  C   UNL     1      12.041   0.583   1.364  1.00  0.00     0.339 C 
ATOM      6  O   UNL     1      11.222   1.441   0.588  1.00  0.00    -0.332 OA
ENDROOT
BRANCH   1   7
ATOM      7  C   UNL     1      10.200   1.897  -1.523  1.00  0.00     0.198 C 
BRANCH   7   8
ATOM      8  O   UNL     1      10.018   3.140  -0.866  1.00  0.00    -0.347 OA
BRANCH   8   9
ATOM      9  C   UNL     1       8.751   3.253  -0.228  1.00  0.00     0.281 C 
ATOM     10  C   UNL     1       9.421   5.638  -2.100  1.00  0.00     0.041 C 
ATOM     11  C   UNL     1       8.241   5.408  -1.138  1.00  0.00     0.150 C 
ATOM     12  C   UNL     1       8.413   6.095   0.242  1.00  0.00     0.174 C 
ATOM     13  O   UNL     1       7.877   4.031  -1.040  1.00  0.00    -0.344 OA
ATOM     14  C   UNL     1       9.343   5.283   1.155  1.00  0.00     0.179 C 
ATOM     15  C   UNL     1       8.841   3.838   1.205  1.00  0.00     0.202 C 
BRANCH  12  16
ATOM     16  O   UNL     1       8.916   7.400   0.097  1.00  0.00    -0.388 OA
ATOM     17  H   UNL     1       9.618   7.515   0.794  1.00  0.00     0.211 HD
ENDBRANCH  12  16
BRANCH  14  18
ATOM     18  O   UNL     1       9.328   5.820   2.453  1.00  0.00    -0.387 OA
ATOM     19  H   UNL     1       9.598   6.773   2.378  1.00  0.00     0.211 HD
ENDBRANCH  14  18
BRANCH  15  20
ATOM     20  O   UNL     1       9.678   3.070   2.030  1.00  0.00    -0.385 OA
ATOM     21  H   UNL     1      10.101   3.695   2.676  1.00  0.00     0.211 HD
ENDBRANCH  15  20
ENDBRANCH   8   9
ENDBRANCH   7   8
ENDBRANCH   1   7
BRANCH   2  22
ATOM     22  O   UNL     1      12.307  -1.039  -1.334  1.00  0.00    -0.387 OA
ATOM     23  H   UNL     1      12.659  -0.568  -2.134  1.00  0.00     0.211 HD
ENDBRANCH   2  22
BRANCH   3  24
ATOM     24  O   UNL     1       9.174  -0.653   0.436  1.00  0.00    -0.387 OA
ATOM     25  H   UNL     1       8.680  -0.815  -0.410  1.00  0.00     0.211 HD
ENDBRANCH   3  24
BRANCH   5  26
ATOM     26  O   UNL     1      12.222   1.153   2.663  1.00  0.00    -0.454 OA
BRANCH  26  27
ATOM     27  C   UNL     1      13.379   1.004   3.450  1.00  0.00     0.214 A 
ATOM     28  C   UNL     1      14.582   1.609   3.028  1.00  0.00     0.180 A 
ATOM     29  C   UNL     1      13.370   0.318   4.683  1.00  0.00     0.239 A 
ATOM     30  O   UNL     1      15.675   1.526   3.785  1.00  0.00    -0.452 OA
ATOM     31  C   UNL     1      14.554   0.234   5.445  1.00  0.00     0.111 A 
ATOM     32  O   UNL     1      12.303  -0.189   5.115  1.00  0.00    -0.285 OA
ATOM     33  C   UNL     1      15.712   0.871   4.938  1.00  0.00     0.146 A 
ATOM     34  C   UNL     1      14.629  -0.445   6.686  1.00  0.00     0.134 A 
ATOM     35  C   UNL     1      16.917   0.815   5.650  1.00  0.00     0.094 A 
ATOM     36  C   UNL     1      15.847  -0.494   7.380  1.00  0.00     0.093 A 
ATOM     37  C   UNL     1      16.989   0.125   6.863  1.00  0.00     0.123 A 
BRANCH  28  38
ATOM     38  C   UNL     1      14.680   2.348   1.752  1.00  0.00     0.025 A 
ATOM     39  C   UNL     1      15.065   1.703   0.566  1.00  0.00     0.062 A 
ATOM     40  C   UNL     1      14.445   3.733   1.734  1.00  0.00     0.016 A 
ATOM     41  C   UNL     1      15.163   2.419  -0.634  1.00  0.00     0.158 A 
ATOM     42  C   UNL     1      14.549   4.452   0.540  1.00  0.00     0.051 A 
ATOM     43  C   UNL     1      14.902   3.802  -0.647  1.00  0.00     0.157 A 
BRANCH  41  44
ATOM     44  O   UNL     1      15.520   1.761  -1.811  1.00  0.00    -0.504 OA
ATOM     45  H   UNL     1      15.397   0.759  -1.921  1.00  0.00     0.293 HD
ENDBRANCH  41  44
BRANCH  43  46
ATOM     46  O   UNL     1      14.992   4.544  -1.824  1.00  0.00    -0.504 OA
ATOM     47  H   UNL     1      15.138   5.547  -1.816  1.00  0.00     0.293 HD
ENDBRANCH  43  46
ENDBRANCH  28  38
BRANCH  34  48
ATOM     48  O   UNL     1      13.508  -1.070   7.234  1.00  0.00    -0.507 OA
ATOM     49  H   UNL     1      12.637  -1.148   6.722  1.00  0.00     0.293 HD
ENDBRANCH  34  48
BRANCH  37  50
ATOM     50  O   UNL     1      18.194   0.040   7.557  1.00  0.00    -0.508 OA
ATOM     51  H   UNL     1      18.735  -0.820   7.586  1.00  0.00     0.293 HD
ENDBRANCH  37  50
ENDBRANCH  26  27
ENDBRANCH   5  26
BRANCH   4  52
ATOM     52  O   UNL     1      10.660  -0.975   2.679  1.00  0.00    -0.384 OA
ATOM     53  H   UNL     1      11.077  -0.384   3.359  1.00  0.00     0.211 HD
ENDBRANCH   4  52
TORSDOF 16
ENDMDL
MODEL 3
REMARK VINA RESULT:    -6.345      1.538      2.077
REMARK INTER + INTRA:         -12.373
REMARK INTER:                 -10.601
REMARK INTRA:                  -1.772
REMARK UNBOUND:                -1.947
REMARK SMILES C[C@H]1O[C@@H](OC[C@H]2O[C@@H](Oc3c(-c4ccc(O)c(O)c4)oc4cc(O)cc(O)c4c3=O)[C@@H](O)[C@@H](O)[C@@H]2O)[C@@H](O)[C@H](O)[C@H]1O
REMARK SMILES IDX 7 1 36 2 34 3 32 4 9 5 8 6 6 7 5 8 4 9 1 10 2 11 42 12 3 13
REMARK SMILES IDX 40 14 38 15 43 16 41 18 39 20 37 22 35 24 10 26 11 27 12 28
REMARK SMILES IDX 30 29 21 30 29 31 31 32 22 33 27 34 23 35 26 36 24 37 13 38
REMARK SMILES IDX 20 39 14 40 18 41 15 42 16 43 19 44 17 46 28 48 25 50 33 52
REMARK H PARENT 43 17 41 19 39 21 37 23 35 25 19 45 17 47 28 49 25 51 33 53
REMARK Flexibility Score: inf
ROOT
ATOM      1  C   UNL     1      13.369   3.270   2.280  1.00  0.00     0.180 C 
ATOM      2  C   UNL     1      13.640   3.085   0.748  1.00  0.00     0.177 C 
ATOM      3  C   UNL     1      13.443   1.611   0.333  1.00  0.00     0.180 C 
ATOM      4  C   UNL     1      14.320   0.682   1.215  1.00  0.00     0.214 C 
ATOM      5  C   UNL     1      14.488   1.251   2.651  1.00  0.00     0.339 C 
ATOM      6  O   UNL     1      13.360   2.039   2.989  1.00  0.00    -0.332 OA
ENDROOT
BRANCH   1   7
ATOM      7  C   UNL     1      12.021   3.962   2.521  1.00  0.00     0.198 C 
BRANCH   7   8
ATOM      8  O   UNL     1      11.393   4.219   1.277  1.00  0.00    -0.347 OA
BRANCH   8   9
ATOM      9  C   UNL     1      10.001   3.925   1.284  1.00  0.00     0.281 C 
ATOM     10  C   UNL     1      11.303   3.724  -1.527  1.00  0.00     0.041 C 
ATOM     11  C   UNL     1       9.833   3.612  -1.084  1.00  0.00     0.150 C 
ATOM     12  C   UNL     1       9.023   4.924  -1.257  1.00  0.00     0.174 C 
ATOM     13  O   UNL     1       9.697   3.035   0.214  1.00  0.00    -0.344 OA
ATOM     14  C   UNL     1       9.313   5.911  -0.118  1.00  0.00     0.179 C 
ATOM     15  C   UNL     1       9.110   5.192   1.217  1.00  0.00     0.202 C 
BRANCH  12  16
ATOM     16  O   UNL     1       9.306   5.533  -2.493  1.00  0.00    -0.388 OA
ATOM     17  H   UNL     1       9.715   4.832  -3.069  1.00  0.00     0.211 HD
ENDBRANCH  12  16
BRANCH  14  18
ATOM     18  O   UNL     1       8.430   7.001  -0.193  1.00  0.00    -0.387 OA
ATOM     19  H   UNL     1       7.728   6.764  -0.854  1.00  0.00     0.211 HD
ENDBRANCH  14  18
BRANCH  15  20
ATOM     20  O   UNL     1       9.375   6.072   2.279  1.00  0.00    -0.385 OA
ATOM     21  H   UNL     1       9.033   6.964   2.008  1.00  0.00     0.211 HD
ENDBRANCH  15  20
ENDBRANCH   8   9
ENDBRANCH   7   8
ENDBRANCH   1   7
BRANCH   2  22
ATOM     22  O   UNL     1      14.959   3.482   0.464  1.00  0.00    -0.387 OA
ATOM     23  H   UNL     1      14.937   4.455   0.269  1.00  0.00     0.211 HD
ENDBRANCH   2  22
BRANCH   3  24
ATOM     24  O   UNL     1      12.079   1.290   0.459  1.00  0.00    -0.387 OA
ATOM     25  H   UNL     1      11.624   1.632  -0.354  1.00  0.00     0.211 HD
ENDBRANCH   3  24
BRANCH   5  26
ATOM     26  O   UNL     1      14.620   0.186   3.596  1.00  0.00    -0.454 OA
BRANCH  26  27
ATOM     27  C   UNL     1      13.827   0.034   4.749  1.00  0.00     0.214 A 
ATOM     28  C   UNL     1      14.412   0.228   6.018  1.00  0.00     0.180 A 
ATOM     29  C   UNL     1      12.446  -0.247   4.684  1.00  0.00     0.239 A 
ATOM     30  O   UNL     1      13.668   0.142   7.119  1.00  0.00    -0.452 OA
ATOM     31  C   UNL     1      11.697  -0.351   5.874  1.00  0.00     0.111 A 
ATOM     32  O   UNL     1      11.880  -0.375   3.567  1.00  0.00    -0.285 OA
ATOM     33  C   UNL     1      12.373  -0.143   7.100  1.00  0.00     0.146 A 
ATOM     34  C   UNL     1      10.310  -0.641   5.893  1.00  0.00     0.134 A 
ATOM     35  C   UNL     1      11.680  -0.239   8.313  1.00  0.00     0.094 A 
ATOM     36  C   UNL     1       9.637  -0.739   7.120  1.00  0.00     0.093 A 
ATOM     37  C   UNL     1      10.317  -0.548   8.325  1.00  0.00     0.123 A 
BRANCH  28  38
ATOM     38  C   UNL     1      15.851   0.529   6.178  1.00  0.00     0.025 A 
ATOM     39  C   UNL     1      16.749  -0.444   6.647  1.00  0.00     0.062 A 
ATOM     40  C   UNL     1      16.321   1.826   5.916  1.00  0.00     0.016 A 
ATOM     41  C   UNL     1      18.108  -0.141   6.803  1.00  0.00     0.158 A 
ATOM     42  C   UNL     1      17.674   2.134   6.078  1.00  0.00     0.051 A 
ATOM     43  C   UNL     1      18.573   1.156   6.515  1.00  0.00     0.157 A 
BRANCH  41  44
ATOM     44  O   UNL     1      18.995  -1.123   7.243  1.00  0.00    -0.504 OA
ATOM     45  H   UNL     1      18.703  -2.087   7.369  1.00  0.00     0.293 HD
ENDBRANCH  41  44
BRANCH  43  46
ATOM     46  O   UNL     1      19.919   1.490   6.660  1.00  0.00    -0.504 OA
ATOM     47  H   UNL     1      20.394   2.102   6.005  1.00  0.00     0.293 HD
ENDBRANCH  43  46
ENDBRANCH  28  38
BRANCH  34  48
ATOM     48  O   UNL     1       9.599  -0.835   4.708  1.00  0.00    -0.507 OA
ATOM     49  H   UNL     1       8.926  -0.156   4.372  1.00  0.00     0.293 HD
ENDBRANCH  34  48
BRANCH  37  50
ATOM     50  O   UNL     1       9.632  -0.676   9.532  1.00  0.00    -0.508 OA
ATOM     51  H   UNL     1      10.032  -1.172  10.323  1.00  0.00     0.293 HD
ENDBRANCH  37  50
ENDBRANCH  26  27
ENDBRANCH   5  26
BRANCH   4  52
ATOM     52  O   UNL     1      13.827  -0.638   1.217  1.00  0.00    -0.384 OA
ATOM     53  H   UNL     1      14.451  -1.193   1.752  1.00  0.00     0.211 HD
ENDBRANCH   4  52
TORSDOF 16
ENDMDL
MODEL 4
REMARK VINA RESULT:    -6.119      2.366      6.329
REMARK INTER + INTRA:         -12.001
REMARK INTER:                  -8.794
REMARK INTRA:                  -3.207
REMARK UNBOUND:                -1.947
REMARK SMILES C[C@H]1O[C@@H](OC[C@H]2O[C@@H](Oc3c(-c4ccc(O)c(O)c4)oc4cc(O)cc(O)c4c3=O)[C@@H](O)[C@@H](O)[C@@H]2O)[C@@H](O)[C@H](O)[C@H]1O
REMARK SMILES IDX 7 1 36 2 34 3 32 4 9 5 8 6 6 7 5 8 4 9 1 10 2 11 42 12 3 13
REMARK SMILES IDX 40 14 38 15 43 16 41 18 39 20 37 22 35 24 10 26 11 27 12 28
REMARK SMILES IDX 30 29 21 30 29 31 31 32 22 33 27 34 23 35 26 36 24 37 13 38
REMARK SMILES IDX 20 39 14 40 18 41 15 42 16 43 19 44 17 46 28 48 25 50 33 52
REMARK H PARENT 43 17 41 19 39 21 37 23 35 25 19 45 17 47 28 49 25 51 33 53
REMARK Flexibility Score: inf
ROOT
ATOM      1  C   UNL     1      13.384  -0.399   1.848  1.00  0.00     0.180 C 
ATOM      2  C   UNL     1      13.829  -0.824   3.289  1.00  0.00     0.177 C 
ATOM      3  C   UNL     1      13.534   0.301   4.304  1.00  0.00     0.180 C 
ATOM      4  C   UNL     1      14.188   1.630   3.840  1.00  0.00     0.214 C 
ATOM      5  C   UNL     1      14.229   1.735   2.291  1.00  0.00     0.339 C 
ATOM      6  O   UNL     1      13.155   0.999   1.732  1.00  0.00    -0.332 OA
ENDROOT
BRANCH   1   7
ATOM      7  C   UNL     1      12.095  -1.122   1.434  1.00  0.00     0.198 C 
BRANCH   7   8
ATOM      8  O   UNL     1      11.137  -0.171   1.003  1.00  0.00    -0.347 OA
BRANCH   8   9
ATOM      9  C   UNL     1       9.796  -0.613   1.174  1.00  0.00     0.281 C 
ATOM     10  C   UNL     1      10.297   0.830  -1.529  1.00  0.00     0.041 C 
ATOM     11  C   UNL     1       8.998   0.309  -0.887  1.00  0.00     0.150 C 
ATOM     12  C   UNL     1       8.180   1.401  -0.147  1.00  0.00     0.174 C 
ATOM     13  O   UNL     1       9.211  -0.863  -0.100  1.00  0.00    -0.344 OA
ATOM     14  C   UNL     1       8.772   1.695   1.239  1.00  0.00     0.179 C 
ATOM     15  C   UNL     1       8.929   0.375   1.995  1.00  0.00     0.202 C 
BRANCH  12  16
ATOM     16  O   UNL     1       8.127   2.587  -0.900  1.00  0.00    -0.388 OA
ATOM     17  H   UNL     1       7.205   2.649  -1.270  1.00  0.00     0.211 HD
ENDBRANCH  12  16
BRANCH  14  18
ATOM     18  O   UNL     1       7.909   2.539   1.958  1.00  0.00    -0.387 OA
ATOM     19  H   UNL     1       7.740   3.336   1.390  1.00  0.00     0.211 HD
ENDBRANCH  14  18
BRANCH  15  20
ATOM     20  O   UNL     1       9.475   0.615   3.267  1.00  0.00    -0.385 OA
ATOM     21  H   UNL     1       9.858  -0.244   3.584  1.00  0.00     0.211 HD
ENDBRANCH  15  20
ENDBRANCH   8   9
ENDBRANCH   7   8
ENDBRANCH   1   7
BRANCH   2  22
ATOM     22  O   UNL     1      15.208  -1.101   3.280  1.00  0.00    -0.387 OA
ATOM     23  H   UNL     1      15.649  -0.378   2.763  1.00  0.00     0.211 HD
ENDBRANCH   2  22
BRANCH   3  24
ATOM     24  O   UNL     1      12.139   0.439   4.426  1.00  0.00    -0.387 OA
ATOM     25  H   UNL     1      11.954   0.691   5.368  1.00  0.00     0.211 HD
ENDBRANCH   3  24
BRANCH   5  26
ATOM     26  O   UNL     1      14.126   3.101   1.881  1.00  0.00    -0.454 OA
BRANCH  26  27
ATOM     27  C   UNL     1      13.184   3.594   0.959  1.00  0.00     0.214 A 
ATOM     28  C   UNL     1      13.369   3.339  -0.417  1.00  0.00     0.180 A 
ATOM     29  C   UNL     1      12.023   4.285   1.361  1.00  0.00     0.239 A 
ATOM     30  O   UNL     1      12.463   3.749  -1.302  1.00  0.00    -0.452 OA
ATOM     31  C   UNL     1      11.097   4.722   0.391  1.00  0.00     0.111 A 
ATOM     32  O   UNL     1      11.799   4.484   2.584  1.00  0.00    -0.285 OA
ATOM     33  C   UNL     1      11.370   4.422  -0.965  1.00  0.00     0.146 A 
ATOM     34  C   UNL     1       9.913   5.430   0.715  1.00  0.00     0.134 A 
ATOM     35  C   UNL     1      10.488   4.835  -1.970  1.00  0.00     0.094 A 
ATOM     36  C   UNL     1       9.047   5.841  -0.310  1.00  0.00     0.093 A 
ATOM     37  C   UNL     1       9.333   5.553  -1.646  1.00  0.00     0.123 A 
BRANCH  28  38
ATOM     38  C   UNL     1      14.556   2.620  -0.927  1.00  0.00     0.025 A 
ATOM     39  C   UNL     1      14.431   1.387  -1.588  1.00  0.00     0.062 A 
ATOM     40  C   UNL     1      15.837   3.146  -0.693  1.00  0.00     0.016 A 
ATOM     41  C   UNL     1      15.567   0.713  -2.056  1.00  0.00     0.158 A 
ATOM     42  C   UNL     1      16.972   2.473  -1.153  1.00  0.00     0.051 A 
ATOM     43  C   UNL     1      16.845   1.260  -1.838  1.00  0.00     0.157 A 
BRANCH  41  44
ATOM     44  O   UNL     1      15.428  -0.497  -2.735  1.00  0.00    -0.504 OA
ATOM     45  H   UNL     1      14.727  -0.625  -3.460  1.00  0.00     0.293 HD
ENDBRANCH  41  44
BRANCH  43  46
ATOM     46  O   UNL     1      17.995   0.615  -2.291  1.00  0.00    -0.504 OA
ATOM     47  H   UNL     1      18.266  -0.300  -1.949  1.00  0.00     0.293 HD
ENDBRANCH  43  46
ENDBRANCH  28  38
BRANCH  34  48
ATOM     48  O   UNL     1       9.593   5.732   2.040  1.00  0.00    -0.507 OA
ATOM     49  H   UNL     1       9.576   5.020   2.759  1.00  0.00     0.293 HD
ENDBRANCH  34  48
BRANCH  37  50
ATOM     50  O   UNL     1       8.471   5.994  -2.648  1.00  0.00    -0.508 OA
ATOM     51  H   UNL     1       7.718   5.410  -3.001  1.00  0.00     0.293 HD
ENDBRANCH  37  50
ENDBRANCH  26  27
ENDBRANCH   5  26
BRANCH   4  52
ATOM     52  O   UNL     1      13.563   2.744   4.436  1.00  0.00    -0.384 OA
ATOM     53  H   UNL     1      14.275   3.385   4.697  1.00  0.00     0.211 HD
ENDBRANCH   4  52
TORSDOF 16
ENDMDL
MODEL 5
REMARK VINA RESULT:    -5.602      2.132      6.251
REMARK INTER + INTRA:         -11.152
REMARK INTER:                  -9.217
REMARK INTRA:                  -1.935
REMARK UNBOUND:                -1.947
REMARK SMILES C[C@H]1O[C@@H](OC[C@H]2O[C@@H](Oc3c(-c4ccc(O)c(O)c4)oc4cc(O)cc(O)c4c3=O)[C@@H](O)[C@@H](O)[C@@H]2O)[C@@H](O)[C@H](O)[C@H]1O
REMARK SMILES IDX 7 1 36 2 34 3 32 4 9 5 8 6 6 7 5 8 4 9 1 10 2 11 42 12 3 13
REMARK SMILES IDX 40 14 38 15 43 16 41 18 39 20 37 22 35 24 10 26 11 27 12 28
REMARK SMILES IDX 30 29 21 30 29 31 31 32 22 33 27 34 23 35 26 36 24 37 13 38
REMARK SMILES IDX 20 39 14 40 18 41 15 42 16 43 19 44 17 46 28 48 25 50 33 52
REMARK H PARENT 43 17 41 19 39 21 37 23 35 25 19 45 17 47 28 49 25 51 33 53
REMARK Flexibility Score: inf
ROOT
ATOM      1  C   UNL     1      13.858  -0.333   3.300  1.00  0.00     0.180 C 
ATOM      2  C   UNL     1      14.766  -0.486   4.567  1.00  0.00     0.177 C 
ATOM      3  C   UNL     1      15.071   0.894   5.189  1.00  0.00     0.180 C 
ATOM      4  C   UNL     1      15.682   1.841   4.123  1.00  0.00     0.214 C 
ATOM      5  C   UNL     1      15.124   1.540   2.704  1.00  0.00     0.339 C 
ATOM      6  O   UNL     1      13.818   1.000   2.809  1.00  0.00    -0.332 OA
ENDROOT
BRANCH   1   7
ATOM      7  C   UNL     1      12.417  -0.768   3.598  1.00  0.00     0.198 C 
BRANCH   7   8
ATOM      8  O   UNL     1      11.730  -0.991   2.379  1.00  0.00    -0.347 OA
BRANCH   8   9
ATOM      9  C   UNL     1      11.713   0.151   1.530  1.00  0.00     0.281 C 
ATOM     10  C   UNL     1       8.939  -0.544   2.740  1.00  0.00     0.041 C 
ATOM     11  C   UNL     1       9.352   0.511   1.696  1.00  0.00     0.150 C 
ATOM     12  C   UNL     1       9.123   0.065   0.228  1.00  0.00     0.174 C 
ATOM     13  O   UNL     1      10.663   1.025   1.930  1.00  0.00    -0.344 OA
ATOM     14  C   UNL     1      10.241  -0.875  -0.248  1.00  0.00     0.179 C 
ATOM     15  C   UNL     1      11.590  -0.209   0.027  1.00  0.00     0.202 C 
BRANCH  12  16
ATOM     16  O   UNL     1       7.877  -0.571   0.082  1.00  0.00    -0.388 OA
ATOM     17  H   UNL     1       7.358  -0.034  -0.575  1.00  0.00     0.211 HD
ENDBRANCH  12  16
BRANCH  14  18
ATOM     18  O   UNL     1      10.114  -1.107  -1.628  1.00  0.00    -0.387 OA
ATOM     19  H   UNL     1      10.817  -0.569  -2.080  1.00  0.00     0.211 HD
ENDBRANCH  14  18
BRANCH  15  20
ATOM     20  O   UNL     1      12.632  -1.051  -0.394  1.00  0.00    -0.385 OA
ATOM     21  H   UNL     1      13.404  -0.878   0.206  1.00  0.00     0.211 HD
ENDBRANCH  15  20
ENDBRANCH   8   9
ENDBRANCH   7   8
ENDBRANCH   1   7
BRANCH   2  22
ATOM     22  O   UNL     1      15.970  -1.112   4.197  1.00  0.00    -0.387 OA
ATOM     23  H   UNL     1      15.855  -2.085   4.357  1.00  0.00     0.211 HD
ENDBRANCH   2  22
BRANCH   3  24
ATOM     24  O   UNL     1      13.876   1.423   5.711  1.00  0.00    -0.387 OA
ATOM     25  H   UNL     1      14.024   2.396   5.843  1.00  0.00     0.211 HD
ENDBRANCH   3  24
BRANCH   5  26
ATOM     26  O   UNL     1      15.077   2.738   1.923  1.00  0.00    -0.454 OA
BRANCH  26  27
ATOM     27  C   UNL     1      13.969   3.157   1.163  1.00  0.00     0.214 A 
ATOM     28  C   UNL     1      13.923   2.852  -0.213  1.00  0.00     0.180 A 
ATOM     29  C   UNL     1      12.866   3.822   1.739  1.00  0.00     0.239 A 
ATOM     30  O   UNL     1      12.859   3.192  -0.939  1.00  0.00    -0.452 OA
ATOM     31  C   UNL     1      11.768   4.184   0.932  1.00  0.00     0.111 A 
ATOM     32  O   UNL     1      12.850   4.064   2.974  1.00  0.00    -0.285 OA
ATOM     33  C   UNL     1      11.814   3.838  -0.440  1.00  0.00     0.146 A 
ATOM     34  C   UNL     1      10.629   4.863   1.433  1.00  0.00     0.134 A 
ATOM     35  C   UNL     1      10.754   4.177  -1.289  1.00  0.00     0.094 A 
ATOM     36  C   UNL     1       9.582   5.199   0.563  1.00  0.00     0.093 A 
ATOM     37  C   UNL     1       9.644   4.866  -0.792  1.00  0.00     0.123 A 
BRANCH  28  38
ATOM     38  C   UNL     1      15.033   2.155  -0.898  1.00  0.00     0.025 A 
ATOM     39  C   UNL     1      16.364   2.569  -0.730  1.00  0.00     0.062 A 
ATOM     40  C   UNL     1      14.748   1.100  -1.781  1.00  0.00     0.016 A 
ATOM     41  C   UNL     1      17.404   1.905  -1.394  1.00  0.00     0.158 A 
ATOM     42  C   UNL     1      15.782   0.440  -2.450  1.00  0.00     0.051 A 
ATOM     43  C   UNL     1      17.111   0.833  -2.258  1.00  0.00     0.157 A 
BRANCH  41  44
ATOM     44  O   UNL     1      18.725   2.307  -1.198  1.00  0.00    -0.504 OA
ATOM     45  H   UNL     1      18.968   3.031  -0.528  1.00  0.00     0.293 HD
ENDBRANCH  41  44
BRANCH  43  46
ATOM     46  O   UNL     1      18.122   0.152  -2.934  1.00  0.00    -0.504 OA
ATOM     47  H   UNL     1      19.090   0.453  -2.897  1.00  0.00     0.293 HD
ENDBRANCH  43  46
ENDBRANCH  28  38
BRANCH  34  48
ATOM     48  O   UNL     1      10.532   5.207   2.783  1.00  0.00    -0.507 OA
ATOM     49  H   UNL     1       9.645   5.442   3.210  1.00  0.00     0.293 HD
ENDBRANCH  34  48
BRANCH  37  50
ATOM     50  O   UNL     1       8.603   5.234  -1.642  1.00  0.00    -0.508 OA
ATOM     51  H   UNL     1       8.669   6.046  -2.249  1.00  0.00     0.293 HD
ENDBRANCH  37  50
ENDBRANCH  26  27
ENDBRANCH   5  26
BRANCH   4  52
ATOM     52  O   UNL     1      15.522   3.193   4.485  1.00  0.00    -0.384 OA
ATOM     53  H   UNL     1      15.400   3.718   3.651  1.00  0.00     0.211 HD
ENDBRANCH   4  52
TORSDOF 16
ENDMDL
MODEL 6
REMARK VINA RESULT:    -5.344      2.326      5.215
REMARK INTER + INTRA:         -10.727
REMARK INTER:                  -9.778
REMARK INTRA:                  -0.949
REMARK UNBOUND:                -1.947
REMARK SMILES C[C@H]1O[C@@H](OC[C@H]2O[C@@H](Oc3c(-c4ccc(O)c(O)c4)oc4cc(O)cc(O)c4c3=O)[C@@H](O)[C@@H](O)[C@@H]2O)[C@@H](O)[C@H](O)[C@H]1O
REMARK SMILES IDX 7 1 36 2 34 3 32 4 9 5 8 6 6 7 5 8 4 9 1 10 2 11 42 12 3 13
REMARK SMILES IDX 40 14 38 15 43 16 41 18 39 20 37 22 35 24 10 26 11 27 12 28
REMARK SMILES IDX 30 29 21 30 29 31 31 32 22 33 27 34 23 35 26 36 24 37 13 38
REMARK SMILES IDX 20 39 14 40 18 41 15 42 16 43 19 44 17 46 28 48 25 50 33 52
REMARK H PARENT 43 17 41 19 39 21 37 23 35 25 19 45 17 47 28 49 25 51 33 53
REMARK Flexibility Score: inf
ROOT
ATOM      1  C   UNL     1      12.435   1.796  -1.138  1.00  0.00     0.180 C 
ATOM      2  C   UNL     1      12.498   0.359  -1.758  1.00  0.00     0.177 C 
ATOM      3  C   UNL     1      11.804  -0.665  -0.834  1.00  0.00     0.180 C 
ATOM      4  C   UNL     1      12.411  -0.598   0.594  1.00  0.00     0.214 C 
ATOM      5  C   UNL     1      12.878   0.841   0.949  1.00  0.00     0.339 C 
ATOM      6  O   UNL     1      12.095   1.786   0.241  1.00  0.00    -0.332 OA
ENDROOT
BRANCH   1   7
ATOM      7  C   UNL     1      11.405   2.667  -1.870  1.00  0.00     0.198 C 
BRANCH   7   8
ATOM      8  O   UNL     1      10.928   3.672  -0.993  1.00  0.00    -0.347 OA
BRANCH   8   9
ATOM      9  C   UNL     1       9.532   3.913  -1.128  1.00  0.00     0.281 C 
ATOM     10  C   UNL     1      10.596   4.334   1.759  1.00  0.00     0.041 C 
ATOM     11  C   UNL     1       9.163   4.363   1.195  1.00  0.00     0.150 C 
ATOM     12  C   UNL     1       8.385   3.034   1.387  1.00  0.00     0.174 C 
ATOM     13  O   UNL     1       9.114   4.855  -0.144  1.00  0.00    -0.344 OA
ATOM     14  C   UNL     1       8.799   1.991   0.339  1.00  0.00     0.179 C 
ATOM     15  C   UNL     1       8.681   2.619  -1.050  1.00  0.00     0.202 C 
BRANCH  12  16
ATOM     16  O   UNL     1       8.588   2.513   2.678  1.00  0.00    -0.388 OA
ATOM     17  H   UNL     1       8.473   1.527   2.609  1.00  0.00     0.211 HD
ENDBRANCH  12  16
BRANCH  14  18
ATOM     18  O   UNL     1       7.949   0.875   0.414  1.00  0.00    -0.387 OA
ATOM     19  H   UNL     1       8.443   0.105   0.027  1.00  0.00     0.211 HD
ENDBRANCH  14  18
BRANCH  15  20
ATOM     20  O   UNL     1       9.059   1.687  -2.030  1.00  0.00    -0.385 OA
ATOM     21  H   UNL     1       9.753   1.104  -1.622  1.00  0.00     0.211 HD
ENDBRANCH  15  20
ENDBRANCH   8   9
ENDBRANCH   7   8
ENDBRANCH   1   7
BRANCH   2  22
ATOM     22  O   UNL     1      13.844  -0.006  -1.937  1.00  0.00    -0.387 OA
ATOM     23  H   UNL     1      13.893  -0.995  -1.862  1.00  0.00     0.211 HD
ENDBRANCH   2  22
BRANCH   3  24
ATOM     24  O   UNL     1      10.426  -0.384  -0.810  1.00  0.00    -0.387 OA
ATOM     25  H   UNL     1      10.316   0.555  -1.115  1.00  0.00     0.211 HD
ENDBRANCH   3  24
BRANCH   5  26
ATOM     26  O   UNL     1      12.744   1.075   2.353  1.00  0.00    -0.454 OA
BRANCH  26  27
ATOM     27  C   UNL     1      13.821   1.215   3.249  1.00  0.00     0.214 A 
ATOM     28  C   UNL     1      14.927   2.008   2.878  1.00  0.00     0.180 A 
ATOM     29  C   UNL     1      13.811   0.638   4.536  1.00  0.00     0.239 A 
ATOM     30  O   UNL     1      15.931   2.197   3.732  1.00  0.00    -0.452 OA
ATOM     31  C   UNL     1      14.904   0.844   5.403  1.00  0.00     0.111 A 
ATOM     32  O   UNL     1      12.818  -0.032   4.920  1.00  0.00    -0.285 OA
ATOM     33  C   UNL     1      15.970   1.653   4.941  1.00  0.00     0.146 A 
ATOM     34  C   UNL     1      14.975   0.291   6.706  1.00  0.00     0.134 A 
ATOM     35  C   UNL     1      17.083   1.887   5.758  1.00  0.00     0.094 A 
ATOM     36  C   UNL     1      16.102   0.533   7.504  1.00  0.00     0.093 A 
ATOM     37  C   UNL     1      17.156   1.320   7.033  1.00  0.00     0.123 A 
BRANCH  28  38
ATOM     38  C   UNL     1      15.018   2.652   1.550  1.00  0.00     0.025 A 
ATOM     39  C   UNL     1      15.698   2.034   0.488  1.00  0.00     0.062 A 
ATOM     40  C   UNL     1      14.469   3.931   1.361  1.00  0.00     0.016 A 
ATOM     41  C   UNL     1      15.784   2.661  -0.762  1.00  0.00     0.158 A 
ATOM     42  C   UNL     1      14.560   4.562   0.118  1.00  0.00     0.051 A 
ATOM     43  C   UNL     1      15.211   3.932  -0.948  1.00  0.00     0.157 A 
BRANCH  41  44
ATOM     44  O   UNL     1      16.439   2.026  -1.817  1.00  0.00    -0.504 OA
ATOM     45  H   UNL     1      17.391   2.267  -2.077  1.00  0.00     0.293 HD
ENDBRANCH  41  44
BRANCH  43  46
ATOM     46  O   UNL     1      15.279   4.584  -2.179  1.00  0.00    -0.504 OA
ATOM     47  H   UNL     1      14.446   4.849  -2.692  1.00  0.00     0.293 HD
ENDBRANCH  43  46
ENDBRANCH  28  38
BRANCH  34  48
ATOM     48  O   UNL     1      13.939  -0.497   7.210  1.00  0.00    -0.507 OA
ATOM     49  H   UNL     1      13.048  -0.098   7.481  1.00  0.00     0.293 HD
ENDBRANCH  34  48
BRANCH  37  50
ATOM     50  O   UNL     1      18.277   1.525   7.834  1.00  0.00    -0.508 OA
ATOM     51  H   UNL     1      18.210   1.563   8.847  1.00  0.00     0.293 HD
ENDBRANCH  37  50
ENDBRANCH  26  27
ENDBRANCH   5  26
BRANCH   4  52
ATOM     52  O   UNL     1      11.524  -1.125   1.553  1.00  0.00    -0.384 OA
ATOM     53  H   UNL     1      11.673  -2.105   1.597  1.00  0.00     0.211 HD
ENDBRANCH   4  52
TORSDOF 16
ENDMDL
MODEL 7
REMARK VINA RESULT:    -5.222      2.104      7.972
REMARK INTER + INTRA:         -10.527
REMARK INTER:                  -9.318
REMARK INTRA:                  -1.209
REMARK UNBOUND:                -1.947
REMARK SMILES C[C@H]1O[C@@H](OC[C@H]2O[C@@H](Oc3c(-c4ccc(O)c(O)c4)oc4cc(O)cc(O)c4c3=O)[C@@H](O)[C@@H](O)[C@@H]2O)[C@@H](O)[C@H](O)[C@H]1O
REMARK SMILES IDX 7 1 36 2 34 3 32 4 9 5 8 6 6 7 5 8 4 9 1 10 2 11 42 12 3 13
REMARK SMILES IDX 40 14 38 15 43 16 41 18 39 20 37 22 35 24 10 26 11 27 12 28
REMARK SMILES IDX 30 29 21 30 29 31 31 32 22 33 27 34 23 35 26 36 24 37 13 38
REMARK SMILES IDX 20 39 14 40 18 41 15 42 16 43 19 44 17 46 28 48 25 50 33 52
REMARK H PARENT 43 17 41 19 39 21 37 23 35 25 19 45 17 47 28 49 25 51 33 53
REMARK Flexibility Score: inf
ROOT
ATOM      1  C   UNL     1      10.070   0.283   2.438  1.00  0.00     0.180 C 
ATOM      2  C   UNL     1       8.531   0.576   2.437  1.00  0.00     0.177 C 
ATOM      3  C   UNL     1       7.918   0.264   1.055  1.00  0.00     0.180 C 
ATOM      4  C   UNL     1       8.678   1.035  -0.058  1.00  0.00     0.214 C 
ATOM      5  C   UNL     1      10.180   1.215   0.297  1.00  0.00     0.339 C 
ATOM      6  O   UNL     1      10.606   0.150   1.129  1.00  0.00    -0.332 OA
ENDROOT
BRANCH   1   7
ATOM      7  C   UNL     1      10.384  -1.007   3.208  1.00  0.00     0.198 C 
BRANCH   7   8
ATOM      8  O   UNL     1      11.757  -1.024   3.561  1.00  0.00    -0.347 OA
BRANCH   8   9
ATOM      9  C   UNL     1      12.175   0.160   4.229  1.00  0.00     0.281 C 
ATOM     10  C   UNL     1      14.383  -1.118   2.459  1.00  0.00     0.041 C 
ATOM     11  C   UNL     1      14.432   0.074   3.434  1.00  0.00     0.150 C 
ATOM     12  C   UNL     1      14.974  -0.288   4.842  1.00  0.00     0.174 C 
ATOM     13  O   UNL     1      13.201   0.796   3.474  1.00  0.00    -0.344 OA
ATOM     14  C   UNL     1      13.895  -0.969   5.695  1.00  0.00     0.179 C 
ATOM     15  C   UNL     1      12.640  -0.095   5.687  1.00  0.00     0.202 C 
BRANCH  12  16
ATOM     16  O   UNL     1      16.101  -1.125   4.748  1.00  0.00    -0.388 OA
ATOM     17  H   UNL     1      15.760  -2.044   4.575  1.00  0.00     0.211 HD
ENDBRANCH  12  16
BRANCH  14  18
ATOM     18  O   UNL     1      14.349  -1.109   7.018  1.00  0.00    -0.387 OA
ATOM     19  H   UNL     1      14.183  -2.051   7.285  1.00  0.00     0.211 HD
ENDBRANCH  14  18
BRANCH  15  20
ATOM     20  O   UNL     1      11.632  -0.698   6.457  1.00  0.00    -0.385 OA
ATOM     21  H   UNL     1      11.846  -0.512   7.409  1.00  0.00     0.211 HD
ENDBRANCH  15  20
ENDBRANCH   8   9
ENDBRANCH   7   8
ENDBRANCH   1   7
BRANCH   2  22
ATOM     22  O   UNL     1       8.322   1.932   2.749  1.00  0.00    -0.387 OA
ATOM     23  H   UNL     1       8.946   2.163   3.486  1.00  0.00     0.211 HD
ENDBRANCH   2  22
BRANCH   3  24
ATOM     24  O   UNL     1       7.981  -1.125   0.841  1.00  0.00    -0.387 OA
ATOM     25  H   UNL     1       7.712  -1.286  -0.101  1.00  0.00     0.211 HD
ENDBRANCH   3  24
BRANCH   5  26
ATOM     26  O   UNL     1      10.974   1.230  -0.892  1.00  0.00    -0.454 OA
BRANCH  26  27
ATOM     27  C   UNL     1      12.347   1.538  -0.936  1.00  0.00     0.214 A 
ATOM     28  C   UNL     1      12.816   2.689  -0.268  1.00  0.00     0.180 A 
ATOM     29  C   UNL     1      13.288   0.703  -1.574  1.00  0.00     0.239 A 
ATOM     30  O   UNL     1      14.118   2.970  -0.252  1.00  0.00    -0.452 OA
ATOM     31  C   UNL     1      14.656   1.046  -1.552  1.00  0.00     0.111 A 
ATOM     32  O   UNL     1      12.911  -0.359  -2.134  1.00  0.00    -0.285 OA
ATOM     33  C   UNL     1      15.031   2.222  -0.859  1.00  0.00     0.146 A 
ATOM     34  C   UNL     1      15.660   0.266  -2.177  1.00  0.00     0.134 A 
ATOM     35  C   UNL     1      16.374   2.614  -0.810  1.00  0.00     0.094 A 
ATOM     36  C   UNL     1      16.999   0.681  -2.120  1.00  0.00     0.093 A 
ATOM     37  C   UNL     1      17.356   1.852  -1.447  1.00  0.00     0.123 A 
BRANCH  28  38
ATOM     38  C   UNL     1      11.901   3.618   0.427  1.00  0.00     0.025 A 
ATOM     39  C   UNL     1      10.787   4.168  -0.227  1.00  0.00     0.062 A 
ATOM     40  C   UNL     1      12.181   4.007   1.748  1.00  0.00     0.016 A 
ATOM     41  C   UNL     1       9.934   5.055   0.443  1.00  0.00     0.158 A 
ATOM     42  C   UNL     1      11.337   4.897   2.417  1.00  0.00     0.051 A 
ATOM     43  C   UNL     1      10.210   5.420   1.773  1.00  0.00     0.157 A 
BRANCH  41  44
ATOM     44  O   UNL     1       8.816   5.573  -0.210  1.00  0.00    -0.504 OA
ATOM     45  H   UNL     1       8.233   6.288   0.217  1.00  0.00     0.293 HD
ENDBRANCH  41  44
BRANCH  43  46
ATOM     46  O   UNL     1       9.382   6.301   2.468  1.00  0.00    -0.504 OA
ATOM     47  H   UNL     1       8.371   6.238   2.419  1.00  0.00     0.293 HD
ENDBRANCH  43  46
ENDBRANCH  28  38
BRANCH  34  48
ATOM     48  O   UNL     1      15.339  -0.912  -2.855  1.00  0.00    -0.507 OA
ATOM     49  H   UNL     1      16.042  -1.604  -3.082  1.00  0.00     0.293 HD
ENDBRANCH  34  48
BRANCH  37  50
ATOM     50  O   UNL     1      18.689   2.257  -1.427  1.00  0.00    -0.508 OA
ATOM     51  H   UNL     1      19.193   2.481  -2.281  1.00  0.00     0.293 HD
ENDBRANCH  37  50
ENDBRANCH  26  27
ENDBRANCH   5  26
BRANCH   4  52
ATOM     52  O   UNL     1       8.495   0.430  -1.317  1.00  0.00    -0.384 OA
ATOM     53  H   UNL     1       8.795   1.076  -2.009  1.00  0.00     0.211 HD
ENDBRANCH   4  52
TORSDOF 16
ENDMDL
MODEL 8
REMARK VINA RESULT:    -4.972     15.702     19.290
REMARK INTER + INTRA:         -10.116
REMARK INTER:                  -7.704
REMARK INTRA:                  -2.412
REMARK UNBOUND:                -1.947
REMARK SMILES C[C@H]1O[C@@H](OC[C@H]2O[C@@H](Oc3c(-c4ccc(O)c(O)c4)oc4cc(O)cc(O)c4c3=O)[C@@H](O)[C@@H](O)[C@@H]2O)[C@@H](O)[C@H](O)[C@H]1O
REMARK SMILES IDX 7 1 36 2 34 3 32 4 9 5 8 6 6 7 5 8 4 9 1 10 2 11 42 12 3 13
REMARK SMILES IDX 40 14 38 15 43 16 41 18 39 20 37 22 35 24 10 26 11 27 12 28
REMARK SMILES IDX 30 29 21 30 29 31 31 32 22 33 27 34 23 35 26 36 24 37 13 38
REMARK SMILES IDX 20 39 14 40 18 41 15 42 16 43 19 44 17 46 28 48 25 50 33 52
REMARK H PARENT 43 17 41 19 39 21 37 23 35 25 19 45 17 47 28 49 25 51 33 53
REMARK Flexibility Score: inf
ROOT
ATOM      1  C   UNL     1      25.190  14.938   5.556  1.00  0.00     0.180 C 
ATOM      2  C   UNL     1      23.873  14.819   4.717  1.00  0.00     0.177 C 
ATOM      3  C   UNL     1      22.661  14.556   5.637  1.00  0.00     0.180 C 
ATOM      4  C   UNL     1      22.922  13.311   6.526  1.00  0.00     0.214 C 
ATOM      5  C   UNL     1      24.430  13.163   6.873  1.00  0.00     0.339 C 
ATOM      6  O   UNL     1      25.047  14.438   6.879  1.00  0.00    -0.332 OA
ENDROOT
BRANCH   1   7
ATOM      7  C   UNL     1      25.651  16.398   5.653  1.00  0.00     0.198 C 
BRANCH   7   8
ATOM      8  O   UNL     1      25.307  16.919   6.926  1.00  0.00    -0.347 OA
BRANCH   8   9
ATOM      9  C   UNL     1      25.191  18.337   6.935  1.00  0.00     0.281 C 
ATOM     10  C   UNL     1      27.462  17.259   8.758  1.00  0.00     0.041 C 
ATOM     11  C   UNL     1      26.913  18.685   8.562  1.00  0.00     0.150 C 
ATOM     12  C   UNL     1      25.885  19.116   9.641  1.00  0.00     0.174 C 
ATOM     13  O   UNL     1      26.459  18.916   7.228  1.00  0.00    -0.344 OA
ATOM     14  C   UNL     1      24.498  18.520   9.357  1.00  0.00     0.179 C 
ATOM     15  C   UNL     1      24.108  18.853   7.916  1.00  0.00     0.202 C 
BRANCH  12  16
ATOM     16  O   UNL     1      26.310  18.732  10.925  1.00  0.00    -0.388 OA
ATOM     17  H   UNL     1      26.928  19.443  11.245  1.00  0.00     0.211 HD
ENDBRANCH  12  16
BRANCH  14  18
ATOM     18  O   UNL     1      23.550  19.078  10.232  1.00  0.00    -0.387 OA
ATOM     19  H   UNL     1      23.673  20.063  10.206  1.00  0.00     0.211 HD
ENDBRANCH  14  18
BRANCH  15  20
ATOM     20  O   UNL     1      22.843  18.315   7.628  1.00  0.00    -0.385 OA
ATOM     21  H   UNL     1      22.212  19.078   7.561  1.00  0.00     0.211 HD
ENDBRANCH  15  20
ENDBRANCH   8   9
ENDBRANCH   7   8
ENDBRANCH   1   7
BRANCH   2  22
ATOM     22  O   UNL     1      24.006  13.760   3.800  1.00  0.00    -0.387 OA
ATOM     23  H   UNL     1      23.282  13.861   3.129  1.00  0.00     0.211 HD
ENDBRANCH   2  22
BRANCH   3  24
ATOM     24  O   UNL     1      22.440  15.701   6.423  1.00  0.00    -0.387 OA
ATOM     25  H   UNL     1      21.868  16.313   5.889  1.00  0.00     0.211 HD
ENDBRANCH   3  24
BRANCH   5  26
ATOM     26  O   UNL     1      24.587  12.557   8.159  1.00  0.00    -0.454 OA
BRANCH  26  27
ATOM     27  C   UNL     1      25.301  11.369   8.404  1.00  0.00     0.214 A 
ATOM     28  C   UNL     1      26.143  11.292   9.534  1.00  0.00     0.180 A 
ATOM     29  C   UNL     1      25.161  10.223   7.593  1.00  0.00     0.239 A 
ATOM     30  O   UNL     1      26.785  10.160   9.814  1.00  0.00    -0.452 OA
ATOM     31  C   UNL     1      25.875   9.050   7.912  1.00  0.00     0.111 A 
ATOM     32  O   UNL     1      24.379  10.240   6.608  1.00  0.00    -0.285 OA
ATOM     33  C   UNL     1      26.698   9.069   9.064  1.00  0.00     0.146 A 
ATOM     34  C   UNL     1      25.797   7.863   7.142  1.00  0.00     0.134 A 
ATOM     35  C   UNL     1      27.434   7.934   9.424  1.00  0.00     0.094 A 
ATOM     36  C   UNL     1      26.548   6.739   7.518  1.00  0.00     0.093 A 
ATOM     37  C   UNL     1      27.368   6.773   8.648  1.00  0.00     0.123 A 
BRANCH  28  38
ATOM     38  C   UNL     1      26.346  12.443  10.439  1.00  0.00     0.025 A 
ATOM     39  C   UNL     1      25.432  12.732  11.464  1.00  0.00     0.062 A 
ATOM     40  C   UNL     1      27.439  13.301  10.233  1.00  0.00     0.016 A 
ATOM     41  C   UNL     1      25.633  13.833  12.308  1.00  0.00     0.158 A 
ATOM     42  C   UNL     1      27.639  14.405  11.067  1.00  0.00     0.051 A 
ATOM     43  C   UNL     1      26.744  14.673  12.108  1.00  0.00     0.157 A 
BRANCH  41  44
ATOM     44  O   UNL     1      24.733  14.094  13.340  1.00  0.00    -0.504 OA
ATOM     45  H   UNL     1      24.735  14.979  13.839  1.00  0.00     0.293 HD
ENDBRANCH  41  44
BRANCH  43  46
ATOM     46  O   UNL     1      26.973  15.777  12.928  1.00  0.00    -0.504 OA
ATOM     47  H   UNL     1      26.653  15.806  13.890  1.00  0.00     0.293 HD
ENDBRANCH  43  46
ENDBRANCH  28  38
BRANCH  34  48
ATOM     48  O   UNL     1      24.984   7.791   6.009  1.00  0.00    -0.507 OA
ATOM     49  H   UNL     1      25.316   8.075   5.096  1.00  0.00     0.293 HD
ENDBRANCH  34  48
BRANCH  37  50
ATOM     50  O   UNL     1      28.125   5.654   8.986  1.00  0.00    -0.508 OA
ATOM     51  H   UNL     1      27.979   5.154   9.859  1.00  0.00     0.293 HD
ENDBRANCH  37  50
ENDBRANCH  26  27
ENDBRANCH   5  26
BRANCH   4  52
ATOM     52  O   UNL     1      22.107  13.322   7.676  1.00  0.00    -0.384 OA
ATOM     53  H   UNL     1      22.305  12.499   8.195  1.00  0.00     0.211 HD
ENDBRANCH   4  52
TORSDOF 16
ENDMDL
MODEL 9
REMARK VINA RESULT:    -4.939     16.744     19.728
REMARK INTER + INTRA:         -10.063
REMARK INTER:                 -10.204
REMARK INTRA:                   0.141
REMARK UNBOUND:                -1.947
REMARK SMILES C[C@H]1O[C@@H](OC[C@H]2O[C@@H](Oc3c(-c4ccc(O)c(O)c4)oc4cc(O)cc(O)c4c3=O)[C@@H](O)[C@@H](O)[C@@H]2O)[C@@H](O)[C@H](O)[C@H]1O
REMARK SMILES IDX 7 1 36 2 34 3 32 4 9 5 8 6 6 7 5 8 4 9 1 10 2 11 42 12 3 13
REMARK SMILES IDX 40 14 38 15 43 16 41 18 39 20 37 22 35 24 10 26 11 27 12 28
REMARK SMILES IDX 30 29 21 30 29 31 31 32 22 33 27 34 23 35 26 36 24 37 13 38
REMARK SMILES IDX 20 39 14 40 18 41 15 42 16 43 19 44 17 46 28 48 25 50 33 52
REMARK H PARENT 43 17 41 19 39 21 37 23 35 25 19 45 17 47 28 49 25 51 33 53
REMARK Flexibility Score: inf
ROOT
ATOM      1  C   UNL     1      23.848  16.622   5.820  1.00  0.00     0.180 C 
ATOM      2  C   UNL     1      22.961  15.637   4.984  1.00  0.00     0.177 C 
ATOM      3  C   UNL     1      22.918  14.244   5.649  1.00  0.00     0.180 C 
ATOM      4  C   UNL     1      24.358  13.712   5.876  1.00  0.00     0.214 C 
ATOM      5  C   UNL     1      25.357  14.869   6.156  1.00  0.00     0.339 C 
ATOM      6  O   UNL     1      24.675  15.953   6.762  1.00  0.00    -0.332 OA
ENDROOT
BRANCH   1   7
ATOM      7  C   UNL     1      22.980  17.628   6.587  1.00  0.00     0.198 C 
BRANCH   7   8
ATOM      8  O   UNL     1      21.743  17.024   6.925  1.00  0.00    -0.347 OA
BRANCH   8   9
ATOM      9  C   UNL     1      20.639  17.590   6.230  1.00  0.00     0.281 C 
ATOM     10  C   UNL     1      21.166  18.891   8.999  1.00  0.00     0.041 C 
ATOM     11  C   UNL     1      20.028  19.100   7.984  1.00  0.00     0.150 C 
ATOM     12  C   UNL     1      18.742  18.294   8.308  1.00  0.00     0.174 C 
ATOM     13  O   UNL     1      20.464  18.944   6.634  1.00  0.00    -0.344 OA
ATOM     14  C   UNL     1      18.883  16.827   7.879  1.00  0.00     0.179 C 
ATOM     15  C   UNL     1      19.326  16.785   6.415  1.00  0.00     0.202 C 
BRANCH  12  16
ATOM     16  O   UNL     1      18.438  18.358   9.679  1.00  0.00    -0.388 OA
ATOM     17  H   UNL     1      17.450  18.453   9.748  1.00  0.00     0.211 HD
ENDBRANCH  12  16
BRANCH  14  18
ATOM     18  O   UNL     1      17.646  16.171   8.004  1.00  0.00    -0.387 OA
ATOM     19  H   UNL     1      17.238  16.142   7.099  1.00  0.00     0.211 HD
ENDBRANCH  14  18
BRANCH  15  20
ATOM     20  O   UNL     1      19.469  15.452   5.997  1.00  0.00    -0.385 OA
ATOM     21  H   UNL     1      20.404  15.184   6.199  1.00  0.00     0.211 HD
ENDBRANCH  15  20
ENDBRANCH   8   9
ENDBRANCH   7   8
ENDBRANCH   1   7
BRANCH   2  22
ATOM     22  O   UNL     1      23.497  15.524   3.689  1.00  0.00    -0.387 OA
ATOM     23  H   UNL     1      22.745  15.639   3.050  1.00  0.00     0.211 HD
ENDBRANCH   2  22
BRANCH   3  24
ATOM     24  O   UNL     1      22.221  14.351   6.866  1.00  0.00    -0.387 OA
ATOM     25  H   UNL     1      21.357  14.797   6.667  1.00  0.00     0.211 HD
ENDBRANCH   3  24
BRANCH   5  26
ATOM     26  O   UNL     1      26.402  14.424   7.026  1.00  0.00    -0.454 OA
BRANCH  26  27
ATOM     27  C   UNL     1      26.630  14.919   8.324  1.00  0.00     0.214 A 
ATOM     28  C   UNL     1      26.889  14.010   9.371  1.00  0.00     0.180 A 
ATOM     29  C   UNL     1      26.669  16.299   8.610  1.00  0.00     0.239 A 
ATOM     30  O   UNL     1      27.160  14.458  10.596  1.00  0.00    -0.452 OA
ATOM     31  C   UNL     1      26.939  16.734   9.924  1.00  0.00     0.111 A 
ATOM     32  O   UNL     1      26.495  17.139   7.690  1.00  0.00    -0.285 OA
ATOM     33  C   UNL     1      27.184  15.747  10.909  1.00  0.00     0.146 A 
ATOM     34  C   UNL     1      26.985  18.101  10.293  1.00  0.00     0.134 A 
ATOM     35  C   UNL     1      27.451  16.121  12.231  1.00  0.00     0.094 A 
ATOM     36  C   UNL     1      27.249  18.453  11.626  1.00  0.00     0.093 A 
ATOM     37  C   UNL     1      27.474  17.471  12.593  1.00  0.00     0.123 A 
BRANCH  28  38
ATOM     38  C   UNL     1      26.870  12.546   9.160  1.00  0.00     0.025 A 
ATOM     39  C   UNL     1      25.995  11.719   9.882  1.00  0.00     0.062 A 
ATOM     40  C   UNL     1      27.784  11.964   8.267  1.00  0.00     0.016 A 
ATOM     41  C   UNL     1      25.996  10.333   9.678  1.00  0.00     0.158 A 
ATOM     42  C   UNL     1      27.793  10.581   8.066  1.00  0.00     0.051 A 
ATOM     43  C   UNL     1      26.900   9.761   8.763  1.00  0.00     0.157 A 
BRANCH  41  44
ATOM     44  O   UNL     1      25.104   9.524  10.381  1.00  0.00    -0.504 OA
ATOM     45  H   UNL     1      24.533   8.826   9.913  1.00  0.00     0.293 HD
ENDBRANCH  41  44
BRANCH  43  46
ATOM     46  O   UNL     1      26.927   8.385   8.537  1.00  0.00    -0.504 OA
ATOM     47  H   UNL     1      26.104   7.875   8.235  1.00  0.00     0.293 HD
ENDBRANCH  43  46
ENDBRANCH  28  38
BRANCH  34  48
ATOM     48  O   UNL     1      26.770  19.109   9.352  1.00  0.00    -0.507 OA
ATOM     49  H   UNL     1      25.919  19.154   8.804  1.00  0.00     0.293 HD
ENDBRANCH  34  48
BRANCH  37  50
ATOM     50  O   UNL     1      27.707  17.844  13.915  1.00  0.00    -0.508 OA
ATOM     51  H   UNL     1      28.598  18.233  14.211  1.00  0.00     0.293 HD
ENDBRANCH  37  50
ENDBRANCH  26  27
ENDBRANCH   5  26
BRANCH   4  52
ATOM     52  O   UNL     1      24.388  12.724   6.881  1.00  0.00    -0.384 OA
ATOM     53  H   UNL     1      24.874  13.100   7.660  1.00  0.00     0.211 HD
ENDBRANCH   4  52
TORSDOF 16
ENDMDL
