MODEL 1
REMARK VINA RESULT:    -4.895      0.000      0.000
REMARK INTER + INTRA:         -15.836
REMARK INTER:                 -12.336
REMARK INTRA:                  -3.500
REMARK UNBOUND:                -3.500
REMARK SMILES CCCCCCCCCCCCCCCCCCCCCCCCCCCC(=O)[O-]
REMARK SMILES IDX 15 1 16 2 17 3 18 4 19 5 20 6 21 7 22 8 23 9 24 10 25 11
REMARK SMILES IDX 26 12 27 13 28 14 29 15 30 16 14 17 13 18 12 19 11 20 10 21
REMARK SMILES IDX 9 22 8 23 7 24 6 25 5 26 4 27 3 28 2 29 1 30
REMARK H PARENT
REMARK Flexibility Score: inf
ROOT
ATOM      1  C   UNL     1      -4.064  31.109  58.474  1.00  0.00     0.000 C 
ENDROOT
BRANCH   1   2
ATOM      2  C   UNL     1      -2.925  30.153  58.082  1.00  0.00     0.000 C 
BRANCH   2   3
ATOM      3  C   UNL     1      -3.195  29.471  56.728  1.00  0.00     0.000 C 
BRANCH   3   4
ATOM      4  C   UNL     1      -4.609  28.877  56.627  1.00  0.00     0.000 C 
BRANCH   4   5
ATOM      5  C   UNL     1      -4.696  27.735  55.597  1.00  0.00     0.000 C 
BRANCH   5   6
ATOM      6  C   UNL     1      -3.411  26.893  55.536  1.00  0.00     0.000 C 
BRANCH   6   7
ATOM      7  C   UNL     1      -3.099  26.425  54.105  1.00  0.00     0.000 C 
BRANCH   7   8
ATOM      8  C   UNL     1      -1.613  26.093  53.895  1.00  0.00     0.000 C 
BRANCH   8   9
ATOM      9  C   UNL     1      -0.925  25.610  55.186  1.00  0.00     0.000 C 
BRANCH   9  10
ATOM     10  C   UNL     1       0.337  26.429  55.536  1.00  0.00     0.000 C 
BRANCH  10  11
ATOM     11  C   UNL     1       0.291  27.097  56.924  1.00  0.00     0.000 C 
BRANCH  11  12
ATOM     12  C   UNL     1       1.599  27.027  57.728  1.00  0.00     0.006 C 
BRANCH  12  13
ATOM     13  C   UNL     1       1.849  28.286  58.569  1.00  0.00     0.053 C 
BRANCH  13  14
ATOM     14  C   UNL     1       2.087  29.469  57.685  1.00  0.00     0.041 C 
ATOM     15  O   UNL     1       1.185  30.333  57.524  1.00  0.00    -0.550 OA
ATOM     16  O   UNL     1       3.314  29.628  57.052  1.00  0.00    -0.550 OA
ENDBRANCH  13  14
ENDBRANCH  12  13
ENDBRANCH  11  12
ENDBRANCH  10  11
ENDBRANCH   9  10
ENDBRANCH   8   9
ENDBRANCH   7   8
ENDBRANCH   6   7
ENDBRANCH   5   6
ENDBRANCH   4   5
ENDBRANCH   3   4
ENDBRANCH   2   3
ENDBRANCH   1   2
BRANCH   1  17
ATOM     17  C   UNL     1      -4.064  31.440  59.977  1.00  0.00     0.000 C 
BRANCH  17  18
ATOM     18  C   UNL     1      -2.897  32.362  60.381  1.00  0.00     0.000 C 
BRANCH  18  19
ATOM     19  C   UNL     1      -3.073  33.087  61.733  1.00  0.00     0.000 C 
BRANCH  19  20
ATOM     20  C   UNL     1      -2.718  32.252  62.981  1.00  0.00     0.000 C 
BRANCH  20  21
ATOM     21  C   UNL     1      -1.912  33.013  64.049  1.00  0.00     0.000 C 
BRANCH  21  22
ATOM     22  C   UNL     1      -0.591  32.304  64.391  1.00  0.00    -0.000 C 
BRANCH  22  23
ATOM     23  C   UNL     1      -0.482  30.909  63.751  1.00  0.00    -0.000 C 
BRANCH  23  24
ATOM     24  C   UNL     1       0.958  30.451  63.434  1.00  0.00    -0.000 C 
BRANCH  24  25
ATOM     25  C   UNL     1       1.274  30.231  61.939  1.00  0.00    -0.000 C 
BRANCH  25  26
ATOM     26  C   UNL     1       0.465  31.106  60.966  1.00  0.00    -0.000 C 
BRANCH  26  27
ATOM     27  C   UNL     1       1.259  32.315  60.441  1.00  0.00    -0.000 C 
BRANCH  27  28
ATOM     28  C   UNL     1       1.245  33.492  61.431  1.00  0.00    -0.000 C 
BRANCH  28  29
ATOM     29  C   UNL     1       0.195  34.553  61.062  1.00  0.00    -0.003 C 
ATOM     30  C   UNL     1       0.859  35.830  60.555  1.00  0.00     0.004 C 
ENDBRANCH  28  29
ENDBRANCH  27  28
ENDBRANCH  26  27
ENDBRANCH  25  26
ENDBRANCH  24  25
ENDBRANCH  23  24
ENDBRANCH  22  23
ENDBRANCH  21  22
ENDBRANCH  20  21
ENDBRANCH  19  20
ENDBRANCH  18  19
ENDBRANCH  17  18
ENDBRANCH   1  17
TORSDOF 26
ENDMDL
MODEL 2
REMARK VINA RESULT:    -4.568      1.484      2.662
REMARK INTER + INTRA:         -15.010
REMARK INTER:                 -12.111
REMARK INTRA:                  -2.899
REMARK UNBOUND:                -3.500
REMARK SMILES CCCCCCCCCCCCCCCCCCCCCCCCCCCC(=O)[O-]
REMARK SMILES IDX 15 1 16 2 17 3 18 4 19 5 20 6 21 7 22 8 23 9 24 10 25 11
REMARK SMILES IDX 26 12 27 13 28 14 29 15 30 16 14 17 13 18 12 19 11 20 10 21
REMARK SMILES IDX 9 22 8 23 7 24 6 25 5 26 4 27 3 28 2 29 1 30
REMARK H PARENT
REMARK Flexibility Score: inf
ROOT
ATOM      1  C   UNL     1      -4.410  30.464  58.248  1.00  0.00     0.000 C 
ENDROOT
BRANCH   1   2
ATOM      2  C   UNL     1      -3.015  30.020  57.779  1.00  0.00     0.000 C 
BRANCH   2   3
ATOM      3  C   UNL     1      -3.096  29.070  56.570  1.00  0.00     0.000 C 
BRANCH   3   4
ATOM      4  C   UNL     1      -4.526  28.581  56.287  1.00  0.00     0.000 C 
BRANCH   4   5
ATOM      5  C   UNL     1      -4.567  27.452  55.240  1.00  0.00     0.000 C 
BRANCH   5   6
ATOM      6  C   UNL     1      -3.343  26.524  55.320  1.00  0.00     0.000 C 
BRANCH   6   7
ATOM      7  C   UNL     1      -2.872  26.072  53.928  1.00  0.00     0.000 C 
BRANCH   7   8
ATOM      8  C   UNL     1      -1.381  26.349  53.682  1.00  0.00     0.000 C 
BRANCH   8   9
ATOM      9  C   UNL     1      -0.463  25.366  54.435  1.00  0.00     0.000 C 
BRANCH   9  10
ATOM     10  C   UNL     1       0.530  26.077  55.381  1.00  0.00     0.000 C 
BRANCH  10  11
ATOM     11  C   UNL     1      -0.135  27.027  56.395  1.00  0.00     0.000 C 
BRANCH  11  12
ATOM     12  C   UNL     1       0.763  27.472  57.561  1.00  0.00     0.006 C 
BRANCH  12  13
ATOM     13  C   UNL     1       2.228  27.055  57.377  1.00  0.00     0.053 C 
BRANCH  13  14
ATOM     14  C   UNL     1       2.929  27.002  58.697  1.00  0.00     0.041 C 
ATOM     15  O   UNL     1       4.091  27.471  58.819  1.00  0.00    -0.550 OA
ATOM     16  O   UNL     1       2.290  26.450  59.801  1.00  0.00    -0.550 OA
ENDBRANCH  13  14
ENDBRANCH  12  13
ENDBRANCH  11  12
ENDBRANCH  10  11
ENDBRANCH   9  10
ENDBRANCH   8   9
ENDBRANCH   7   8
ENDBRANCH   6   7
ENDBRANCH   5   6
ENDBRANCH   4   5
ENDBRANCH   3   4
ENDBRANCH   2   3
ENDBRANCH   1   2
BRANCH   1  17
ATOM     17  C   UNL     1      -4.439  30.837  59.741  1.00  0.00     0.000 C 
BRANCH  17  18
ATOM     18  C   UNL     1      -3.527  32.034  60.072  1.00  0.00     0.000 C 
BRANCH  18  19
ATOM     19  C   UNL     1      -3.579  32.511  61.539  1.00  0.00     0.000 C 
BRANCH  19  20
ATOM     20  C   UNL     1      -2.209  32.681  62.227  1.00  0.00     0.000 C 
BRANCH  20  21
ATOM     21  C   UNL     1      -2.047  33.996  63.011  1.00  0.00     0.000 C 
BRANCH  21  22
ATOM     22  C   UNL     1      -0.897  34.857  62.463  1.00  0.00    -0.000 C 
BRANCH  22  23
ATOM     23  C   UNL     1      -0.441  34.418  61.060  1.00  0.00    -0.000 C 
BRANCH  23  24
ATOM     24  C   UNL     1       1.065  34.103  60.937  1.00  0.00    -0.000 C 
BRANCH  24  25
ATOM     25  C   UNL     1       1.463  32.635  61.199  1.00  0.00    -0.000 C 
BRANCH  25  26
ATOM     26  C   UNL     1       0.598  31.586  60.477  1.00  0.00    -0.000 C 
BRANCH  26  27
ATOM     27  C   UNL     1       1.414  30.390  59.955  1.00  0.00    -0.000 C 
BRANCH  27  28
ATOM     28  C   UNL     1       2.348  29.811  61.031  1.00  0.00    -0.000 C 
BRANCH  28  29
ATOM     29  C   UNL     1       1.577  29.072  62.137  1.00  0.00    -0.003 C 
ATOM     30  C   UNL     1       1.837  29.700  63.503  1.00  0.00     0.004 C 
ENDBRANCH  28  29
ENDBRANCH  27  28
ENDBRANCH  26  27
ENDBRANCH  25  26
ENDBRANCH  24  25
ENDBRANCH  23  24
ENDBRANCH  22  23
ENDBRANCH  21  22
ENDBRANCH  20  21
ENDBRANCH  19  20
ENDBRANCH  18  19
ENDBRANCH  17  18
ENDBRANCH   1  17
TORSDOF 26
ENDMDL
MODEL 3
REMARK VINA RESULT:    -4.556      2.625      3.867
REMARK INTER + INTRA:         -14.981
REMARK INTER:                 -13.002
REMARK INTRA:                  -1.979
REMARK UNBOUND:                -3.500
REMARK SMILES CCCCCCCCCCCCCCCCCCCCCCCCCCCC(=O)[O-]
REMARK SMILES IDX 15 1 16 2 17 3 18 4 19 5 20 6 21 7 22 8 23 9 24 10 25 11
REMARK SMILES IDX 26 12 27 13 28 14 29 15 30 16 14 17 13 18 12 19 11 20 10 21
REMARK SMILES IDX 9 22 8 23 7 24 6 25 5 26 4 27 3 28 2 29 1 30
REMARK H PARENT
REMARK Flexibility Score: inf
ROOT
ATOM      1  C   UNL     1      -4.184  30.871  58.123  1.00  0.00     0.000 C 
ENDROOT
BRANCH   1   2
ATOM      2  C   UNL     1      -2.894  30.110  57.778  1.00  0.00     0.000 C 
BRANCH   2   3
ATOM      3  C   UNL     1      -3.120  29.089  56.648  1.00  0.00     0.000 C 
BRANCH   3   4
ATOM      4  C   UNL     1      -4.601  28.727  56.454  1.00  0.00     0.000 C 
BRANCH   4   5
ATOM      5  C   UNL     1      -4.805  27.619  55.405  1.00  0.00     0.000 C 
BRANCH   5   6
ATOM      6  C   UNL     1      -3.595  26.677  55.295  1.00  0.00     0.000 C 
BRANCH   6   7
ATOM      7  C   UNL     1      -3.205  26.410  53.831  1.00  0.00     0.000 C 
BRANCH   7   8
ATOM      8  C   UNL     1      -1.684  26.363  53.617  1.00  0.00     0.000 C 
BRANCH   8   9
ATOM      9  C   UNL     1      -0.918  25.947  54.888  1.00  0.00     0.000 C 
BRANCH   9  10
ATOM     10  C   UNL     1       0.540  25.528  54.600  1.00  0.00     0.000 C 
BRANCH  10  11
ATOM     11  C   UNL     1       0.677  24.378  53.584  1.00  0.00     0.000 C 
BRANCH  11  12
ATOM     12  C   UNL     1       1.995  23.590  53.660  1.00  0.00     0.006 C 
BRANCH  12  13
ATOM     13  C   UNL     1       3.029  24.057  52.627  1.00  0.00     0.053 C 
BRANCH  13  14
ATOM     14  C   UNL     1       4.112  24.849  53.288  1.00  0.00     0.041 C 
ATOM     15  O   UNL     1       3.929  26.062  53.573  1.00  0.00    -0.550 OA
ATOM     16  O   UNL     1       5.321  24.242  53.606  1.00  0.00    -0.550 OA
ENDBRANCH  13  14
ENDBRANCH  12  13
ENDBRANCH  11  12
ENDBRANCH  10  11
ENDBRANCH   9  10
ENDBRANCH   8   9
ENDBRANCH   7   8
ENDBRANCH   6   7
ENDBRANCH   5   6
ENDBRANCH   4   5
ENDBRANCH   3   4
ENDBRANCH   2   3
ENDBRANCH   1   2
BRANCH   1  17
ATOM     17  C   UNL     1      -4.310  31.166  59.628  1.00  0.00     0.000 C 
BRANCH  17  18
ATOM     18  C   UNL     1      -3.171  32.060  60.156  1.00  0.00     0.000 C 
BRANCH  18  19
ATOM     19  C   UNL     1      -3.388  32.629  61.574  1.00  0.00     0.000 C 
BRANCH  19  20
ATOM     20  C   UNL     1      -2.102  32.912  62.377  1.00  0.00     0.000 C 
BRANCH  20  21
ATOM     21  C   UNL     1      -2.193  32.558  63.872  1.00  0.00     0.000 C 
BRANCH  21  22
ATOM     22  C   UNL     1      -1.635  33.679  64.766  1.00  0.00    -0.000 C 
BRANCH  22  23
ATOM     23  C   UNL     1      -0.835  33.141  65.965  1.00  0.00    -0.000 C 
BRANCH  23  24
ATOM     24  C   UNL     1       0.431  33.952  66.316  1.00  0.00    -0.000 C 
BRANCH  24  25
ATOM     25  C   UNL     1       1.772  33.301  65.918  1.00  0.00    -0.000 C 
BRANCH  25  26
ATOM     26  C   UNL     1       1.669  32.195  64.852  1.00  0.00    -0.000 C 
BRANCH  26  27
ATOM     27  C   UNL     1       2.173  30.830  65.352  1.00  0.00    -0.000 C 
BRANCH  27  28
ATOM     28  C   UNL     1       1.132  29.718  65.150  1.00  0.00    -0.000 C 
BRANCH  28  29
ATOM     29  C   UNL     1       0.360  29.873  63.829  1.00  0.00    -0.003 C 
ATOM     30  C   UNL     1       1.106  29.209  62.675  1.00  0.00     0.004 C 
ENDBRANCH  28  29
ENDBRANCH  27  28
ENDBRANCH  26  27
ENDBRANCH  25  26
ENDBRANCH  24  25
ENDBRANCH  23  24
ENDBRANCH  22  23
ENDBRANCH  21  22
ENDBRANCH  20  21
ENDBRANCH  19  20
ENDBRANCH  18  19
ENDBRANCH  17  18
ENDBRANCH   1  17
TORSDOF 26
ENDMDL
MODEL 4
REMARK VINA RESULT:    -4.486      2.198      3.744
REMARK INTER + INTRA:         -14.804
REMARK INTER:                 -12.520
REMARK INTRA:                  -2.284
REMARK UNBOUND:                -3.500
REMARK SMILES CCCCCCCCCCCCCCCCCCCCCCCCCCCC(=O)[O-]
REMARK SMILES IDX 15 1 16 2 17 3 18 4 19 5 20 6 21 7 22 8 23 9 24 10 25 11
REMARK SMILES IDX 26 12 27 13 28 14 29 15 30 16 14 17 13 18 12 19 11 20 10 21
REMARK SMILES IDX 9 22 8 23 7 24 6 25 5 26 4 27 3 28 2 29 1 30
REMARK H PARENT
REMARK Flexibility Score: inf
ROOT
ATOM      1  C   UNL     1      -3.085  29.077  56.599  1.00  0.00     0.000 C 
ENDROOT
BRANCH   1   2
ATOM      2  C   UNL     1      -4.561  28.663  56.473  1.00  0.00     0.000 C 
BRANCH   2   3
ATOM      3  C   UNL     1      -4.747  27.522  55.456  1.00  0.00     0.000 C 
BRANCH   3   4
ATOM      4  C   UNL     1      -3.507  26.622  55.332  1.00  0.00     0.000 C 
BRANCH   4   5
ATOM      5  C   UNL     1      -3.038  26.463  53.873  1.00  0.00     0.000 C 
BRANCH   5   6
ATOM      6  C   UNL     1      -1.512  26.324  53.753  1.00  0.00     0.000 C 
BRANCH   6   7
ATOM      7  C   UNL     1      -0.917  25.500  54.907  1.00  0.00     0.000 C 
BRANCH   7   8
ATOM      8  C   UNL     1       0.312  26.165  55.545  1.00  0.00     0.000 C 
BRANCH   8   9
ATOM      9  C   UNL     1      -0.055  27.085  56.725  1.00  0.00     0.000 C 
BRANCH   9  10
ATOM     10  C   UNL     1       1.169  27.811  57.325  1.00  0.00     0.000 C 
BRANCH  10  11
ATOM     11  C   UNL     1       1.808  27.083  58.524  1.00  0.00     0.000 C 
BRANCH  11  12
ATOM     12  C   UNL     1       3.325  26.854  58.417  1.00  0.00     0.006 C 
BRANCH  12  13
ATOM     13  C   UNL     1       3.717  26.024  57.187  1.00  0.00     0.053 C 
BRANCH  13  14
ATOM     14  C   UNL     1       4.437  24.780  57.601  1.00  0.00     0.041 C 
ATOM     15  O   UNL     1       5.142  24.149  56.770  1.00  0.00    -0.550 OA
ATOM     16  O   UNL     1       4.344  24.327  58.912  1.00  0.00    -0.550 OA
ENDBRANCH  13  14
ENDBRANCH  12  13
ENDBRANCH  11  12
ENDBRANCH  10  11
ENDBRANCH   9  10
ENDBRANCH   8   9
ENDBRANCH   7   8
ENDBRANCH   6   7
ENDBRANCH   5   6
ENDBRANCH   4   5
ENDBRANCH   3   4
ENDBRANCH   2   3
ENDBRANCH   1   2
BRANCH   1  17
ATOM     17  C   UNL     1      -2.852  30.089  57.735  1.00  0.00     0.000 C 
BRANCH  17  18
ATOM     18  C   UNL     1      -4.129  30.865  58.110  1.00  0.00     0.000 C 
BRANCH  18  19
ATOM     19  C   UNL     1      -4.287  31.179  59.614  1.00  0.00     0.000 C 
BRANCH  19  20
ATOM     20  C   UNL     1      -3.130  31.981  60.246  1.00  0.00     0.000 C 
BRANCH  20  21
ATOM     21  C   UNL     1      -3.483  32.666  61.579  1.00  0.00     0.000 C 
BRANCH  21  22
ATOM     22  C   UNL     1      -2.229  33.118  62.346  1.00  0.00    -0.000 C 
BRANCH  22  23
ATOM     23  C   UNL     1      -2.202  32.604  63.796  1.00  0.00    -0.000 C 
BRANCH  23  24
ATOM     24  C   UNL     1      -0.809  32.179  64.308  1.00  0.00    -0.000 C 
BRANCH  24  25
ATOM     25  C   UNL     1      -0.324  30.789  63.845  1.00  0.00    -0.000 C 
BRANCH  25  26
ATOM     26  C   UNL     1       1.064  30.770  63.181  1.00  0.00    -0.000 C 
BRANCH  26  27
ATOM     27  C   UNL     1       1.230  29.622  62.169  1.00  0.00    -0.000 C 
BRANCH  27  28
ATOM     28  C   UNL     1       2.700  29.205  62.002  1.00  0.00    -0.000 C 
BRANCH  28  29
ATOM     29  C   UNL     1       3.613  29.845  63.062  1.00  0.00    -0.003 C 
ATOM     30  C   UNL     1       4.539  28.806  63.689  1.00  0.00     0.004 C 
ENDBRANCH  28  29
ENDBRANCH  27  28
ENDBRANCH  26  27
ENDBRANCH  25  26
ENDBRANCH  24  25
ENDBRANCH  23  24
ENDBRANCH  22  23
ENDBRANCH  21  22
ENDBRANCH  20  21
ENDBRANCH  19  20
ENDBRANCH  18  19
ENDBRANCH  17  18
ENDBRANCH   1  17
TORSDOF 26
ENDMDL
MODEL 5
REMARK VINA RESULT:    -4.461      2.910      4.231
REMARK INTER + INTRA:         -14.740
REMARK INTER:                 -12.540
REMARK INTRA:                  -2.201
REMARK UNBOUND:                -3.500
REMARK SMILES CCCCCCCCCCCCCCCCCCCCCCCCCCCC(=O)[O-]
REMARK SMILES IDX 15 1 16 2 17 3 18 4 19 5 20 6 21 7 22 8 23 9 24 10 25 11
REMARK SMILES IDX 26 12 27 13 28 14 29 15 30 16 14 17 13 18 12 19 11 20 10 21
REMARK SMILES IDX 9 22 8 23 7 24 6 25 5 26 4 27 3 28 2 29 1 30
REMARK H PARENT
REMARK Flexibility Score: inf
ROOT
ATOM      1  C   UNL     1      -3.239  29.417  57.046  1.00  0.00     0.000 C 
ENDROOT
BRANCH   1   2
ATOM      2  C   UNL     1      -4.704  28.979  56.879  1.00  0.00     0.000 C 
BRANCH   2   3
ATOM      3  C   UNL     1      -4.863  27.942  55.752  1.00  0.00     0.000 C 
BRANCH   3   4
ATOM      4  C   UNL     1      -3.637  27.028  55.601  1.00  0.00     0.000 C 
BRANCH   4   5
ATOM      5  C   UNL     1      -3.436  26.545  54.152  1.00  0.00     0.000 C 
BRANCH   5   6
ATOM      6  C   UNL     1      -1.982  26.141  53.858  1.00  0.00     0.000 C 
BRANCH   6   7
ATOM      7  C   UNL     1      -1.019  26.615  54.960  1.00  0.00     0.000 C 
BRANCH   7   8
ATOM      8  C   UNL     1       0.261  25.770  55.039  1.00  0.00     0.000 C 
BRANCH   8   9
ATOM      9  C   UNL     1       0.099  24.383  54.388  1.00  0.00     0.000 C 
BRANCH   9  10
ATOM     10  C   UNL     1       1.366  23.920  53.636  1.00  0.00     0.000 C 
BRANCH  10  11
ATOM     11  C   UNL     1       2.379  25.047  53.354  1.00  0.00     0.000 C 
BRANCH  11  12
ATOM     12  C   UNL     1       2.912  25.101  51.913  1.00  0.00     0.006 C 
BRANCH  12  13
ATOM     13  C   UNL     1       4.030  24.083  51.653  1.00  0.00     0.053 C 
BRANCH  13  14
ATOM     14  C   UNL     1       5.357  24.769  51.577  1.00  0.00     0.041 C 
ATOM     15  O   UNL     1       5.771  25.461  52.544  1.00  0.00    -0.550 OA
ATOM     16  O   UNL     1       6.148  24.630  50.441  1.00  0.00    -0.550 OA
ENDBRANCH  13  14
ENDBRANCH  12  13
ENDBRANCH  11  12
ENDBRANCH  10  11
ENDBRANCH   9  10
ENDBRANCH   8   9
ENDBRANCH   7   8
ENDBRANCH   6   7
ENDBRANCH   5   6
ENDBRANCH   4   5
ENDBRANCH   3   4
ENDBRANCH   2   3
ENDBRANCH   1   2
BRANCH   1  17
ATOM     17  C   UNL     1      -3.061  30.465  58.159  1.00  0.00     0.000 C 
BRANCH  17  18
ATOM     18  C   UNL     1      -4.368  30.746  58.925  1.00  0.00     0.000 C 
BRANCH  18  19
ATOM     19  C   UNL     1      -4.189  31.441  60.292  1.00  0.00     0.000 C 
BRANCH  19  20
ATOM     20  C   UNL     1      -2.907  32.286  60.441  1.00  0.00     0.000 C 
BRANCH  20  21
ATOM     21  C   UNL     1      -2.867  33.167  61.703  1.00  0.00     0.000 C 
BRANCH  21  22
ATOM     22  C   UNL     1      -2.861  32.328  62.992  1.00  0.00    -0.000 C 
BRANCH  22  23
ATOM     23  C   UNL     1      -1.787  32.787  63.995  1.00  0.00    -0.000 C 
BRANCH  23  24
ATOM     24  C   UNL     1      -0.420  32.085  63.848  1.00  0.00    -0.000 C 
BRANCH  24  25
ATOM     25  C   UNL     1      -0.462  30.542  63.834  1.00  0.00    -0.000 C 
BRANCH  25  26
ATOM     26  C   UNL     1       0.913  29.851  63.832  1.00  0.00    -0.000 C 
BRANCH  26  27
ATOM     27  C   UNL     1       1.250  29.186  62.486  1.00  0.00    -0.000 C 
BRANCH  27  28
ATOM     28  C   UNL     1       2.433  29.869  61.781  1.00  0.00    -0.000 C 
BRANCH  28  29
ATOM     29  C   UNL     1       2.014  31.159  61.056  1.00  0.00    -0.003 C 
ATOM     30  C   UNL     1       0.681  30.978  60.336  1.00  0.00     0.004 C 
ENDBRANCH  28  29
ENDBRANCH  27  28
ENDBRANCH  26  27
ENDBRANCH  25  26
ENDBRANCH  24  25
ENDBRANCH  23  24
ENDBRANCH  22  23
ENDBRANCH  21  22
ENDBRANCH  20  21
ENDBRANCH  19  20
ENDBRANCH  18  19
ENDBRANCH  17  18
ENDBRANCH   1  17
TORSDOF 26
ENDMDL
MODEL 6
REMARK VINA RESULT:    -4.257      2.826      7.674
REMARK INTER + INTRA:         -14.228
REMARK INTER:                 -10.945
REMARK INTRA:                  -3.282
REMARK UNBOUND:                -3.500
REMARK SMILES CCCCCCCCCCCCCCCCCCCCCCCCCCCC(=O)[O-]
REMARK SMILES IDX 15 1 16 2 17 3 18 4 19 5 20 6 21 7 22 8 23 9 24 10 25 11
REMARK SMILES IDX 26 12 27 13 28 14 29 15 30 16 14 17 13 18 12 19 11 20 10 21
REMARK SMILES IDX 9 22 8 23 7 24 6 25 5 26 4 27 3 28 2 29 1 30
REMARK H PARENT
REMARK Flexibility Score: inf
ROOT
ATOM      1  C   UNL     1      -4.489  30.054  58.632  1.00  0.00     0.000 C 
ENDROOT
BRANCH   1   2
ATOM      2  C   UNL     1      -4.667  31.209  59.632  1.00  0.00     0.000 C 
BRANCH   2   3
ATOM      3  C   UNL     1      -3.330  31.910  59.935  1.00  0.00     0.000 C 
BRANCH   3   4
ATOM      4  C   UNL     1      -3.289  32.542  61.335  1.00  0.00     0.000 C 
BRANCH   4   5
ATOM      5  C   UNL     1      -1.857  32.653  61.890  1.00  0.00     0.000 C 
BRANCH   5   6
ATOM      6  C   UNL     1      -1.020  33.718  61.162  1.00  0.00     0.000 C 
BRANCH   6   7
ATOM      7  C   UNL     1       0.479  33.589  61.481  1.00  0.00     0.000 C 
BRANCH   7   8
ATOM      8  C   UNL     1       1.376  34.205  60.397  1.00  0.00     0.000 C 
BRANCH   8   9
ATOM      9  C   UNL     1       2.840  34.357  60.855  1.00  0.00     0.000 C 
BRANCH   9  10
ATOM     10  C   UNL     1       3.138  33.612  62.174  1.00  0.00     0.000 C 
BRANCH  10  11
ATOM     11  C   UNL     1       4.104  32.421  62.021  1.00  0.00     0.000 C 
BRANCH  11  12
ATOM     12  C   UNL     1       4.724  31.909  63.331  1.00  0.00     0.006 C 
BRANCH  12  13
ATOM     13  C   UNL     1       3.696  31.237  64.253  1.00  0.00     0.053 C 
BRANCH  13  14
ATOM     14  C   UNL     1       4.383  30.523  65.373  1.00  0.00     0.041 C 
ATOM     15  O   UNL     1       3.846  30.460  66.510  1.00  0.00    -0.550 OA
ATOM     16  O   UNL     1       5.613  29.911  65.157  1.00  0.00    -0.550 OA
ENDBRANCH  13  14
ENDBRANCH  12  13
ENDBRANCH  11  12
ENDBRANCH  10  11
ENDBRANCH   9  10
ENDBRANCH   8   9
ENDBRANCH   7   8
ENDBRANCH   6   7
ENDBRANCH   5   6
ENDBRANCH   4   5
ENDBRANCH   3   4
ENDBRANCH   2   3
ENDBRANCH   1   2
BRANCH   1  17
ATOM     17  C   UNL     1      -3.150  30.129  57.878  1.00  0.00     0.000 C 
BRANCH  17  18
ATOM     18  C   UNL     1      -3.205  29.443  56.499  1.00  0.00     0.000 C 
BRANCH  18  19
ATOM     19  C   UNL     1      -4.399  28.487  56.290  1.00  0.00     0.000 C 
BRANCH  19  20
ATOM     20  C   UNL     1      -4.221  27.445  55.166  1.00  0.00     0.000 C 
BRANCH  20  21
ATOM     21  C   UNL     1      -3.206  26.332  55.482  1.00  0.00     0.000 C 
BRANCH  21  22
ATOM     22  C   UNL     1      -1.834  26.601  54.842  1.00  0.00    -0.000 C 
BRANCH  22  23
ATOM     23  C   UNL     1      -0.665  26.334  55.806  1.00  0.00    -0.000 C 
BRANCH  23  24
ATOM     24  C   UNL     1      -0.267  27.534  56.692  1.00  0.00    -0.000 C 
BRANCH  24  25
ATOM     25  C   UNL     1       1.148  27.471  57.304  1.00  0.00    -0.000 C 
BRANCH  25  26
ATOM     26  C   UNL     1       1.721  28.822  57.765  1.00  0.00    -0.000 C 
BRANCH  26  27
ATOM     27  C   UNL     1       0.641  29.904  57.945  1.00  0.00    -0.000 C 
BRANCH  27  28
ATOM     28  C   UNL     1       0.755  30.617  59.302  1.00  0.00    -0.000 C 
BRANCH  28  29
ATOM     29  C   UNL     1       1.605  29.825  60.309  1.00  0.00    -0.003 C 
ATOM     30  C   UNL     1       1.175  30.120  61.743  1.00  0.00     0.004 C 
ENDBRANCH  28  29
ENDBRANCH  27  28
ENDBRANCH  26  27
ENDBRANCH  25  26
ENDBRANCH  24  25
ENDBRANCH  23  24
ENDBRANCH  22  23
ENDBRANCH  21  22
ENDBRANCH  20  21
ENDBRANCH  19  20
ENDBRANCH  18  19
ENDBRANCH  17  18
ENDBRANCH   1  17
TORSDOF 26
ENDMDL
MODEL 7
REMARK VINA RESULT:    -4.229      3.921      6.321
REMARK INTER + INTRA:         -14.157
REMARK INTER:                 -10.152
REMARK INTRA:                  -4.005
REMARK UNBOUND:                -3.500
REMARK SMILES CCCCCCCCCCCCCCCCCCCCCCCCCCCC(=O)[O-]
REMARK SMILES IDX 15 1 16 2 17 3 18 4 19 5 20 6 21 7 22 8 23 9 24 10 25 11
REMARK SMILES IDX 26 12 27 13 28 14 29 15 30 16 14 17 13 18 12 19 11 20 10 21
REMARK SMILES IDX 9 22 8 23 7 24 6 25 5 26 4 27 3 28 2 29 1 30
REMARK H PARENT
REMARK Flexibility Score: inf
ROOT
ATOM      1  C   UNL     1      -3.640  26.733  55.067  1.00  0.00     0.000 C 
ENDROOT
BRANCH   1   2
ATOM      2  C   UNL     1      -3.514  26.578  53.542  1.00  0.00     0.000 C 
BRANCH   2   3
ATOM      3  C   UNL     1      -2.057  26.323  53.114  1.00  0.00     0.000 C 
BRANCH   3   4
ATOM      4  C   UNL     1      -1.180  25.793  54.259  1.00  0.00     0.000 C 
BRANCH   4   5
ATOM      5  C   UNL     1       0.274  25.539  53.818  1.00  0.00     0.000 C 
BRANCH   5   6
ATOM      6  C   UNL     1       0.939  24.394  54.600  1.00  0.00     0.000 C 
BRANCH   6   7
ATOM      7  C   UNL     1       1.457  23.286  53.668  1.00  0.00     0.000 C 
BRANCH   7   8
ATOM      8  C   UNL     1       2.954  22.996  53.858  1.00  0.00     0.000 C 
BRANCH   8   9
ATOM      9  C   UNL     1       3.451  23.347  55.273  1.00  0.00     0.000 C 
BRANCH   9  10
ATOM     10  C   UNL     1       4.586  24.395  55.269  1.00  0.00     0.000 C 
BRANCH  10  11
ATOM     11  C   UNL     1       5.196  24.658  53.879  1.00  0.00     0.000 C 
BRANCH  11  12
ATOM     12  C   UNL     1       4.777  25.983  53.220  1.00  0.00     0.006 C 
BRANCH  12  13
ATOM     13  C   UNL     1       5.084  26.023  51.717  1.00  0.00     0.053 C 
BRANCH  13  14
ATOM     14  C   UNL     1       3.820  26.139  50.926  1.00  0.00     0.041 C 
ATOM     15  O   UNL     1       3.625  27.137  50.183  1.00  0.00    -0.550 OA
ATOM     16  O   UNL     1       2.862  25.134  50.995  1.00  0.00    -0.550 OA
ENDBRANCH  13  14
ENDBRANCH  12  13
ENDBRANCH  11  12
ENDBRANCH  10  11
ENDBRANCH   9  10
ENDBRANCH   8   9
ENDBRANCH   7   8
ENDBRANCH   6   7
ENDBRANCH   5   6
ENDBRANCH   4   5
ENDBRANCH   3   4
ENDBRANCH   2   3
ENDBRANCH   1   2
BRANCH   1  17
ATOM     17  C   UNL     1      -4.898  27.518  55.478  1.00  0.00     0.000 C 
BRANCH  17  18
ATOM     18  C   UNL     1      -4.591  28.653  56.473  1.00  0.00     0.000 C 
BRANCH  18  19
ATOM     19  C   UNL     1      -3.262  29.399  56.227  1.00  0.00     0.000 C 
BRANCH  19  20
ATOM     20  C   UNL     1      -2.220  29.280  57.359  1.00  0.00     0.000 C 
BRANCH  20  21
ATOM     21  C   UNL     1      -0.765  29.147  56.874  1.00  0.00     0.000 C 
BRANCH  21  22
ATOM     22  C   UNL     1      -0.258  27.697  56.956  1.00  0.00    -0.000 C 
BRANCH  22  23
ATOM     23  C   UNL     1       1.120  27.586  57.630  1.00  0.00    -0.000 C 
BRANCH  23  24
ATOM     24  C   UNL     1       2.191  26.846  56.799  1.00  0.00    -0.000 C 
BRANCH  24  25
ATOM     25  C   UNL     1       3.238  27.746  56.109  1.00  0.00    -0.000 C 
BRANCH  25  26
ATOM     26  C   UNL     1       4.034  28.663  57.054  1.00  0.00    -0.000 C 
BRANCH  26  27
ATOM     27  C   UNL     1       4.068  30.127  56.583  1.00  0.00    -0.000 C 
BRANCH  27  28
ATOM     28  C   UNL     1       2.679  30.785  56.634  1.00  0.00    -0.000 C 
BRANCH  28  29
ATOM     29  C   UNL     1       2.508  31.695  57.861  1.00  0.00    -0.003 C 
ATOM     30  C   UNL     1       1.875  30.937  59.024  1.00  0.00     0.004 C 
ENDBRANCH  28  29
ENDBRANCH  27  28
ENDBRANCH  26  27
ENDBRANCH  25  26
ENDBRANCH  24  25
ENDBRANCH  23  24
ENDBRANCH  22  23
ENDBRANCH  21  22
ENDBRANCH  20  21
ENDBRANCH  19  20
ENDBRANCH  18  19
ENDBRANCH  17  18
ENDBRANCH   1  17
TORSDOF 26
ENDMDL
MODEL 8
REMARK VINA RESULT:    -4.113      3.487      6.763
REMARK INTER + INTRA:         -13.866
REMARK INTER:                 -11.278
REMARK INTRA:                  -2.587
REMARK UNBOUND:                -3.500
REMARK SMILES CCCCCCCCCCCCCCCCCCCCCCCCCCCC(=O)[O-]
REMARK SMILES IDX 15 1 16 2 17 3 18 4 19 5 20 6 21 7 22 8 23 9 24 10 25 11
REMARK SMILES IDX 26 12 27 13 28 14 29 15 30 16 14 17 13 18 12 19 11 20 10 21
REMARK SMILES IDX 9 22 8 23 7 24 6 25 5 26 4 27 3 28 2 29 1 30
REMARK H PARENT
REMARK Flexibility Score: inf
ROOT
ATOM      1  C   UNL     1      -0.396  32.055  64.068  1.00  0.00     0.000 C 
ENDROOT
BRANCH   1   2
ATOM      2  C   UNL     1      -1.485  33.141  64.095  1.00  0.00     0.000 C 
BRANCH   2   3
ATOM      3  C   UNL     1      -1.644  33.821  62.723  1.00  0.00     0.000 C 
BRANCH   3   4
ATOM      4  C   UNL     1      -3.082  33.754  62.183  1.00  0.00     0.000 C 
BRANCH   4   5
ATOM      5  C   UNL     1      -3.472  32.337  61.721  1.00  0.00     0.000 C 
BRANCH   5   6
ATOM      6  C   UNL     1      -3.166  32.094  60.233  1.00  0.00     0.000 C 
BRANCH   6   7
ATOM      7  C   UNL     1      -4.215  31.184  59.573  1.00  0.00     0.000 C 
BRANCH   7   8
ATOM      8  C   UNL     1      -4.092  31.144  58.042  1.00  0.00     0.000 C 
BRANCH   8   9
ATOM      9  C   UNL     1      -3.711  29.748  57.513  1.00  0.00     0.000 C 
BRANCH   9  10
ATOM     10  C   UNL     1      -4.917  28.971  56.942  1.00  0.00     0.000 C 
BRANCH  10  11
ATOM     11  C   UNL     1      -4.555  27.984  55.816  1.00  0.00     0.000 C 
BRANCH  11  12
ATOM     12  C   UNL     1      -3.051  27.729  55.628  1.00  0.00     0.006 C 
BRANCH  12  13
ATOM     13  C   UNL     1      -2.741  26.293  55.184  1.00  0.00     0.053 C 
BRANCH  13  14
ATOM     14  C   UNL     1      -1.295  26.153  54.829  1.00  0.00     0.041 C 
ATOM     15  O   UNL     1      -0.412  26.217  55.725  1.00  0.00    -0.550 OA
ATOM     16  O   UNL     1      -0.921  25.933  53.509  1.00  0.00    -0.550 OA
ENDBRANCH  13  14
ENDBRANCH  12  13
ENDBRANCH  11  12
ENDBRANCH  10  11
ENDBRANCH   9  10
ENDBRANCH   8   9
ENDBRANCH   7   8
ENDBRANCH   6   7
ENDBRANCH   5   6
ENDBRANCH   4   5
ENDBRANCH   3   4
ENDBRANCH   2   3
ENDBRANCH   1   2
BRANCH   1  17
ATOM     17  C   UNL     1       0.232  31.817  65.453  1.00  0.00     0.000 C 
BRANCH  17  18
ATOM     18  C   UNL     1       0.243  33.085  66.327  1.00  0.00     0.000 C 
BRANCH  18  19
ATOM     19  C   UNL     1      -0.380  32.920  67.730  1.00  0.00     0.000 C 
BRANCH  19  20
ATOM     20  C   UNL     1       0.195  33.846  68.821  1.00  0.00     0.000 C 
BRANCH  20  21
ATOM     21  C   UNL     1      -0.749  34.983  69.254  1.00  0.00     0.000 C 
BRANCH  21  22
ATOM     22  C   UNL     1      -2.054  34.992  68.442  1.00  0.00    -0.000 C 
BRANCH  22  23
ATOM     23  C   UNL     1      -2.286  36.321  67.702  1.00  0.00    -0.000 C 
BRANCH  23  24
ATOM     24  C   UNL     1      -1.201  36.683  66.665  1.00  0.00    -0.000 C 
BRANCH  24  25
ATOM     25  C   UNL     1      -1.620  36.544  65.186  1.00  0.00    -0.000 C 
BRANCH  25  26
ATOM     26  C   UNL     1      -2.226  37.811  64.557  1.00  0.00    -0.000 C 
BRANCH  26  27
ATOM     27  C   UNL     1      -3.516  37.532  63.767  1.00  0.00    -0.000 C 
BRANCH  27  28
ATOM     28  C   UNL     1      -4.348  36.402  64.394  1.00  0.00    -0.000 C 
BRANCH  28  29
ATOM     29  C   UNL     1      -5.718  36.892  64.892  1.00  0.00    -0.003 C 
ATOM     30  C   UNL     1      -5.822  38.412  64.807  1.00  0.00     0.004 C 
ENDBRANCH  28  29
ENDBRANCH  27  28
ENDBRANCH  26  27
ENDBRANCH  25  26
ENDBRANCH  24  25
ENDBRANCH  23  24
ENDBRANCH  22  23
ENDBRANCH  21  22
ENDBRANCH  20  21
ENDBRANCH  19  20
ENDBRANCH  18  19
ENDBRANCH  17  18
ENDBRANCH   1  17
TORSDOF 26
ENDMDL
MODEL 9
REMARK VINA RESULT:    -4.064      2.881      6.625
REMARK INTER + INTRA:         -13.740
REMARK INTER:                 -10.450
REMARK INTRA:                  -3.290
REMARK UNBOUND:                -3.500
REMARK SMILES CCCCCCCCCCCCCCCCCCCCCCCCCCCC(=O)[O-]
REMARK SMILES IDX 15 1 16 2 17 3 18 4 19 5 20 6 21 7 22 8 23 9 24 10 25 11
REMARK SMILES IDX 26 12 27 13 28 14 29 15 30 16 14 17 13 18 12 19 11 20 10 21
REMARK SMILES IDX 9 22 8 23 7 24 6 25 5 26 4 27 3 28 2 29 1 30
REMARK H PARENT
REMARK Flexibility Score: inf
ROOT
ATOM      1  C   UNL     1       0.814  30.209  63.789  1.00  0.00     0.000 C 
ENDROOT
BRANCH   1   2
ATOM      2  C   UNL     1      -0.584  30.848  63.755  1.00  0.00     0.000 C 
BRANCH   2   3
ATOM      3  C   UNL     1      -0.557  32.304  64.255  1.00  0.00     0.000 C 
BRANCH   3   4
ATOM      4  C   UNL     1      -0.761  33.329  63.127  1.00  0.00     0.000 C 
BRANCH   4   5
ATOM      5  C   UNL     1      -1.433  32.713  61.886  1.00  0.00     0.000 C 
BRANCH   5   6
ATOM      6  C   UNL     1      -2.911  33.114  61.752  1.00  0.00     0.000 C 
BRANCH   6   7
ATOM      7  C   UNL     1      -3.762  31.983  61.151  1.00  0.00     0.000 C 
BRANCH   7   8
ATOM      8  C   UNL     1      -3.561  31.823  59.636  1.00  0.00     0.000 C 
BRANCH   8   9
ATOM      9  C   UNL     1      -4.439  30.709  59.035  1.00  0.00     0.000 C 
BRANCH   9  10
ATOM     10  C   UNL     1      -3.837  30.095  57.753  1.00  0.00     0.000 C 
BRANCH  10  11
ATOM     11  C   UNL     1      -4.774  29.113  57.024  1.00  0.00     0.000 C 
BRANCH  11  12
ATOM     12  C   UNL     1      -4.113  28.278  55.916  1.00  0.00     0.006 C 
BRANCH  12  13
ATOM     13  C   UNL     1      -2.658  27.910  56.235  1.00  0.00     0.053 C 
BRANCH  13  14
ATOM     14  C   UNL     1      -2.235  26.709  55.451  1.00  0.00     0.041 C 
ATOM     15  O   UNL     1      -3.084  26.044  54.801  1.00  0.00    -0.550 OA
ATOM     16  O   UNL     1      -0.897  26.331  55.424  1.00  0.00    -0.550 OA
ENDBRANCH  13  14
ENDBRANCH  12  13
ENDBRANCH  11  12
ENDBRANCH  10  11
ENDBRANCH   9  10
ENDBRANCH   8   9
ENDBRANCH   7   8
ENDBRANCH   6   7
ENDBRANCH   5   6
ENDBRANCH   4   5
ENDBRANCH   3   4
ENDBRANCH   2   3
ENDBRANCH   1   2
BRANCH   1  17
ATOM     17  C   UNL     1       1.217  29.747  65.200  1.00  0.00     0.000 C 
BRANCH  17  18
ATOM     18  C   UNL     1       2.497  30.437  65.709  1.00  0.00     0.000 C 
BRANCH  18  19
ATOM     19  C   UNL     1       3.420  30.999  64.608  1.00  0.00     0.000 C 
BRANCH  19  20
ATOM     20  C   UNL     1       4.360  32.139  65.052  1.00  0.00     0.000 C 
BRANCH  20  21
ATOM     21  C   UNL     1       4.264  33.415  64.196  1.00  0.00     0.000 C 
BRANCH  21  22
ATOM     22  C   UNL     1       2.871  33.586  63.568  1.00  0.00    -0.000 C 
BRANCH  22  23
ATOM     23  C   UNL     1       2.923  33.745  62.038  1.00  0.00    -0.000 C 
BRANCH  23  24
ATOM     24  C   UNL     1       2.328  32.563  61.243  1.00  0.00    -0.000 C 
BRANCH  24  25
ATOM     25  C   UNL     1       2.746  32.480  59.759  1.00  0.00    -0.000 C 
BRANCH  25  26
ATOM     26  C   UNL     1       3.680  31.309  59.409  1.00  0.00    -0.000 C 
BRANCH  26  27
ATOM     27  C   UNL     1       5.108  31.763  59.058  1.00  0.00    -0.000 C 
BRANCH  27  28
ATOM     28  C   UNL     1       5.766  32.546  60.206  1.00  0.00    -0.000 C 
BRANCH  28  29
ATOM     29  C   UNL     1       6.772  31.692  60.995  1.00  0.00    -0.003 C 
ATOM     30  C   UNL     1       6.062  30.812  62.020  1.00  0.00     0.004 C 
ENDBRANCH  28  29
ENDBRANCH  27  28
ENDBRANCH  26  27
ENDBRANCH  25  26
ENDBRANCH  24  25
ENDBRANCH  23  24
ENDBRANCH  22  23
ENDBRANCH  21  22
ENDBRANCH  20  21
ENDBRANCH  19  20
ENDBRANCH  18  19
ENDBRANCH  17  18
ENDBRANCH   1  17
TORSDOF 26
ENDMDL
