MODEL 1
REMARK VINA RESULT:    -1.513      0.000      0.000
REMARK INTER + INTRA:          -3.621
REMARK INTER:                  -3.458
REMARK INTRA:                  -0.163
REMARK UNBOUND:                -0.163
REMARK SMILES CCCCCCCCCCCCCCCCCCCCCCCC(=O)[O-]
REMARK SMILES IDX 13 1 14 2 15 3 16 4 17 5 18 6 19 7 20 8 21 9 22 10 23 11
REMARK SMILES IDX 24 12 25 13 26 14 12 15 11 16 10 17 9 18 8 19 7 20 6 21 5 22
REMARK SMILES IDX 4 23 3 24 2 25 1 26
REMARK H PARENT
REMARK Flexibility Score: inf
ROOT
ATOM      1  C   UNL     1      20.245   5.270  -9.613  1.00  0.00     0.000 C 
ENDROOT
BRANCH   1   2
ATOM      2  C   UNL     1      21.727   5.670  -9.524  1.00  0.00     0.000 C 
BRANCH   2   3
ATOM      3  C   UNL     1      21.996   7.057 -10.134  1.00  0.00     0.000 C 
BRANCH   3   4
ATOM      4  C   UNL     1      22.595   6.977 -11.548  1.00  0.00     0.000 C 
BRANCH   4   5
ATOM      5  C   UNL     1      21.537   7.124 -12.652  1.00  0.00     0.000 C 
BRANCH   5   6
ATOM      6  C   UNL     1      21.036   5.748 -13.118  1.00  0.00     0.000 C 
BRANCH   6   7
ATOM      7  C   UNL     1      22.119   4.661 -13.025  1.00  0.00     0.000 C 
BRANCH   7   8
ATOM      8  C   UNL     1      23.540   5.245 -12.995  1.00  0.00     0.000 C 
BRANCH   8   9
ATOM      9  C   UNL     1      24.364   4.753 -14.194  1.00  0.00     0.000 C 
BRANCH   9  10
ATOM     10  C   UNL     1      25.873   4.673 -13.897  1.00  0.00     0.006 C 
BRANCH  10  11
ATOM     11  C   UNL     1      26.767   4.955 -15.116  1.00  0.00     0.053 C 
BRANCH  11  12
ATOM     12  C   UNL     1      28.095   4.263 -15.030  1.00  0.00     0.041 C 
ATOM     13  O   UNL     1      28.881   4.276 -16.014  1.00  0.00    -0.550 OA
ATOM     14  O   UNL     1      28.451   3.574 -13.877  1.00  0.00    -0.550 OA
ENDBRANCH  11  12
ENDBRANCH  10  11
ENDBRANCH   9  10
ENDBRANCH   8   9
ENDBRANCH   7   8
ENDBRANCH   6   7
ENDBRANCH   5   6
ENDBRANCH   4   5
ENDBRANCH   3   4
ENDBRANCH   2   3
ENDBRANCH   1   2
BRANCH   1  15
ATOM     15  C   UNL     1      19.306   6.363  -9.081  1.00  0.00     0.000 C 
BRANCH  15  16
ATOM     16  C   UNL     1      18.531   7.025 -10.226  1.00  0.00     0.000 C 
BRANCH  16  17
ATOM     17  C   UNL     1      18.153   5.998 -11.304  1.00  0.00     0.000 C 
BRANCH  17  18
ATOM     18  C   UNL     1      16.847   5.248 -10.968  1.00  0.00    -0.000 C 
BRANCH  18  19
ATOM     19  C   UNL     1      17.057   3.772 -10.578  1.00  0.00    -0.000 C 
BRANCH  19  20
ATOM     20  C   UNL     1      17.553   2.859 -11.714  1.00  0.00    -0.000 C 
BRANCH  20  21
ATOM     21  C   UNL     1      18.481   3.588 -12.702  1.00  0.00    -0.000 C 
BRANCH  21  22
ATOM     22  C   UNL     1      19.278   2.621 -13.596  1.00  0.00    -0.000 C 
BRANCH  22  23
ATOM     23  C   UNL     1      18.601   1.262 -13.856  1.00  0.00    -0.000 C 
BRANCH  23  24
ATOM     24  C   UNL     1      18.351   0.993 -15.347  1.00  0.00    -0.000 C 
BRANCH  24  25
ATOM     25  C   UNL     1      17.353  -0.156 -15.537  1.00  0.00    -0.003 C 
ATOM     26  C   UNL     1      16.865  -0.231 -16.980  1.00  0.00     0.004 C 
ENDBRANCH  24  25
ENDBRANCH  23  24
ENDBRANCH  22  23
ENDBRANCH  21  22
ENDBRANCH  20  21
ENDBRANCH  19  20
ENDBRANCH  18  19
ENDBRANCH  17  18
ENDBRANCH  16  17
ENDBRANCH  15  16
ENDBRANCH   1  15
TORSDOF 22
ENDMDL
MODEL 2
REMARK VINA RESULT:     0.575      5.891      8.194
REMARK INTER + INTRA:           1.152
REMARK INTER:                   2.334
REMARK INTRA:                  -1.182
REMARK UNBOUND:                -0.163
REMARK SMILES CCCCCCCCCCCCCCCCCCCCCCCC(=O)[O-]
REMARK SMILES IDX 13 1 14 2 15 3 16 4 17 5 18 6 19 7 20 8 21 9 22 10 23 11
REMARK SMILES IDX 24 12 25 13 26 14 12 15 11 16 10 17 9 18 8 19 7 20 6 21 5 22
REMARK SMILES IDX 4 23 3 24 2 25 1 26
REMARK H PARENT
REMARK Flexibility Score: inf
ROOT
ATOM      1  C   UNL     1      18.505   1.091 -15.206  1.00  0.00     0.000 C 
ENDROOT
BRANCH   1   2
ATOM      2  C   UNL     1      19.262   0.683 -16.480  1.00  0.00     0.000 C 
BRANCH   2   3
ATOM      3  C   UNL     1      20.726   1.154 -16.468  1.00  0.00     0.000 C 
BRANCH   3   4
ATOM      4  C   UNL     1      21.520   0.658 -17.687  1.00  0.00     0.000 C 
BRANCH   4   5
ATOM      5  C   UNL     1      22.836  -0.033 -17.300  1.00  0.00     0.000 C 
BRANCH   5   6
ATOM      6  C   UNL     1      23.671  -0.361 -18.548  1.00  0.00     0.000 C 
BRANCH   6   7
ATOM      7  C   UNL     1      23.935  -1.867 -18.706  1.00  0.00     0.000 C 
BRANCH   7   8
ATOM      8  C   UNL     1      24.955  -2.397 -17.687  1.00  0.00     0.000 C 
BRANCH   8   9
ATOM      9  C   UNL     1      25.491  -3.774 -18.106  1.00  0.00     0.000 C 
BRANCH   9  10
ATOM     10  C   UNL     1      24.919  -4.259 -19.451  1.00  0.00     0.006 C 
BRANCH  10  11
ATOM     11  C   UNL     1      25.870  -4.059 -20.644  1.00  0.00     0.053 C 
BRANCH  11  12
ATOM     12  C   UNL     1      26.330  -5.356 -21.238  1.00  0.00     0.041 C 
ATOM     13  O   UNL     1      27.130  -5.359 -22.210  1.00  0.00    -0.550 OA
ATOM     14  O   UNL     1      25.850  -6.562 -20.742  1.00  0.00    -0.550 OA
ENDBRANCH  11  12
ENDBRANCH  10  11
ENDBRANCH   9  10
ENDBRANCH   8   9
ENDBRANCH   7   8
ENDBRANCH   6   7
ENDBRANCH   5   6
ENDBRANCH   4   5
ENDBRANCH   3   4
ENDBRANCH   2   3
ENDBRANCH   1   2
BRANCH   1  15
ATOM     15  C   UNL     1      19.209   2.218 -14.437  1.00  0.00     0.000 C 
BRANCH  15  16
ATOM     16  C   UNL     1      18.657   2.339 -13.012  1.00  0.00     0.000 C 
BRANCH  16  17
ATOM     17  C   UNL     1      18.817   3.770 -12.477  1.00  0.00     0.000 C 
BRANCH  17  18
ATOM     18  C   UNL     1      17.931   4.037 -11.242  1.00  0.00    -0.000 C 
BRANCH  18  19
ATOM     19  C   UNL     1      17.814   5.527 -10.868  1.00  0.00    -0.000 C 
BRANCH  19  20
ATOM     20  C   UNL     1      19.050   6.384 -11.196  1.00  0.00    -0.000 C 
BRANCH  20  21
ATOM     21  C   UNL     1      20.069   6.426 -10.045  1.00  0.00    -0.000 C 
BRANCH  21  22
ATOM     22  C   UNL     1      21.466   6.886 -10.501  1.00  0.00    -0.000 C 
BRANCH  22  23
ATOM     23  C   UNL     1      21.765   6.684 -11.998  1.00  0.00    -0.000 C 
BRANCH  23  24
ATOM     24  C   UNL     1      22.007   5.213 -12.368  1.00  0.00    -0.000 C 
BRANCH  24  25
ATOM     25  C   UNL     1      23.319   5.051 -13.144  1.00  0.00    -0.003 C 
ATOM     26  C   UNL     1      23.946   6.406 -13.459  1.00  0.00     0.004 C 
ENDBRANCH  24  25
ENDBRANCH  23  24
ENDBRANCH  22  23
ENDBRANCH  21  22
ENDBRANCH  20  21
ENDBRANCH  19  20
ENDBRANCH  18  19
ENDBRANCH  17  18
ENDBRANCH  16  17
ENDBRANCH  15  16
ENDBRANCH   1  15
TORSDOF 22
ENDMDL
MODEL 3
REMARK VINA RESULT:     0.600      5.586      7.985
REMARK INTER + INTRA:           1.208
REMARK INTER:                   2.621
REMARK INTRA:                  -1.413
REMARK UNBOUND:                -0.163
REMARK SMILES CCCCCCCCCCCCCCCCCCCCCCCC(=O)[O-]
REMARK SMILES IDX 13 1 14 2 15 3 16 4 17 5 18 6 19 7 20 8 21 9 22 10 23 11
REMARK SMILES IDX 24 12 25 13 26 14 12 15 11 16 10 17 9 18 8 19 7 20 6 21 5 22
REMARK SMILES IDX 4 23 3 24 2 25 1 26
REMARK H PARENT
REMARK Flexibility Score: inf
ROOT
ATOM      1  C   UNL     1      18.949   1.559 -14.970  1.00  0.00     0.000 C 
ENDROOT
BRANCH   1   2
ATOM      2  C   UNL     1      19.492   0.817 -16.202  1.00  0.00     0.000 C 
BRANCH   2   3
ATOM      3  C   UNL     1      20.935   1.226 -16.544  1.00  0.00     0.000 C 
BRANCH   3   4
ATOM      4  C   UNL     1      21.519   0.419 -17.714  1.00  0.00     0.000 C 
BRANCH   4   5
ATOM      5  C   UNL     1      22.980   0.006 -17.481  1.00  0.00     0.000 C 
BRANCH   5   6
ATOM      6  C   UNL     1      23.698  -0.247 -18.817  1.00  0.00     0.000 C 
BRANCH   6   7
ATOM      7  C   UNL     1      24.136  -1.710 -18.987  1.00  0.00     0.000 C 
BRANCH   7   8
ATOM      8  C   UNL     1      24.775  -2.287 -17.714  1.00  0.00     0.000 C 
BRANCH   8   9
ATOM      9  C   UNL     1      24.916  -3.813 -17.811  1.00  0.00     0.000 C 
BRANCH   9  10
ATOM     10  C   UNL     1      24.352  -4.389 -19.122  1.00  0.00     0.006 C 
BRANCH  10  11
ATOM     11  C   UNL     1      25.316  -5.339 -19.854  1.00  0.00     0.053 C 
BRANCH  11  12
ATOM     12  C   UNL     1      26.130  -4.640 -20.902  1.00  0.00     0.041 C 
ATOM     13  O   UNL     1      26.574  -5.282 -21.890  1.00  0.00    -0.550 OA
ATOM     14  O   UNL     1      26.428  -3.290 -20.770  1.00  0.00    -0.550 OA
ENDBRANCH  11  12
ENDBRANCH  10  11
ENDBRANCH   9  10
ENDBRANCH   8   9
ENDBRANCH   7   8
ENDBRANCH   6   7
ENDBRANCH   5   6
ENDBRANCH   4   5
ENDBRANCH   3   4
ENDBRANCH   2   3
ENDBRANCH   1   2
BRANCH   1  15
ATOM     15  C   UNL     1      19.823   2.759 -14.572  1.00  0.00     0.000 C 
BRANCH  15  16
ATOM     16  C   UNL     1      19.301   3.416 -13.290  1.00  0.00     0.000 C 
BRANCH  16  17
ATOM     17  C   UNL     1      19.885   4.827 -13.115  1.00  0.00     0.000 C 
BRANCH  17  18
ATOM     18  C   UNL     1      21.418   4.853 -13.291  1.00  0.00    -0.000 C 
BRANCH  18  19
ATOM     19  C   UNL     1      22.116   5.989 -12.517  1.00  0.00    -0.000 C 
BRANCH  19  20
ATOM     20  C   UNL     1      22.020   5.892 -10.985  1.00  0.00    -0.000 C 
BRANCH  20  21
ATOM     21  C   UNL     1      20.884   6.752 -10.403  1.00  0.00    -0.000 C 
BRANCH  21  22
ATOM     22  C   UNL     1      20.070   6.015  -9.324  1.00  0.00    -0.000 C 
BRANCH  22  23
ATOM     23  C   UNL     1      18.967   5.083  -9.860  1.00  0.00    -0.000 C 
BRANCH  23  24
ATOM     24  C   UNL     1      17.899   5.826 -10.675  1.00  0.00    -0.000 C 
BRANCH  24  25
ATOM     25  C   UNL     1      16.670   4.938 -10.908  1.00  0.00    -0.003 C 
ATOM     26  C   UNL     1      17.001   3.466 -10.682  1.00  0.00     0.004 C 
ENDBRANCH  24  25
ENDBRANCH  23  24
ENDBRANCH  22  23
ENDBRANCH  21  22
ENDBRANCH  20  21
ENDBRANCH  19  20
ENDBRANCH  18  19
ENDBRANCH  17  18
ENDBRANCH  16  17
ENDBRANCH  15  16
ENDBRANCH   1  15
TORSDOF 22
ENDMDL
MODEL 4
REMARK VINA RESULT:     0.615      1.144      2.432
REMARK INTER + INTRA:           1.242
REMARK INTER:                   1.030
REMARK INTRA:                   0.212
REMARK UNBOUND:                -0.163
REMARK SMILES CCCCCCCCCCCCCCCCCCCCCCCC(=O)[O-]
REMARK SMILES IDX 13 1 14 2 15 3 16 4 17 5 18 6 19 7 20 8 21 9 22 10 23 11
REMARK SMILES IDX 24 12 25 13 26 14 12 15 11 16 10 17 9 18 8 19 7 20 6 21 5 22
REMARK SMILES IDX 4 23 3 24 2 25 1 26
REMARK H PARENT
REMARK Flexibility Score: inf
ROOT
ATOM      1  C   UNL     1      21.732   5.314 -10.479  1.00  0.00     0.000 C 
ENDROOT
BRANCH   1   2
ATOM      2  C   UNL     1      21.586   5.864 -11.907  1.00  0.00     0.000 C 
BRANCH   2   3
ATOM      3  C   UNL     1      22.525   7.053 -12.175  1.00  0.00     0.000 C 
BRANCH   3   4
ATOM      4  C   UNL     1      23.635   6.717 -13.184  1.00  0.00     0.000 C 
BRANCH   4   5
ATOM      5  C   UNL     1      23.728   5.213 -13.487  1.00  0.00     0.000 C 
BRANCH   5   6
ATOM      6  C   UNL     1      25.091   4.862 -14.105  1.00  0.00     0.000 C 
BRANCH   6   7
ATOM      7  C   UNL     1      25.693   6.023 -14.912  1.00  0.00     0.000 C 
BRANCH   7   8
ATOM      8  C   UNL     1      27.195   5.842 -15.177  1.00  0.00     0.000 C 
BRANCH   8   9
ATOM      9  C   UNL     1      27.586   4.358 -15.146  1.00  0.00     0.000 C 
BRANCH   9  10
ATOM     10  C   UNL     1      28.833   4.044 -15.993  1.00  0.00     0.006 C 
BRANCH  10  11
ATOM     11  C   UNL     1      29.783   3.017 -15.353  1.00  0.00     0.053 C 
BRANCH  11  12
ATOM     12  C   UNL     1      29.336   2.593 -13.985  1.00  0.00     0.041 C 
ATOM     13  O   UNL     1      30.002   1.742 -13.338  1.00  0.00    -0.550 OA
ATOM     14  O   UNL     1      28.167   3.108 -13.440  1.00  0.00    -0.550 OA
ENDBRANCH  11  12
ENDBRANCH  10  11
ENDBRANCH   9  10
ENDBRANCH   8   9
ENDBRANCH   7   8
ENDBRANCH   6   7
ENDBRANCH   5   6
ENDBRANCH   4   5
ENDBRANCH   3   4
ENDBRANCH   2   3
ENDBRANCH   1   2
BRANCH   1  15
ATOM     15  C   UNL     1      21.251   6.309  -9.411  1.00  0.00     0.000 C 
BRANCH  15  16
ATOM     16  C   UNL     1      19.910   6.934  -9.809  1.00  0.00     0.000 C 
BRANCH  16  17
ATOM     17  C   UNL     1      18.763   5.922  -9.660  1.00  0.00     0.000 C 
BRANCH  17  18
ATOM     18  C   UNL     1      17.824   5.915 -10.885  1.00  0.00    -0.000 C 
BRANCH  18  19
ATOM     19  C   UNL     1      17.089   4.578 -11.101  1.00  0.00    -0.000 C 
BRANCH  19  20
ATOM     20  C   UNL     1      17.970   3.421 -11.605  1.00  0.00    -0.000 C 
BRANCH  20  21
ATOM     21  C   UNL     1      19.132   3.899 -12.492  1.00  0.00    -0.000 C 
BRANCH  21  22
ATOM     22  C   UNL     1      19.318   3.034 -13.752  1.00  0.00    -0.000 C 
BRANCH  22  23
ATOM     23  C   UNL     1      18.515   1.719 -13.766  1.00  0.00    -0.000 C 
BRANCH  23  24
ATOM     24  C   UNL     1      18.560   1.004 -15.123  1.00  0.00    -0.000 C 
BRANCH  24  25
ATOM     25  C   UNL     1      17.255   0.244 -15.387  1.00  0.00    -0.003 C 
ATOM     26  C   UNL     1      17.438  -0.810 -16.475  1.00  0.00     0.004 C 
ENDBRANCH  24  25
ENDBRANCH  23  24
ENDBRANCH  22  23
ENDBRANCH  21  22
ENDBRANCH  20  21
ENDBRANCH  19  20
ENDBRANCH  18  19
ENDBRANCH  17  18
ENDBRANCH  16  17
ENDBRANCH  15  16
ENDBRANCH   1  15
TORSDOF 22
ENDMDL
MODEL 5
REMARK VINA RESULT:     0.700      4.900      7.254
REMARK INTER + INTRA:           1.438
REMARK INTER:                   2.362
REMARK INTRA:                  -0.924
REMARK UNBOUND:                -0.163
REMARK SMILES CCCCCCCCCCCCCCCCCCCCCCCC(=O)[O-]
REMARK SMILES IDX 13 1 14 2 15 3 16 4 17 5 18 6 19 7 20 8 21 9 22 10 23 11
REMARK SMILES IDX 24 12 25 13 26 14 12 15 11 16 10 17 9 18 8 19 7 20 6 21 5 22
REMARK SMILES IDX 4 23 3 24 2 25 1 26
REMARK H PARENT
REMARK Flexibility Score: inf
ROOT
ATOM      1  C   UNL     1      18.989   2.610 -13.244  1.00  0.00     0.000 C 
ENDROOT
BRANCH   1   2
ATOM      2  C   UNL     1      19.335   2.400 -14.727  1.00  0.00     0.000 C 
BRANCH   2   3
ATOM      3  C   UNL     1      18.719   1.109 -15.294  1.00  0.00     0.000 C 
BRANCH   3   4
ATOM      4  C   UNL     1      19.466   0.590 -16.534  1.00  0.00     0.000 C 
BRANCH   4   5
ATOM      5  C   UNL     1      20.922   1.076 -16.598  1.00  0.00     0.000 C 
BRANCH   5   6
ATOM      6  C   UNL     1      21.628   0.529 -17.849  1.00  0.00     0.000 C 
BRANCH   6   7
ATOM      7  C   UNL     1      23.012  -0.062 -17.538  1.00  0.00     0.000 C 
BRANCH   7   8
ATOM      8  C   UNL     1      23.852  -0.296 -18.803  1.00  0.00     0.000 C 
BRANCH   8   9
ATOM      9  C   UNL     1      24.158  -1.788 -18.994  1.00  0.00     0.000 C 
BRANCH   9  10
ATOM     10  C   UNL     1      24.757  -2.447 -17.739  1.00  0.00     0.006 C 
BRANCH  10  11
ATOM     11  C   UNL     1      25.444  -3.797 -18.007  1.00  0.00     0.053 C 
BRANCH  11  12
ATOM     12  C   UNL     1      24.857  -4.519 -19.183  1.00  0.00     0.041 C 
ATOM     13  O   UNL     1      23.683  -4.972 -19.126  1.00  0.00    -0.550 OA
ATOM     14  O   UNL     1      25.616  -4.724 -20.328  1.00  0.00    -0.550 OA
ENDBRANCH  11  12
ENDBRANCH  10  11
ENDBRANCH   9  10
ENDBRANCH   8   9
ENDBRANCH   7   8
ENDBRANCH   6   7
ENDBRANCH   5   6
ENDBRANCH   4   5
ENDBRANCH   3   4
ENDBRANCH   2   3
ENDBRANCH   1   2
BRANCH   1  15
ATOM     15  C   UNL     1      19.624   3.883 -12.665  1.00  0.00     0.000 C 
BRANCH  15  16
ATOM     16  C   UNL     1      20.601   4.512 -13.664  1.00  0.00     0.000 C 
BRANCH  16  17
ATOM     17  C   UNL     1      21.830   5.091 -12.945  1.00  0.00     0.000 C 
BRANCH  17  18
ATOM     18  C   UNL     1      21.665   6.590 -12.617  1.00  0.00    -0.000 C 
BRANCH  18  19
ATOM     19  C   UNL     1      21.829   6.925 -11.122  1.00  0.00    -0.000 C 
BRANCH  19  20
ATOM     20  C   UNL     1      21.918   5.707 -10.185  1.00  0.00    -0.000 C 
BRANCH  20  21
ATOM     21  C   UNL     1      20.974   5.816  -8.975  1.00  0.00    -0.000 C 
BRANCH  21  22
ATOM     22  C   UNL     1      19.533   6.184  -9.374  1.00  0.00    -0.000 C 
BRANCH  22  23
ATOM     23  C   UNL     1      18.862   5.215 -10.365  1.00  0.00    -0.000 C 
BRANCH  23  24
ATOM     24  C   UNL     1      17.571   5.780 -10.974  1.00  0.00    -0.000 C 
BRANCH  24  25
ATOM     25  C   UNL     1      16.355   4.943 -10.558  1.00  0.00    -0.003 C 
ATOM     26  C   UNL     1      16.616   3.453 -10.754  1.00  0.00     0.004 C 
ENDBRANCH  24  25
ENDBRANCH  23  24
ENDBRANCH  22  23
ENDBRANCH  21  22
ENDBRANCH  20  21
ENDBRANCH  19  20
ENDBRANCH  18  19
ENDBRANCH  17  18
ENDBRANCH  16  17
ENDBRANCH  15  16
ENDBRANCH   1  15
TORSDOF 22
ENDMDL
MODEL 6
REMARK VINA RESULT:     0.793      5.993      8.489
REMARK INTER + INTRA:           1.650
REMARK INTER:                   3.306
REMARK INTRA:                  -1.656
REMARK UNBOUND:                -0.163
REMARK SMILES CCCCCCCCCCCCCCCCCCCCCCCC(=O)[O-]
REMARK SMILES IDX 13 1 14 2 15 3 16 4 17 5 18 6 19 7 20 8 21 9 22 10 23 11
REMARK SMILES IDX 24 12 25 13 26 14 12 15 11 16 10 17 9 18 8 19 7 20 6 21 5 22
REMARK SMILES IDX 4 23 3 24 2 25 1 26
REMARK H PARENT
REMARK Flexibility Score: inf
ROOT
ATOM      1  C   UNL     1      19.667   2.312 -14.030  1.00  0.00     0.000 C 
ENDROOT
BRANCH   1   2
ATOM      2  C   UNL     1      19.437   3.832 -14.005  1.00  0.00     0.000 C 
BRANCH   2   3
ATOM      3  C   UNL     1      20.604   4.590 -13.348  1.00  0.00     0.000 C 
BRANCH   3   4
ATOM      4  C   UNL     1      20.362   6.106 -13.277  1.00  0.00     0.000 C 
BRANCH   4   5
ATOM      5  C   UNL     1      21.427   6.841 -12.449  1.00  0.00     0.000 C 
BRANCH   5   6
ATOM      6  C   UNL     1      21.978   5.935 -11.337  1.00  0.00     0.000 C 
BRANCH   6   7
ATOM      7  C   UNL     1      21.673   6.471  -9.930  1.00  0.00     0.000 C 
BRANCH   7   8
ATOM      8  C   UNL     1      20.338   5.951  -9.376  1.00  0.00     0.000 C 
BRANCH   8   9
ATOM      9  C   UNL     1      19.178   6.877  -9.770  1.00  0.00     0.000 C 
BRANCH   9  10
ATOM     10  C   UNL     1      18.128   6.184 -10.657  1.00  0.00     0.006 C 
BRANCH  10  11
ATOM     11  C   UNL     1      18.291   4.656 -10.742  1.00  0.00     0.053 C 
BRANCH  11  12
ATOM     12  C   UNL     1      16.975   3.938 -10.782  1.00  0.00     0.041 C 
ATOM     13  O   UNL     1      16.898   2.785 -11.284  1.00  0.00    -0.550 OA
ATOM     14  O   UNL     1      15.827   4.553 -10.300  1.00  0.00    -0.550 OA
ENDBRANCH  11  12
ENDBRANCH  10  11
ENDBRANCH   9  10
ENDBRANCH   8   9
ENDBRANCH   7   8
ENDBRANCH   6   7
ENDBRANCH   5   6
ENDBRANCH   4   5
ENDBRANCH   3   4
ENDBRANCH   2   3
ENDBRANCH   1   2
BRANCH   1  15
ATOM     15  C   UNL     1      18.617   1.571 -14.871  1.00  0.00     0.000 C 
BRANCH  15  16
ATOM     16  C   UNL     1      19.281   0.775 -16.000  1.00  0.00     0.000 C 
BRANCH  16  17
ATOM     17  C   UNL     1      20.605   1.426 -16.431  1.00  0.00     0.000 C 
BRANCH  17  18
ATOM     18  C   UNL     1      21.312   0.633 -17.550  1.00  0.00    -0.000 C 
BRANCH  18  19
ATOM     19  C   UNL     1      22.722   0.140 -17.171  1.00  0.00    -0.000 C 
BRANCH  19  20
ATOM     20  C   UNL     1      23.603  -0.296 -18.355  1.00  0.00    -0.000 C 
BRANCH  20  21
ATOM     21  C   UNL     1      24.529  -1.474 -18.006  1.00  0.00    -0.000 C 
BRANCH  21  22
ATOM     22  C   UNL     1      24.450  -2.619 -19.033  1.00  0.00    -0.000 C 
BRANCH  22  23
ATOM     23  C   UNL     1      24.602  -4.035 -18.446  1.00  0.00    -0.000 C 
BRANCH  23  24
ATOM     24  C   UNL     1      24.548  -5.136 -19.514  1.00  0.00    -0.000 C 
BRANCH  24  25
ATOM     25  C   UNL     1      25.952  -5.456 -20.043  1.00  0.00    -0.003 C 
ATOM     26  C   UNL     1      26.145  -4.918 -21.458  1.00  0.00     0.004 C 
ENDBRANCH  24  25
ENDBRANCH  23  24
ENDBRANCH  22  23
ENDBRANCH  21  22
ENDBRANCH  20  21
ENDBRANCH  19  20
ENDBRANCH  18  19
ENDBRANCH  17  18
ENDBRANCH  16  17
ENDBRANCH  15  16
ENDBRANCH   1  15
TORSDOF 22
ENDMDL
MODEL 7
REMARK VINA RESULT:     0.800      5.981      8.140
REMARK INTER + INTRA:           1.665
REMARK INTER:                   2.828
REMARK INTRA:                  -1.163
REMARK UNBOUND:                -0.163
REMARK SMILES CCCCCCCCCCCCCCCCCCCCCCCC(=O)[O-]
REMARK SMILES IDX 13 1 14 2 15 3 16 4 17 5 18 6 19 7 20 8 21 9 22 10 23 11
REMARK SMILES IDX 24 12 25 13 26 14 12 15 11 16 10 17 9 18 8 19 7 20 6 21 5 22
REMARK SMILES IDX 4 23 3 24 2 25 1 26
REMARK H PARENT
REMARK Flexibility Score: inf
ROOT
ATOM      1  C   UNL     1      24.712   3.407 -14.193  1.00  0.00     0.000 C 
ENDROOT
BRANCH   1   2
ATOM      2  C   UNL     1      25.851   2.518 -14.721  1.00  0.00     0.000 C 
BRANCH   2   3
ATOM      3  C   UNL     1      25.492   1.022 -14.680  1.00  0.00     0.000 C 
BRANCH   3   4
ATOM      4  C   UNL     1      24.372   0.654 -15.666  1.00  0.00     0.000 C 
BRANCH   4   5
ATOM      5  C   UNL     1      24.548  -0.747 -16.271  1.00  0.00     0.000 C 
BRANCH   5   6
ATOM      6  C   UNL     1      23.589  -0.958 -17.454  1.00  0.00     0.000 C 
BRANCH   6   7
ATOM      7  C   UNL     1      24.153  -1.924 -18.508  1.00  0.00     0.000 C 
BRANCH   7   8
ATOM      8  C   UNL     1      25.155  -2.926 -17.916  1.00  0.00     0.000 C 
BRANCH   8   9
ATOM      9  C   UNL     1      26.485  -2.896 -18.682  1.00  0.00     0.000 C 
BRANCH   9  10
ATOM     10  C   UNL     1      26.361  -3.413 -20.127  1.00  0.00     0.006 C 
BRANCH  10  11
ATOM     11  C   UNL     1      25.492  -4.675 -20.268  1.00  0.00     0.053 C 
BRANCH  11  12
ATOM     12  C   UNL     1      26.105  -5.698 -21.178  1.00  0.00     0.041 C 
ATOM     13  O   UNL     1      26.866  -5.337 -22.114  1.00  0.00    -0.550 OA
ATOM     14  O   UNL     1      25.809  -7.045 -21.015  1.00  0.00    -0.550 OA
ENDBRANCH  11  12
ENDBRANCH  10  11
ENDBRANCH   9  10
ENDBRANCH   8   9
ENDBRANCH   7   8
ENDBRANCH   6   7
ENDBRANCH   5   6
ENDBRANCH   4   5
ENDBRANCH   3   4
ENDBRANCH   2   3
ENDBRANCH   1   2
BRANCH   1  15
ATOM     15  C   UNL     1      25.131   4.877 -14.046  1.00  0.00     0.000 C 
BRANCH  15  16
ATOM     16  C   UNL     1      23.978   5.723 -13.496  1.00  0.00     0.000 C 
BRANCH  16  17
ATOM     17  C   UNL     1      22.916   4.840 -12.822  1.00  0.00     0.000 C 
BRANCH  17  18
ATOM     18  C   UNL     1      21.480   5.326 -13.108  1.00  0.00    -0.000 C 
BRANCH  18  19
ATOM     19  C   UNL     1      20.970   6.388 -12.115  1.00  0.00    -0.000 C 
BRANCH  19  20
ATOM     20  C   UNL     1      21.444   6.206 -10.662  1.00  0.00    -0.000 C 
BRANCH  20  21
ATOM     21  C   UNL     1      20.280   6.013  -9.675  1.00  0.00    -0.000 C 
BRANCH  21  22
ATOM     22  C   UNL     1      18.996   6.739 -10.118  1.00  0.00    -0.000 C 
BRANCH  22  23
ATOM     23  C   UNL     1      17.956   5.852 -10.828  1.00  0.00    -0.000 C 
BRANCH  23  24
ATOM     24  C   UNL     1      18.143   4.357 -10.534  1.00  0.00    -0.000 C 
BRANCH  24  25
ATOM     25  C   UNL     1      16.892   3.560 -10.924  1.00  0.00    -0.003 C 
ATOM     26  C   UNL     1      15.641   4.431 -10.863  1.00  0.00     0.004 C 
ENDBRANCH  24  25
ENDBRANCH  23  24
ENDBRANCH  22  23
ENDBRANCH  21  22
ENDBRANCH  20  21
ENDBRANCH  19  20
ENDBRANCH  18  19
ENDBRANCH  17  18
ENDBRANCH  16  17
ENDBRANCH  15  16
ENDBRANCH   1  15
TORSDOF 22
ENDMDL
MODEL 8
REMARK VINA RESULT:     0.806      4.897      7.160
REMARK INTER + INTRA:           1.680
REMARK INTER:                   2.967
REMARK INTRA:                  -1.287
REMARK UNBOUND:                -0.163
REMARK SMILES CCCCCCCCCCCCCCCCCCCCCCCC(=O)[O-]
REMARK SMILES IDX 13 1 14 2 15 3 16 4 17 5 18 6 19 7 20 8 21 9 22 10 23 11
REMARK SMILES IDX 24 12 25 13 26 14 12 15 11 16 10 17 9 18 8 19 7 20 6 21 5 22
REMARK SMILES IDX 4 23 3 24 2 25 1 26
REMARK H PARENT
REMARK Flexibility Score: inf
ROOT
ATOM      1  C   UNL     1      18.339   1.796 -12.973  1.00  0.00     0.000 C 
ENDROOT
BRANCH   1   2
ATOM      2  C   UNL     1      18.998   1.912 -14.358  1.00  0.00     0.000 C 
BRANCH   2   3
ATOM      3  C   UNL     1      18.295   1.043 -15.415  1.00  0.00     0.000 C 
BRANCH   3   4
ATOM      4  C   UNL     1      19.264   0.501 -16.478  1.00  0.00     0.000 C 
BRANCH   4   5
ATOM      5  C   UNL     1      20.645   1.174 -16.422  1.00  0.00     0.000 C 
BRANCH   5   6
ATOM      6  C   UNL     1      21.471   0.832 -17.672  1.00  0.00     0.000 C 
BRANCH   6   7
ATOM      7  C   UNL     1      22.759   0.062 -17.339  1.00  0.00     0.000 C 
BRANCH   7   8
ATOM      8  C   UNL     1      23.598  -0.254 -18.586  1.00  0.00     0.000 C 
BRANCH   8   9
ATOM      9  C   UNL     1      24.173  -1.676 -18.520  1.00  0.00     0.000 C 
BRANCH   9  10
ATOM     10  C   UNL     1      24.221  -2.372 -19.892  1.00  0.00     0.006 C 
BRANCH  10  11
ATOM     11  C   UNL     1      25.451  -3.274 -20.094  1.00  0.00     0.053 C 
BRANCH  11  12
ATOM     12  C   UNL     1      25.360  -4.555 -19.319  1.00  0.00     0.041 C 
ATOM     13  O   UNL     1      25.274  -4.530 -18.063  1.00  0.00    -0.550 OA
ATOM     14  O   UNL     1      25.406  -5.776 -19.980  1.00  0.00    -0.550 OA
ENDBRANCH  11  12
ENDBRANCH  10  11
ENDBRANCH   9  10
ENDBRANCH   8   9
ENDBRANCH   7   8
ENDBRANCH   6   7
ENDBRANCH   5   6
ENDBRANCH   4   5
ENDBRANCH   3   4
ENDBRANCH   2   3
ENDBRANCH   1   2
BRANCH   1  15
ATOM     15  C   UNL     1      18.220   3.152 -12.262  1.00  0.00     0.000 C 
BRANCH  15  16
ATOM     16  C   UNL     1      17.221   3.077 -11.102  1.00  0.00     0.000 C 
BRANCH  16  17
ATOM     17  C   UNL     1      16.411   4.378 -10.985  1.00  0.00     0.000 C 
BRANCH  17  18
ATOM     18  C   UNL     1      17.137   5.447 -10.143  1.00  0.00    -0.000 C 
BRANCH  18  19
ATOM     19  C   UNL     1      18.171   6.270 -10.936  1.00  0.00    -0.000 C 
BRANCH  19  20
ATOM     20  C   UNL     1      19.178   7.057 -10.079  1.00  0.00    -0.000 C 
BRANCH  20  21
ATOM     21  C   UNL     1      20.387   6.208  -9.649  1.00  0.00    -0.000 C 
BRANCH  21  22
ATOM     22  C   UNL     1      21.730   6.807 -10.106  1.00  0.00    -0.000 C 
BRANCH  22  23
ATOM     23  C   UNL     1      21.828   7.120 -11.610  1.00  0.00    -0.000 C 
BRANCH  23  24
ATOM     24  C   UNL     1      22.346   5.934 -12.436  1.00  0.00    -0.000 C 
BRANCH  24  25
ATOM     25  C   UNL     1      21.216   4.942 -12.741  1.00  0.00    -0.003 C 
ATOM     26  C   UNL     1      20.290   5.477 -13.829  1.00  0.00     0.004 C 
ENDBRANCH  24  25
ENDBRANCH  23  24
ENDBRANCH  22  23
ENDBRANCH  21  22
ENDBRANCH  20  21
ENDBRANCH  19  20
ENDBRANCH  18  19
ENDBRANCH  17  18
ENDBRANCH  16  17
ENDBRANCH  15  16
ENDBRANCH   1  15
TORSDOF 22
ENDMDL
MODEL 9
REMARK VINA RESULT:     1.037      6.380      9.146
REMARK INTER + INTRA:           2.207
REMARK INTER:                   3.492
REMARK INTRA:                  -1.285
REMARK UNBOUND:                -0.163
REMARK SMILES CCCCCCCCCCCCCCCCCCCCCCCC(=O)[O-]
REMARK SMILES IDX 13 1 14 2 15 3 16 4 17 5 18 6 19 7 20 8 21 9 22 10 23 11
REMARK SMILES IDX 24 12 25 13 26 14 12 15 11 16 10 17 9 18 8 19 7 20 6 21 5 22
REMARK SMILES IDX 4 23 3 24 2 25 1 26
REMARK H PARENT
REMARK Flexibility Score: inf
ROOT
ATOM      1  C   UNL     1      26.414   4.039 -14.494  1.00  0.00     0.000 C 
ENDROOT
BRANCH   1   2
ATOM      2  C   UNL     1      24.971   4.448 -14.156  1.00  0.00     0.000 C 
BRANCH   2   3
ATOM      3  C   UNL     1      24.805   5.974 -14.051  1.00  0.00     0.000 C 
BRANCH   3   4
ATOM      4  C   UNL     1      23.497   6.383 -13.353  1.00  0.00     0.000 C 
BRANCH   4   5
ATOM      5  C   UNL     1      22.756   5.189 -12.732  1.00  0.00     0.000 C 
BRANCH   5   6
ATOM      6  C   UNL     1      21.245   5.461 -12.657  1.00  0.00     0.000 C 
BRANCH   6   7
ATOM      7  C   UNL     1      20.921   6.848 -12.081  1.00  0.00     0.000 C 
BRANCH   7   8
ATOM      8  C   UNL     1      21.083   6.906 -10.555  1.00  0.00     0.000 C 
BRANCH   8   9
ATOM      9  C   UNL     1      20.074   5.982  -9.856  1.00  0.00     0.000 C 
BRANCH   9  10
ATOM     10  C   UNL     1      18.684   5.999 -10.517  1.00  0.00     0.006 C 
BRANCH  10  11
ATOM     11  C   UNL     1      18.254   4.644 -11.105  1.00  0.00     0.053 C 
BRANCH  11  12
ATOM     12  C   UNL     1      16.848   4.276 -10.737  1.00  0.00     0.041 C 
ATOM     13  O   UNL     1      16.133   5.081 -10.083  1.00  0.00    -0.550 OA
ATOM     14  O   UNL     1      16.337   3.032 -11.084  1.00  0.00    -0.550 OA
ENDBRANCH  11  12
ENDBRANCH  10  11
ENDBRANCH   9  10
ENDBRANCH   8   9
ENDBRANCH   7   8
ENDBRANCH   6   7
ENDBRANCH   5   6
ENDBRANCH   4   5
ENDBRANCH   3   4
ENDBRANCH   2   3
ENDBRANCH   1   2
BRANCH   1  15
ATOM     15  C   UNL     1      26.551   2.534 -14.769  1.00  0.00     0.000 C 
BRANCH  15  16
ATOM     16  C   UNL     1      25.175   1.862 -14.841  1.00  0.00     0.000 C 
BRANCH  16  17
ATOM     17  C   UNL     1      25.309   0.358 -15.127  1.00  0.00     0.000 C 
BRANCH  17  18
ATOM     18  C   UNL     1      24.197  -0.162 -16.063  1.00  0.00    -0.000 C 
BRANCH  18  19
ATOM     19  C   UNL     1      24.708  -1.089 -17.183  1.00  0.00    -0.000 C 
BRANCH  19  20
ATOM     20  C   UNL     1      24.265  -2.558 -17.070  1.00  0.00    -0.000 C 
BRANCH  20  21
ATOM     21  C   UNL     1      25.244  -3.530 -17.751  1.00  0.00    -0.000 C 
BRANCH  21  22
ATOM     22  C   UNL     1      26.490  -2.824 -18.317  1.00  0.00    -0.000 C 
BRANCH  22  23
ATOM     23  C   UNL     1      26.661  -2.925 -19.844  1.00  0.00    -0.000 C 
BRANCH  23  24
ATOM     24  C   UNL     1      25.561  -3.758 -20.517  1.00  0.00    -0.000 C 
BRANCH  24  25
ATOM     25  C   UNL     1      26.141  -5.037 -21.134  1.00  0.00    -0.003 C 
ATOM     26  C   UNL     1      25.712  -6.272 -20.348  1.00  0.00     0.004 C 
ENDBRANCH  24  25
ENDBRANCH  23  24
ENDBRANCH  22  23
ENDBRANCH  21  22
ENDBRANCH  20  21
ENDBRANCH  19  20
ENDBRANCH  18  19
ENDBRANCH  17  18
ENDBRANCH  16  17
ENDBRANCH  15  16
ENDBRANCH   1  15
TORSDOF 22
ENDMDL
