MODEL 1
REMARK VINA RESULT:    -5.857      0.000      0.000
REMARK INTER + INTRA:         -14.086
REMARK INTER:                 -12.705
REMARK INTRA:                  -1.381
REMARK UNBOUND:                -1.381
REMARK SMILES CCCCCCCCCCCCCCCCCCCCCC(=O)[O-]
REMARK SMILES IDX 12 1 11 2 10 3 9 4 8 5 7 6 6 7 5 8 4 9 3 10 2 11 1 12 13 13
REMARK SMILES IDX 14 14 15 15 16 16 17 17 18 18 19 19 20 20 21 21 22 22 23 23
REMARK SMILES IDX 24 24
REMARK H PARENT
REMARK Flexibility Score: inf
ROOT
ATOM      1  C   UNL     1      23.588  13.556   8.554  1.00  0.00     0.000 C 
ENDROOT
BRANCH   1   2
ATOM      2  C   UNL     1      23.055  12.647   9.673  1.00  0.00     0.000 C 
BRANCH   2   3
ATOM      3  C   UNL     1      23.507  13.100  11.071  1.00  0.00     0.000 C 
BRANCH   3   4
ATOM      4  C   UNL     1      24.753  12.329  11.521  1.00  0.00    -0.000 C 
BRANCH   4   5
ATOM      5  C   UNL     1      24.696  12.014  13.022  1.00  0.00    -0.000 C 
BRANCH   5   6
ATOM      6  C   UNL     1      24.629  10.499  13.262  1.00  0.00    -0.000 C 
BRANCH   6   7
ATOM      7  C   UNL     1      23.188   9.984  13.415  1.00  0.00    -0.000 C 
BRANCH   7   8
ATOM      8  C   UNL     1      22.627   9.400  12.106  1.00  0.00    -0.000 C 
BRANCH   8   9
ATOM      9  C   UNL     1      21.286  10.034  11.704  1.00  0.00    -0.000 C 
BRANCH   9  10
ATOM     10  C   UNL     1      20.255  10.016  12.843  1.00  0.00    -0.000 C 
BRANCH  10  11
ATOM     11  C   UNL     1      20.142   8.617  13.458  1.00  0.00    -0.003 C 
ATOM     12  C   UNL     1      19.058   8.571  14.531  1.00  0.00     0.004 C 
ENDBRANCH  10  11
ENDBRANCH   9  10
ENDBRANCH   8   9
ENDBRANCH   7   8
ENDBRANCH   6   7
ENDBRANCH   5   6
ENDBRANCH   4   5
ENDBRANCH   3   4
ENDBRANCH   2   3
ENDBRANCH   1   2
BRANCH   1  13
ATOM     13  C   UNL     1      25.125  13.554   8.473  1.00  0.00     0.000 C 
BRANCH  13  14
ATOM     14  C   UNL     1      25.681  14.814   7.788  1.00  0.00     0.000 C 
BRANCH  14  15
ATOM     15  C   UNL     1      26.945  15.354   8.481  1.00  0.00     0.000 C 
BRANCH  15  16
ATOM     16  C   UNL     1      27.419  16.696   7.894  1.00  0.00     0.000 C 
BRANCH  16  17
ATOM     17  C   UNL     1      26.859  17.952   8.593  1.00  0.00     0.000 C 
BRANCH  17  18
ATOM     18  C   UNL     1      26.038  18.890   7.690  1.00  0.00     0.000 C 
BRANCH  18  19
ATOM     19  C   UNL     1      24.677  18.297   7.296  1.00  0.00     0.000 C 
BRANCH  19  20
ATOM     20  C   UNL     1      24.234  18.811   5.917  1.00  0.00     0.006 C 
BRANCH  20  21
ATOM     21  C   UNL     1      23.453  20.129   6.014  1.00  0.00     0.053 C 
BRANCH  21  22
ATOM     22  C   UNL     1      21.983  19.891   6.182  1.00  0.00     0.041 C 
ATOM     23  O   UNL     1      21.300  19.441   5.225  1.00  0.00    -0.550 OA
ATOM     24  O   UNL     1      21.363  20.197   7.386  1.00  0.00    -0.550 OA
ENDBRANCH  21  22
ENDBRANCH  20  21
ENDBRANCH  19  20
ENDBRANCH  18  19
ENDBRANCH  17  18
ENDBRANCH  16  17
ENDBRANCH  15  16
ENDBRANCH  14  15
ENDBRANCH  13  14
ENDBRANCH   1  13
TORSDOF 20
ENDMDL
MODEL 2
REMARK VINA RESULT:    -5.666      1.468      2.472
REMARK INTER + INTRA:         -13.671
REMARK INTER:                 -12.378
REMARK INTRA:                  -1.293
REMARK UNBOUND:                -1.381
REMARK SMILES CCCCCCCCCCCCCCCCCCCCCC(=O)[O-]
REMARK SMILES IDX 12 1 11 2 10 3 9 4 8 5 7 6 6 7 5 8 4 9 3 10 2 11 1 12 13 13
REMARK SMILES IDX 14 14 15 15 16 16 17 17 18 18 19 19 20 20 21 21 22 22 23 23
REMARK SMILES IDX 24 24
REMARK H PARENT
REMARK Flexibility Score: inf
ROOT
ATOM      1  C   UNL     1      26.405  14.521   7.695  1.00  0.00     0.000 C 
ENDROOT
BRANCH   1   2
ATOM      2  C   UNL     1      26.362  13.516   8.856  1.00  0.00     0.000 C 
BRANCH   2   3
ATOM      3  C   UNL     1      24.971  13.413   9.503  1.00  0.00     0.000 C 
BRANCH   3   4
ATOM      4  C   UNL     1      23.900  13.101   8.452  1.00  0.00    -0.000 C 
BRANCH   4   5
ATOM      5  C   UNL     1      22.501  13.469   8.963  1.00  0.00    -0.000 C 
BRANCH   5   6
ATOM      6  C   UNL     1      22.263  12.900  10.369  1.00  0.00    -0.000 C 
BRANCH   6   7
ATOM      7  C   UNL     1      21.865  11.415  10.351  1.00  0.00    -0.000 C 
BRANCH   7   8
ATOM      8  C   UNL     1      21.867  10.786  11.755  1.00  0.00    -0.000 C 
BRANCH   8   9
ATOM      9  C   UNL     1      21.612   9.271  11.724  1.00  0.00    -0.000 C 
BRANCH   9  10
ATOM     10  C   UNL     1      21.571   8.646  13.127  1.00  0.00    -0.000 C 
BRANCH  10  11
ATOM     11  C   UNL     1      20.264   7.875  13.345  1.00  0.00    -0.003 C 
ATOM     12  C   UNL     1      19.248   8.716  14.114  1.00  0.00     0.004 C 
ENDBRANCH  10  11
ENDBRANCH   9  10
ENDBRANCH   8   9
ENDBRANCH   7   8
ENDBRANCH   6   7
ENDBRANCH   5   6
ENDBRANCH   4   5
ENDBRANCH   3   4
ENDBRANCH   2   3
ENDBRANCH   1   2
BRANCH   1  13
ATOM     13  C   UNL     1      27.834  14.997   7.378  1.00  0.00     0.000 C 
BRANCH  13  14
ATOM     14  C   UNL     1      27.961  16.530   7.388  1.00  0.00     0.000 C 
BRANCH  14  15
ATOM     15  C   UNL     1      26.971  17.198   8.359  1.00  0.00     0.000 C 
BRANCH  15  16
ATOM     16  C   UNL     1      26.707  18.676   8.017  1.00  0.00     0.000 C 
BRANCH  16  17
ATOM     17  C   UNL     1      27.417  19.193   6.749  1.00  0.00     0.000 C 
BRANCH  17  18
ATOM     18  C   UNL     1      26.481  19.593   5.594  1.00  0.00     0.000 C 
BRANCH  18  19
ATOM     19  C   UNL     1      24.996  19.512   5.975  1.00  0.00     0.000 C 
BRANCH  19  20
ATOM     20  C   UNL     1      24.151  20.443   5.091  1.00  0.00     0.006 C 
BRANCH  20  21
ATOM     21  C   UNL     1      23.042  21.146   5.883  1.00  0.00     0.053 C 
BRANCH  21  22
ATOM     22  C   UNL     1      21.908  20.218   6.194  1.00  0.00     0.041 C 
ATOM     23  O   UNL     1      21.474  19.429   5.315  1.00  0.00    -0.550 OA
ATOM     24  O   UNL     1      21.310  20.248   7.448  1.00  0.00    -0.550 OA
ENDBRANCH  21  22
ENDBRANCH  20  21
ENDBRANCH  19  20
ENDBRANCH  18  19
ENDBRANCH  17  18
ENDBRANCH  16  17
ENDBRANCH  15  16
ENDBRANCH  14  15
ENDBRANCH  13  14
ENDBRANCH   1  13
TORSDOF 20
ENDMDL
MODEL 3
REMARK VINA RESULT:    -5.620      3.966     11.339
REMARK INTER + INTRA:         -13.572
REMARK INTER:                 -11.723
REMARK INTRA:                  -1.849
REMARK UNBOUND:                -1.381
REMARK SMILES CCCCCCCCCCCCCCCCCCCCCC(=O)[O-]
REMARK SMILES IDX 12 1 11 2 10 3 9 4 8 5 7 6 6 7 5 8 4 9 3 10 2 11 1 12 13 13
REMARK SMILES IDX 14 14 15 15 16 16 17 17 18 18 19 19 20 20 21 21 22 22 23 23
REMARK SMILES IDX 24 24
REMARK H PARENT
REMARK Flexibility Score: inf
ROOT
ATOM      1  C   UNL     1      22.508  19.561   6.422  1.00  0.00     0.000 C 
ENDROOT
BRANCH   1   2
ATOM      2  C   UNL     1      22.263  21.013   5.983  1.00  0.00     0.000 C 
BRANCH   2   3
ATOM      3  C   UNL     1      23.568  21.795   5.761  1.00  0.00     0.000 C 
BRANCH   3   4
ATOM      4  C   UNL     1      23.637  22.353   4.335  1.00  0.00    -0.000 C 
BRANCH   4   5
ATOM      5  C   UNL     1      25.091  22.481   3.862  1.00  0.00    -0.000 C 
BRANCH   5   6
ATOM      6  C   UNL     1      26.066  22.022   4.956  1.00  0.00    -0.000 C 
BRANCH   6   7
ATOM      7  C   UNL     1      26.962  23.162   5.471  1.00  0.00    -0.000 C 
BRANCH   7   8
ATOM      8  C   UNL     1      26.520  24.541   4.950  1.00  0.00    -0.000 C 
BRANCH   8   9
ATOM      9  C   UNL     1      26.207  25.528   6.086  1.00  0.00    -0.000 C 
BRANCH   9  10
ATOM     10  C   UNL     1      24.728  25.502   6.505  1.00  0.00    -0.000 C 
BRANCH  10  11
ATOM     11  C   UNL     1      24.424  26.617   7.511  1.00  0.00    -0.003 C 
ATOM     12  C   UNL     1      25.442  26.630   8.648  1.00  0.00     0.004 C 
ENDBRANCH  10  11
ENDBRANCH   9  10
ENDBRANCH   8   9
ENDBRANCH   7   8
ENDBRANCH   6   7
ENDBRANCH   5   6
ENDBRANCH   4   5
ENDBRANCH   3   4
ENDBRANCH   2   3
ENDBRANCH   1   2
BRANCH   1  13
ATOM     13  C   UNL     1      23.923  19.068   6.069  1.00  0.00     0.000 C 
BRANCH  13  14
ATOM     14  C   UNL     1      24.499  18.119   7.134  1.00  0.00     0.000 C 
BRANCH  14  15
ATOM     15  C   UNL     1      25.946  18.473   7.519  1.00  0.00     0.000 C 
BRANCH  15  16
ATOM     16  C   UNL     1      26.604  17.402   8.408  1.00  0.00     0.000 C 
BRANCH  16  17
ATOM     17  C   UNL     1      27.038  16.116   7.676  1.00  0.00     0.000 C 
BRANCH  17  18
ATOM     18  C   UNL     1      26.112  14.904   7.882  1.00  0.00     0.000 C 
BRANCH  18  19
ATOM     19  C   UNL     1      26.388  14.159   9.196  1.00  0.00     0.000 C 
BRANCH  19  20
ATOM     20  C   UNL     1      25.205  13.255   9.573  1.00  0.00     0.006 C 
BRANCH  20  21
ATOM     21  C   UNL     1      23.960  13.545   8.723  1.00  0.00     0.053 C 
BRANCH  21  22
ATOM     22  C   UNL     1      22.696  13.262   9.475  1.00  0.00     0.041 C 
ATOM     23  O   UNL     1      22.050  14.202  10.008  1.00  0.00    -0.550 OA
ATOM     24  O   UNL     1      22.248  11.954   9.615  1.00  0.00    -0.550 OA
ENDBRANCH  21  22
ENDBRANCH  20  21
ENDBRANCH  19  20
ENDBRANCH  18  19
ENDBRANCH  17  18
ENDBRANCH  16  17
ENDBRANCH  15  16
ENDBRANCH  14  15
ENDBRANCH  13  14
ENDBRANCH   1  13
TORSDOF 20
ENDMDL
MODEL 4
REMARK VINA RESULT:    -5.590      3.625     10.821
REMARK INTER + INTRA:         -13.506
REMARK INTER:                 -11.185
REMARK INTRA:                  -2.321
REMARK UNBOUND:                -1.381
REMARK SMILES CCCCCCCCCCCCCCCCCCCCCC(=O)[O-]
REMARK SMILES IDX 12 1 11 2 10 3 9 4 8 5 7 6 6 7 5 8 4 9 3 10 2 11 1 12 13 13
REMARK SMILES IDX 14 14 15 15 16 16 17 17 18 18 19 19 20 20 21 21 22 22 23 23
REMARK SMILES IDX 24 24
REMARK H PARENT
REMARK Flexibility Score: inf
ROOT
ATOM      1  C   UNL     1      24.367  18.358   7.008  1.00  0.00     0.000 C 
ENDROOT
BRANCH   1   2
ATOM      2  C   UNL     1      23.415  18.912   5.936  1.00  0.00     0.000 C 
BRANCH   2   3
ATOM      3  C   UNL     1      22.278  19.758   6.532  1.00  0.00     0.000 C 
BRANCH   3   4
ATOM      4  C   UNL     1      22.025  21.011   5.686  1.00  0.00    -0.000 C 
BRANCH   4   5
ATOM      5  C   UNL     1      23.199  21.994   5.791  1.00  0.00    -0.000 C 
BRANCH   5   6
ATOM      6  C   UNL     1      23.881  22.180   4.427  1.00  0.00    -0.000 C 
BRANCH   6   7
ATOM      7  C   UNL     1      25.376  21.819   4.456  1.00  0.00    -0.000 C 
BRANCH   7   8
ATOM      8  C   UNL     1      26.096  22.380   5.694  1.00  0.00    -0.000 C 
BRANCH   8   9
ATOM      9  C   UNL     1      27.105  23.485   5.340  1.00  0.00    -0.000 C 
BRANCH   9  10
ATOM     10  C   UNL     1      26.427  24.818   4.989  1.00  0.00    -0.000 C 
BRANCH  10  11
ATOM     11  C   UNL     1      25.852  25.487   6.242  1.00  0.00    -0.003 C 
ATOM     12  C   UNL     1      24.333  25.614   6.154  1.00  0.00     0.004 C 
ENDBRANCH  10  11
ENDBRANCH   9  10
ENDBRANCH   8   9
ENDBRANCH   7   8
ENDBRANCH   6   7
ENDBRANCH   5   6
ENDBRANCH   4   5
ENDBRANCH   3   4
ENDBRANCH   2   3
ENDBRANCH   1   2
BRANCH   1  13
ATOM     13  C   UNL     1      25.817  18.835   6.812  1.00  0.00     0.000 C 
BRANCH  13  14
ATOM     14  C   UNL     1      26.608  18.873   8.131  1.00  0.00     0.000 C 
BRANCH  14  15
ATOM     15  C   UNL     1      27.111  17.482   8.558  1.00  0.00     0.000 C 
BRANCH  15  16
ATOM     16  C   UNL     1      27.755  16.700   7.399  1.00  0.00     0.000 C 
BRANCH  16  17
ATOM     17  C   UNL     1      27.318  15.225   7.280  1.00  0.00     0.000 C 
BRANCH  17  18
ATOM     18  C   UNL     1      26.072  14.845   8.101  1.00  0.00     0.000 C 
BRANCH  18  19
ATOM     19  C   UNL     1      26.253  13.541   8.890  1.00  0.00     0.000 C 
BRANCH  19  20
ATOM     20  C   UNL     1      25.022  13.253   9.764  1.00  0.00     0.006 C 
BRANCH  20  21
ATOM     21  C   UNL     1      23.745  13.087   8.929  1.00  0.00     0.053 C 
BRANCH  21  22
ATOM     22  C   UNL     1      22.526  12.983   9.794  1.00  0.00     0.041 C 
ATOM     23  O   UNL     1      22.043  11.855  10.077  1.00  0.00    -0.550 OA
ATOM     24  O   UNL     1      21.906  14.135  10.261  1.00  0.00    -0.550 OA
ENDBRANCH  21  22
ENDBRANCH  20  21
ENDBRANCH  19  20
ENDBRANCH  18  19
ENDBRANCH  17  18
ENDBRANCH  16  17
ENDBRANCH  15  16
ENDBRANCH  14  15
ENDBRANCH  13  14
ENDBRANCH   1  13
TORSDOF 20
ENDMDL
MODEL 5
REMARK VINA RESULT:    -5.587      3.364      5.772
REMARK INTER + INTRA:         -13.500
REMARK INTER:                 -12.152
REMARK INTRA:                  -1.348
REMARK UNBOUND:                -1.381
REMARK SMILES CCCCCCCCCCCCCCCCCCCCCC(=O)[O-]
REMARK SMILES IDX 12 1 11 2 10 3 9 4 8 5 7 6 6 7 5 8 4 9 3 10 2 11 1 12 13 13
REMARK SMILES IDX 14 14 15 15 16 16 17 17 18 18 19 19 20 20 21 21 22 22 23 23
REMARK SMILES IDX 24 24
REMARK H PARENT
REMARK Flexibility Score: inf
ROOT
ATOM      1  C   UNL     1      25.703  18.403   7.735  1.00  0.00     0.000 C 
ENDROOT
BRANCH   1   2
ATOM      2  C   UNL     1      26.821  17.664   8.487  1.00  0.00     0.000 C 
BRANCH   2   3
ATOM      3  C   UNL     1      27.272  16.381   7.770  1.00  0.00     0.000 C 
BRANCH   3   4
ATOM      4  C   UNL     1      26.195  15.294   7.862  1.00  0.00    -0.000 C 
BRANCH   4   5
ATOM      5  C   UNL     1      26.514  14.293   8.980  1.00  0.00    -0.000 C 
BRANCH   5   6
ATOM      6  C   UNL     1      25.298  13.407   9.287  1.00  0.00    -0.000 C 
BRANCH   6   7
ATOM      7  C   UNL     1      24.093  13.717   8.384  1.00  0.00    -0.000 C 
BRANCH   7   8
ATOM      8  C   UNL     1      22.906  12.772   8.638  1.00  0.00    -0.000 C 
BRANCH   8   9
ATOM      9  C   UNL     1      22.358  12.885  10.070  1.00  0.00    -0.000 C 
BRANCH   9  10
ATOM     10  C   UNL     1      22.544  11.593  10.881  1.00  0.00    -0.000 C 
BRANCH  10  11
ATOM     11  C   UNL     1      21.337  10.663  10.716  1.00  0.00    -0.003 C 
ATOM     12  C   UNL     1      20.710  10.327  12.066  1.00  0.00     0.004 C 
ENDBRANCH  10  11
ENDBRANCH   9  10
ENDBRANCH   8   9
ENDBRANCH   7   8
ENDBRANCH   6   7
ENDBRANCH   5   6
ENDBRANCH   4   5
ENDBRANCH   3   4
ENDBRANCH   2   3
ENDBRANCH   1   2
BRANCH   1  13
ATOM     13  C   UNL     1      26.249  19.436   6.732  1.00  0.00     0.000 C 
BRANCH  13  14
ATOM     14  C   UNL     1      25.322  19.627   5.520  1.00  0.00     0.000 C 
BRANCH  14  15
ATOM     15  C   UNL     1      23.834  19.486   5.885  1.00  0.00     0.000 C 
BRANCH  15  16
ATOM     16  C   UNL     1      22.950  20.545   5.201  1.00  0.00     0.000 C 
BRANCH  16  17
ATOM     17  C   UNL     1      23.620  21.917   4.981  1.00  0.00     0.000 C 
BRANCH  17  18
ATOM     18  C   UNL     1      23.611  22.852   6.205  1.00  0.00     0.000 C 
BRANCH  18  19
ATOM     19  C   UNL     1      24.971  23.520   6.455  1.00  0.00     0.000 C 
BRANCH  19  20
ATOM     20  C   UNL     1      25.039  24.895   5.772  1.00  0.00     0.006 C 
BRANCH  20  21
ATOM     21  C   UNL     1      25.927  25.881   6.543  1.00  0.00     0.053 C 
BRANCH  21  22
ATOM     22  C   UNL     1      25.146  26.647   7.567  1.00  0.00     0.041 C 
ATOM     23  O   UNL     1      25.657  26.911   8.687  1.00  0.00    -0.550 OA
ATOM     24  O   UNL     1      23.842  27.041   7.294  1.00  0.00    -0.550 OA
ENDBRANCH  21  22
ENDBRANCH  20  21
ENDBRANCH  19  20
ENDBRANCH  18  19
ENDBRANCH  17  18
ENDBRANCH  16  17
ENDBRANCH  15  16
ENDBRANCH  14  15
ENDBRANCH  13  14
ENDBRANCH   1  13
TORSDOF 20
ENDMDL
MODEL 6
REMARK VINA RESULT:    -5.585      2.031      3.497
REMARK INTER + INTRA:         -13.497
REMARK INTER:                 -12.161
REMARK INTRA:                  -1.336
REMARK UNBOUND:                -1.381
REMARK SMILES CCCCCCCCCCCCCCCCCCCCCC(=O)[O-]
REMARK SMILES IDX 12 1 11 2 10 3 9 4 8 5 7 6 6 7 5 8 4 9 3 10 2 11 1 12 13 13
REMARK SMILES IDX 14 14 15 15 16 16 17 17 18 18 19 19 20 20 21 21 22 22 23 23
REMARK SMILES IDX 24 24
REMARK H PARENT
REMARK Flexibility Score: inf
ROOT
ATOM      1  C   UNL     1      26.596  14.703   7.970  1.00  0.00     0.000 C 
ENDROOT
BRANCH   1   2
ATOM      2  C   UNL     1      26.464  14.151   9.398  1.00  0.00     0.000 C 
BRANCH   2   3
ATOM      3  C   UNL     1      25.159  13.369   9.615  1.00  0.00     0.000 C 
BRANCH   3   4
ATOM      4  C   UNL     1      24.359  13.266   8.311  1.00  0.00    -0.000 C 
BRANCH   4   5
ATOM      5  C   UNL     1      22.903  12.868   8.587  1.00  0.00    -0.000 C 
BRANCH   5   6
ATOM      6  C   UNL     1      22.522  13.157  10.046  1.00  0.00    -0.000 C 
BRANCH   6   7
ATOM      7  C   UNL     1      22.089  11.895  10.810  1.00  0.00    -0.000 C 
BRANCH   7   8
ATOM      8  C   UNL     1      23.210  11.328  11.698  1.00  0.00    -0.000 C 
BRANCH   8   9
ATOM      9  C   UNL     1      22.722  10.195  12.614  1.00  0.00    -0.000 C 
BRANCH   9  10
ATOM     10  C   UNL     1      21.578   9.380  11.992  1.00  0.00    -0.000 C 
BRANCH  10  11
ATOM     11  C   UNL     1      20.676   8.783  13.078  1.00  0.00    -0.003 C 
ATOM     12  C   UNL     1      19.489   9.696  13.374  1.00  0.00     0.004 C 
ENDBRANCH  10  11
ENDBRANCH   9  10
ENDBRANCH   8   9
ENDBRANCH   7   8
ENDBRANCH   6   7
ENDBRANCH   5   6
ENDBRANCH   4   5
ENDBRANCH   3   4
ENDBRANCH   2   3
ENDBRANCH   1   2
BRANCH   1  13
ATOM     13  C   UNL     1      27.430  15.995   7.910  1.00  0.00     0.000 C 
BRANCH  13  14
ATOM     14  C   UNL     1      26.639  17.229   8.376  1.00  0.00     0.000 C 
BRANCH  14  15
ATOM     15  C   UNL     1      26.263  18.163   7.212  1.00  0.00     0.000 C 
BRANCH  15  16
ATOM     16  C   UNL     1      24.747  18.408   7.110  1.00  0.00     0.000 C 
BRANCH  16  17
ATOM     17  C   UNL     1      24.286  19.151   5.839  1.00  0.00     0.000 C 
BRANCH  17  18
ATOM     18  C   UNL     1      22.773  19.423   5.756  1.00  0.00     0.000 C 
BRANCH  18  19
ATOM     19  C   UNL     1      22.448  20.817   5.200  1.00  0.00     0.000 C 
BRANCH  19  20
ATOM     20  C   UNL     1      23.731  21.641   5.004  1.00  0.00     0.006 C 
BRANCH  20  21
ATOM     21  C   UNL     1      23.685  22.974   5.764  1.00  0.00     0.053 C 
BRANCH  21  22
ATOM     22  C   UNL     1      24.892  23.159   6.632  1.00  0.00     0.041 C 
ATOM     23  O   UNL     1      25.817  22.305   6.624  1.00  0.00    -0.550 OA
ATOM     24  O   UNL     1      24.980  24.261   7.474  1.00  0.00    -0.550 OA
ENDBRANCH  21  22
ENDBRANCH  20  21
ENDBRANCH  19  20
ENDBRANCH  18  19
ENDBRANCH  17  18
ENDBRANCH  16  17
ENDBRANCH  15  16
ENDBRANCH  14  15
ENDBRANCH  13  14
ENDBRANCH   1  13
TORSDOF 20
ENDMDL
MODEL 7
REMARK VINA RESULT:    -5.568      3.867      9.766
REMARK INTER + INTRA:         -13.459
REMARK INTER:                 -11.364
REMARK INTRA:                  -2.095
REMARK UNBOUND:                -1.381
REMARK SMILES CCCCCCCCCCCCCCCCCCCCCC(=O)[O-]
REMARK SMILES IDX 12 1 11 2 10 3 9 4 8 5 7 6 6 7 5 8 4 9 3 10 2 11 1 12 13 13
REMARK SMILES IDX 14 14 15 15 16 16 17 17 18 18 19 19 20 20 21 21 22 22 23 23
REMARK SMILES IDX 24 24
REMARK H PARENT
REMARK Flexibility Score: inf
ROOT
ATOM      1  C   UNL     1      22.920  13.706   8.476  1.00  0.00     0.000 C 
ENDROOT
BRANCH   1   2
ATOM      2  C   UNL     1      24.162  14.612   8.499  1.00  0.00     0.000 C 
BRANCH   2   3
ATOM      3  C   UNL     1      25.353  14.005   7.742  1.00  0.00     0.000 C 
BRANCH   3   4
ATOM      4  C   UNL     1      26.554  13.809   8.675  1.00  0.00    -0.000 C 
BRANCH   4   5
ATOM      5  C   UNL     1      27.215  15.152   9.014  1.00  0.00    -0.000 C 
BRANCH   5   6
ATOM      6  C   UNL     1      27.067  16.145   7.852  1.00  0.00    -0.000 C 
BRANCH   6   7
ATOM      7  C   UNL     1      26.605  17.537   8.315  1.00  0.00    -0.000 C 
BRANCH   7   8
ATOM      8  C   UNL     1      25.907  18.330   7.196  1.00  0.00    -0.000 C 
BRANCH   8   9
ATOM      9  C   UNL     1      24.414  17.985   7.071  1.00  0.00    -0.000 C 
BRANCH   9  10
ATOM     10  C   UNL     1      23.628  19.031   6.266  1.00  0.00    -0.000 C 
BRANCH  10  11
ATOM     11  C   UNL     1      24.577  19.953   5.491  1.00  0.00    -0.003 C 
ATOM     12  C   UNL     1      24.070  21.393   5.489  1.00  0.00     0.004 C 
ENDBRANCH  10  11
ENDBRANCH   9  10
ENDBRANCH   8   9
ENDBRANCH   7   8
ENDBRANCH   6   7
ENDBRANCH   5   6
ENDBRANCH   4   5
ENDBRANCH   3   4
ENDBRANCH   2   3
ENDBRANCH   1   2
BRANCH   1  13
ATOM     13  C   UNL     1      23.020  12.543   9.479  1.00  0.00     0.000 C 
BRANCH  13  14
ATOM     14  C   UNL     1      23.371  13.017  10.899  1.00  0.00     0.000 C 
BRANCH  14  15
ATOM     15  C   UNL     1      24.609  12.305  11.471  1.00  0.00     0.000 C 
BRANCH  15  16
ATOM     16  C   UNL     1      24.513  12.067  12.989  1.00  0.00     0.000 C 
BRANCH  16  17
ATOM     17  C   UNL     1      24.616  10.593  13.430  1.00  0.00     0.000 C 
BRANCH  17  18
ATOM     18  C   UNL     1      23.279   9.830  13.474  1.00  0.00     0.000 C 
BRANCH  18  19
ATOM     19  C   UNL     1      23.004   9.038  12.188  1.00  0.00     0.000 C 
BRANCH  19  20
ATOM     20  C   UNL     1      21.593   9.332  11.655  1.00  0.00     0.006 C 
BRANCH  20  21
ATOM     21  C   UNL     1      20.751  10.135  12.656  1.00  0.00     0.053 C 
BRANCH  21  22
ATOM     22  C   UNL     1      19.784   9.262  13.395  1.00  0.00     0.041 C 
ATOM     23  O   UNL     1      19.889   8.009  13.338  1.00  0.00    -0.550 OA
ATOM     24  O   UNL     1      18.746   9.834  14.120  1.00  0.00    -0.550 OA
ENDBRANCH  21  22
ENDBRANCH  20  21
ENDBRANCH  19  20
ENDBRANCH  18  19
ENDBRANCH  17  18
ENDBRANCH  16  17
ENDBRANCH  15  16
ENDBRANCH  14  15
ENDBRANCH  13  14
ENDBRANCH   1  13
TORSDOF 20
ENDMDL
MODEL 8
REMARK VINA RESULT:    -5.555      1.241      3.454
REMARK INTER + INTRA:         -13.430
REMARK INTER:                 -11.264
REMARK INTRA:                  -2.166
REMARK UNBOUND:                -1.381
REMARK SMILES CCCCCCCCCCCCCCCCCCCCCC(=O)[O-]
REMARK SMILES IDX 12 1 11 2 10 3 9 4 8 5 7 6 6 7 5 8 4 9 3 10 2 11 1 12 13 13
REMARK SMILES IDX 14 14 15 15 16 16 17 17 18 18 19 19 20 20 21 21 22 22 23 23
REMARK SMILES IDX 24 24
REMARK H PARENT
REMARK Flexibility Score: inf
ROOT
ATOM      1  C   UNL     1      22.519  12.886   8.912  1.00  0.00     0.000 C 
ENDROOT
BRANCH   1   2
ATOM      2  C   UNL     1      22.399  12.327  10.339  1.00  0.00     0.000 C 
BRANCH   2   3
ATOM      3  C   UNL     1      21.724  10.947  10.381  1.00  0.00     0.000 C 
BRANCH   3   4
ATOM      4  C   UNL     1      20.560  10.936  11.378  1.00  0.00    -0.000 C 
BRANCH   4   5
ATOM      5  C   UNL     1      20.797   9.909  12.493  1.00  0.00    -0.000 C 
BRANCH   5   6
ATOM      6  C   UNL     1      21.735   8.790  12.018  1.00  0.00    -0.000 C 
BRANCH   6   7
ATOM      7  C   UNL     1      22.890   8.524  12.998  1.00  0.00    -0.000 C 
BRANCH   7   8
ATOM      8  C   UNL     1      23.395   9.809  13.678  1.00  0.00    -0.000 C 
BRANCH   8   9
ATOM      9  C   UNL     1      24.498  10.510  12.869  1.00  0.00    -0.000 C 
BRANCH   9  10
ATOM     10  C   UNL     1      24.672  11.986  13.258  1.00  0.00    -0.000 C 
BRANCH  10  11
ATOM     11  C   UNL     1      26.142  12.304  13.558  1.00  0.00    -0.003 C 
ATOM     12  C   UNL     1      27.072  11.605  12.571  1.00  0.00     0.004 C 
ENDBRANCH  10  11
ENDBRANCH   9  10
ENDBRANCH   8   9
ENDBRANCH   7   8
ENDBRANCH   6   7
ENDBRANCH   5   6
ENDBRANCH   4   5
ENDBRANCH   3   4
ENDBRANCH   2   3
ENDBRANCH   1   2
BRANCH   1  13
ATOM     13  C   UNL     1      23.913  13.470   8.623  1.00  0.00     0.000 C 
BRANCH  13  14
ATOM     14  C   UNL     1      24.924  13.165   9.741  1.00  0.00     0.000 C 
BRANCH  14  15
ATOM     15  C   UNL     1      26.383  13.267   9.262  1.00  0.00     0.000 C 
BRANCH  15  16
ATOM     16  C   UNL     1      26.575  14.321   8.155  1.00  0.00     0.000 C 
BRANCH  16  17
ATOM     17  C   UNL     1      27.096  15.690   8.636  1.00  0.00     0.000 C 
BRANCH  17  18
ATOM     18  C   UNL     1      26.985  16.829   7.606  1.00  0.00     0.000 C 
BRANCH  18  19
ATOM     19  C   UNL     1      26.272  18.069   8.162  1.00  0.00     0.000 C 
BRANCH  19  20
ATOM     20  C   UNL     1      25.630  18.886   7.030  1.00  0.00     0.006 C 
BRANCH  20  21
ATOM     21  C   UNL     1      24.204  18.415   6.712  1.00  0.00     0.053 C 
BRANCH  21  22
ATOM     22  C   UNL     1      23.453  19.427   5.903  1.00  0.00     0.041 C 
ATOM     23  O   UNL     1      22.315  19.151   5.438  1.00  0.00    -0.550 OA
ATOM     24  O   UNL     1      24.023  20.665   5.635  1.00  0.00    -0.550 OA
ENDBRANCH  21  22
ENDBRANCH  20  21
ENDBRANCH  19  20
ENDBRANCH  18  19
ENDBRANCH  17  18
ENDBRANCH  16  17
ENDBRANCH  15  16
ENDBRANCH  14  15
ENDBRANCH  13  14
ENDBRANCH   1  13
TORSDOF 20
ENDMDL
MODEL 9
REMARK VINA RESULT:    -5.532      3.419      6.528
REMARK INTER + INTRA:         -13.381
REMARK INTER:                 -11.514
REMARK INTRA:                  -1.867
REMARK UNBOUND:                -1.381
REMARK SMILES CCCCCCCCCCCCCCCCCCCCCC(=O)[O-]
REMARK SMILES IDX 12 1 11 2 10 3 9 4 8 5 7 6 6 7 5 8 4 9 3 10 2 11 1 12 13 13
REMARK SMILES IDX 14 14 15 15 16 16 17 17 18 18 19 19 20 20 21 21 22 22 23 23
REMARK SMILES IDX 24 24
REMARK H PARENT
REMARK Flexibility Score: inf
ROOT
ATOM      1  C   UNL     1      24.455  18.149   7.032  1.00  0.00     0.000 C 
ENDROOT
BRANCH   1   2
ATOM      2  C   UNL     1      25.784  18.880   7.283  1.00  0.00     0.000 C 
BRANCH   2   3
ATOM      3  C   UNL     1      26.631  18.212   8.378  1.00  0.00     0.000 C 
BRANCH   3   4
ATOM      4  C   UNL     1      27.941  17.664   7.801  1.00  0.00    -0.000 C 
BRANCH   4   5
ATOM      5  C   UNL     1      27.860  16.146   7.592  1.00  0.00    -0.000 C 
BRANCH   5   6
ATOM      6  C   UNL     1      26.828  15.516   8.538  1.00  0.00    -0.000 C 
BRANCH   6   7
ATOM      7  C   UNL     1      25.899  14.518   7.826  1.00  0.00    -0.000 C 
BRANCH   7   8
ATOM      8  C   UNL     1      25.149  13.603   8.810  1.00  0.00    -0.000 C 
BRANCH   8   9
ATOM      9  C   UNL     1      23.801  13.117   8.254  1.00  0.00    -0.000 C 
BRANCH   9  10
ATOM     10  C   UNL     1      22.605  13.876   8.849  1.00  0.00    -0.000 C 
BRANCH  10  11
ATOM     11  C   UNL     1      22.293  13.384  10.266  1.00  0.00    -0.003 C 
ATOM     12  C   UNL     1      22.032  11.880  10.284  1.00  0.00     0.004 C 
ENDBRANCH  10  11
ENDBRANCH   9  10
ENDBRANCH   8   9
ENDBRANCH   7   8
ENDBRANCH   6   7
ENDBRANCH   5   6
ENDBRANCH   4   5
ENDBRANCH   3   4
ENDBRANCH   2   3
ENDBRANCH   1   2
BRANCH   1  13
ATOM     13  C   UNL     1      23.604  18.830   5.945  1.00  0.00     0.000 C 
BRANCH  13  14
ATOM     14  C   UNL     1      22.584  19.821   6.530  1.00  0.00     0.000 C 
BRANCH  14  15
ATOM     15  C   UNL     1      22.025  20.787   5.470  1.00  0.00     0.000 C 
BRANCH  15  16
ATOM     16  C   UNL     1      23.067  21.170   4.404  1.00  0.00     0.000 C 
BRANCH  16  17
ATOM     17  C   UNL     1      23.980  22.356   4.775  1.00  0.00     0.000 C 
BRANCH  17  18
ATOM     18  C   UNL     1      25.388  21.968   5.264  1.00  0.00     0.000 C 
BRANCH  18  19
ATOM     19  C   UNL     1      25.880  22.849   6.421  1.00  0.00     0.000 C 
BRANCH  19  20
ATOM     20  C   UNL     1      24.875  23.972   6.720  1.00  0.00     0.006 C 
BRANCH  20  21
ATOM     21  C   UNL     1      25.497  25.366   6.556  1.00  0.00     0.053 C 
BRANCH  21  22
ATOM     22  C   UNL     1      24.988  26.326   7.587  1.00  0.00     0.041 C 
ATOM     23  O   UNL     1      24.062  27.130   7.303  1.00  0.00    -0.550 OA
ATOM     24  O   UNL     1      25.560  26.354   8.853  1.00  0.00    -0.550 OA
ENDBRANCH  21  22
ENDBRANCH  20  21
ENDBRANCH  19  20
ENDBRANCH  18  19
ENDBRANCH  17  18
ENDBRANCH  16  17
ENDBRANCH  15  16
ENDBRANCH  14  15
ENDBRANCH  13  14
ENDBRANCH   1  13
TORSDOF 20
ENDMDL
