MODEL 1
REMARK VINA RESULT:    -0.676      0.000      0.000
REMARK INTER + INTRA:          -1.792
REMARK INTER:                  -1.308
REMARK INTRA:                  -0.484
REMARK UNBOUND:                -0.484
REMARK SMILES CCCCCCCCCCCCCCCCCC(=O)[O-]
REMARK SMILES IDX 10 1 11 2 12 3 13 4 14 5 15 6 16 7 17 8 18 9 19 10 20 11
REMARK SMILES IDX 9 12 8 13 7 14 6 15 5 16 4 17 3 18 2 19 1 20
REMARK H PARENT
REMARK Flexibility Score: inf
ROOT
ATOM      1  C   UNL     1      35.617  26.832  64.470  1.00  0.00     0.000 C 
ENDROOT
BRANCH   1   2
ATOM      2  C   UNL     1      35.117  25.603  65.249  1.00  0.00     0.000 C 
BRANCH   2   3
ATOM      3  C   UNL     1      33.636  25.246  65.027  1.00  0.00     0.000 C 
BRANCH   3   4
ATOM      4  C   UNL     1      33.244  23.898  65.650  1.00  0.00     0.000 C 
BRANCH   4   5
ATOM      5  C   UNL     1      32.590  24.099  67.024  1.00  0.00     0.000 C 
BRANCH   5   6
ATOM      6  C   UNL     1      31.073  23.839  67.012  1.00  0.00     0.000 C 
BRANCH   6   7
ATOM      7  C   UNL     1      30.364  24.192  65.692  1.00  0.00     0.006 C 
BRANCH   7   8
ATOM      8  C   UNL     1      30.212  22.986  64.755  1.00  0.00     0.053 C 
BRANCH   8   9
ATOM      9  C   UNL     1      30.286  23.421  63.327  1.00  0.00     0.041 C 
ATOM     10  O   UNL     1      29.282  23.309  62.576  1.00  0.00    -0.550 OA
ATOM     11  O   UNL     1      31.454  23.987  62.832  1.00  0.00    -0.550 OA
ENDBRANCH   8   9
ENDBRANCH   7   8
ENDBRANCH   6   7
ENDBRANCH   5   6
ENDBRANCH   4   5
ENDBRANCH   3   4
ENDBRANCH   2   3
ENDBRANCH   1   2
BRANCH   1  12
ATOM     12  C   UNL     1      36.381  27.833  65.355  1.00  0.00     0.000 C 
BRANCH  12  13
ATOM     13  C   UNL     1      36.456  27.383  66.823  1.00  0.00    -0.000 C 
BRANCH  13  14
ATOM     14  C   UNL     1      37.398  26.183  67.026  1.00  0.00    -0.000 C 
BRANCH  14  15
ATOM     15  C   UNL     1      38.686  26.299  66.195  1.00  0.00    -0.000 C 
BRANCH  15  16
ATOM     16  C   UNL     1      39.947  26.388  67.073  1.00  0.00    -0.000 C 
BRANCH  16  17
ATOM     17  C   UNL     1      40.539  27.805  67.109  1.00  0.00    -0.000 C 
BRANCH  17  18
ATOM     18  C   UNL     1      39.752  28.795  66.231  1.00  0.00    -0.000 C 
BRANCH  18  19
ATOM     19  C   UNL     1      39.051  29.883  67.058  1.00  0.00    -0.003 C 
ATOM     20  C   UNL     1      38.776  31.151  66.250  1.00  0.00     0.004 C 
ENDBRANCH  18  19
ENDBRANCH  17  18
ENDBRANCH  16  17
ENDBRANCH  15  16
ENDBRANCH  14  15
ENDBRANCH  13  14
ENDBRANCH  12  13
ENDBRANCH   1  12
TORSDOF 16
ENDMDL
MODEL 2
REMARK VINA RESULT:    -0.450     13.991     15.552
REMARK INTER + INTRA:          -1.354
REMARK INTER:                   0.234
REMARK INTRA:                  -1.588
REMARK UNBOUND:                -0.484
REMARK SMILES CCCCCCCCCCCCCCCCCC(=O)[O-]
REMARK SMILES IDX 10 1 11 2 12 3 13 4 14 5 15 6 16 7 17 8 18 9 19 10 20 11
REMARK SMILES IDX 9 12 8 13 7 14 6 15 5 16 4 17 3 18 2 19 1 20
REMARK H PARENT
REMARK Flexibility Score: inf
ROOT
ATOM      1  C   UNL     1      40.062  38.208  64.566  1.00  0.00     0.000 C 
ENDROOT
BRANCH   1   2
ATOM      2  C   UNL     1      39.298  39.531  64.752  1.00  0.00     0.000 C 
BRANCH   2   3
ATOM      3  C   UNL     1      38.487  39.640  66.055  1.00  0.00     0.000 C 
BRANCH   3   4
ATOM      4  C   UNL     1      37.042  39.140  65.907  1.00  0.00     0.000 C 
BRANCH   4   5
ATOM      5  C   UNL     1      36.197  39.539  67.125  1.00  0.00     0.000 C 
BRANCH   5   6
ATOM      6  C   UNL     1      34.715  39.768  66.778  1.00  0.00     0.000 C 
BRANCH   6   7
ATOM      7  C   UNL     1      34.314  41.241  66.577  1.00  0.00     0.006 C 
BRANCH   7   8
ATOM      8  C   UNL     1      35.516  42.193  66.588  1.00  0.00     0.053 C 
BRANCH   8   9
ATOM      9  C   UNL     1      35.770  42.728  65.214  1.00  0.00     0.041 C 
ATOM     10  O   UNL     1      36.950  42.869  64.796  1.00  0.00    -0.550 OA
ATOM     11  O   UNL     1      34.705  43.037  64.380  1.00  0.00    -0.550 OA
ENDBRANCH   8   9
ENDBRANCH   7   8
ENDBRANCH   6   7
ENDBRANCH   5   6
ENDBRANCH   4   5
ENDBRANCH   3   4
ENDBRANCH   2   3
ENDBRANCH   1   2
BRANCH   1  12
ATOM     12  C   UNL     1      40.789  37.751  65.844  1.00  0.00     0.000 C 
BRANCH  12  13
ATOM     13  C   UNL     1      42.317  37.747  65.682  1.00  0.00    -0.000 C 
BRANCH  13  14
ATOM     14  C   UNL     1      43.048  38.217  66.952  1.00  0.00    -0.000 C 
BRANCH  14  15
ATOM     15  C   UNL     1      43.962  39.425  66.692  1.00  0.00    -0.000 C 
BRANCH  15  16
ATOM     16  C   UNL     1      43.317  40.755  67.121  1.00  0.00    -0.000 C 
BRANCH  16  17
ATOM     17  C   UNL     1      42.318  41.287  66.081  1.00  0.00    -0.000 C 
BRANCH  17  18
ATOM     18  C   UNL     1      41.611  42.572  66.548  1.00  0.00    -0.000 C 
BRANCH  18  19
ATOM     19  C   UNL     1      40.170  42.672  66.026  1.00  0.00    -0.003 C 
ATOM     20  C   UNL     1      39.170  43.033  67.124  1.00  0.00     0.004 C 
ENDBRANCH  18  19
ENDBRANCH  17  18
ENDBRANCH  16  17
ENDBRANCH  15  16
ENDBRANCH  14  15
ENDBRANCH  13  14
ENDBRANCH  12  13
ENDBRANCH   1  12
TORSDOF 16
ENDMDL
MODEL 3
REMARK VINA RESULT:    -0.026     13.585     15.893
REMARK INTER + INTRA:          -0.533
REMARK INTER:                   0.229
REMARK INTRA:                  -0.762
REMARK UNBOUND:                -0.484
REMARK SMILES CCCCCCCCCCCCCCCCCC(=O)[O-]
REMARK SMILES IDX 10 1 11 2 12 3 13 4 14 5 15 6 16 7 17 8 18 9 19 10 20 11
REMARK SMILES IDX 9 12 8 13 7 14 6 15 5 16 4 17 3 18 2 19 1 20
REMARK H PARENT
REMARK Flexibility Score: inf
ROOT
ATOM      1  C   UNL     1      38.741  38.579  65.258  1.00  0.00     0.000 C 
ENDROOT
BRANCH   1   2
ATOM      2  C   UNL     1      37.933  39.882  65.393  1.00  0.00     0.000 C 
BRANCH   2   3
ATOM      3  C   UNL     1      38.103  40.621  66.732  1.00  0.00     0.000 C 
BRANCH   3   4
ATOM      4  C   UNL     1      38.469  42.103  66.559  1.00  0.00     0.000 C 
BRANCH   4   5
ATOM      5  C   UNL     1      37.338  43.008  67.067  1.00  0.00     0.000 C 
BRANCH   5   6
ATOM      6  C   UNL     1      35.976  42.294  67.123  1.00  0.00     0.000 C 
BRANCH   6   7
ATOM      7  C   UNL     1      34.792  43.105  66.565  1.00  0.00     0.006 C 
BRANCH   7   8
ATOM      8  C   UNL     1      33.912  42.294  65.606  1.00  0.00     0.053 C 
BRANCH   8   9
ATOM      9  C   UNL     1      34.303  42.559  64.187  1.00  0.00     0.041 C 
ATOM     10  O   UNL     1      33.420  42.685  63.298  1.00  0.00    -0.550 OA
ATOM     11  O   UNL     1      35.642  42.706  63.851  1.00  0.00    -0.550 OA
ENDBRANCH   8   9
ENDBRANCH   7   8
ENDBRANCH   6   7
ENDBRANCH   5   6
ENDBRANCH   4   5
ENDBRANCH   3   4
ENDBRANCH   2   3
ENDBRANCH   1   2
BRANCH   1  12
ATOM     12  C   UNL     1      39.701  38.344  66.437  1.00  0.00     0.000 C 
BRANCH  12  13
ATOM     13  C   UNL     1      40.611  37.123  66.222  1.00  0.00    -0.000 C 
BRANCH  13  14
ATOM     14  C   UNL     1      42.070  37.517  65.931  1.00  0.00    -0.000 C 
BRANCH  14  15
ATOM     15  C   UNL     1      42.694  38.341  67.068  1.00  0.00    -0.000 C 
BRANCH  15  16
ATOM     16  C   UNL     1      42.146  39.778  67.124  1.00  0.00    -0.000 C 
BRANCH  16  17
ATOM     17  C   UNL     1      42.428  40.565  65.835  1.00  0.00    -0.000 C 
BRANCH  17  18
ATOM     18  C   UNL     1      41.528  41.806  65.694  1.00  0.00    -0.000 C 
BRANCH  18  19
ATOM     19  C   UNL     1      42.087  43.025  66.443  1.00  0.00    -0.003 C 
ATOM     20  C   UNL     1      43.587  42.912  66.716  1.00  0.00     0.004 C 
ENDBRANCH  18  19
ENDBRANCH  17  18
ENDBRANCH  16  17
ENDBRANCH  15  16
ENDBRANCH  14  15
ENDBRANCH  13  14
ENDBRANCH  12  13
ENDBRANCH   1  12
TORSDOF 16
ENDMDL
MODEL 4
REMARK VINA RESULT:     0.129      3.985      9.224
REMARK INTER + INTRA:          -0.234
REMARK INTER:                   0.823
REMARK INTRA:                  -1.057
REMARK UNBOUND:                -0.484
REMARK SMILES CCCCCCCCCCCCCCCCCC(=O)[O-]
REMARK SMILES IDX 10 1 11 2 12 3 13 4 14 5 15 6 16 7 17 8 18 9 19 10 20 11
REMARK SMILES IDX 9 12 8 13 7 14 6 15 5 16 4 17 3 18 2 19 1 20
REMARK H PARENT
REMARK Flexibility Score: inf
ROOT
ATOM      1  C   UNL     1      34.700  25.522  65.279  1.00  0.00     0.000 C 
ENDROOT
BRANCH   1   2
ATOM      2  C   UNL     1      35.635  26.695  65.624  1.00  0.00     0.000 C 
BRANCH   2   3
ATOM      3  C   UNL     1      37.124  26.327  65.759  1.00  0.00     0.000 C 
BRANCH   3   4
ATOM      4  C   UNL     1      37.714  26.707  67.125  1.00  0.00     0.000 C 
BRANCH   4   5
ATOM      5  C   UNL     1      39.248  26.758  67.063  1.00  0.00     0.000 C 
BRANCH   5   6
ATOM      6  C   UNL     1      39.778  28.015  66.350  1.00  0.00     0.000 C 
BRANCH   6   7
ATOM      7  C   UNL     1      39.002  29.310  66.650  1.00  0.00     0.006 C 
BRANCH   7   8
ATOM      8  C   UNL     1      38.635  30.093  65.383  1.00  0.00     0.053 C 
BRANCH   8   9
ATOM      9  C   UNL     1      39.852  30.732  64.794  1.00  0.00     0.041 C 
ATOM     10  O   UNL     1      40.635  30.061  64.072  1.00  0.00    -0.550 OA
ATOM     11  O   UNL     1      40.103  32.080  65.010  1.00  0.00    -0.550 OA
ENDBRANCH   8   9
ENDBRANCH   7   8
ENDBRANCH   6   7
ENDBRANCH   5   6
ENDBRANCH   4   5
ENDBRANCH   3   4
ENDBRANCH   2   3
ENDBRANCH   1   2
BRANCH   1  12
ATOM     12  C   UNL     1      34.119  24.833  66.527  1.00  0.00     0.000 C 
BRANCH  12  13
ATOM     13  C   UNL     1      32.593  24.664  66.449  1.00  0.00    -0.000 C 
BRANCH  13  14
ATOM     14  C   UNL     1      32.145  23.211  66.683  1.00  0.00    -0.000 C 
BRANCH  14  15
ATOM     15  C   UNL     1      30.627  23.089  66.885  1.00  0.00    -0.000 C 
BRANCH  15  16
ATOM     16  C   UNL     1      29.863  24.319  66.365  1.00  0.00    -0.000 C 
BRANCH  16  17
ATOM     17  C   UNL     1      28.984  23.993  65.147  1.00  0.00    -0.000 C 
BRANCH  17  18
ATOM     18  C   UNL     1      29.597  22.898  64.255  1.00  0.00    -0.000 C 
BRANCH  18  19
ATOM     19  C   UNL     1      29.892  23.396  62.832  1.00  0.00    -0.003 C 
ATOM     20  C   UNL     1      31.335  23.870  62.661  1.00  0.00     0.004 C 
ENDBRANCH  18  19
ENDBRANCH  17  18
ENDBRANCH  16  17
ENDBRANCH  15  16
ENDBRANCH  14  15
ENDBRANCH  13  14
ENDBRANCH  12  13
ENDBRANCH   1  12
TORSDOF 16
ENDMDL
MODEL 5
REMARK VINA RESULT:     0.544      3.763      9.245
REMARK INTER + INTRA:           0.570
REMARK INTER:                   1.283
REMARK INTRA:                  -0.713
REMARK UNBOUND:                -0.484
REMARK SMILES CCCCCCCCCCCCCCCCCC(=O)[O-]
REMARK SMILES IDX 10 1 11 2 12 3 13 4 14 5 15 6 16 7 17 8 18 9 19 10 20 11
REMARK SMILES IDX 9 12 8 13 7 14 6 15 5 16 4 17 3 18 2 19 1 20
REMARK H PARENT
REMARK Flexibility Score: inf
ROOT
ATOM      1  C   UNL     1      34.443  25.275  64.595  1.00  0.00     0.000 C 
ENDROOT
BRANCH   1   2
ATOM      2  C   UNL     1      35.347  26.289  65.318  1.00  0.00     0.000 C 
BRANCH   2   3
ATOM      3  C   UNL     1      35.860  25.840  66.698  1.00  0.00     0.000 C 
BRANCH   3   4
ATOM      4  C   UNL     1      37.158  26.547  67.116  1.00  0.00     0.000 C 
BRANCH   4   5
ATOM      5  C   UNL     1      37.697  27.420  65.974  1.00  0.00     0.000 C 
BRANCH   5   6
ATOM      6  C   UNL     1      38.113  28.827  66.438  1.00  0.00     0.000 C 
BRANCH   6   7
ATOM      7  C   UNL     1      39.621  29.009  66.692  1.00  0.00     0.006 C 
BRANCH   7   8
ATOM      8  C   UNL     1      40.491  28.179  65.740  1.00  0.00     0.053 C 
BRANCH   8   9
ATOM      9  C   UNL     1      41.158  27.063  66.479  1.00  0.00     0.041 C 
ATOM     10  O   UNL     1      40.470  26.227  67.122  1.00  0.00    -0.550 OA
ATOM     11  O   UNL     1      42.538  26.924  66.430  1.00  0.00    -0.550 OA
ENDBRANCH   8   9
ENDBRANCH   7   8
ENDBRANCH   6   7
ENDBRANCH   5   6
ENDBRANCH   4   5
ENDBRANCH   3   4
ENDBRANCH   2   3
ENDBRANCH   1   2
BRANCH   1  12
ATOM     12  C   UNL     1      33.086  25.078  65.291  1.00  0.00     0.000 C 
BRANCH  12  13
ATOM     13  C   UNL     1      33.131  23.983  66.370  1.00  0.00    -0.000 C 
BRANCH  13  14
ATOM     14  C   UNL     1      31.743  23.679  66.963  1.00  0.00    -0.000 C 
BRANCH  14  15
ATOM     15  C   UNL     1      30.667  24.661  66.473  1.00  0.00    -0.000 C 
BRANCH  15  16
ATOM     16  C   UNL     1      29.251  24.062  66.536  1.00  0.00    -0.000 C 
BRANCH  16  17
ATOM     17  C   UNL     1      28.876  23.302  65.254  1.00  0.00    -0.000 C 
BRANCH  17  18
ATOM     18  C   UNL     1      29.593  23.858  64.010  1.00  0.00    -0.000 C 
BRANCH  18  19
ATOM     19  C   UNL     1      29.338  23.007  62.757  1.00  0.00    -0.003 C 
ATOM     20  C   UNL     1      30.000  23.587  61.507  1.00  0.00     0.004 C 
ENDBRANCH  18  19
ENDBRANCH  17  18
ENDBRANCH  16  17
ENDBRANCH  15  16
ENDBRANCH  14  15
ENDBRANCH  13  14
ENDBRANCH  12  13
ENDBRANCH   1  12
TORSDOF 16
ENDMDL
MODEL 6
REMARK VINA RESULT:     0.825      4.102      9.289
REMARK INTER + INTRA:           1.114
REMARK INTER:                   1.539
REMARK INTRA:                  -0.425
REMARK UNBOUND:                -0.484
REMARK SMILES CCCCCCCCCCCCCCCCCC(=O)[O-]
REMARK SMILES IDX 10 1 11 2 12 3 13 4 14 5 15 6 16 7 17 8 18 9 19 10 20 11
REMARK SMILES IDX 9 12 8 13 7 14 6 15 5 16 4 17 3 18 2 19 1 20
REMARK H PARENT
REMARK Flexibility Score: inf
ROOT
ATOM      1  C   UNL     1      35.022  26.455  64.776  1.00  0.00     0.000 C 
ENDROOT
BRANCH   1   2
ATOM      2  C   UNL     1      36.128  27.387  65.303  1.00  0.00     0.000 C 
BRANCH   2   3
ATOM      3  C   UNL     1      37.503  26.724  65.500  1.00  0.00     0.000 C 
BRANCH   3   4
ATOM      4  C   UNL     1      37.946  26.686  66.970  1.00  0.00     0.000 C 
BRANCH   4   5
ATOM      5  C   UNL     1      39.376  27.222  67.125  1.00  0.00     0.000 C 
BRANCH   5   6
ATOM      6  C   UNL     1      39.473  28.744  66.921  1.00  0.00     0.000 C 
BRANCH   6   7
ATOM      7  C   UNL     1      39.073  29.239  65.520  1.00  0.00     0.006 C 
BRANCH   7   8
ATOM      8  C   UNL     1      39.045  30.769  65.413  1.00  0.00     0.053 C 
BRANCH   8   9
ATOM      9  C   UNL     1      40.151  31.252  64.530  1.00  0.00     0.041 C 
ATOM     10  O   UNL     1      40.801  30.438  63.824  1.00  0.00    -0.550 OA
ATOM     11  O   UNL     1      40.441  32.608  64.457  1.00  0.00    -0.550 OA
ENDBRANCH   8   9
ENDBRANCH   7   8
ENDBRANCH   6   7
ENDBRANCH   5   6
ENDBRANCH   4   5
ENDBRANCH   3   4
ENDBRANCH   2   3
ENDBRANCH   1   2
BRANCH   1  12
ATOM     12  C   UNL     1      34.724  25.282  65.727  1.00  0.00     0.000 C 
BRANCH  12  13
ATOM     13  C   UNL     1      33.226  24.946  65.796  1.00  0.00    -0.000 C 
BRANCH  13  14
ATOM     14  C   UNL     1      32.789  23.960  64.699  1.00  0.00    -0.000 C 
BRANCH  14  15
ATOM     15  C   UNL     1      32.020  24.651  63.561  1.00  0.00    -0.000 C 
BRANCH  15  16
ATOM     16  C   UNL     1      31.347  23.645  62.610  1.00  0.00    -0.000 C 
BRANCH  16  17
ATOM     17  C   UNL     1      29.979  23.173  63.125  1.00  0.00    -0.000 C 
BRANCH  17  18
ATOM     18  C   UNL     1      29.478  24.011  64.316  1.00  0.00    -0.000 C 
BRANCH  18  19
ATOM     19  C   UNL     1      29.135  23.146  65.538  1.00  0.00    -0.003 C 
ATOM     20  C   UNL     1      29.805  23.644  66.819  1.00  0.00     0.004 C 
ENDBRANCH  18  19
ENDBRANCH  17  18
ENDBRANCH  16  17
ENDBRANCH  15  16
ENDBRANCH  14  15
ENDBRANCH  13  14
ENDBRANCH  12  13
ENDBRANCH   1  12
TORSDOF 16
ENDMDL
MODEL 7
REMARK VINA RESULT:     0.924      6.850      9.088
REMARK INTER + INTRA:           1.305
REMARK INTER:                   2.196
REMARK INTRA:                  -0.891
REMARK UNBOUND:                -0.484
REMARK SMILES CCCCCCCCCCCCCCCCCC(=O)[O-]
REMARK SMILES IDX 10 1 11 2 12 3 13 4 14 5 15 6 16 7 17 8 18 9 19 10 20 11
REMARK SMILES IDX 9 12 8 13 7 14 6 15 5 16 4 17 3 18 2 19 1 20
REMARK H PARENT
REMARK Flexibility Score: inf
ROOT
ATOM      1  C   UNL     1      32.557  24.141  59.283  1.00  0.00     0.000 C 
ENDROOT
BRANCH   1   2
ATOM      2  C   UNL     1      31.853  23.206  60.283  1.00  0.00     0.000 C 
BRANCH   2   3
ATOM      3  C   UNL     1      31.648  23.791  61.692  1.00  0.00     0.000 C 
BRANCH   3   4
ATOM      4  C   UNL     1      30.825  22.875  62.609  1.00  0.00     0.000 C 
BRANCH   4   5
ATOM      5  C   UNL     1      29.591  23.611  63.152  1.00  0.00     0.000 C 
BRANCH   5   6
ATOM      6  C   UNL     1      29.289  23.270  64.622  1.00  0.00     0.000 C 
BRANCH   6   7
ATOM      7  C   UNL     1      30.515  23.252  65.551  1.00  0.00     0.006 C 
BRANCH   7   8
ATOM      8  C   UNL     1      31.221  24.611  65.635  1.00  0.00     0.053 C 
BRANCH   8   9
ATOM      9  C   UNL     1      32.703  24.438  65.528  1.00  0.00     0.041 C 
ATOM     10  O   UNL     1      33.284  23.529  66.176  1.00  0.00    -0.550 OA
ATOM     11  O   UNL     1      33.440  25.257  64.683  1.00  0.00    -0.550 OA
ENDBRANCH   8   9
ENDBRANCH   7   8
ENDBRANCH   6   7
ENDBRANCH   5   6
ENDBRANCH   4   5
ENDBRANCH   3   4
ENDBRANCH   2   3
ENDBRANCH   1   2
BRANCH   1  12
ATOM     12  C   UNL     1      33.023  23.414  58.009  1.00  0.00     0.000 C 
BRANCH  12  13
ATOM     13  C   UNL     1      33.435  24.388  56.893  1.00  0.00    -0.000 C 
BRANCH  13  14
ATOM     14  C   UNL     1      34.430  23.762  55.899  1.00  0.00    -0.000 C 
BRANCH  14  15
ATOM     15  C   UNL     1      35.837  24.369  56.016  1.00  0.00    -0.000 C 
BRANCH  15  16
ATOM     16  C   UNL     1      36.947  23.310  55.891  1.00  0.00    -0.000 C 
BRANCH  16  17
ATOM     17  C   UNL     1      38.200  23.852  55.186  1.00  0.00    -0.000 C 
BRANCH  17  18
ATOM     18  C   UNL     1      38.354  23.304  53.756  1.00  0.00    -0.000 C 
BRANCH  18  19
ATOM     19  C   UNL     1      37.757  24.245  52.699  1.00  0.00    -0.003 C 
ATOM     20  C   UNL     1      36.363  23.812  52.244  1.00  0.00     0.004 C 
ENDBRANCH  18  19
ENDBRANCH  17  18
ENDBRANCH  16  17
ENDBRANCH  15  16
ENDBRANCH  14  15
ENDBRANCH  13  14
ENDBRANCH  12  13
ENDBRANCH   1  12
TORSDOF 16
ENDMDL
MODEL 8
REMARK VINA RESULT:     0.956      6.221      8.956
REMARK INTER + INTRA:           1.366
REMARK INTER:                   2.290
REMARK INTRA:                  -0.924
REMARK UNBOUND:                -0.484
REMARK SMILES CCCCCCCCCCCCCCCCCC(=O)[O-]
REMARK SMILES IDX 10 1 11 2 12 3 13 4 14 5 15 6 16 7 17 8 18 9 19 10 20 11
REMARK SMILES IDX 9 12 8 13 7 14 6 15 5 16 4 17 3 18 2 19 1 20
REMARK H PARENT
REMARK Flexibility Score: inf
ROOT
ATOM      1  C   UNL     1      32.062  24.204  60.901  1.00  0.00     0.000 C 
ENDROOT
BRANCH   1   2
ATOM      2  C   UNL     1      31.358  23.572  62.115  1.00  0.00     0.000 C 
BRANCH   2   3
ATOM      3  C   UNL     1      29.835  23.403  61.973  1.00  0.00     0.000 C 
BRANCH   3   4
ATOM      4  C   UNL     1      29.075  23.689  63.277  1.00  0.00     0.000 C 
BRANCH   4   5
ATOM      5  C   UNL     1      29.891  23.236  64.496  1.00  0.00     0.000 C 
BRANCH   5   6
ATOM      6  C   UNL     1      29.924  24.287  65.620  1.00  0.00     0.000 C 
BRANCH   6   7
ATOM      7  C   UNL     1      31.078  24.128  66.626  1.00  0.00     0.006 C 
BRANCH   7   8
ATOM      8  C   UNL     1      32.329  23.493  66.003  1.00  0.00     0.053 C 
BRANCH   8   9
ATOM      9  C   UNL     1      33.363  24.537  65.729  1.00  0.00     0.041 C 
ATOM     10  O   UNL     1      34.148  24.909  66.640  1.00  0.00    -0.550 OA
ATOM     11  O   UNL     1      33.487  25.075  64.455  1.00  0.00    -0.550 OA
ENDBRANCH   8   9
ENDBRANCH   7   8
ENDBRANCH   6   7
ENDBRANCH   5   6
ENDBRANCH   4   5
ENDBRANCH   3   4
ENDBRANCH   2   3
ENDBRANCH   1   2
BRANCH   1  12
ATOM     12  C   UNL     1      32.081  23.280  59.671  1.00  0.00     0.000 C 
BRANCH  12  13
ATOM     13  C   UNL     1      33.188  23.652  58.672  1.00  0.00    -0.000 C 
BRANCH  13  14
ATOM     14  C   UNL     1      32.632  24.049  57.293  1.00  0.00    -0.000 C 
BRANCH  14  15
ATOM     15  C   UNL     1      33.742  24.417  56.296  1.00  0.00    -0.000 C 
BRANCH  15  16
ATOM     16  C   UNL     1      35.072  23.709  56.607  1.00  0.00    -0.000 C 
BRANCH  16  17
ATOM     17  C   UNL     1      35.799  23.238  55.338  1.00  0.00    -0.000 C 
BRANCH  17  18
ATOM     18  C   UNL     1      35.949  24.360  54.295  1.00  0.00    -0.000 C 
BRANCH  18  19
ATOM     19  C   UNL     1      37.113  24.108  53.325  1.00  0.00    -0.003 C 
ATOM     20  C   UNL     1      36.646  23.584  51.967  1.00  0.00     0.004 C 
ENDBRANCH  18  19
ENDBRANCH  17  18
ENDBRANCH  16  17
ENDBRANCH  15  16
ENDBRANCH  14  15
ENDBRANCH  13  14
ENDBRANCH  12  13
ENDBRANCH   1  12
TORSDOF 16
ENDMDL
MODEL 9
REMARK VINA RESULT:     1.312      8.200     10.908
REMARK INTER + INTRA:           2.056
REMARK INTER:                   2.934
REMARK INTRA:                  -0.878
REMARK UNBOUND:                -0.484
REMARK SMILES CCCCCCCCCCCCCCCCCC(=O)[O-]
REMARK SMILES IDX 10 1 11 2 12 3 13 4 14 5 15 6 16 7 17 8 18 9 19 10 20 11
REMARK SMILES IDX 9 12 8 13 7 14 6 15 5 16 4 17 3 18 2 19 1 20
REMARK H PARENT
REMARK Flexibility Score: inf
ROOT
ATOM      1  C   UNL     1      33.329  24.422  56.724  1.00  0.00     0.000 C 
ENDROOT
BRANCH   1   2
ATOM      2  C   UNL     1      34.553  24.134  55.836  1.00  0.00     0.000 C 
BRANCH   2   3
ATOM      3  C   UNL     1      35.795  23.615  56.583  1.00  0.00     0.000 C 
BRANCH   3   4
ATOM      4  C   UNL     1      37.097  24.287  56.122  1.00  0.00     0.000 C 
BRANCH   4   5
ATOM      5  C   UNL     1      38.264  23.290  56.143  1.00  0.00     0.000 C 
BRANCH   5   6
ATOM      6  C   UNL     1      38.724  22.875  54.735  1.00  0.00     0.000 C 
BRANCH   6   7
ATOM      7  C   UNL     1      38.156  23.729  53.587  1.00  0.00     0.006 C 
BRANCH   7   8
ATOM      8  C   UNL     1      37.612  22.885  52.427  1.00  0.00     0.053 C 
BRANCH   8   9
ATOM      9  C   UNL     1      36.410  23.538  51.825  1.00  0.00     0.041 C 
ATOM     10  O   UNL     1      35.772  24.412  52.469  1.00  0.00    -0.550 OA
ATOM     11  O   UNL     1      36.014  23.210  50.535  1.00  0.00    -0.550 OA
ENDBRANCH   8   9
ENDBRANCH   7   8
ENDBRANCH   6   7
ENDBRANCH   5   6
ENDBRANCH   4   5
ENDBRANCH   3   4
ENDBRANCH   2   3
ENDBRANCH   1   2
BRANCH   1  12
ATOM     12  C   UNL     1      33.358  23.648  58.054  1.00  0.00     0.000 C 
BRANCH  12  13
ATOM     13  C   UNL     1      32.435  24.266  59.116  1.00  0.00    -0.000 C 
BRANCH  13  14
ATOM     14  C   UNL     1      32.551  23.566  60.482  1.00  0.00    -0.000 C 
BRANCH  14  15
ATOM     15  C   UNL     1      31.606  24.170  61.533  1.00  0.00    -0.000 C 
BRANCH  15  16
ATOM     16  C   UNL     1      31.889  23.642  62.951  1.00  0.00    -0.000 C 
BRANCH  16  17
ATOM     17  C   UNL     1      32.957  24.469  63.684  1.00  0.00    -0.000 C 
BRANCH  17  18
ATOM     18  C   UNL     1      32.626  24.670  65.173  1.00  0.00    -0.000 C 
BRANCH  18  19
ATOM     19  C   UNL     1      31.723  23.559  65.729  1.00  0.00    -0.003 C 
ATOM     20  C   UNL     1      30.364  24.082  66.195  1.00  0.00     0.004 C 
ENDBRANCH  18  19
ENDBRANCH  17  18
ENDBRANCH  16  17
ENDBRANCH  15  16
ENDBRANCH  14  15
ENDBRANCH  13  14
ENDBRANCH  12  13
ENDBRANCH   1  12
TORSDOF 16
ENDMDL
