MODEL 1
REMARK VINA RESULT:    -3.050      0.000      0.000
REMARK INTER + INTRA:          -6.861
REMARK INTER:                  -5.190
REMARK INTRA:                  -1.671
REMARK UNBOUND:                -1.671
REMARK SMILES CCCCCCCCCCCCCC(=O)[O-]
REMARK SMILES IDX 8 1 9 2 10 3 11 4 12 5 13 6 14 7 15 8 16 9 7 10 6 11 5 12
REMARK SMILES IDX 4 13 3 14 2 15 1 16
REMARK H PARENT
REMARK Flexibility Score: inf
ROOT
ATOM      1  C   UNL     1      50.417  46.960  15.588  1.00  0.00     0.000 C 
ENDROOT
BRANCH   1   2
ATOM      2  C   UNL     1      50.399  46.122  14.300  1.00  0.00     0.000 C 
BRANCH   2   3
ATOM      3  C   UNL     1      49.753  44.742  14.500  1.00  0.00     0.000 C 
BRANCH   3   4
ATOM      4  C   UNL     1      48.703  44.786  15.621  1.00  0.00     0.000 C 
BRANCH   4   5
ATOM      5  C   UNL     1      47.264  44.834  15.083  1.00  0.00     0.006 C 
BRANCH   5   6
ATOM      6  C   UNL     1      46.397  43.683  15.611  1.00  0.00     0.053 C 
BRANCH   6   7
ATOM      7  C   UNL     1      46.849  42.381  15.028  1.00  0.00     0.041 C 
ATOM      8  O   UNL     1      47.139  41.416  15.783  1.00  0.00    -0.550 OA
ATOM      9  O   UNL     1      46.997  42.249  13.654  1.00  0.00    -0.550 OA
ENDBRANCH   6   7
ENDBRANCH   5   6
ENDBRANCH   4   5
ENDBRANCH   3   4
ENDBRANCH   2   3
ENDBRANCH   1   2
BRANCH   1  10
ATOM     10  C   UNL     1      49.770  48.341  15.405  1.00  0.00     0.000 C 
BRANCH  10  11
ATOM     11  C   UNL     1      48.963  48.401  14.102  1.00  0.00    -0.000 C 
BRANCH  11  12
ATOM     12  C   UNL     1      49.230  49.710  13.348  1.00  0.00    -0.000 C 
BRANCH  12  13
ATOM     13  C   UNL     1      50.737  49.953  13.182  1.00  0.00    -0.000 C 
BRANCH  13  14
ATOM     14  C   UNL     1      51.362  49.073  12.089  1.00  0.00    -0.000 C 
BRANCH  14  15
ATOM     15  C   UNL     1      52.662  48.395  12.547  1.00  0.00    -0.003 C 
ATOM     16  C   UNL     1      53.150  48.979  13.870  1.00  0.00     0.004 C 
ENDBRANCH  14  15
ENDBRANCH  13  14
ENDBRANCH  12  13
ENDBRANCH  11  12
ENDBRANCH  10  11
ENDBRANCH   1  10
TORSDOF 12
ENDMDL
MODEL 2
REMARK VINA RESULT:    -3.048      3.073      6.606
REMARK INTER + INTRA:          -6.857
REMARK INTER:                  -4.942
REMARK INTRA:                  -1.915
REMARK UNBOUND:                -1.671
REMARK SMILES CCCCCCCCCCCCCC(=O)[O-]
REMARK SMILES IDX 8 1 9 2 10 3 11 4 12 5 13 6 14 7 15 8 16 9 7 10 6 11 5 12
REMARK SMILES IDX 4 13 3 14 2 15 1 16
REMARK H PARENT
REMARK Flexibility Score: inf
ROOT
ATOM      1  C   UNL     1      48.220  44.246  17.706  1.00  0.00     0.000 C 
ENDROOT
BRANCH   1   2
ATOM      2  C   UNL     1      48.980  42.950  17.382  1.00  0.00     0.000 C 
BRANCH   2   3
ATOM      3  C   UNL     1      49.774  43.041  16.068  1.00  0.00     0.000 C 
BRANCH   3   4
ATOM      4  C   UNL     1      50.280  44.472  15.831  1.00  0.00     0.000 C 
BRANCH   4   5
ATOM      5  C   UNL     1      49.795  45.058  14.496  1.00  0.00     0.006 C 
BRANCH   5   6
ATOM      6  C   UNL     1      50.593  46.298  14.071  1.00  0.00     0.053 C 
BRANCH   6   7
ATOM      7  C   UNL     1      49.987  47.534  14.659  1.00  0.00     0.041 C 
ATOM      8  O   UNL     1      48.995  48.078  14.107  1.00  0.00    -0.550 OA
ATOM      9  O   UNL     1      50.549  48.112  15.790  1.00  0.00    -0.550 OA
ENDBRANCH   6   7
ENDBRANCH   5   6
ENDBRANCH   4   5
ENDBRANCH   3   4
ENDBRANCH   2   3
ENDBRANCH   1   2
BRANCH   1  10
ATOM     10  C   UNL     1      46.699  44.092  17.558  1.00  0.00     0.000 C 
BRANCH  10  11
ATOM     11  C   UNL     1      46.171  44.943  16.397  1.00  0.00    -0.000 C 
BRANCH  11  12
ATOM     12  C   UNL     1      45.474  44.071  15.346  1.00  0.00    -0.000 C 
BRANCH  12  13
ATOM     13  C   UNL     1      46.484  43.530  14.323  1.00  0.00    -0.000 C 
BRANCH  13  14
ATOM     14  C   UNL     1      46.629  42.002  14.385  1.00  0.00    -0.000 C 
BRANCH  14  15
ATOM     15  C   UNL     1      45.548  41.340  15.253  1.00  0.00    -0.003 C 
ATOM     16  C   UNL     1      46.172  40.519  16.378  1.00  0.00     0.004 C 
ENDBRANCH  14  15
ENDBRANCH  13  14
ENDBRANCH  12  13
ENDBRANCH  11  12
ENDBRANCH  10  11
ENDBRANCH   1  10
TORSDOF 12
ENDMDL
MODEL 3
REMARK VINA RESULT:    -3.038      3.384      7.571
REMARK INTER + INTRA:          -6.841
REMARK INTER:                  -5.492
REMARK INTRA:                  -1.349
REMARK UNBOUND:                -1.671
REMARK SMILES CCCCCCCCCCCCCC(=O)[O-]
REMARK SMILES IDX 8 1 9 2 10 3 11 4 12 5 13 6 14 7 15 8 16 9 7 10 6 11 5 12
REMARK SMILES IDX 4 13 3 14 2 15 1 16
REMARK H PARENT
REMARK Flexibility Score: inf
ROOT
ATOM      1  C   UNL     1      48.171  43.242  14.853  1.00  0.00     0.000 C 
ENDROOT
BRANCH   1   2
ATOM      2  C   UNL     1      47.612  44.580  15.361  1.00  0.00     0.000 C 
BRANCH   2   3
ATOM      3  C   UNL     1      48.485  45.779  14.960  1.00  0.00     0.000 C 
BRANCH   3   4
ATOM      4  C   UNL     1      49.882  45.316  14.520  1.00  0.00     0.000 C 
BRANCH   4   5
ATOM      5  C   UNL     1      50.659  46.409  13.768  1.00  0.00     0.006 C 
BRANCH   5   6
ATOM      6  C   UNL     1      50.147  47.821  14.084  1.00  0.00     0.053 C 
BRANCH   6   7
ATOM      7  C   UNL     1      50.788  48.823  13.176  1.00  0.00     0.041 C 
ATOM      8  O   UNL     1      50.132  49.332  12.231  1.00  0.00    -0.550 OA
ATOM      9  O   UNL     1      52.126  49.157  13.345  1.00  0.00    -0.550 OA
ENDBRANCH   6   7
ENDBRANCH   5   6
ENDBRANCH   4   5
ENDBRANCH   3   4
ENDBRANCH   2   3
ENDBRANCH   1   2
BRANCH   1  10
ATOM     10  C   UNL     1      47.125  42.412  14.094  1.00  0.00     0.000 C 
BRANCH  10  11
ATOM     11  C   UNL     1      45.775  42.434  14.820  1.00  0.00    -0.000 C 
BRANCH  11  12
ATOM     12  C   UNL     1      45.475  41.078  15.470  1.00  0.00    -0.000 C 
BRANCH  12  13
ATOM     13  C   UNL     1      45.551  41.173  17.002  1.00  0.00    -0.000 C 
BRANCH  13  14
ATOM     14  C   UNL     1      45.194  42.572  17.527  1.00  0.00    -0.000 C 
BRANCH  14  15
ATOM     15  C   UNL     1      46.243  43.122  18.503  1.00  0.00    -0.003 C 
ATOM     16  C   UNL     1      47.544  42.329  18.417  1.00  0.00     0.004 C 
ENDBRANCH  14  15
ENDBRANCH  13  14
ENDBRANCH  12  13
ENDBRANCH  11  12
ENDBRANCH  10  11
ENDBRANCH   1  10
TORSDOF 12
ENDMDL
MODEL 4
REMARK VINA RESULT:    -3.022      3.582      7.267
REMARK INTER + INTRA:          -6.814
REMARK INTER:                  -5.819
REMARK INTRA:                  -0.994
REMARK UNBOUND:                -1.671
REMARK SMILES CCCCCCCCCCCCCC(=O)[O-]
REMARK SMILES IDX 8 1 9 2 10 3 11 4 12 5 13 6 14 7 15 8 16 9 7 10 6 11 5 12
REMARK SMILES IDX 4 13 3 14 2 15 1 16
REMARK H PARENT
REMARK Flexibility Score: inf
ROOT
ATOM      1  C   UNL     1      50.077  44.548  15.202  1.00  0.00     0.000 C 
ENDROOT
BRANCH   1   2
ATOM      2  C   UNL     1      50.056  45.862  14.407  1.00  0.00     0.000 C 
BRANCH   2   3
ATOM      3  C   UNL     1      48.861  46.757  14.773  1.00  0.00     0.000 C 
BRANCH   3   4
ATOM      4  C   UNL     1      49.098  48.203  14.312  1.00  0.00     0.000 C 
BRANCH   4   5
ATOM      5  C   UNL     1      50.445  48.382  13.592  1.00  0.00     0.006 C 
BRANCH   5   6
ATOM      6  C   UNL     1      50.339  49.285  12.356  1.00  0.00     0.053 C 
BRANCH   6   7
ATOM      7  C   UNL     1      51.587  49.196  11.537  1.00  0.00     0.041 C 
ATOM      8  O   UNL     1      52.693  48.959  12.091  1.00  0.00    -0.550 OA
ATOM      9  O   UNL     1      51.537  49.423  10.168  1.00  0.00    -0.550 OA
ENDBRANCH   6   7
ENDBRANCH   5   6
ENDBRANCH   4   5
ENDBRANCH   3   4
ENDBRANCH   2   3
ENDBRANCH   1   2
BRANCH   1  10
ATOM     10  C   UNL     1      49.260  44.626  16.500  1.00  0.00     0.000 C 
BRANCH  10  11
ATOM     11  C   UNL     1      48.186  43.533  16.540  1.00  0.00    -0.000 C 
BRANCH  11  12
ATOM     12  C   UNL     1      46.820  44.085  16.114  1.00  0.00    -0.000 C 
BRANCH  12  13
ATOM     13  C   UNL     1      46.506  43.714  14.657  1.00  0.00    -0.000 C 
BRANCH  13  14
ATOM     14  C   UNL     1      46.536  42.198  14.412  1.00  0.00    -0.000 C 
BRANCH  14  15
ATOM     15  C   UNL     1      45.396  41.461  15.131  1.00  0.00    -0.003 C 
ATOM     16  C   UNL     1      45.739  39.988  15.338  1.00  0.00     0.004 C 
ENDBRANCH  14  15
ENDBRANCH  13  14
ENDBRANCH  12  13
ENDBRANCH  11  12
ENDBRANCH  10  11
ENDBRANCH   1  10
TORSDOF 12
ENDMDL
MODEL 5
REMARK VINA RESULT:    -3.000     11.148     13.072
REMARK INTER + INTRA:          -6.775
REMARK INTER:                  -5.654
REMARK INTRA:                  -1.121
REMARK UNBOUND:                -1.671
REMARK SMILES CCCCCCCCCCCCCC(=O)[O-]
REMARK SMILES IDX 8 1 9 2 10 3 11 4 12 5 13 6 14 7 15 8 16 9 7 10 6 11 5 12
REMARK SMILES IDX 4 13 3 14 2 15 1 16
REMARK H PARENT
REMARK Flexibility Score: inf
ROOT
ATOM      1  C   UNL     1      62.448  42.729  19.490  1.00  0.00     0.000 C 
ENDROOT
BRANCH   1   2
ATOM      2  C   UNL     1      61.179  42.521  18.649  1.00  0.00     0.000 C 
BRANCH   2   3
ATOM      3  C   UNL     1      60.342  43.803  18.512  1.00  0.00     0.000 C 
BRANCH   3   4
ATOM      4  C   UNL     1      58.994  43.508  17.836  1.00  0.00     0.000 C 
BRANCH   4   5
ATOM      5  C   UNL     1      58.546  44.634  16.891  1.00  0.00     0.006 C 
BRANCH   5   6
ATOM      6  C   UNL     1      57.670  44.124  15.738  1.00  0.00     0.053 C 
BRANCH   6   7
ATOM      7  C   UNL     1      56.729  45.196  15.286  1.00  0.00     0.041 C 
ATOM      8  O   UNL     1      55.488  44.985  15.271  1.00  0.00    -0.550 OA
ATOM      9  O   UNL     1      57.227  46.411  14.834  1.00  0.00    -0.550 OA
ENDBRANCH   6   7
ENDBRANCH   5   6
ENDBRANCH   4   5
ENDBRANCH   3   4
ENDBRANCH   2   3
ENDBRANCH   1   2
BRANCH   1  10
ATOM     10  C   UNL     1      63.696  42.113  18.841  1.00  0.00     0.000 C 
BRANCH  10  11
ATOM     11  C   UNL     1      63.310  41.026  17.831  1.00  0.00    -0.000 C 
BRANCH  11  12
ATOM     12  C   UNL     1      64.447  40.770  16.834  1.00  0.00    -0.000 C 
BRANCH  12  13
ATOM     13  C   UNL     1      64.141  41.413  15.473  1.00  0.00    -0.000 C 
BRANCH  13  14
ATOM     14  C   UNL     1      64.729  42.827  15.341  1.00  0.00    -0.000 C 
BRANCH  14  15
ATOM     15  C   UNL     1      63.701  43.850  14.837  1.00  0.00    -0.003 C 
ATOM     16  C   UNL     1      62.957  44.501  15.999  1.00  0.00     0.004 C 
ENDBRANCH  14  15
ENDBRANCH  13  14
ENDBRANCH  12  13
ENDBRANCH  11  12
ENDBRANCH  10  11
ENDBRANCH   1  10
TORSDOF 12
ENDMDL
MODEL 6
REMARK VINA RESULT:    -2.960      1.953      4.108
REMARK INTER + INTRA:          -6.707
REMARK INTER:                  -5.454
REMARK INTRA:                  -1.253
REMARK UNBOUND:                -1.671
REMARK SMILES CCCCCCCCCCCCCC(=O)[O-]
REMARK SMILES IDX 8 1 9 2 10 3 11 4 12 5 13 6 14 7 15 8 16 9 7 10 6 11 5 12
REMARK SMILES IDX 4 13 3 14 2 15 1 16
REMARK H PARENT
REMARK Flexibility Score: inf
ROOT
ATOM      1  C   UNL     1      46.735  43.997  14.550  1.00  0.00     0.000 C 
ENDROOT
BRANCH   1   2
ATOM      2  C   UNL     1      47.288  42.626  14.130  1.00  0.00     0.000 C 
BRANCH   2   3
ATOM      3  C   UNL     1      46.389  41.462  14.577  1.00  0.00     0.000 C 
BRANCH   3   4
ATOM      4  C   UNL     1      45.205  41.973  15.412  1.00  0.00     0.000 C 
BRANCH   4   5
ATOM      5  C   UNL     1      45.312  41.580  16.893  1.00  0.00     0.006 C 
BRANCH   5   6
ATOM      6  C   UNL     1      46.766  41.473  17.373  1.00  0.00     0.053 C 
BRANCH   6   7
ATOM      7  C   UNL     1      47.123  42.652  18.222  1.00  0.00     0.041 C 
ATOM      8  O   UNL     1      46.434  43.704  18.166  1.00  0.00    -0.550 OA
ATOM      9  O   UNL     1      48.246  42.605  19.038  1.00  0.00    -0.550 OA
ENDBRANCH   6   7
ENDBRANCH   5   6
ENDBRANCH   4   5
ENDBRANCH   3   4
ENDBRANCH   2   3
ENDBRANCH   1   2
BRANCH   1  10
ATOM     10  C   UNL     1      47.809  44.905  15.168  1.00  0.00     0.000 C 
BRANCH  10  11
ATOM     11  C   UNL     1      49.116  44.136  15.393  1.00  0.00    -0.000 C 
BRANCH  11  12
ATOM     12  C   UNL     1      50.317  44.915  14.842  1.00  0.00    -0.000 C 
BRANCH  12  13
ATOM     13  C   UNL     1      49.882  46.281  14.291  1.00  0.00    -0.000 C 
BRANCH  13  14
ATOM     14  C   UNL     1      51.055  47.089  13.718  1.00  0.00    -0.000 C 
BRANCH  14  15
ATOM     15  C   UNL     1      50.654  48.520  13.328  1.00  0.00    -0.003 C 
ATOM     16  C   UNL     1      49.232  48.834  13.782  1.00  0.00     0.004 C 
ENDBRANCH  14  15
ENDBRANCH  13  14
ENDBRANCH  12  13
ENDBRANCH  11  12
ENDBRANCH  10  11
ENDBRANCH   1  10
TORSDOF 12
ENDMDL
MODEL 7
REMARK VINA RESULT:    -2.958     10.958     13.074
REMARK INTER + INTRA:          -6.704
REMARK INTER:                  -5.276
REMARK INTRA:                  -1.428
REMARK UNBOUND:                -1.671
REMARK SMILES CCCCCCCCCCCCCC(=O)[O-]
REMARK SMILES IDX 8 1 9 2 10 3 11 4 12 5 13 6 14 7 15 8 16 9 7 10 6 11 5 12
REMARK SMILES IDX 4 13 3 14 2 15 1 16
REMARK H PARENT
REMARK Flexibility Score: inf
ROOT
ATOM      1  C   UNL     1      61.966  44.689  16.815  1.00  0.00     0.000 C 
ENDROOT
BRANCH   1   2
ATOM      2  C   UNL     1      61.588  43.727  17.953  1.00  0.00     0.000 C 
BRANCH   2   3
ATOM      3  C   UNL     1      60.069  43.629  18.166  1.00  0.00     0.000 C 
BRANCH   3   4
ATOM      4  C   UNL     1      59.527  44.897  18.843  1.00  0.00     0.000 C 
BRANCH   4   5
ATOM      5  C   UNL     1      58.221  45.398  18.206  1.00  0.00     0.006 C 
BRANCH   5   6
ATOM      6  C   UNL     1      58.327  45.549  16.683  1.00  0.00     0.053 C 
BRANCH   6   7
ATOM      7  C   UNL     1      57.258  44.752  16.004  1.00  0.00     0.041 C 
ATOM      8  O   UNL     1      57.562  43.751  15.305  1.00  0.00    -0.550 OA
ATOM      9  O   UNL     1      55.930  45.144  16.105  1.00  0.00    -0.550 OA
ENDBRANCH   6   7
ENDBRANCH   5   6
ENDBRANCH   4   5
ENDBRANCH   3   4
ENDBRANCH   2   3
ENDBRANCH   1   2
BRANCH   1  10
ATOM     10  C   UNL     1      63.439  45.120  16.870  1.00  0.00     0.000 C 
BRANCH  10  11
ATOM     11  C   UNL     1      64.108  44.963  15.499  1.00  0.00    -0.000 C 
BRANCH  11  12
ATOM     12  C   UNL     1      63.802  43.590  14.889  1.00  0.00    -0.000 C 
BRANCH  12  13
ATOM     13  C   UNL     1      64.788  42.528  15.400  1.00  0.00    -0.000 C 
BRANCH  13  14
ATOM     14  C   UNL     1      64.112  41.177  15.677  1.00  0.00    -0.000 C 
BRANCH  14  15
ATOM     15  C   UNL     1      64.005  40.866  17.177  1.00  0.00    -0.003 C 
ATOM     16  C   UNL     1      64.840  41.841  18.001  1.00  0.00     0.004 C 
ENDBRANCH  14  15
ENDBRANCH  13  14
ENDBRANCH  12  13
ENDBRANCH  11  12
ENDBRANCH  10  11
ENDBRANCH   1  10
TORSDOF 12
ENDMDL
MODEL 8
REMARK VINA RESULT:    -2.932     12.991     15.206
REMARK INTER + INTRA:          -6.660
REMARK INTER:                  -4.749
REMARK INTRA:                  -1.911
REMARK UNBOUND:                -1.671
REMARK SMILES CCCCCCCCCCCCCC(=O)[O-]
REMARK SMILES IDX 8 1 9 2 10 3 11 4 12 5 13 6 14 7 15 8 16 9 7 10 6 11 5 12
REMARK SMILES IDX 4 13 3 14 2 15 1 16
REMARK H PARENT
REMARK Flexibility Score: inf
ROOT
ATOM      1  C   UNL     1      64.104  41.365  15.594  1.00  0.00     0.000 C 
ENDROOT
BRANCH   1   2
ATOM      2  C   UNL     1      64.430  41.257  17.092  1.00  0.00     0.000 C 
BRANCH   2   3
ATOM      3  C   UNL     1      63.184  40.995  17.953  1.00  0.00     0.000 C 
BRANCH   3   4
ATOM      4  C   UNL     1      62.805  42.244  18.763  1.00  0.00     0.000 C 
BRANCH   4   5
ATOM      5  C   UNL     1      64.011  43.154  19.047  1.00  0.00     0.006 C 
BRANCH   5   6
ATOM      6  C   UNL     1      63.659  44.331  19.966  1.00  0.00     0.053 C 
BRANCH   6   7
ATOM      7  C   UNL     1      63.213  43.833  21.304  1.00  0.00     0.041 C 
ATOM      8  O   UNL     1      62.107  44.200  21.780  1.00  0.00    -0.550 OA
ATOM      9  O   UNL     1      64.041  43.003  22.047  1.00  0.00    -0.550 OA
ENDBRANCH   6   7
ENDBRANCH   5   6
ENDBRANCH   4   5
ENDBRANCH   3   4
ENDBRANCH   2   3
ENDBRANCH   1   2
BRANCH   1  10
ATOM     10  C   UNL     1      64.779  42.573  14.927  1.00  0.00     0.000 C 
BRANCH  10  11
ATOM     11  C   UNL     1      63.817  43.764  14.848  1.00  0.00    -0.000 C 
BRANCH  11  12
ATOM     12  C   UNL     1      64.376  44.976  15.605  1.00  0.00    -0.000 C 
BRANCH  12  13
ATOM     13  C   UNL     1      63.272  45.680  16.408  1.00  0.00    -0.000 C 
BRANCH  13  14
ATOM     14  C   UNL     1      61.983  44.850  16.498  1.00  0.00    -0.000 C 
BRANCH  14  15
ATOM     15  C   UNL     1      60.960  45.449  17.473  1.00  0.00    -0.003 C 
ATOM     16  C   UNL     1      59.824  44.469  17.749  1.00  0.00     0.004 C 
ENDBRANCH  14  15
ENDBRANCH  13  14
ENDBRANCH  12  13
ENDBRANCH  11  12
ENDBRANCH  10  11
ENDBRANCH   1  10
TORSDOF 12
ENDMDL
