MODEL 1
REMARK VINA RESULT:    -5.132      0.000      0.000
REMARK INTER + INTRA:         -14.574
REMARK INTER:                 -11.733
REMARK INTRA:                  -2.842
REMARK UNBOUND:                -2.842
REMARK SMILES CCCCCCCCCCCCCCCCCCCCCCCC(=O)[O-]
REMARK SMILES IDX 13 1 14 2 15 3 16 4 17 5 18 6 19 7 20 8 21 9 22 10 23 11
REMARK SMILES IDX 24 12 25 13 26 14 12 15 11 16 10 17 9 18 8 19 7 20 6 21 5 22
REMARK SMILES IDX 4 23 3 24 2 25 1 26
REMARK H PARENT
REMARK Flexibility Score: inf
ROOT
ATOM      1  C   UNL     1      23.191  12.350  33.974  1.00  0.00     0.000 C 
ENDROOT
BRANCH   1   2
ATOM      2  C   UNL     1      24.547  11.777  33.525  1.00  0.00     0.000 C 
BRANCH   2   3
ATOM      3  C   UNL     1      24.483  11.157  32.119  1.00  0.00     0.000 C 
BRANCH   3   4
ATOM      4  C   UNL     1      25.761  10.384  31.761  1.00  0.00     0.000 C 
BRANCH   4   5
ATOM      5  C   UNL     1      26.436  10.972  30.516  1.00  0.00     0.000 C 
BRANCH   5   6
ATOM      6  C   UNL     1      25.886  12.373  30.207  1.00  0.00     0.000 C 
BRANCH   6   7
ATOM      7  C   UNL     1      26.856  13.495  30.611  1.00  0.00     0.000 C 
BRANCH   7   8
ATOM      8  C   UNL     1      28.290  12.987  30.843  1.00  0.00     0.000 C 
BRANCH   8   9
ATOM      9  C   UNL     1      28.776  13.253  32.286  1.00  0.00     0.000 C 
BRANCH   9  10
ATOM     10  C   UNL     1      27.631  13.484  33.292  1.00  0.00     0.006 C 
BRANCH  10  11
ATOM     11  C   UNL     1      27.961  13.058  34.730  1.00  0.00     0.053 C 
BRANCH  11  12
ATOM     12  C   UNL     1      27.271  13.925  35.739  1.00  0.00     0.041 C 
ATOM     13  O   UNL     1      27.824  14.977  36.160  1.00  0.00    -0.550 OA
ATOM     14  O   UNL     1      26.029  13.555  36.239  1.00  0.00    -0.550 OA
ENDBRANCH  11  12
ENDBRANCH  10  11
ENDBRANCH   9  10
ENDBRANCH   8   9
ENDBRANCH   7   8
ENDBRANCH   6   7
ENDBRANCH   5   6
ENDBRANCH   4   5
ENDBRANCH   3   4
ENDBRANCH   2   3
ENDBRANCH   1   2
BRANCH   1  15
ATOM     15  C   UNL     1      22.038  11.977  33.024  1.00  0.00     0.000 C 
BRANCH  15  16
ATOM     16  C   UNL     1      21.316  13.171  32.372  1.00  0.00     0.000 C 
BRANCH  16  17
ATOM     17  C   UNL     1      21.205  14.389  33.306  1.00  0.00     0.000 C 
BRANCH  17  18
ATOM     18  C   UNL     1      19.749  14.755  33.648  1.00  0.00    -0.000 C 
BRANCH  18  19
ATOM     19  C   UNL     1      19.093  13.882  34.733  1.00  0.00    -0.000 C 
BRANCH  19  20
ATOM     20  C   UNL     1      20.061  13.513  35.872  1.00  0.00    -0.000 C 
BRANCH  20  21
ATOM     21  C   UNL     1      19.665  12.210  36.585  1.00  0.00    -0.000 C 
BRANCH  21  22
ATOM     22  C   UNL     1      19.591  11.009  35.625  1.00  0.00    -0.000 C 
BRANCH  22  23
ATOM     23  C   UNL     1      18.374  10.107  35.918  1.00  0.00    -0.000 C 
BRANCH  23  24
ATOM     24  C   UNL     1      18.354   9.544  37.350  1.00  0.00    -0.000 C 
BRANCH  24  25
ATOM     25  C   UNL     1      19.408   8.452  37.577  1.00  0.00    -0.003 C 
ATOM     26  C   UNL     1      18.824   7.064  37.336  1.00  0.00     0.004 C 
ENDBRANCH  24  25
ENDBRANCH  23  24
ENDBRANCH  22  23
ENDBRANCH  21  22
ENDBRANCH  20  21
ENDBRANCH  19  20
ENDBRANCH  18  19
ENDBRANCH  17  18
ENDBRANCH  16  17
ENDBRANCH  15  16
ENDBRANCH   1  15
TORSDOF 22
ENDMDL
MODEL 2
REMARK VINA RESULT:    -5.107      2.123      3.765
REMARK INTER + INTRA:         -14.517
REMARK INTER:                 -10.752
REMARK INTRA:                  -3.766
REMARK UNBOUND:                -2.842
REMARK SMILES CCCCCCCCCCCCCCCCCCCCCCCC(=O)[O-]
REMARK SMILES IDX 13 1 14 2 15 3 16 4 17 5 18 6 19 7 20 8 21 9 22 10 23 11
REMARK SMILES IDX 24 12 25 13 26 14 12 15 11 16 10 17 9 18 8 19 7 20 6 21 5 22
REMARK SMILES IDX 4 23 3 24 2 25 1 26
REMARK H PARENT
REMARK Flexibility Score: inf
ROOT
ATOM      1  C   UNL     1      24.127  12.651  35.470  1.00  0.00     0.000 C 
ENDROOT
BRANCH   1   2
ATOM      2  C   UNL     1      25.097  11.857  34.576  1.00  0.00     0.000 C 
BRANCH   2   3
ATOM      3  C   UNL     1      24.826  12.078  33.079  1.00  0.00     0.000 C 
BRANCH   3   4
ATOM      4  C   UNL     1      25.369  10.934  32.210  1.00  0.00     0.000 C 
BRANCH   4   5
ATOM      5  C   UNL     1      25.584  11.390  30.762  1.00  0.00     0.000 C 
BRANCH   5   6
ATOM      6  C   UNL     1      25.599  12.924  30.669  1.00  0.00     0.000 C 
BRANCH   6   7
ATOM      7  C   UNL     1      26.879  13.466  30.011  1.00  0.00     0.000 C 
BRANCH   7   8
ATOM      8  C   UNL     1      28.115  12.599  30.309  1.00  0.00     0.000 C 
BRANCH   8   9
ATOM      9  C   UNL     1      29.014  13.220  31.402  1.00  0.00     0.000 C 
BRANCH   9  10
ATOM     10  C   UNL     1      28.558  12.893  32.838  1.00  0.00     0.006 C 
BRANCH  10  11
ATOM     11  C   UNL     1      27.924  14.078  33.582  1.00  0.00     0.053 C 
BRANCH  11  12
ATOM     12  C   UNL     1      27.986  13.898  35.068  1.00  0.00     0.041 C 
ATOM     13  O   UNL     1      27.909  14.896  35.835  1.00  0.00    -0.550 OA
ATOM     14  O   UNL     1      28.159  12.630  35.608  1.00  0.00    -0.550 OA
ENDBRANCH  11  12
ENDBRANCH  10  11
ENDBRANCH   9  10
ENDBRANCH   8   9
ENDBRANCH   7   8
ENDBRANCH   6   7
ENDBRANCH   5   6
ENDBRANCH   4   5
ENDBRANCH   3   4
ENDBRANCH   2   3
ENDBRANCH   1   2
BRANCH   1  15
ATOM     15  C   UNL     1      22.722  12.789  34.856  1.00  0.00     0.000 C 
BRANCH  15  16
ATOM     16  C   UNL     1      21.559  12.410  35.792  1.00  0.00     0.000 C 
BRANCH  16  17
ATOM     17  C   UNL     1      20.178  12.613  35.147  1.00  0.00     0.000 C 
BRANCH  17  18
ATOM     18  C   UNL     1      19.711  14.080  35.171  1.00  0.00    -0.000 C 
BRANCH  18  19
ATOM     19  C   UNL     1      19.572  14.745  33.790  1.00  0.00    -0.000 C 
BRANCH  19  20
ATOM     20  C   UNL     1      20.693  15.759  33.496  1.00  0.00    -0.000 C 
BRANCH  20  21
ATOM     21  C   UNL     1      20.768  16.142  32.009  1.00  0.00    -0.000 C 
BRANCH  21  22
ATOM     22  C   UNL     1      20.424  14.967  31.077  1.00  0.00    -0.000 C 
BRANCH  22  23
ATOM     23  C   UNL     1      21.678  14.388  30.388  1.00  0.00    -0.000 C 
BRANCH  23  24
ATOM     24  C   UNL     1      22.122  13.029  30.957  1.00  0.00    -0.000 C 
BRANCH  24  25
ATOM     25  C   UNL     1      20.955  12.049  31.144  1.00  0.00    -0.003 C 
ATOM     26  C   UNL     1      21.349  10.892  32.056  1.00  0.00     0.004 C 
ENDBRANCH  24  25
ENDBRANCH  23  24
ENDBRANCH  22  23
ENDBRANCH  21  22
ENDBRANCH  20  21
ENDBRANCH  19  20
ENDBRANCH  18  19
ENDBRANCH  17  18
ENDBRANCH  16  17
ENDBRANCH  15  16
ENDBRANCH   1  15
TORSDOF 22
ENDMDL
MODEL 3
REMARK VINA RESULT:    -5.046      2.757      4.163
REMARK INTER + INTRA:         -14.379
REMARK INTER:                 -11.143
REMARK INTRA:                  -3.236
REMARK UNBOUND:                -2.842
REMARK SMILES CCCCCCCCCCCCCCCCCCCCCCCC(=O)[O-]
REMARK SMILES IDX 13 1 14 2 15 3 16 4 17 5 18 6 19 7 20 8 21 9 22 10 23 11
REMARK SMILES IDX 24 12 25 13 26 14 12 15 11 16 10 17 9 18 8 19 7 20 6 21 5 22
REMARK SMILES IDX 4 23 3 24 2 25 1 26
REMARK H PARENT
REMARK Flexibility Score: inf
ROOT
ATOM      1  C   UNL     1      24.545  12.486  35.970  1.00  0.00     0.000 C 
ENDROOT
BRANCH   1   2
ATOM      2  C   UNL     1      25.383  11.872  34.834  1.00  0.00     0.000 C 
BRANCH   2   3
ATOM      3  C   UNL     1      26.893  11.972  35.102  1.00  0.00     0.000 C 
BRANCH   3   4
ATOM      4  C   UNL     1      27.355  13.420  35.324  1.00  0.00     0.000 C 
BRANCH   4   5
ATOM      5  C   UNL     1      27.992  14.000  34.056  1.00  0.00     0.000 C 
BRANCH   5   6
ATOM      6  C   UNL     1      28.538  12.880  33.157  1.00  0.00     0.000 C 
BRANCH   6   7
ATOM      7  C   UNL     1      28.845  13.361  31.729  1.00  0.00     0.000 C 
BRANCH   7   8
ATOM      8  C   UNL     1      28.081  12.568  30.656  1.00  0.00     0.000 C 
BRANCH   8   9
ATOM      9  C   UNL     1      26.613  12.304  31.060  1.00  0.00     0.000 C 
BRANCH   9  10
ATOM     10  C   UNL     1      26.239  10.809  31.090  1.00  0.00     0.006 C 
BRANCH  10  11
ATOM     11  C   UNL     1      24.753  10.537  31.370  1.00  0.00     0.053 C 
BRANCH  11  12
ATOM     12  C   UNL     1      24.302   9.242  30.767  1.00  0.00     0.041 C 
ATOM     13  O   UNL     1      23.094   9.073  30.450  1.00  0.00    -0.550 OA
ATOM     14  O   UNL     1      25.211   8.207  30.584  1.00  0.00    -0.550 OA
ENDBRANCH  11  12
ENDBRANCH  10  11
ENDBRANCH   9  10
ENDBRANCH   8   9
ENDBRANCH   7   8
ENDBRANCH   6   7
ENDBRANCH   5   6
ENDBRANCH   4   5
ENDBRANCH   3   4
ENDBRANCH   2   3
ENDBRANCH   1   2
BRANCH   1  15
ATOM     15  C   UNL     1      23.057  12.637  35.604  1.00  0.00     0.000 C 
BRANCH  15  16
ATOM     16  C   UNL     1      22.733  12.486  34.106  1.00  0.00     0.000 C 
BRANCH  16  17
ATOM     17  C   UNL     1      21.896  13.651  33.552  1.00  0.00     0.000 C 
BRANCH  17  18
ATOM     18  C   UNL     1      20.938  13.222  32.425  1.00  0.00    -0.000 C 
BRANCH  18  19
ATOM     19  C   UNL     1      19.468  13.636  32.624  1.00  0.00    -0.000 C 
BRANCH  19  20
ATOM     20  C   UNL     1      19.274  14.616  33.795  1.00  0.00    -0.000 C 
BRANCH  20  21
ATOM     21  C   UNL     1      17.882  14.501  34.437  1.00  0.00    -0.000 C 
BRANCH  21  22
ATOM     22  C   UNL     1      17.941  14.006  35.893  1.00  0.00    -0.000 C 
BRANCH  22  23
ATOM     23  C   UNL     1      19.304  13.367  36.234  1.00  0.00    -0.000 C 
BRANCH  23  24
ATOM     24  C   UNL     1      19.202  11.902  36.690  1.00  0.00    -0.000 C 
BRANCH  24  25
ATOM     25  C   UNL     1      19.797  10.917  35.674  1.00  0.00    -0.003 C 
ATOM     26  C   UNL     1      18.722  10.376  34.736  1.00  0.00     0.004 C 
ENDBRANCH  24  25
ENDBRANCH  23  24
ENDBRANCH  22  23
ENDBRANCH  21  22
ENDBRANCH  20  21
ENDBRANCH  19  20
ENDBRANCH  18  19
ENDBRANCH  17  18
ENDBRANCH  16  17
ENDBRANCH  15  16
ENDBRANCH   1  15
TORSDOF 22
ENDMDL
MODEL 4
REMARK VINA RESULT:    -5.036      2.934      7.580
REMARK INTER + INTRA:         -14.354
REMARK INTER:                 -10.715
REMARK INTRA:                  -3.639
REMARK UNBOUND:                -2.842
REMARK SMILES CCCCCCCCCCCCCCCCCCCCCCCC(=O)[O-]
REMARK SMILES IDX 13 1 14 2 15 3 16 4 17 5 18 6 19 7 20 8 21 9 22 10 23 11
REMARK SMILES IDX 24 12 25 13 26 14 12 15 11 16 10 17 9 18 8 19 7 20 6 21 5 22
REMARK SMILES IDX 4 23 3 24 2 25 1 26
REMARK H PARENT
REMARK Flexibility Score: inf
ROOT
ATOM      1  C   UNL     1      24.444  12.044  31.903  1.00  0.00     0.000 C 
ENDROOT
BRANCH   1   2
ATOM      2  C   UNL     1      23.006  12.534  32.150  1.00  0.00     0.000 C 
BRANCH   2   3
ATOM      3  C   UNL     1      22.053  11.385  32.517  1.00  0.00     0.000 C 
BRANCH   3   4
ATOM      4  C   UNL     1      20.697  11.498  31.805  1.00  0.00     0.000 C 
BRANCH   4   5
ATOM      5  C   UNL     1      19.538  11.211  32.767  1.00  0.00     0.000 C 
BRANCH   5   6
ATOM      6  C   UNL     1      19.938  11.531  34.216  1.00  0.00     0.000 C 
BRANCH   6   7
ATOM      7  C   UNL     1      19.175  12.735  34.790  1.00  0.00     0.000 C 
BRANCH   7   8
ATOM      8  C   UNL     1      20.100  13.758  35.470  1.00  0.00     0.000 C 
BRANCH   8   9
ATOM      9  C   UNL     1      20.823  14.662  34.446  1.00  0.00     0.000 C 
BRANCH   9  10
ATOM     10  C   UNL     1      19.912  15.153  33.304  1.00  0.00     0.006 C 
BRANCH  10  11
ATOM     11  C   UNL     1      20.621  15.287  31.948  1.00  0.00     0.053 C 
BRANCH  11  12
ATOM     12  C   UNL     1      20.883  16.720  31.597  1.00  0.00     0.041 C 
ATOM     13  O   UNL     1      21.271  17.532  32.479  1.00  0.00    -0.550 OA
ATOM     14  O   UNL     1      20.670  17.167  30.298  1.00  0.00    -0.550 OA
ENDBRANCH  11  12
ENDBRANCH  10  11
ENDBRANCH   9  10
ENDBRANCH   8   9
ENDBRANCH   7   8
ENDBRANCH   6   7
ENDBRANCH   5   6
ENDBRANCH   4   5
ENDBRANCH   3   4
ENDBRANCH   2   3
ENDBRANCH   1   2
BRANCH   1  15
ATOM     15  C   UNL     1      24.506  10.585  31.418  1.00  0.00     0.000 C 
BRANCH  15  16
ATOM     16  C   UNL     1      25.916  10.070  31.071  1.00  0.00     0.000 C 
BRANCH  16  17
ATOM     17  C   UNL     1      27.035  10.894  31.730  1.00  0.00     0.000 C 
BRANCH  17  18
ATOM     18  C   UNL     1      27.851  11.719  30.719  1.00  0.00    -0.000 C 
BRANCH  18  19
ATOM     19  C   UNL     1      28.476  13.010  31.280  1.00  0.00    -0.000 C 
BRANCH  19  20
ATOM     20  C   UNL     1      28.703  12.953  32.802  1.00  0.00    -0.000 C 
BRANCH  20  21
ATOM     21  C   UNL     1      27.927  14.045  33.556  1.00  0.00    -0.000 C 
BRANCH  21  22
ATOM     22  C   UNL     1      27.662  13.675  35.026  1.00  0.00    -0.000 C 
BRANCH  22  23
ATOM     23  C   UNL     1      27.396  12.166  35.204  1.00  0.00    -0.000 C 
BRANCH  23  24
ATOM     24  C   UNL     1      25.903  11.797  35.194  1.00  0.00    -0.000 C 
BRANCH  24  25
ATOM     25  C   UNL     1      25.058  12.699  36.104  1.00  0.00    -0.003 C 
ATOM     26  C   UNL     1      23.575  12.596  35.760  1.00  0.00     0.004 C 
ENDBRANCH  24  25
ENDBRANCH  23  24
ENDBRANCH  22  23
ENDBRANCH  21  22
ENDBRANCH  20  21
ENDBRANCH  19  20
ENDBRANCH  18  19
ENDBRANCH  17  18
ENDBRANCH  16  17
ENDBRANCH  15  16
ENDBRANCH   1  15
TORSDOF 22
ENDMDL
MODEL 5
REMARK VINA RESULT:    -5.029      1.905      4.120
REMARK INTER + INTRA:         -14.339
REMARK INTER:                 -10.219
REMARK INTRA:                  -4.120
REMARK UNBOUND:                -2.842
REMARK SMILES CCCCCCCCCCCCCCCCCCCCCCCC(=O)[O-]
REMARK SMILES IDX 13 1 14 2 15 3 16 4 17 5 18 6 19 7 20 8 21 9 22 10 23 11
REMARK SMILES IDX 24 12 25 13 26 14 12 15 11 16 10 17 9 18 8 19 7 20 6 21 5 22
REMARK SMILES IDX 4 23 3 24 2 25 1 26
REMARK H PARENT
REMARK Flexibility Score: inf
ROOT
ATOM      1  C   UNL     1      24.154  12.622  35.413  1.00  0.00     0.000 C 
ENDROOT
BRANCH   1   2
ATOM      2  C   UNL     1      25.059  11.873  34.419  1.00  0.00     0.000 C 
BRANCH   2   3
ATOM      3  C   UNL     1      24.571  12.006  32.967  1.00  0.00     0.000 C 
BRANCH   3   4
ATOM      4  C   UNL     1      25.036  10.839  32.083  1.00  0.00     0.000 C 
BRANCH   4   5
ATOM      5  C   UNL     1      25.571  11.342  30.737  1.00  0.00     0.000 C 
BRANCH   5   6
ATOM      6  C   UNL     1      25.390  12.863  30.610  1.00  0.00     0.000 C 
BRANCH   6   7
ATOM      7  C   UNL     1      26.684  13.582  30.197  1.00  0.00     0.000 C 
BRANCH   7   8
ATOM      8  C   UNL     1      27.929  12.688  30.322  1.00  0.00     0.000 C 
BRANCH   8   9
ATOM      9  C   UNL     1      28.864  13.146  31.464  1.00  0.00     0.000 C 
BRANCH   9  10
ATOM     10  C   UNL     1      28.316  12.844  32.872  1.00  0.00     0.006 C 
BRANCH  10  11
ATOM     11  C   UNL     1      27.977  14.094  33.698  1.00  0.00     0.053 C 
BRANCH  11  12
ATOM     12  C   UNL     1      27.987  13.809  35.168  1.00  0.00     0.041 C 
ATOM     13  O   UNL     1      28.228  12.646  35.591  1.00  0.00    -0.550 OA
ATOM     14  O   UNL     1      27.699  14.822  36.074  1.00  0.00    -0.550 OA
ENDBRANCH  11  12
ENDBRANCH  10  11
ENDBRANCH   9  10
ENDBRANCH   8   9
ENDBRANCH   7   8
ENDBRANCH   6   7
ENDBRANCH   5   6
ENDBRANCH   4   5
ENDBRANCH   3   4
ENDBRANCH   2   3
ENDBRANCH   1   2
BRANCH   1  15
ATOM     15  C   UNL     1      22.721  12.821  34.886  1.00  0.00     0.000 C 
BRANCH  15  16
ATOM     16  C   UNL     1      21.609  12.659  35.939  1.00  0.00     0.000 C 
BRANCH  16  17
ATOM     17  C   UNL     1      20.496  11.695  35.493  1.00  0.00     0.000 C 
BRANCH  17  18
ATOM     18  C   UNL     1      19.994  11.974  34.064  1.00  0.00    -0.000 C 
BRANCH  18  19
ATOM     19  C   UNL     1      19.316  10.781  33.365  1.00  0.00    -0.000 C 
BRANCH  19  20
ATOM     20  C   UNL     1      20.093  10.288  32.131  1.00  0.00    -0.000 C 
BRANCH  20  21
ATOM     21  C   UNL     1      21.382  11.088  31.887  1.00  0.00    -0.000 C 
BRANCH  21  22
ATOM     22  C   UNL     1      21.551  11.505  30.414  1.00  0.00    -0.000 C 
BRANCH  22  23
ATOM     23  C   UNL     1      21.601  13.038  30.248  1.00  0.00    -0.000 C 
BRANCH  23  24
ATOM     24  C   UNL     1      21.801  13.796  31.572  1.00  0.00    -0.000 C 
BRANCH  24  25
ATOM     25  C   UNL     1      20.920  15.048  31.683  1.00  0.00    -0.003 C 
ATOM     26  C   UNL     1      20.670  15.417  33.142  1.00  0.00     0.004 C 
ENDBRANCH  24  25
ENDBRANCH  23  24
ENDBRANCH  22  23
ENDBRANCH  21  22
ENDBRANCH  20  21
ENDBRANCH  19  20
ENDBRANCH  18  19
ENDBRANCH  17  18
ENDBRANCH  16  17
ENDBRANCH  15  16
ENDBRANCH   1  15
TORSDOF 22
ENDMDL
MODEL 6
REMARK VINA RESULT:    -4.969      2.907      7.516
REMARK INTER + INTRA:         -14.201
REMARK INTER:                 -10.889
REMARK INTRA:                  -3.312
REMARK UNBOUND:                -2.842
REMARK SMILES CCCCCCCCCCCCCCCCCCCCCCCC(=O)[O-]
REMARK SMILES IDX 13 1 14 2 15 3 16 4 17 5 18 6 19 7 20 8 21 9 22 10 23 11
REMARK SMILES IDX 24 12 25 13 26 14 12 15 11 16 10 17 9 18 8 19 7 20 6 21 5 22
REMARK SMILES IDX 4 23 3 24 2 25 1 26
REMARK H PARENT
REMARK Flexibility Score: inf
ROOT
ATOM      1  C   UNL     1      27.464  13.494  36.137  1.00  0.00     0.000 C 
ENDROOT
BRANCH   1   2
ATOM      2  C   UNL     1      25.928  13.402  36.114  1.00  0.00     0.000 C 
BRANCH   2   3
ATOM      3  C   UNL     1      25.431  12.086  35.493  1.00  0.00     0.000 C 
BRANCH   3   4
ATOM      4  C   UNL     1      24.402  12.317  34.376  1.00  0.00     0.000 C 
BRANCH   4   5
ATOM      5  C   UNL     1      23.028  12.679  34.952  1.00  0.00     0.000 C 
BRANCH   5   6
ATOM      6  C   UNL     1      22.187  13.446  33.920  1.00  0.00     0.000 C 
BRANCH   6   7
ATOM      7  C   UNL     1      20.864  13.968  34.503  1.00  0.00     0.000 C 
BRANCH   7   8
ATOM      8  C   UNL     1      20.583  13.434  35.918  1.00  0.00     0.000 C 
BRANCH   8   9
ATOM      9  C   UNL     1      19.072  13.249  36.183  1.00  0.00     0.000 C 
BRANCH   9  10
ATOM     10  C   UNL     1      18.677  11.798  36.524  1.00  0.00     0.006 C 
BRANCH  10  11
ATOM     11  C   UNL     1      19.768  10.760  36.219  1.00  0.00     0.053 C 
BRANCH  11  12
ATOM     12  C   UNL     1      19.230   9.362  36.254  1.00  0.00     0.041 C 
ATOM     13  O   UNL     1      18.360   8.992  35.421  1.00  0.00    -0.550 OA
ATOM     14  O   UNL     1      19.668   8.474  37.229  1.00  0.00    -0.550 OA
ENDBRANCH  11  12
ENDBRANCH  10  11
ENDBRANCH   9  10
ENDBRANCH   8   9
ENDBRANCH   7   8
ENDBRANCH   6   7
ENDBRANCH   5   6
ENDBRANCH   4   5
ENDBRANCH   3   4
ENDBRANCH   2   3
ENDBRANCH   1   2
BRANCH   1  15
ATOM     15  C   UNL     1      28.019  14.515  35.127  1.00  0.00     0.000 C 
BRANCH  15  16
ATOM     16  C   UNL     1      28.004  14.056  33.657  1.00  0.00     0.000 C 
BRANCH  16  17
ATOM     17  C   UNL     1      28.451  12.595  33.480  1.00  0.00     0.000 C 
BRANCH  17  18
ATOM     18  C   UNL     1      27.782  11.903  32.278  1.00  0.00    -0.000 C 
BRANCH  18  19
ATOM     19  C   UNL     1      26.902  12.815  31.405  1.00  0.00    -0.000 C 
BRANCH  19  20
ATOM     20  C   UNL     1      25.617  12.121  30.918  1.00  0.00    -0.000 C 
BRANCH  20  21
ATOM     21  C   UNL     1      25.516  10.663  31.395  1.00  0.00    -0.000 C 
BRANCH  21  22
ATOM     22  C   UNL     1      24.216   9.979  30.937  1.00  0.00    -0.000 C 
BRANCH  22  23
ATOM     23  C   UNL     1      22.965  10.642  31.551  1.00  0.00    -0.000 C 
BRANCH  23  24
ATOM     24  C   UNL     1      21.786  10.763  30.571  1.00  0.00    -0.000 C 
BRANCH  24  25
ATOM     25  C   UNL     1      20.552  11.425  31.199  1.00  0.00    -0.003 C 
ATOM     26  C   UNL     1      20.138  10.715  32.484  1.00  0.00     0.004 C 
ENDBRANCH  24  25
ENDBRANCH  23  24
ENDBRANCH  22  23
ENDBRANCH  21  22
ENDBRANCH  20  21
ENDBRANCH  19  20
ENDBRANCH  18  19
ENDBRANCH  17  18
ENDBRANCH  16  17
ENDBRANCH  15  16
ENDBRANCH   1  15
TORSDOF 22
ENDMDL
MODEL 7
REMARK VINA RESULT:    -4.962      2.754      7.217
REMARK INTER + INTRA:         -14.185
REMARK INTER:                 -10.949
REMARK INTRA:                  -3.236
REMARK UNBOUND:                -2.842
REMARK SMILES CCCCCCCCCCCCCCCCCCCCCCCC(=O)[O-]
REMARK SMILES IDX 13 1 14 2 15 3 16 4 17 5 18 6 19 7 20 8 21 9 22 10 23 11
REMARK SMILES IDX 24 12 25 13 26 14 12 15 11 16 10 17 9 18 8 19 7 20 6 21 5 22
REMARK SMILES IDX 4 23 3 24 2 25 1 26
REMARK H PARENT
REMARK Flexibility Score: inf
ROOT
ATOM      1  C   UNL     1      25.347   8.430  30.558  1.00  0.00     0.000 C 
ENDROOT
BRANCH   1   2
ATOM      2  C   UNL     1      23.880   8.079  30.254  1.00  0.00     0.000 C 
BRANCH   2   3
ATOM      3  C   UNL     1      23.040   9.321  29.914  1.00  0.00     0.000 C 
BRANCH   3   4
ATOM      4  C   UNL     1      22.050   9.683  31.031  1.00  0.00     0.000 C 
BRANCH   4   5
ATOM      5  C   UNL     1      21.559  11.129  30.891  1.00  0.00     0.000 C 
BRANCH   5   6
ATOM      6  C   UNL     1      21.457  11.808  32.265  1.00  0.00     0.000 C 
BRANCH   6   7
ATOM      7  C   UNL     1      20.802  13.197  32.194  1.00  0.00     0.000 C 
BRANCH   7   8
ATOM      8  C   UNL     1      21.348  14.168  33.255  1.00  0.00     0.000 C 
BRANCH   8   9
ATOM      9  C   UNL     1      20.228  15.011  33.905  1.00  0.00     0.000 C 
BRANCH   9  10
ATOM     10  C   UNL     1      19.488  14.285  35.045  1.00  0.00     0.006 C 
BRANCH  10  11
ATOM     11  C   UNL     1      20.390  13.394  35.913  1.00  0.00     0.053 C 
BRANCH  11  12
ATOM     12  C   UNL     1      19.708  12.115  36.293  1.00  0.00     0.041 C 
ATOM     13  O   UNL     1      18.799  12.112  37.166  1.00  0.00    -0.550 OA
ATOM     14  O   UNL     1      20.098  10.918  35.704  1.00  0.00    -0.550 OA
ENDBRANCH  11  12
ENDBRANCH  10  11
ENDBRANCH   9  10
ENDBRANCH   8   9
ENDBRANCH   7   8
ENDBRANCH   6   7
ENDBRANCH   5   6
ENDBRANCH   4   5
ENDBRANCH   3   4
ENDBRANCH   2   3
ENDBRANCH   1   2
BRANCH   1  15
ATOM     15  C   UNL     1      25.673   9.914  30.312  1.00  0.00     0.000 C 
BRANCH  15  16
ATOM     16  C   UNL     1      26.047  10.720  31.570  1.00  0.00     0.000 C 
BRANCH  16  17
ATOM     17  C   UNL     1      25.341  12.084  31.642  1.00  0.00     0.000 C 
BRANCH  17  18
ATOM     18  C   UNL     1      26.322  13.271  31.644  1.00  0.00    -0.000 C 
BRANCH  18  19
ATOM     19  C   UNL     1      27.804  12.895  31.461  1.00  0.00    -0.000 C 
BRANCH  19  20
ATOM     20  C   UNL     1      28.638  13.099  32.738  1.00  0.00    -0.000 C 
BRANCH  20  21
ATOM     21  C   UNL     1      27.940  14.013  33.759  1.00  0.00    -0.000 C 
BRANCH  21  22
ATOM     22  C   UNL     1      27.911  13.407  35.173  1.00  0.00    -0.000 C 
BRANCH  22  23
ATOM     23  C   UNL     1      27.618  11.892  35.149  1.00  0.00    -0.000 C 
BRANCH  23  24
ATOM     24  C   UNL     1      26.117  11.555  35.134  1.00  0.00    -0.000 C 
BRANCH  24  25
ATOM     25  C   UNL     1      25.257  12.625  35.821  1.00  0.00    -0.003 C 
ATOM     26  C   UNL     1      23.844  12.648  35.247  1.00  0.00     0.004 C 
ENDBRANCH  24  25
ENDBRANCH  23  24
ENDBRANCH  22  23
ENDBRANCH  21  22
ENDBRANCH  20  21
ENDBRANCH  19  20
ENDBRANCH  18  19
ENDBRANCH  17  18
ENDBRANCH  16  17
ENDBRANCH  15  16
ENDBRANCH   1  15
TORSDOF 22
ENDMDL
MODEL 8
REMARK VINA RESULT:    -4.900      2.499      3.794
REMARK INTER + INTRA:         -14.044
REMARK INTER:                 -10.307
REMARK INTRA:                  -3.736
REMARK UNBOUND:                -2.842
REMARK SMILES CCCCCCCCCCCCCCCCCCCCCCCC(=O)[O-]
REMARK SMILES IDX 13 1 14 2 15 3 16 4 17 5 18 6 19 7 20 8 21 9 22 10 23 11
REMARK SMILES IDX 24 12 25 13 26 14 12 15 11 16 10 17 9 18 8 19 7 20 6 21 5 22
REMARK SMILES IDX 4 23 3 24 2 25 1 26
REMARK H PARENT
REMARK Flexibility Score: inf
ROOT
ATOM      1  C   UNL     1      23.494  12.501  32.954  1.00  0.00     0.000 C 
ENDROOT
BRANCH   1   2
ATOM      2  C   UNL     1      24.305  11.975  34.151  1.00  0.00     0.000 C 
BRANCH   2   3
ATOM      3  C   UNL     1      23.885  12.631  35.476  1.00  0.00     0.000 C 
BRANCH   3   4
ATOM      4  C   UNL     1      25.089  12.988  36.361  1.00  0.00     0.000 C 
BRANCH   4   5
ATOM      5  C   UNL     1      26.412  12.740  35.626  1.00  0.00     0.000 C 
BRANCH   5   6
ATOM      6  C   UNL     1      27.356  13.943  35.778  1.00  0.00     0.000 C 
BRANCH   6   7
ATOM      7  C   UNL     1      28.063  14.313  34.465  1.00  0.00     0.000 C 
BRANCH   7   8
ATOM      8  C   UNL     1      27.557  13.495  33.264  1.00  0.00     0.000 C 
BRANCH   8   9
ATOM      9  C   UNL     1      28.656  13.280  32.199  1.00  0.00     0.000 C 
BRANCH   9  10
ATOM     10  C   UNL     1      28.319  12.177  31.177  1.00  0.00     0.006 C 
BRANCH  10  11
ATOM     11  C   UNL     1      27.238  11.192  31.647  1.00  0.00     0.053 C 
BRANCH  11  12
ATOM     12  C   UNL     1      26.107  11.098  30.668  1.00  0.00     0.041 C 
ATOM     13  O   UNL     1      25.601  12.143  30.176  1.00  0.00    -0.550 OA
ATOM     14  O   UNL     1      25.590   9.856  30.321  1.00  0.00    -0.550 OA
ENDBRANCH  11  12
ENDBRANCH  10  11
ENDBRANCH   9  10
ENDBRANCH   8   9
ENDBRANCH   7   8
ENDBRANCH   6   7
ENDBRANCH   5   6
ENDBRANCH   4   5
ENDBRANCH   3   4
ENDBRANCH   2   3
ENDBRANCH   1   2
BRANCH   1  15
ATOM     15  C   UNL     1      22.381  11.533  32.512  1.00  0.00     0.000 C 
BRANCH  15  16
ATOM     16  C   UNL     1      21.196  12.190  31.780  1.00  0.00     0.000 C 
BRANCH  16  17
ATOM     17  C   UNL     1      21.292  13.725  31.739  1.00  0.00     0.000 C 
BRANCH  17  18
ATOM     18  C   UNL     1      20.102  14.421  32.425  1.00  0.00    -0.000 C 
BRANCH  18  19
ATOM     19  C   UNL     1      20.456  15.228  33.688  1.00  0.00    -0.000 C 
BRANCH  19  20
ATOM     20  C   UNL     1      21.002  14.349  34.828  1.00  0.00    -0.000 C 
BRANCH  20  21
ATOM     21  C   UNL     1      19.886  13.754  35.701  1.00  0.00    -0.000 C 
BRANCH  21  22
ATOM     22  C   UNL     1      20.151  12.287  36.082  1.00  0.00    -0.000 C 
BRANCH  22  23
ATOM     23  C   UNL     1      19.628  11.306  35.010  1.00  0.00    -0.000 C 
BRANCH  23  24
ATOM     24  C   UNL     1      18.368  11.803  34.282  1.00  0.00    -0.000 C 
BRANCH  24  25
ATOM     25  C   UNL     1      17.875  10.825  33.206  1.00  0.00    -0.003 C 
ATOM     26  C   UNL     1      18.772   9.594  33.128  1.00  0.00     0.004 C 
ENDBRANCH  24  25
ENDBRANCH  23  24
ENDBRANCH  22  23
ENDBRANCH  21  22
ENDBRANCH  20  21
ENDBRANCH  19  20
ENDBRANCH  18  19
ENDBRANCH  17  18
ENDBRANCH  16  17
ENDBRANCH  15  16
ENDBRANCH   1  15
TORSDOF 22
ENDMDL
MODEL 9
REMARK VINA RESULT:    -4.899      2.521      4.465
REMARK INTER + INTRA:         -14.042
REMARK INTER:                 -11.470
REMARK INTRA:                  -2.572
REMARK UNBOUND:                -2.842
REMARK SMILES CCCCCCCCCCCCCCCCCCCCCCCC(=O)[O-]
REMARK SMILES IDX 13 1 14 2 15 3 16 4 17 5 18 6 19 7 20 8 21 9 22 10 23 11
REMARK SMILES IDX 24 12 25 13 26 14 12 15 11 16 10 17 9 18 8 19 7 20 6 21 5 22
REMARK SMILES IDX 4 23 3 24 2 25 1 26
REMARK H PARENT
REMARK Flexibility Score: inf
ROOT
ATOM      1  C   UNL     1      27.281  13.618  35.770  1.00  0.00     0.000 C 
ENDROOT
BRANCH   1   2
ATOM      2  C   UNL     1      27.986  12.396  35.155  1.00  0.00     0.000 C 
BRANCH   2   3
ATOM      3  C   UNL     1      28.713  12.739  33.844  1.00  0.00     0.000 C 
BRANCH   3   4
ATOM      4  C   UNL     1      27.880  13.655  32.935  1.00  0.00     0.000 C 
BRANCH   4   5
ATOM      5  C   UNL     1      26.914  12.843  32.063  1.00  0.00     0.000 C 
BRANCH   5   6
ATOM      6  C   UNL     1      27.683  11.866  31.159  1.00  0.00     0.000 C 
BRANCH   6   7
ATOM      7  C   UNL     1      26.755  10.897  30.409  1.00  0.00     0.000 C 
BRANCH   7   8
ATOM      8  C   UNL     1      25.933  10.006  31.355  1.00  0.00     0.000 C 
BRANCH   8   9
ATOM      9  C   UNL     1      25.031   9.014  30.586  1.00  0.00     0.000 C 
BRANCH   9  10
ATOM     10  C   UNL     1      23.542   9.416  30.572  1.00  0.00     0.006 C 
BRANCH  10  11
ATOM     11  C   UNL     1      23.213  10.642  31.436  1.00  0.00     0.053 C 
BRANCH  11  12
ATOM     12  C   UNL     1      21.735  10.817  31.613  1.00  0.00     0.041 C 
ATOM     13  O   UNL     1      21.265  11.924  31.989  1.00  0.00    -0.550 OA
ATOM     14  O   UNL     1      20.878   9.746  31.392  1.00  0.00    -0.550 OA
ENDBRANCH  11  12
ENDBRANCH  10  11
ENDBRANCH   9  10
ENDBRANCH   8   9
ENDBRANCH   7   8
ENDBRANCH   6   7
ENDBRANCH   5   6
ENDBRANCH   4   5
ENDBRANCH   3   4
ENDBRANCH   2   3
ENDBRANCH   1   2
BRANCH   1  15
ATOM     15  C   UNL     1      25.786  13.373  36.043  1.00  0.00     0.000 C 
BRANCH  15  16
ATOM     16  C   UNL     1      25.238  12.028  35.530  1.00  0.00     0.000 C 
BRANCH  16  17
ATOM     17  C   UNL     1      24.148  12.193  34.458  1.00  0.00     0.000 C 
BRANCH  17  18
ATOM     18  C   UNL     1      22.941  13.014  34.948  1.00  0.00    -0.000 C 
BRANCH  18  19
ATOM     19  C   UNL     1      22.001  12.277  35.921  1.00  0.00    -0.000 C 
BRANCH  19  20
ATOM     20  C   UNL     1      20.548  12.210  35.416  1.00  0.00    -0.000 C 
BRANCH  20  21
ATOM     21  C   UNL     1      19.578  13.006  36.303  1.00  0.00    -0.000 C 
BRANCH  21  22
ATOM     22  C   UNL     1      18.629  12.098  37.106  1.00  0.00    -0.000 C 
BRANCH  22  23
ATOM     23  C   UNL     1      17.983  11.010  36.222  1.00  0.00    -0.000 C 
BRANCH  23  24
ATOM     24  C   UNL     1      17.972   9.615  36.871  1.00  0.00    -0.000 C 
BRANCH  24  25
ATOM     25  C   UNL     1      19.382   9.054  37.105  1.00  0.00    -0.003 C 
ATOM     26  C   UNL     1      19.329   7.586  37.518  1.00  0.00     0.004 C 
ENDBRANCH  24  25
ENDBRANCH  23  24
ENDBRANCH  22  23
ENDBRANCH  21  22
ENDBRANCH  20  21
ENDBRANCH  19  20
ENDBRANCH  18  19
ENDBRANCH  17  18
ENDBRANCH  16  17
ENDBRANCH  15  16
ENDBRANCH   1  15
TORSDOF 22
ENDMDL
