MODEL 1
REMARK VINA RESULT:    -5.241      0.000      0.000
REMARK INTER + INTRA:         -16.710
REMARK INTER:                 -13.206
REMARK INTRA:                  -3.503
REMARK UNBOUND:                -3.503
REMARK SMILES CCCCCCCCCCCCCCCCCCCCCCCCCCCC(=O)[O-]
REMARK SMILES IDX 15 1 16 2 17 3 18 4 19 5 20 6 21 7 22 8 23 9 24 10 25 11
REMARK SMILES IDX 26 12 27 13 28 14 29 15 30 16 14 17 13 18 12 19 11 20 10 21
REMARK SMILES IDX 9 22 8 23 7 24 6 25 5 26 4 27 3 28 2 29 1 30
REMARK H PARENT
REMARK Flexibility Score: inf
ROOT
ATOM      1  C   UNL     1      19.677  55.805  17.477  1.00  0.00     0.000 C 
ENDROOT
BRANCH   1   2
ATOM      2  C   UNL     1      20.016  54.451  18.127  1.00  0.00     0.000 C 
BRANCH   2   3
ATOM      3  C   UNL     1      19.414  53.260  17.367  1.00  0.00     0.000 C 
BRANCH   3   4
ATOM      4  C   UNL     1      20.285  52.882  16.163  1.00  0.00     0.000 C 
BRANCH   4   5
ATOM      5  C   UNL     1      19.484  52.961  14.855  1.00  0.00     0.000 C 
BRANCH   5   6
ATOM      6  C   UNL     1      19.808  54.216  14.025  1.00  0.00     0.000 C 
BRANCH   6   7
ATOM      7  C   UNL     1      18.709  55.294  14.017  1.00  0.00     0.000 C 
BRANCH   7   8
ATOM      8  C   UNL     1      17.492  54.906  13.164  1.00  0.00     0.000 C 
BRANCH   8   9
ATOM      9  C   UNL     1      16.209  54.918  14.008  1.00  0.00     0.000 C 
BRANCH   9  10
ATOM     10  C   UNL     1      16.479  55.161  15.503  1.00  0.00     0.000 C 
BRANCH  10  11
ATOM     11  C   UNL     1      16.050  54.014  16.441  1.00  0.00     0.000 C 
BRANCH  11  12
ATOM     12  C   UNL     1      15.376  54.457  17.753  1.00  0.00     0.006 C 
BRANCH  12  13
ATOM     13  C   UNL     1      14.033  55.163  17.523  1.00  0.00     0.053 C 
BRANCH  13  14
ATOM     14  C   UNL     1      14.121  56.604  17.920  1.00  0.00     0.041 C 
ATOM     15  O   UNL     1      14.410  57.481  17.063  1.00  0.00    -0.550 OA
ATOM     16  O   UNL     1      13.875  56.980  19.235  1.00  0.00    -0.550 OA
ENDBRANCH  13  14
ENDBRANCH  12  13
ENDBRANCH  11  12
ENDBRANCH  10  11
ENDBRANCH   9  10
ENDBRANCH   8   9
ENDBRANCH   7   8
ENDBRANCH   6   7
ENDBRANCH   5   6
ENDBRANCH   4   5
ENDBRANCH   3   4
ENDBRANCH   2   3
ENDBRANCH   1   2
BRANCH   1  17
ATOM     17  C   UNL     1      20.881  56.746  17.274  1.00  0.00     0.000 C 
BRANCH  17  18
ATOM     18  C   UNL     1      21.864  56.323  16.163  1.00  0.00     0.000 C 
BRANCH  18  19
ATOM     19  C   UNL     1      23.241  55.845  16.657  1.00  0.00     0.000 C 
BRANCH  19  20
ATOM     20  C   UNL     1      24.408  56.593  15.993  1.00  0.00     0.000 C 
BRANCH  20  21
ATOM     21  C   UNL     1      25.752  55.972  16.385  1.00  0.00     0.000 C 
BRANCH  21  22
ATOM     22  C   UNL     1      25.601  54.474  16.677  1.00  0.00    -0.000 C 
BRANCH  22  23
ATOM     23  C   UNL     1      26.305  54.092  17.985  1.00  0.00    -0.000 C 
BRANCH  23  24
ATOM     24  C   UNL     1      26.701  55.345  18.780  1.00  0.00    -0.000 C 
BRANCH  24  25
ATOM     25  C   UNL     1      26.663  55.118  20.300  1.00  0.00    -0.000 C 
BRANCH  25  26
ATOM     26  C   UNL     1      28.069  55.046  20.925  1.00  0.00    -0.000 C 
BRANCH  26  27
ATOM     27  C   UNL     1      28.814  56.395  20.832  1.00  0.00    -0.000 C 
BRANCH  27  28
ATOM     28  C   UNL     1      30.313  56.252  20.505  1.00  0.00    -0.000 C 
BRANCH  28  29
ATOM     29  C   UNL     1      30.639  56.571  19.041  1.00  0.00    -0.003 C 
ATOM     30  C   UNL     1      29.711  57.649  18.492  1.00  0.00     0.004 C 
ENDBRANCH  28  29
ENDBRANCH  27  28
ENDBRANCH  26  27
ENDBRANCH  25  26
ENDBRANCH  24  25
ENDBRANCH  23  24
ENDBRANCH  22  23
ENDBRANCH  21  22
ENDBRANCH  20  21
ENDBRANCH  19  20
ENDBRANCH  18  19
ENDBRANCH  17  18
ENDBRANCH   1  17
TORSDOF 26
ENDMDL
MODEL 2
REMARK VINA RESULT:    -5.048     12.672     15.624
REMARK INTER + INTRA:         -16.225
REMARK INTER:                 -11.259
REMARK INTRA:                  -4.966
REMARK UNBOUND:                -3.503
REMARK SMILES CCCCCCCCCCCCCCCCCCCCCCCCCCCC(=O)[O-]
REMARK SMILES IDX 15 1 16 2 17 3 18 4 19 5 20 6 21 7 22 8 23 9 24 10 25 11
REMARK SMILES IDX 26 12 27 13 28 14 29 15 30 16 14 17 13 18 12 19 11 20 10 21
REMARK SMILES IDX 9 22 8 23 7 24 6 25 5 26 4 27 3 28 2 29 1 30
REMARK H PARENT
REMARK Flexibility Score: inf
ROOT
ATOM      1  C   UNL     1      27.853  64.967   8.527  1.00  0.00     0.000 C 
ENDROOT
BRANCH   1   2
ATOM      2  C   UNL     1      27.342  66.408   8.707  1.00  0.00     0.000 C 
BRANCH   2   3
ATOM      3  C   UNL     1      28.336  67.300   9.466  1.00  0.00     0.000 C 
BRANCH   3   4
ATOM      4  C   UNL     1      28.320  68.731   8.915  1.00  0.00     0.000 C 
BRANCH   4   5
ATOM      5  C   UNL     1      29.700  69.128   8.370  1.00  0.00     0.000 C 
BRANCH   5   6
ATOM      6  C   UNL     1      29.763  69.127   6.831  1.00  0.00     0.000 C 
BRANCH   6   7
ATOM      7  C   UNL     1      30.059  67.758   6.192  1.00  0.00     0.000 C 
BRANCH   7   8
ATOM      8  C   UNL     1      29.152  67.445   4.992  1.00  0.00     0.000 C 
BRANCH   8   9
ATOM      9  C   UNL     1      27.741  67.061   5.462  1.00  0.00     0.000 C 
BRANCH   9  10
ATOM     10  C   UNL     1      26.916  66.362   4.369  1.00  0.00     0.000 C 
BRANCH  10  11
ATOM     11  C   UNL     1      25.438  66.106   4.727  1.00  0.00     0.000 C 
BRANCH  11  12
ATOM     12  C   UNL     1      25.197  64.980   5.749  1.00  0.00     0.006 C 
BRANCH  12  13
ATOM     13  C   UNL     1      23.708  64.748   6.041  1.00  0.00     0.053 C 
BRANCH  13  14
ATOM     14  C   UNL     1      23.537  63.748   7.143  1.00  0.00     0.041 C 
ATOM     15  O   UNL     1      24.033  63.967   8.280  1.00  0.00    -0.550 OA
ATOM     16  O   UNL     1      22.822  62.579   6.917  1.00  0.00    -0.550 OA
ENDBRANCH  13  14
ENDBRANCH  12  13
ENDBRANCH  11  12
ENDBRANCH  10  11
ENDBRANCH   9  10
ENDBRANCH   8   9
ENDBRANCH   7   8
ENDBRANCH   6   7
ENDBRANCH   5   6
ENDBRANCH   4   5
ENDBRANCH   3   4
ENDBRANCH   2   3
ENDBRANCH   1   2
BRANCH   1  17
ATOM     17  C   UNL     1      29.385  64.809   8.600  1.00  0.00     0.000 C 
BRANCH  17  18
ATOM     18  C   UNL     1      30.039  64.172   7.356  1.00  0.00     0.000 C 
BRANCH  18  19
ATOM     19  C   UNL     1      29.060  63.754   6.245  1.00  0.00     0.000 C 
BRANCH  19  20
ATOM     20  C   UNL     1      29.332  62.340   5.708  1.00  0.00     0.000 C 
BRANCH  20  21
ATOM     21  C   UNL     1      28.022  61.616   5.379  1.00  0.00     0.000 C 
BRANCH  21  22
ATOM     22  C   UNL     1      26.981  61.835   6.483  1.00  0.00    -0.000 C 
BRANCH  22  23
ATOM     23  C   UNL     1      26.650  60.520   7.200  1.00  0.00    -0.000 C 
BRANCH  23  24
ATOM     24  C   UNL     1      27.415  60.414   8.528  1.00  0.00    -0.000 C 
BRANCH  24  25
ATOM     25  C   UNL     1      27.339  61.705   9.359  1.00  0.00    -0.000 C 
BRANCH  25  26
ATOM     26  C   UNL     1      28.190  61.636  10.642  1.00  0.00    -0.000 C 
BRANCH  26  27
ATOM     27  C   UNL     1      29.000  60.325  10.730  1.00  0.00    -0.000 C 
BRANCH  27  28
ATOM     28  C   UNL     1      30.433  60.518  11.259  1.00  0.00    -0.000 C 
BRANCH  28  29
ATOM     29  C   UNL     1      31.174  61.673  10.575  1.00  0.00    -0.003 C 
ATOM     30  C   UNL     1      31.474  61.347   9.115  1.00  0.00     0.004 C 
ENDBRANCH  28  29
ENDBRANCH  27  28
ENDBRANCH  26  27
ENDBRANCH  25  26
ENDBRANCH  24  25
ENDBRANCH  23  24
ENDBRANCH  22  23
ENDBRANCH  21  22
ENDBRANCH  20  21
ENDBRANCH  19  20
ENDBRANCH  18  19
ENDBRANCH  17  18
ENDBRANCH   1  17
TORSDOF 26
ENDMDL
MODEL 3
REMARK VINA RESULT:    -4.995     12.133     15.045
REMARK INTER + INTRA:         -16.090
REMARK INTER:                 -11.795
REMARK INTRA:                  -4.295
REMARK UNBOUND:                -3.503
REMARK SMILES CCCCCCCCCCCCCCCCCCCCCCCCCCCC(=O)[O-]
REMARK SMILES IDX 15 1 16 2 17 3 18 4 19 5 20 6 21 7 22 8 23 9 24 10 25 11
REMARK SMILES IDX 26 12 27 13 28 14 29 15 30 16 14 17 13 18 12 19 11 20 10 21
REMARK SMILES IDX 9 22 8 23 7 24 6 25 5 26 4 27 3 28 2 29 1 30
REMARK H PARENT
REMARK Flexibility Score: inf
ROOT
ATOM      1  C   UNL     1      28.446  60.626  11.031  1.00  0.00     0.000 C 
ENDROOT
BRANCH   1   2
ATOM      2  C   UNL     1      27.735  60.142   9.754  1.00  0.00     0.000 C 
BRANCH   2   3
ATOM      3  C   UNL     1      27.406  61.289   8.787  1.00  0.00     0.000 C 
BRANCH   3   4
ATOM      4  C   UNL     1      26.948  60.745   7.428  1.00  0.00     0.000 C 
BRANCH   4   5
ATOM      5  C   UNL     1      27.394  61.668   6.284  1.00  0.00     0.000 C 
BRANCH   5   6
ATOM      6  C   UNL     1      28.913  61.626   6.034  1.00  0.00     0.000 C 
BRANCH   6   7
ATOM      7  C   UNL     1      29.520  62.934   5.493  1.00  0.00     0.000 C 
BRANCH   7   8
ATOM      8  C   UNL     1      29.080  63.253   4.056  1.00  0.00     0.000 C 
BRANCH   8   9
ATOM      9  C   UNL     1      28.638  64.719   3.935  1.00  0.00     0.000 C 
BRANCH   9  10
ATOM     10  C   UNL     1      27.110  64.890   3.980  1.00  0.00     0.000 C 
BRANCH  10  11
ATOM     11  C   UNL     1      26.512  65.067   5.391  1.00  0.00     0.000 C 
BRANCH  11  12
ATOM     12  C   UNL     1      24.978  64.954   5.471  1.00  0.00     0.006 C 
BRANCH  12  13
ATOM     13  C   UNL     1      24.505  64.131   6.677  1.00  0.00     0.053 C 
BRANCH  13  14
ATOM     14  C   UNL     1      23.037  63.852   6.579  1.00  0.00     0.041 C 
ATOM     15  O   UNL     1      22.576  62.741   6.956  1.00  0.00    -0.550 OA
ATOM     16  O   UNL     1      22.176  64.822   6.081  1.00  0.00    -0.550 OA
ENDBRANCH  13  14
ENDBRANCH  12  13
ENDBRANCH  11  12
ENDBRANCH  10  11
ENDBRANCH   9  10
ENDBRANCH   8   9
ENDBRANCH   7   8
ENDBRANCH   6   7
ENDBRANCH   5   6
ENDBRANCH   4   5
ENDBRANCH   3   4
ENDBRANCH   2   3
ENDBRANCH   1   2
BRANCH   1  17
ATOM     17  C   UNL     1      29.985  60.569  10.977  1.00  0.00     0.000 C 
BRANCH  17  18
ATOM     18  C   UNL     1      30.689  61.937  10.866  1.00  0.00     0.000 C 
BRANCH  18  19
ATOM     19  C   UNL     1      30.807  62.497   9.438  1.00  0.00     0.000 C 
BRANCH  19  20
ATOM     20  C   UNL     1      30.752  64.032   9.390  1.00  0.00     0.000 C 
BRANCH  20  21
ATOM     21  C   UNL     1      29.347  64.542   9.727  1.00  0.00     0.000 C 
BRANCH  21  22
ATOM     22  C   UNL     1      28.524  64.765   8.452  1.00  0.00    -0.000 C 
BRANCH  22  23
ATOM     23  C   UNL     1      27.463  65.852   8.662  1.00  0.00    -0.000 C 
BRANCH  23  24
ATOM     24  C   UNL     1      27.865  67.154   7.952  1.00  0.00    -0.000 C 
BRANCH  24  25
ATOM     25  C   UNL     1      28.100  68.314   8.932  1.00  0.00    -0.000 C 
BRANCH  25  26
ATOM     26  C   UNL     1      29.554  68.378   9.439  1.00  0.00    -0.000 C 
BRANCH  26  27
ATOM     27  C   UNL     1      29.627  68.616  10.962  1.00  0.00    -0.000 C 
BRANCH  27  28
ATOM     28  C   UNL     1      29.667  67.317  11.789  1.00  0.00    -0.000 C 
BRANCH  28  29
ATOM     29  C   UNL     1      30.850  67.263  12.763  1.00  0.00    -0.003 C 
ATOM     30  C   UNL     1      31.514  65.890  12.747  1.00  0.00     0.004 C 
ENDBRANCH  28  29
ENDBRANCH  27  28
ENDBRANCH  26  27
ENDBRANCH  25  26
ENDBRANCH  24  25
ENDBRANCH  23  24
ENDBRANCH  22  23
ENDBRANCH  21  22
ENDBRANCH  20  21
ENDBRANCH  19  20
ENDBRANCH  18  19
ENDBRANCH  17  18
ENDBRANCH   1  17
TORSDOF 26
ENDMDL
MODEL 4
REMARK VINA RESULT:    -4.967     12.297     15.689
REMARK INTER + INTRA:         -16.021
REMARK INTER:                 -10.950
REMARK INTRA:                  -5.071
REMARK UNBOUND:                -3.503
REMARK SMILES CCCCCCCCCCCCCCCCCCCCCCCCCCCC(=O)[O-]
REMARK SMILES IDX 15 1 16 2 17 3 18 4 19 5 20 6 21 7 22 8 23 9 24 10 25 11
REMARK SMILES IDX 26 12 27 13 28 14 29 15 30 16 14 17 13 18 12 19 11 20 10 21
REMARK SMILES IDX 9 22 8 23 7 24 6 25 5 26 4 27 3 28 2 29 1 30
REMARK H PARENT
REMARK Flexibility Score: inf
ROOT
ATOM      1  C   UNL     1      25.849  63.114   7.889  1.00  0.00     0.000 C 
ENDROOT
BRANCH   1   2
ATOM      2  C   UNL     1      25.010  64.222   7.228  1.00  0.00     0.000 C 
BRANCH   2   3
ATOM      3  C   UNL     1      25.577  64.668   5.872  1.00  0.00     0.000 C 
BRANCH   3   4
ATOM      4  C   UNL     1      26.184  66.073   5.967  1.00  0.00     0.000 C 
BRANCH   4   5
ATOM      5  C   UNL     1      27.710  66.029   5.805  1.00  0.00     0.000 C 
BRANCH   5   6
ATOM      6  C   UNL     1      28.463  66.268   7.127  1.00  0.00     0.000 C 
BRANCH   6   7
ATOM      7  C   UNL     1      27.761  67.219   8.114  1.00  0.00     0.000 C 
BRANCH   7   8
ATOM      8  C   UNL     1      28.141  66.954   9.578  1.00  0.00     0.000 C 
BRANCH   8   9
ATOM      9  C   UNL     1      29.468  66.186   9.666  1.00  0.00     0.000 C 
BRANCH   9  10
ATOM     10  C   UNL     1      30.629  67.054  10.180  1.00  0.00     0.000 C 
BRANCH  10  11
ATOM     11  C   UNL     1      30.568  67.408  11.680  1.00  0.00     0.000 C 
BRANCH  11  12
ATOM     12  C   UNL     1      31.191  66.364  12.626  1.00  0.00     0.006 C 
BRANCH  12  13
ATOM     13  C   UNL     1      31.833  66.995  13.869  1.00  0.00     0.053 C 
BRANCH  13  14
ATOM     14  C   UNL     1      31.140  66.530  15.112  1.00  0.00     0.041 C 
ATOM     15  O   UNL     1      31.188  65.317  15.449  1.00  0.00    -0.550 OA
ATOM     16  O   UNL     1      30.449  67.438  15.904  1.00  0.00    -0.550 OA
ENDBRANCH  13  14
ENDBRANCH  12  13
ENDBRANCH  11  12
ENDBRANCH  10  11
ENDBRANCH   9  10
ENDBRANCH   8   9
ENDBRANCH   7   8
ENDBRANCH   6   7
ENDBRANCH   5   6
ENDBRANCH   4   5
ENDBRANCH   3   4
ENDBRANCH   2   3
ENDBRANCH   1   2
BRANCH   1  17
ATOM     17  C   UNL     1      26.824  63.602   8.979  1.00  0.00     0.000 C 
BRANCH  17  18
ATOM     18  C   UNL     1      27.478  62.487   9.821  1.00  0.00     0.000 C 
BRANCH  18  19
ATOM     19  C   UNL     1      27.479  61.092   9.171  1.00  0.00     0.000 C 
BRANCH  19  20
ATOM     20  C   UNL     1      28.070  60.007  10.084  1.00  0.00     0.000 C 
BRANCH  20  21
ATOM     21  C   UNL     1      28.848  60.631  11.247  1.00  0.00     0.000 C 
BRANCH  21  22
ATOM     22  C   UNL     1      30.352  60.368  11.106  1.00  0.00    -0.000 C 
BRANCH  22  23
ATOM     23  C   UNL     1      31.173  61.525  11.688  1.00  0.00    -0.000 C 
BRANCH  23  24
ATOM     24  C   UNL     1      30.835  62.846  10.981  1.00  0.00    -0.000 C 
BRANCH  24  25
ATOM     25  C   UNL     1      31.625  63.038   9.677  1.00  0.00    -0.000 C 
BRANCH  25  26
ATOM     26  C   UNL     1      30.729  62.976   8.426  1.00  0.00    -0.000 C 
BRANCH  26  27
ATOM     27  C   UNL     1      31.231  61.934   7.404  1.00  0.00    -0.000 C 
BRANCH  27  28
ATOM     28  C   UNL     1      30.463  61.958   6.069  1.00  0.00    -0.000 C 
BRANCH  28  29
ATOM     29  C   UNL     1      29.055  62.550   6.197  1.00  0.00    -0.003 C 
ATOM     30  C   UNL     1      28.050  61.769   5.357  1.00  0.00     0.004 C 
ENDBRANCH  28  29
ENDBRANCH  27  28
ENDBRANCH  26  27
ENDBRANCH  25  26
ENDBRANCH  24  25
ENDBRANCH  23  24
ENDBRANCH  22  23
ENDBRANCH  21  22
ENDBRANCH  20  21
ENDBRANCH  19  20
ENDBRANCH  18  19
ENDBRANCH  17  18
ENDBRANCH   1  17
TORSDOF 26
ENDMDL
MODEL 5
REMARK VINA RESULT:    -4.901     12.285     14.729
REMARK INTER + INTRA:         -15.853
REMARK INTER:                 -11.831
REMARK INTRA:                  -4.022
REMARK UNBOUND:                -3.503
REMARK SMILES CCCCCCCCCCCCCCCCCCCCCCCCCCCC(=O)[O-]
REMARK SMILES IDX 15 1 16 2 17 3 18 4 19 5 20 6 21 7 22 8 23 9 24 10 25 11
REMARK SMILES IDX 26 12 27 13 28 14 29 15 30 16 14 17 13 18 12 19 11 20 10 21
REMARK SMILES IDX 9 22 8 23 7 24 6 25 5 26 4 27 3 28 2 29 1 30
REMARK H PARENT
REMARK Flexibility Score: inf
ROOT
ATOM      1  C   UNL     1      27.460  63.233   9.831  1.00  0.00     0.000 C 
ENDROOT
BRANCH   1   2
ATOM      2  C   UNL     1      27.477  61.698   9.933  1.00  0.00     0.000 C 
BRANCH   2   3
ATOM      3  C   UNL     1      28.092  61.026   8.696  1.00  0.00     0.000 C 
BRANCH   3   4
ATOM      4  C   UNL     1      27.014  60.323   7.862  1.00  0.00     0.000 C 
BRANCH   4   5
ATOM      5  C   UNL     1      26.821  61.019   6.507  1.00  0.00     0.000 C 
BRANCH   5   6
ATOM      6  C   UNL     1      28.094  61.726   6.006  1.00  0.00     0.000 C 
BRANCH   6   7
ATOM      7  C   UNL     1      28.116  62.039   4.499  1.00  0.00     0.000 C 
BRANCH   7   8
ATOM      8  C   UNL     1      27.512  63.410   4.160  1.00  0.00     0.000 C 
BRANCH   8   9
ATOM      9  C   UNL     1      27.901  64.453   5.219  1.00  0.00     0.000 C 
BRANCH   9  10
ATOM     10  C   UNL     1      26.724  65.353   5.632  1.00  0.00     0.000 C 
BRANCH  10  11
ATOM     11  C   UNL     1      25.409  64.610   5.942  1.00  0.00     0.000 C 
BRANCH  11  12
ATOM     12  C   UNL     1      25.266  64.108   7.391  1.00  0.00     0.006 C 
BRANCH  12  13
ATOM     13  C   UNL     1      23.825  64.196   7.912  1.00  0.00     0.053 C 
BRANCH  13  14
ATOM     14  C   UNL     1      22.873  63.580   6.934  1.00  0.00     0.041 C 
ATOM     15  O   UNL     1      22.175  64.311   6.182  1.00  0.00    -0.550 OA
ATOM     16  O   UNL     1      22.763  62.198   6.846  1.00  0.00    -0.550 OA
ENDBRANCH  13  14
ENDBRANCH  12  13
ENDBRANCH  11  12
ENDBRANCH  10  11
ENDBRANCH   9  10
ENDBRANCH   8   9
ENDBRANCH   7   8
ENDBRANCH   6   7
ENDBRANCH   5   6
ENDBRANCH   4   5
ENDBRANCH   3   4
ENDBRANCH   2   3
ENDBRANCH   1   2
BRANCH   1  17
ATOM     17  C   UNL     1      28.827  63.877   9.522  1.00  0.00     0.000 C 
BRANCH  17  18
ATOM     18  C   UNL     1      28.768  65.171   8.684  1.00  0.00     0.000 C 
BRANCH  18  19
ATOM     19  C   UNL     1      27.818  66.256   9.221  1.00  0.00     0.000 C 
BRANCH  19  20
ATOM     20  C   UNL     1      27.783  67.512   8.337  1.00  0.00     0.000 C 
BRANCH  20  21
ATOM     21  C   UNL     1      28.327  68.729   9.091  1.00  0.00     0.000 C 
BRANCH  21  22
ATOM     22  C   UNL     1      29.851  68.823   8.956  1.00  0.00    -0.000 C 
BRANCH  22  23
ATOM     23  C   UNL     1      30.546  68.500  10.284  1.00  0.00    -0.000 C 
BRANCH  23  24
ATOM     24  C   UNL     1      29.527  68.425  11.431  1.00  0.00    -0.000 C 
BRANCH  24  25
ATOM     25  C   UNL     1      29.996  67.519  12.581  1.00  0.00    -0.000 C 
BRANCH  25  26
ATOM     26  C   UNL     1      31.526  67.338  12.607  1.00  0.00    -0.000 C 
BRANCH  26  27
ATOM     27  C   UNL     1      31.931  65.864  12.826  1.00  0.00    -0.000 C 
BRANCH  27  28
ATOM     28  C   UNL     1      31.405  64.910  11.738  1.00  0.00    -0.000 C 
BRANCH  28  29
ATOM     29  C   UNL     1      32.278  63.662  11.562  1.00  0.00    -0.003 C 
ATOM     30  C   UNL     1      32.351  62.854  12.853  1.00  0.00     0.004 C 
ENDBRANCH  28  29
ENDBRANCH  27  28
ENDBRANCH  26  27
ENDBRANCH  25  26
ENDBRANCH  24  25
ENDBRANCH  23  24
ENDBRANCH  22  23
ENDBRANCH  21  22
ENDBRANCH  20  21
ENDBRANCH  19  20
ENDBRANCH  18  19
ENDBRANCH  17  18
ENDBRANCH   1  17
TORSDOF 26
ENDMDL
MODEL 6
REMARK VINA RESULT:    -4.896     12.487     16.012
REMARK INTER + INTRA:         -15.842
REMARK INTER:                 -11.033
REMARK INTRA:                  -4.810
REMARK UNBOUND:                -3.503
REMARK SMILES CCCCCCCCCCCCCCCCCCCCCCCCCCCC(=O)[O-]
REMARK SMILES IDX 15 1 16 2 17 3 18 4 19 5 20 6 21 7 22 8 23 9 24 10 25 11
REMARK SMILES IDX 26 12 27 13 28 14 29 15 30 16 14 17 13 18 12 19 11 20 10 21
REMARK SMILES IDX 9 22 8 23 7 24 6 25 5 26 4 27 3 28 2 29 1 30
REMARK H PARENT
REMARK Flexibility Score: inf
ROOT
ATOM      1  C   UNL     1      30.258  65.010   9.912  1.00  0.00     0.000 C 
ENDROOT
BRANCH   1   2
ATOM      2  C   UNL     1      28.744  65.211   9.718  1.00  0.00     0.000 C 
BRANCH   2   3
ATOM      3  C   UNL     1      28.258  66.578  10.222  1.00  0.00     0.000 C 
BRANCH   3   4
ATOM      4  C   UNL     1      29.428  67.412  10.758  1.00  0.00     0.000 C 
BRANCH   4   5
ATOM      5  C   UNL     1      29.601  68.705   9.947  1.00  0.00     0.000 C 
BRANCH   5   6
ATOM      6  C   UNL     1      28.667  68.780   8.725  1.00  0.00     0.000 C 
BRANCH   6   7
ATOM      7  C   UNL     1      29.374  68.706   7.359  1.00  0.00     0.000 C 
BRANCH   7   8
ATOM      8  C   UNL     1      29.698  67.268   6.927  1.00  0.00     0.000 C 
BRANCH   8   9
ATOM      9  C   UNL     1      29.051  66.949   5.571  1.00  0.00     0.000 C 
BRANCH   9  10
ATOM     10  C   UNL     1      27.515  66.880   5.643  1.00  0.00     0.000 C 
BRANCH  10  11
ATOM     11  C   UNL     1      26.952  65.964   6.748  1.00  0.00     0.000 C 
BRANCH  11  12
ATOM     12  C   UNL     1      26.248  64.689   6.247  1.00  0.00     0.006 C 
BRANCH  12  13
ATOM     13  C   UNL     1      24.855  64.967   5.666  1.00  0.00     0.053 C 
BRANCH  13  14
ATOM     14  C   UNL     1      23.814  64.174   6.394  1.00  0.00     0.041 C 
ATOM     15  O   UNL     1      22.607  64.533   6.363  1.00  0.00    -0.550 OA
ATOM     16  O   UNL     1      24.176  63.033   7.099  1.00  0.00    -0.550 OA
ENDBRANCH  13  14
ENDBRANCH  12  13
ENDBRANCH  11  12
ENDBRANCH  10  11
ENDBRANCH   9  10
ENDBRANCH   8   9
ENDBRANCH   7   8
ENDBRANCH   6   7
ENDBRANCH   5   6
ENDBRANCH   4   5
ENDBRANCH   3   4
ENDBRANCH   2   3
ENDBRANCH   1   2
BRANCH   1  17
ATOM     17  C   UNL     1      30.894  63.951   8.990  1.00  0.00     0.000 C 
BRANCH  17  18
ATOM     18  C   UNL     1      31.614  62.795   9.716  1.00  0.00     0.000 C 
BRANCH  18  19
ATOM     19  C   UNL     1      31.262  62.640  11.206  1.00  0.00     0.000 C 
BRANCH  19  20
ATOM     20  C   UNL     1      30.808  61.218  11.569  1.00  0.00     0.000 C 
BRANCH  20  21
ATOM     21  C   UNL     1      29.922  60.626  10.468  1.00  0.00     0.000 C 
BRANCH  21  22
ATOM     22  C   UNL     1      28.443  60.673  10.868  1.00  0.00    -0.000 C 
BRANCH  22  23
ATOM     23  C   UNL     1      27.715  61.825  10.164  1.00  0.00    -0.000 C 
BRANCH  23  24
ATOM     24  C   UNL     1      27.911  61.747   8.642  1.00  0.00    -0.000 C 
BRANCH  24  25
ATOM     25  C   UNL     1      26.946  60.758   7.971  1.00  0.00    -0.000 C 
BRANCH  25  26
ATOM     26  C   UNL     1      27.146  60.675   6.446  1.00  0.00    -0.000 C 
BRANCH  26  27
ATOM     27  C   UNL     1      28.257  61.628   5.955  1.00  0.00    -0.000 C 
BRANCH  27  28
ATOM     28  C   UNL     1      28.138  62.000   4.465  1.00  0.00    -0.000 C 
BRANCH  28  29
ATOM     29  C   UNL     1      28.928  63.261   4.097  1.00  0.00    -0.003 C 
ATOM     30  C   UNL     1      28.140  64.145   3.136  1.00  0.00     0.004 C 
ENDBRANCH  28  29
ENDBRANCH  27  28
ENDBRANCH  26  27
ENDBRANCH  25  26
ENDBRANCH  24  25
ENDBRANCH  23  24
ENDBRANCH  22  23
ENDBRANCH  21  22
ENDBRANCH  20  21
ENDBRANCH  19  20
ENDBRANCH  18  19
ENDBRANCH  17  18
ENDBRANCH   1  17
TORSDOF 26
ENDMDL
MODEL 7
REMARK VINA RESULT:    -4.893     12.198     15.227
REMARK INTER + INTRA:         -15.833
REMARK INTER:                 -10.891
REMARK INTRA:                  -4.942
REMARK UNBOUND:                -3.503
REMARK SMILES CCCCCCCCCCCCCCCCCCCCCCCCCCCC(=O)[O-]
REMARK SMILES IDX 15 1 16 2 17 3 18 4 19 5 20 6 21 7 22 8 23 9 24 10 25 11
REMARK SMILES IDX 26 12 27 13 28 14 29 15 30 16 14 17 13 18 12 19 11 20 10 21
REMARK SMILES IDX 9 22 8 23 7 24 6 25 5 26 4 27 3 28 2 29 1 30
REMARK H PARENT
REMARK Flexibility Score: inf
ROOT
ATOM      1  C   UNL     1      27.729  61.590   9.957  1.00  0.00     0.000 C 
ENDROOT
BRANCH   1   2
ATOM      2  C   UNL     1      28.111  63.075   9.826  1.00  0.00     0.000 C 
BRANCH   2   3
ATOM      3  C   UNL     1      27.969  63.600   8.389  1.00  0.00     0.000 C 
BRANCH   3   4
ATOM      4  C   UNL     1      29.339  63.707   7.707  1.00  0.00     0.000 C 
BRANCH   4   5
ATOM      5  C   UNL     1      29.756  62.365   7.090  1.00  0.00     0.000 C 
BRANCH   5   6
ATOM      6  C   UNL     1      28.649  61.727   6.230  1.00  0.00     0.000 C 
BRANCH   6   7
ATOM      7  C   UNL     1      28.729  62.044   4.726  1.00  0.00     0.000 C 
BRANCH   7   8
ATOM      8  C   UNL     1      27.721  63.115   4.282  1.00  0.00     0.000 C 
BRANCH   8   9
ATOM      9  C   UNL     1      28.350  64.515   4.350  1.00  0.00     0.000 C 
BRANCH   9  10
ATOM     10  C   UNL     1      27.316  65.623   4.615  1.00  0.00     0.000 C 
BRANCH  10  11
ATOM     11  C   UNL     1      25.877  65.129   4.867  1.00  0.00     0.000 C 
BRANCH  11  12
ATOM     12  C   UNL     1      25.471  65.025   6.349  1.00  0.00     0.006 C 
BRANCH  12  13
ATOM     13  C   UNL     1      24.681  63.746   6.662  1.00  0.00     0.053 C 
BRANCH  13  14
ATOM     14  C   UNL     1      23.242  64.067   6.921  1.00  0.00     0.041 C 
ATOM     15  O   UNL     1      22.725  63.804   8.039  1.00  0.00    -0.550 OA
ATOM     16  O   UNL     1      22.473  64.666   5.931  1.00  0.00    -0.550 OA
ENDBRANCH  13  14
ENDBRANCH  12  13
ENDBRANCH  11  12
ENDBRANCH  10  11
ENDBRANCH   9  10
ENDBRANCH   8   9
ENDBRANCH   7   8
ENDBRANCH   6   7
ENDBRANCH   5   6
ENDBRANCH   4   5
ENDBRANCH   3   4
ENDBRANCH   2   3
ENDBRANCH   1   2
BRANCH   1  17
ATOM     17  C   UNL     1      28.414  60.845  11.120  1.00  0.00     0.000 C 
BRANCH  17  18
ATOM     18  C   UNL     1      29.580  59.921  10.711  1.00  0.00     0.000 C 
BRANCH  18  19
ATOM     19  C   UNL     1      30.931  60.628  10.500  1.00  0.00     0.000 C 
BRANCH  19  20
ATOM     20  C   UNL     1      31.144  61.810  11.459  1.00  0.00     0.000 C 
BRANCH  20  21
ATOM     21  C   UNL     1      31.686  63.033  10.711  1.00  0.00     0.000 C 
BRANCH  21  22
ATOM     22  C   UNL     1      31.467  64.315  11.524  1.00  0.00    -0.000 C 
BRANCH  22  23
ATOM     23  C   UNL     1      30.818  65.409  10.667  1.00  0.00    -0.000 C 
BRANCH  23  24
ATOM     24  C   UNL     1      30.738  66.734  11.441  1.00  0.00    -0.000 C 
BRANCH  24  25
ATOM     25  C   UNL     1      29.340  67.369  11.382  1.00  0.00    -0.000 C 
BRANCH  25  26
ATOM     26  C   UNL     1      28.465  66.776  10.262  1.00  0.00    -0.000 C 
BRANCH  26  27
ATOM     27  C   UNL     1      28.074  67.837   9.210  1.00  0.00    -0.000 C 
BRANCH  27  28
ATOM     28  C   UNL     1      28.045  67.296   7.768  1.00  0.00    -0.000 C 
BRANCH  28  29
ATOM     29  C   UNL     1      29.116  67.925   6.870  1.00  0.00    -0.003 C 
ATOM     30  C   UNL     1      29.527  69.301   7.385  1.00  0.00     0.004 C 
ENDBRANCH  28  29
ENDBRANCH  27  28
ENDBRANCH  26  27
ENDBRANCH  25  26
ENDBRANCH  24  25
ENDBRANCH  23  24
ENDBRANCH  22  23
ENDBRANCH  21  22
ENDBRANCH  20  21
ENDBRANCH  19  20
ENDBRANCH  18  19
ENDBRANCH  17  18
ENDBRANCH   1  17
TORSDOF 26
ENDMDL
MODEL 8
REMARK VINA RESULT:    -4.887     12.434     15.258
REMARK INTER + INTRA:         -15.820
REMARK INTER:                 -10.808
REMARK INTRA:                  -5.011
REMARK UNBOUND:                -3.503
REMARK SMILES CCCCCCCCCCCCCCCCCCCCCCCCCCCC(=O)[O-]
REMARK SMILES IDX 15 1 16 2 17 3 18 4 19 5 20 6 21 7 22 8 23 9 24 10 25 11
REMARK SMILES IDX 26 12 27 13 28 14 29 15 30 16 14 17 13 18 12 19 11 20 10 21
REMARK SMILES IDX 9 22 8 23 7 24 6 25 5 26 4 27 3 28 2 29 1 30
REMARK H PARENT
REMARK Flexibility Score: inf
ROOT
ATOM      1  C   UNL     1      28.160  60.731   9.949  1.00  0.00     0.000 C 
ENDROOT
BRANCH   1   2
ATOM      2  C   UNL     1      27.361  62.027   9.722  1.00  0.00     0.000 C 
BRANCH   2   3
ATOM      3  C   UNL     1      26.943  62.218   8.257  1.00  0.00     0.000 C 
BRANCH   3   4
ATOM      4  C   UNL     1      27.992  61.627   7.306  1.00  0.00     0.000 C 
BRANCH   4   5
ATOM      5  C   UNL     1      27.535  61.731   5.844  1.00  0.00     0.000 C 
BRANCH   5   6
ATOM      6  C   UNL     1      28.521  62.514   4.959  1.00  0.00     0.000 C 
BRANCH   6   7
ATOM      7  C   UNL     1      28.001  62.861   3.552  1.00  0.00     0.000 C 
BRANCH   7   8
ATOM      8  C   UNL     1      27.774  64.366   3.348  1.00  0.00     0.000 C 
BRANCH   8   9
ATOM      9  C   UNL     1      28.299  65.164   4.551  1.00  0.00     0.000 C 
BRANCH   9  10
ATOM     10  C   UNL     1      27.275  66.178   5.089  1.00  0.00     0.000 C 
BRANCH  10  11
ATOM     11  C   UNL     1      25.800  65.744   4.973  1.00  0.00     0.000 C 
BRANCH  11  12
ATOM     12  C   UNL     1      25.319  64.761   6.057  1.00  0.00     0.006 C 
BRANCH  12  13
ATOM     13  C   UNL     1      23.800  64.543   6.033  1.00  0.00     0.053 C 
BRANCH  13  14
ATOM     14  C   UNL     1      23.386  63.603   7.122  1.00  0.00     0.041 C 
ATOM     15  O   UNL     1      23.748  63.812   8.311  1.00  0.00    -0.550 OA
ATOM     16  O   UNL     1      22.592  62.502   6.827  1.00  0.00    -0.550 OA
ENDBRANCH  13  14
ENDBRANCH  12  13
ENDBRANCH  11  12
ENDBRANCH  10  11
ENDBRANCH   9  10
ENDBRANCH   8   9
ENDBRANCH   7   8
ENDBRANCH   6   7
ENDBRANCH   5   6
ENDBRANCH   4   5
ENDBRANCH   3   4
ENDBRANCH   2   3
ENDBRANCH   1   2
BRANCH   1  17
ATOM     17  C   UNL     1      28.932  60.670  11.282  1.00  0.00     0.000 C 
BRANCH  17  18
ATOM     18  C   UNL     1      30.463  60.817  11.162  1.00  0.00     0.000 C 
BRANCH  18  19
ATOM     19  C   UNL     1      30.940  61.981  10.275  1.00  0.00     0.000 C 
BRANCH  19  20
ATOM     20  C   UNL     1      31.094  63.299  11.049  1.00  0.00     0.000 C 
BRANCH  20  21
ATOM     21  C   UNL     1      30.717  64.498  10.173  1.00  0.00     0.000 C 
BRANCH  21  22
ATOM     22  C   UNL     1      30.504  64.069   8.716  1.00  0.00    -0.000 C 
BRANCH  22  23
ATOM     23  C   UNL     1      29.378  64.876   8.060  1.00  0.00    -0.000 C 
BRANCH  23  24
ATOM     24  C   UNL     1      28.489  65.539   9.123  1.00  0.00    -0.000 C 
BRANCH  24  25
ATOM     25  C   UNL     1      27.598  66.649   8.542  1.00  0.00    -0.000 C 
BRANCH  25  26
ATOM     26  C   UNL     1      28.011  68.053   9.021  1.00  0.00    -0.000 C 
BRANCH  26  27
ATOM     27  C   UNL     1      29.077  67.995  10.137  1.00  0.00    -0.000 C 
BRANCH  27  28
ATOM     28  C   UNL     1      30.359  68.782   9.808  1.00  0.00    -0.000 C 
BRANCH  28  29
ATOM     29  C   UNL     1      31.404  67.942   9.065  1.00  0.00    -0.003 C 
ATOM     30  C   UNL     1      32.336  68.825   8.241  1.00  0.00     0.004 C 
ENDBRANCH  28  29
ENDBRANCH  27  28
ENDBRANCH  26  27
ENDBRANCH  25  26
ENDBRANCH  24  25
ENDBRANCH  23  24
ENDBRANCH  22  23
ENDBRANCH  21  22
ENDBRANCH  20  21
ENDBRANCH  19  20
ENDBRANCH  18  19
ENDBRANCH  17  18
ENDBRANCH   1  17
TORSDOF 26
ENDMDL
MODEL 9
REMARK VINA RESULT:    -4.887     12.056     14.882
REMARK INTER + INTRA:         -15.818
REMARK INTER:                 -11.551
REMARK INTRA:                  -4.267
REMARK UNBOUND:                -3.503
REMARK SMILES CCCCCCCCCCCCCCCCCCCCCCCCCCCC(=O)[O-]
REMARK SMILES IDX 15 1 16 2 17 3 18 4 19 5 20 6 21 7 22 8 23 9 24 10 25 11
REMARK SMILES IDX 26 12 27 13 28 14 29 15 30 16 14 17 13 18 12 19 11 20 10 21
REMARK SMILES IDX 9 22 8 23 7 24 6 25 5 26 4 27 3 28 2 29 1 30
REMARK H PARENT
REMARK Flexibility Score: inf
ROOT
ATOM      1  C   UNL     1      30.555  60.100  10.997  1.00  0.00     0.000 C 
ENDROOT
BRANCH   1   2
ATOM      2  C   UNL     1      29.362  61.071  10.965  1.00  0.00     0.000 C 
BRANCH   2   3
ATOM      3  C   UNL     1      28.128  60.473  10.273  1.00  0.00     0.000 C 
BRANCH   3   4
ATOM      4  C   UNL     1      27.726  61.308   9.051  1.00  0.00     0.000 C 
BRANCH   4   5
ATOM      5  C   UNL     1      26.970  60.454   8.022  1.00  0.00     0.000 C 
BRANCH   5   6
ATOM      6  C   UNL     1      27.048  61.024   6.593  1.00  0.00     0.000 C 
BRANCH   6   7
ATOM      7  C   UNL     1      28.358  61.757   6.254  1.00  0.00     0.000 C 
BRANCH   7   8
ATOM      8  C   UNL     1      28.404  62.269   4.807  1.00  0.00     0.000 C 
BRANCH   8   9
ATOM      9  C   UNL     1      27.303  63.312   4.563  1.00  0.00     0.000 C 
BRANCH   9  10
ATOM     10  C   UNL     1      27.724  64.734   4.975  1.00  0.00     0.000 C 
BRANCH  10  11
ATOM     11  C   UNL     1      26.707  65.488   5.855  1.00  0.00     0.000 C 
BRANCH  11  12
ATOM     12  C   UNL     1      25.235  65.094   5.640  1.00  0.00     0.006 C 
BRANCH  12  13
ATOM     13  C   UNL     1      24.652  64.303   6.820  1.00  0.00     0.053 C 
BRANCH  13  14
ATOM     14  C   UNL     1      23.235  63.906   6.538  1.00  0.00     0.041 C 
ATOM     15  O   UNL     1      22.437  64.732   6.020  1.00  0.00    -0.550 OA
ATOM     16  O   UNL     1      22.800  62.622   6.838  1.00  0.00    -0.550 OA
ENDBRANCH  13  14
ENDBRANCH  12  13
ENDBRANCH  11  12
ENDBRANCH  10  11
ENDBRANCH   9  10
ENDBRANCH   8   9
ENDBRANCH   7   8
ENDBRANCH   6   7
ENDBRANCH   5   6
ENDBRANCH   4   5
ENDBRANCH   3   4
ENDBRANCH   2   3
ENDBRANCH   1   2
BRANCH   1  17
ATOM     17  C   UNL     1      31.912  60.752  11.329  1.00  0.00     0.000 C 
BRANCH  17  18
ATOM     18  C   UNL     1      31.861  61.872  12.389  1.00  0.00     0.000 C 
BRANCH  18  19
ATOM     19  C   UNL     1      32.459  63.219  11.947  1.00  0.00     0.000 C 
BRANCH  19  20
ATOM     20  C   UNL     1      31.410  64.174  11.356  1.00  0.00     0.000 C 
BRANCH  20  21
ATOM     21  C   UNL     1      31.740  64.520   9.901  1.00  0.00     0.000 C 
BRANCH  21  22
ATOM     22  C   UNL     1      31.176  63.465   8.942  1.00  0.00    -0.000 C 
BRANCH  22  23
ATOM     23  C   UNL     1      30.397  64.119   7.795  1.00  0.00    -0.000 C 
BRANCH  23  24
ATOM     24  C   UNL     1      29.727  65.420   8.260  1.00  0.00    -0.000 C 
BRANCH  24  25
ATOM     25  C   UNL     1      28.365  65.177   8.931  1.00  0.00    -0.000 C 
BRANCH  25  26
ATOM     26  C   UNL     1      27.679  66.485   9.371  1.00  0.00    -0.000 C 
BRANCH  26  27
ATOM     27  C   UNL     1      28.374  67.731   8.783  1.00  0.00    -0.000 C 
BRANCH  27  28
ATOM     28  C   UNL     1      28.862  68.728   9.850  1.00  0.00    -0.000 C 
BRANCH  28  29
ATOM     29  C   UNL     1      30.041  68.196  10.673  1.00  0.00    -0.003 C 
ATOM     30  C   UNL     1      29.666  68.055  12.145  1.00  0.00     0.004 C 
ENDBRANCH  28  29
ENDBRANCH  27  28
ENDBRANCH  26  27
ENDBRANCH  25  26
ENDBRANCH  24  25
ENDBRANCH  23  24
ENDBRANCH  22  23
ENDBRANCH  21  22
ENDBRANCH  20  21
ENDBRANCH  19  20
ENDBRANCH  18  19
ENDBRANCH  17  18
ENDBRANCH   1  17
TORSDOF 26
ENDMDL
