MODEL 1
REMARK VINA RESULT:    -5.437      0.000      0.000
REMARK INTER + INTRA:          -6.817
REMARK INTER:                  -6.549
REMARK INTRA:                  -0.268
REMARK UNBOUND:                -0.268
REMARK SMILES O=c1c(O)c(-c2ccc(O)c(O)c2)oc2cc(O)cc(O)c12
REMARK SMILES IDX 5 1 3 2 2 3 1 4 22 5 20 6 19 7 17 8 16 9 15 10 14 11 6 12
REMARK SMILES IDX 7 13 8 14 9 15 13 16 11 17 10 18 12 20 4 22 21 24 18 26
REMARK H PARENT 10 19 12 21 4 23 21 25 18 27
REMARK Flexibility Score: inf
ROOT
ATOM      1  C   UNL     1      25.160  23.006   4.990  1.00  0.00     0.180 A 
ATOM      2  C   UNL     1      24.055  22.854   5.851  1.00  0.00     0.208 A 
ATOM      3  C   UNL     1      23.380  24.001   6.295  1.00  0.00     0.238 A 
ATOM      4  O   UNL     1      22.395  23.878   7.075  1.00  0.00    -0.285 OA
ATOM      5  C   UNL     1      23.802  25.273   5.857  1.00  0.00     0.111 A 
ATOM      6  C   UNL     1      23.172  26.478   6.255  1.00  0.00     0.134 A 
ATOM      7  C   UNL     1      23.648  27.704   5.768  1.00  0.00     0.093 A 
ATOM      8  C   UNL     1      24.738  27.749   4.892  1.00  0.00     0.123 A 
ATOM      9  C   UNL     1      25.362  26.565   4.499  1.00  0.00     0.094 A 
ATOM     10  C   UNL     1      24.905  25.331   4.974  1.00  0.00     0.146 A 
ATOM     11  O   UNL     1      25.522  24.221   4.587  1.00  0.00    -0.452 OA
ENDROOT
BRANCH   1  12
ATOM     12  C   UNL     1      25.937  21.846   4.496  1.00  0.00     0.025 A 
ATOM     13  C   UNL     1      27.217  21.554   4.996  1.00  0.00     0.016 A 
ATOM     14  C   UNL     1      27.940  20.468   4.497  1.00  0.00     0.051 A 
ATOM     15  C   UNL     1      27.402  19.667   3.480  1.00  0.00     0.157 A 
ATOM     16  C   UNL     1      25.410  21.054   3.462  1.00  0.00     0.062 A 
ATOM     17  C   UNL     1      26.131  19.965   2.959  1.00  0.00     0.158 A 
BRANCH  15  18
ATOM     18  O   UNL     1      28.125  18.584   2.985  1.00  0.00    -0.504 OA
ATOM     19  H   UNL     1      28.146  18.368   1.995  1.00  0.00     0.293 HD
ENDBRANCH  15  18
BRANCH  17  20
ATOM     20  O   UNL     1      25.571  19.193   1.942  1.00  0.00    -0.504 OA
ATOM     21  H   UNL     1      25.937  18.280   1.696  1.00  0.00     0.293 HD
ENDBRANCH  17  20
ENDBRANCH   1  12
BRANCH   2  22
ATOM     22  O   UNL     1      23.626  21.580   6.231  1.00  0.00    -0.502 OA
ATOM     23  H   UNL     1      23.997  21.102   7.044  1.00  0.00     0.293 HD
ENDBRANCH   2  22
BRANCH   6  24
ATOM     24  O   UNL     1      22.081  26.464   7.125  1.00  0.00    -0.507 OA
ATOM     25  H   UNL     1      21.921  25.695   7.766  1.00  0.00     0.293 HD
ENDBRANCH   6  24
BRANCH   8  26
ATOM     26  O   UNL     1      25.210  28.967   4.407  1.00  0.00    -0.508 OA
ATOM     27  H   UNL     1      26.018  29.019   3.799  1.00  0.00     0.293 HD
ENDBRANCH   8  26
TORSDOF 6
ENDMDL
MODEL 2
REMARK VINA RESULT:    -5.301      8.833     10.983
REMARK INTER + INTRA:          -6.653
REMARK INTER:                  -6.342
REMARK INTRA:                  -0.311
REMARK UNBOUND:                -0.268
REMARK SMILES O=c1c(O)c(-c2ccc(O)c(O)c2)oc2cc(O)cc(O)c12
REMARK SMILES IDX 5 1 3 2 2 3 1 4 22 5 20 6 19 7 17 8 16 9 15 10 14 11 6 12
REMARK SMILES IDX 7 13 8 14 9 15 13 16 11 17 10 18 12 20 4 22 21 24 18 26
REMARK H PARENT 10 19 12 21 4 23 21 25 18 27
REMARK Flexibility Score: inf
ROOT
ATOM      1  C   UNL     1      15.390  24.812   4.996  1.00  0.00     0.180 A 
ATOM      2  C   UNL     1      14.781  23.739   4.314  1.00  0.00     0.208 A 
ATOM      3  C   UNL     1      13.383  23.623   4.345  1.00  0.00     0.238 A 
ATOM      4  O   UNL     1      12.828  22.661   3.747  1.00  0.00    -0.285 OA
ATOM      5  C   UNL     1      12.618  24.586   5.034  1.00  0.00     0.111 A 
ATOM      6  C   UNL     1      11.204  24.543   5.110  1.00  0.00     0.134 A 
ATOM      7  C   UNL     1      10.515  25.545   5.808  1.00  0.00     0.093 A 
ATOM      8  C   UNL     1      11.210  26.588   6.431  1.00  0.00     0.123 A 
ATOM      9  C   UNL     1      12.603  26.633   6.361  1.00  0.00     0.094 A 
ATOM     10  C   UNL     1      13.310  25.643   5.670  1.00  0.00     0.146 A 
ATOM     11  O   UNL     1      14.635  25.709   5.624  1.00  0.00    -0.452 OA
ENDROOT
BRANCH   1  12
ATOM     12  C   UNL     1      16.859  24.991   5.027  1.00  0.00     0.025 A 
ATOM     13  C   UNL     1      17.515  25.829   4.109  1.00  0.00     0.016 A 
ATOM     14  C   UNL     1      18.905  25.964   4.143  1.00  0.00     0.051 A 
ATOM     15  C   UNL     1      19.662  25.252   5.083  1.00  0.00     0.157 A 
ATOM     16  C   UNL     1      17.624  24.263   5.954  1.00  0.00     0.062 A 
ATOM     17  C   UNL     1      19.017  24.395   5.991  1.00  0.00     0.158 A 
BRANCH  15  18
ATOM     18  O   UNL     1      21.048  25.390   5.116  1.00  0.00    -0.504 OA
ATOM     19  H   UNL     1      21.580  25.603   4.280  1.00  0.00     0.293 HD
ENDBRANCH  15  18
BRANCH  17  20
ATOM     20  O   UNL     1      19.741  23.668   6.934  1.00  0.00    -0.504 OA
ATOM     21  H   UNL     1      20.709  23.879   7.150  1.00  0.00     0.293 HD
ENDBRANCH  17  20
ENDBRANCH   1  12
BRANCH   2  22
ATOM     22  O   UNL     1      15.559  22.827   3.598  1.00  0.00    -0.502 OA
ATOM     23  H   UNL     1      16.543  22.682   3.791  1.00  0.00     0.293 HD
ENDBRANCH   2  22
BRANCH   6  24
ATOM     24  O   UNL     1      10.483  23.518   4.496  1.00  0.00    -0.507 OA
ATOM     25  H   UNL     1       9.784  23.708   3.788  1.00  0.00     0.293 HD
ENDBRANCH   6  24
BRANCH   8  26
ATOM     26  O   UNL     1      10.525  27.584   7.124  1.00  0.00    -0.508 OA
ATOM     27  H   UNL     1      10.379  28.503   6.725  1.00  0.00     0.293 HD
ENDBRANCH   8  26
TORSDOF 6
ENDMDL
MODEL 3
REMARK VINA RESULT:    -4.971      3.273      6.925
REMARK INTER + INTRA:          -6.257
REMARK INTER:                  -6.120
REMARK INTRA:                  -0.136
REMARK UNBOUND:                -0.268
REMARK SMILES O=c1c(O)c(-c2ccc(O)c(O)c2)oc2cc(O)cc(O)c12
REMARK SMILES IDX 5 1 3 2 2 3 1 4 22 5 20 6 19 7 17 8 16 9 15 10 14 11 6 12
REMARK SMILES IDX 7 13 8 14 9 15 13 16 11 17 10 18 12 20 4 22 21 24 18 26
REMARK H PARENT 10 19 12 21 4 23 21 25 18 27
REMARK Flexibility Score: inf
ROOT
ATOM      1  C   UNL     1      21.932  25.227   5.700  1.00  0.00     0.180 A 
ATOM      2  C   UNL     1      22.556  26.442   6.045  1.00  0.00     0.208 A 
ATOM      3  C   UNL     1      23.943  26.457   6.255  1.00  0.00     0.238 A 
ATOM      4  O   UNL     1      24.510  27.538   6.574  1.00  0.00    -0.285 OA
ATOM      5  C   UNL     1      24.685  25.268   6.097  1.00  0.00     0.111 A 
ATOM      6  C   UNL     1      26.087  25.199   6.287  1.00  0.00     0.134 A 
ATOM      7  C   UNL     1      26.754  23.979   6.103  1.00  0.00     0.093 A 
ATOM      8  C   UNL     1      26.048  22.829   5.732  1.00  0.00     0.123 A 
ATOM      9  C   UNL     1      24.666  22.892   5.546  1.00  0.00     0.094 A 
ATOM     10  C   UNL     1      23.982  24.099   5.726  1.00  0.00     0.146 A 
ATOM     11  O   UNL     1      22.666  24.128   5.547  1.00  0.00    -0.452 OA
ENDROOT
BRANCH   1  12
ATOM     12  C   UNL     1      20.471  25.126   5.482  1.00  0.00     0.025 A 
ATOM     13  C   UNL     1      19.832  25.848   4.459  1.00  0.00     0.016 A 
ATOM     14  C   UNL     1      18.449  25.755   4.287  1.00  0.00     0.051 A 
ATOM     15  C   UNL     1      17.682  24.954   5.143  1.00  0.00     0.157 A 
ATOM     16  C   UNL     1      19.696  24.341   6.350  1.00  0.00     0.062 A 
ATOM     17  C   UNL     1      18.310  24.245   6.182  1.00  0.00     0.158 A 
BRANCH  15  18
ATOM     18  O   UNL     1      16.303  24.862   4.968  1.00  0.00    -0.504 OA
ATOM     19  H   UNL     1      15.858  25.135   4.100  1.00  0.00     0.293 HD
ENDBRANCH  15  18
BRANCH  17  20
ATOM     20  O   UNL     1      17.575  23.445   7.055  1.00  0.00    -0.504 OA
ATOM     21  H   UNL     1      16.562  23.460   7.076  1.00  0.00     0.293 HD
ENDBRANCH  17  20
ENDBRANCH   1  12
BRANCH   2  22
ATOM     22  O   UNL     1      21.805  27.616   6.146  1.00  0.00    -0.502 OA
ATOM     23  H   UNL     1      21.855  28.224   6.955  1.00  0.00     0.293 HD
ENDBRANCH   2  22
BRANCH   6  24
ATOM     24  O   UNL     1      26.818  26.330   6.655  1.00  0.00    -0.507 OA
ATOM     25  H   UNL     1      27.279  26.396   7.555  1.00  0.00     0.293 HD
ENDBRANCH   6  24
BRANCH   8  26
ATOM     26  O   UNL     1      26.711  21.618   5.548  1.00  0.00    -0.508 OA
ATOM     27  H   UNL     1      26.556  21.049   4.724  1.00  0.00     0.293 HD
ENDBRANCH   8  26
TORSDOF 6
ENDMDL
MODEL 4
REMARK VINA RESULT:    -4.554      2.194      3.324
REMARK INTER + INTRA:          -5.754
REMARK INTER:                  -5.572
REMARK INTRA:                  -0.182
REMARK UNBOUND:                -0.268
REMARK SMILES O=c1c(O)c(-c2ccc(O)c(O)c2)oc2cc(O)cc(O)c12
REMARK SMILES IDX 5 1 3 2 2 3 1 4 22 5 20 6 19 7 17 8 16 9 15 10 14 11 6 12
REMARK SMILES IDX 7 13 8 14 9 15 13 16 11 17 10 18 12 20 4 22 21 24 18 26
REMARK H PARENT 10 19 12 21 4 23 21 25 18 27
REMARK Flexibility Score: inf
ROOT
ATOM      1  C   UNL     1      24.896  23.658   6.380  1.00  0.00     0.180 A 
ATOM      2  C   UNL     1      26.196  24.162   6.582  1.00  0.00     0.208 A 
ATOM      3  C   UNL     1      26.367  25.543   6.762  1.00  0.00     0.238 A 
ATOM      4  O   UNL     1      27.528  26.008   6.933  1.00  0.00    -0.285 OA
ATOM      5  C   UNL     1      25.241  26.392   6.759  1.00  0.00     0.111 A 
ATOM      6  C   UNL     1      25.326  27.794   6.938  1.00  0.00     0.134 A 
ATOM      7  C   UNL     1      24.157  28.569   6.931  1.00  0.00     0.093 A 
ATOM      8  C   UNL     1      22.906  27.969   6.750  1.00  0.00     0.123 A 
ATOM      9  C   UNL     1      22.817  26.588   6.572  1.00  0.00     0.094 A 
ATOM     10  C   UNL     1      23.970  25.797   6.574  1.00  0.00     0.146 A 
ATOM     11  O   UNL     1      23.856  24.486   6.398  1.00  0.00    -0.452 OA
ENDROOT
BRANCH   1  12
ATOM     12  C   UNL     1      24.637  22.216   6.163  1.00  0.00     0.025 A 
ATOM     13  C   UNL     1      23.965  21.440   7.122  1.00  0.00     0.016 A 
ATOM     14  C   UNL     1      23.753  20.076   6.905  1.00  0.00     0.051 A 
ATOM     15  C   UNL     1      24.222  19.465   5.735  1.00  0.00     0.157 A 
ATOM     16  C   UNL     1      25.124  21.595   5.001  1.00  0.00     0.062 A 
ATOM     17  C   UNL     1      24.915  20.229   4.779  1.00  0.00     0.158 A 
BRANCH  15  18
ATOM     18  O   UNL     1      24.008  18.105   5.520  1.00  0.00    -0.504 OA
ATOM     19  H   UNL     1      23.302  17.591   6.035  1.00  0.00     0.293 HD
ENDBRANCH  15  18
BRANCH  17  20
ATOM     20  O   UNL     1      25.400  19.650   3.608  1.00  0.00    -0.504 OA
ATOM     21  H   UNL     1      24.839  19.584   2.767  1.00  0.00     0.293 HD
ENDBRANCH  17  20
ENDBRANCH   1  12
BRANCH   2  22
ATOM     22  O   UNL     1      27.290  23.295   6.630  1.00  0.00    -0.502 OA
ATOM     23  H   UNL     1      27.659  22.840   5.802  1.00  0.00     0.293 HD
ENDBRANCH   2  22
BRANCH   6  24
ATOM     24  O   UNL     1      26.560  28.420   7.123  1.00  0.00    -0.507 OA
ATOM     25  H   UNL     1      27.050  28.868   6.357  1.00  0.00     0.293 HD
ENDBRANCH   6  24
BRANCH   8  26
ATOM     26  O   UNL     1      21.744  28.738   6.744  1.00  0.00    -0.508 OA
ATOM     27  H   UNL     1      21.628  29.518   6.107  1.00  0.00     0.293 HD
ENDBRANCH   8  26
TORSDOF 6
ENDMDL
MODEL 5
REMARK VINA RESULT:    -4.402      3.685      6.355
REMARK INTER + INTRA:          -5.570
REMARK INTER:                  -5.734
REMARK INTRA:                   0.163
REMARK UNBOUND:                -0.268
REMARK SMILES O=c1c(O)c(-c2ccc(O)c(O)c2)oc2cc(O)cc(O)c12
REMARK SMILES IDX 5 1 3 2 2 3 1 4 22 5 20 6 19 7 17 8 16 9 15 10 14 11 6 12
REMARK SMILES IDX 7 13 8 14 9 15 13 16 11 17 10 18 12 20 4 22 21 24 18 26
REMARK H PARENT 10 19 12 21 4 23 21 25 18 27
REMARK Flexibility Score: inf
ROOT
ATOM      1  C   UNL     1      21.676  24.860   6.239  1.00  0.00     0.180 A 
ATOM      2  C   UNL     1      22.534  23.786   6.547  1.00  0.00     0.208 A 
ATOM      3  C   UNL     1      23.899  24.044   6.743  1.00  0.00     0.238 A 
ATOM      4  O   UNL     1      24.679  23.088   7.010  1.00  0.00    -0.285 OA
ATOM      5  C   UNL     1      24.379  25.366   6.651  1.00  0.00     0.111 A 
ATOM      6  C   UNL     1      25.740  25.712   6.839  1.00  0.00     0.134 A 
ATOM      7  C   UNL     1      26.137  27.053   6.738  1.00  0.00     0.093 A 
ATOM      8  C   UNL     1      25.202  28.054   6.454  1.00  0.00     0.123 A 
ATOM      9  C   UNL     1      23.860  27.719   6.267  1.00  0.00     0.094 A 
ATOM     10  C   UNL     1      23.443  26.387   6.361  1.00  0.00     0.146 A 
ATOM     11  O   UNL     1      22.162  26.096   6.174  1.00  0.00    -0.452 OA
ENDROOT
BRANCH   1  12
ATOM     12  C   UNL     1      20.228  24.665   5.998  1.00  0.00     0.025 A 
ATOM     13  C   UNL     1      19.476  23.749   6.754  1.00  0.00     0.016 A 
ATOM     14  C   UNL     1      18.116  23.565   6.492  1.00  0.00     0.051 A 
ATOM     15  C   UNL     1      17.490  24.282   5.464  1.00  0.00     0.157 A 
ATOM     16  C   UNL     1      19.601  25.366   4.955  1.00  0.00     0.062 A 
ATOM     17  C   UNL     1      18.239  25.185   4.689  1.00  0.00     0.158 A 
BRANCH  15  18
ATOM     18  O   UNL     1      16.133  24.099   5.207  1.00  0.00    -0.504 OA
ATOM     19  H   UNL     1      15.809  23.665   4.350  1.00  0.00     0.293 HD
ENDBRANCH  15  18
BRANCH  17  20
ATOM     20  O   UNL     1      17.648  25.909   3.655  1.00  0.00    -0.504 OA
ATOM     21  H   UNL     1      18.196  26.436   2.984  1.00  0.00     0.293 HD
ENDBRANCH  17  20
ENDBRANCH   1  12
BRANCH   2  22
ATOM     22  O   UNL     1      22.025  22.492   6.682  1.00  0.00    -0.502 OA
ATOM     23  H   UNL     1      21.887  22.055   7.586  1.00  0.00     0.293 HD
ENDBRANCH   2  22
BRANCH   6  24
ATOM     24  O   UNL     1      26.695  24.735   7.125  1.00  0.00    -0.507 OA
ATOM     25  H   UNL     1      27.527  24.621   6.556  1.00  0.00     0.293 HD
ENDBRANCH   6  24
BRANCH   8  26
ATOM     26  O   UNL     1      25.596  29.387   6.355  1.00  0.00    -0.508 OA
ATOM     27  H   UNL     1      26.312  29.774   6.959  1.00  0.00     0.293 HD
ENDBRANCH   8  26
TORSDOF 6
ENDMDL
MODEL 6
REMARK VINA RESULT:    -4.235     10.091     12.570
REMARK INTER + INTRA:          -5.369
REMARK INTER:                  -5.128
REMARK INTRA:                  -0.241
REMARK UNBOUND:                -0.268
REMARK SMILES O=c1c(O)c(-c2ccc(O)c(O)c2)oc2cc(O)cc(O)c12
REMARK SMILES IDX 5 1 3 2 2 3 1 4 22 5 20 6 19 7 17 8 16 9 15 10 14 11 6 12
REMARK SMILES IDX 7 13 8 14 9 15 13 16 11 17 10 18 12 20 4 22 21 24 18 26
REMARK H PARENT 10 19 12 21 4 23 21 25 18 27
REMARK Flexibility Score: inf
ROOT
ATOM      1  C   UNL     1      13.927  25.966   5.679  1.00  0.00     0.180 A 
ATOM      2  C   UNL     1      13.421  27.202   6.130  1.00  0.00     0.208 A 
ATOM      3  C   UNL     1      12.031  27.371   6.222  1.00  0.00     0.238 A 
ATOM      4  O   UNL     1      11.566  28.477   6.615  1.00  0.00    -0.285 OA
ATOM      5  C   UNL     1      11.174  26.304   5.885  1.00  0.00     0.111 A 
ATOM      6  C   UNL     1       9.762  26.393   5.954  1.00  0.00     0.134 A 
ATOM      7  C   UNL     1       8.978  25.282   5.609  1.00  0.00     0.093 A 
ATOM      8  C   UNL     1       9.577  24.086   5.198  1.00  0.00     0.123 A 
ATOM      9  C   UNL     1      10.968  23.995   5.127  1.00  0.00     0.094 A 
ATOM     10  C   UNL     1      11.768  25.091   5.465  1.00  0.00     0.146 A 
ATOM     11  O   UNL     1      13.088  24.977   5.383  1.00  0.00    -0.452 OA
ENDROOT
BRANCH   1  12
ATOM     12  C   UNL     1      15.379  25.717   5.536  1.00  0.00     0.025 A 
ATOM     13  C   UNL     1      16.135  26.344   4.531  1.00  0.00     0.016 A 
ATOM     14  C   UNL     1      17.499  26.074   4.400  1.00  0.00     0.051 A 
ATOM     15  C   UNL     1      18.126  25.164   5.262  1.00  0.00     0.157 A 
ATOM     16  C   UNL     1      16.007  24.789   6.384  1.00  0.00     0.062 A 
ATOM     17  C   UNL     1      17.373  24.516   6.257  1.00  0.00     0.158 A 
BRANCH  15  18
ATOM     18  O   UNL     1      19.488  24.899   5.131  1.00  0.00    -0.504 OA
ATOM     19  H   UNL     1      19.947  24.192   5.694  1.00  0.00     0.293 HD
ENDBRANCH  15  18
BRANCH  17  20
ATOM     20  O   UNL     1      17.965  23.600   7.125  1.00  0.00    -0.504 OA
ATOM     21  H   UNL     1      17.480  23.236   7.937  1.00  0.00     0.293 HD
ENDBRANCH  17  20
ENDBRANCH   1  12
BRANCH   2  22
ATOM     22  O   UNL     1      14.293  28.226   6.505  1.00  0.00    -0.502 OA
ATOM     23  H   UNL     1      15.190  28.367   6.056  1.00  0.00     0.293 HD
ENDBRANCH   2  22
BRANCH   6  24
ATOM     24  O   UNL     1       9.136  27.571   6.363  1.00  0.00    -0.507 OA
ATOM     25  H   UNL     1       8.971  28.337   5.720  1.00  0.00     0.293 HD
ENDBRANCH   6  24
BRANCH   8  26
ATOM     26  O   UNL     1       8.798  22.982   4.857  1.00  0.00    -0.508 OA
ATOM     27  H   UNL     1       8.906  22.092   5.328  1.00  0.00     0.293 HD
ENDBRANCH   8  26
TORSDOF 6
ENDMDL
MODEL 7
REMARK VINA RESULT:    -3.890      2.177      7.247
REMARK INTER + INTRA:          -4.953
REMARK INTER:                  -4.831
REMARK INTRA:                  -0.122
REMARK UNBOUND:                -0.268
REMARK SMILES O=c1c(O)c(-c2ccc(O)c(O)c2)oc2cc(O)cc(O)c12
REMARK SMILES IDX 5 1 3 2 2 3 1 4 22 5 20 6 19 7 17 8 16 9 15 10 14 11 6 12
REMARK SMILES IDX 7 13 8 14 9 15 13 16 11 17 10 18 12 20 4 22 21 24 18 26
REMARK H PARENT 10 19 12 21 4 23 21 25 18 27
REMARK Flexibility Score: inf
ROOT
ATOM      1  C   UNL     1      24.306  23.815   6.055  1.00  0.00     0.180 A 
ATOM      2  C   UNL     1      25.598  23.657   5.516  1.00  0.00     0.208 A 
ATOM      3  C   UNL     1      26.138  22.366   5.418  1.00  0.00     0.238 A 
ATOM      4  O   UNL     1      27.299  22.214   4.946  1.00  0.00    -0.285 OA
ATOM      5  C   UNL     1      25.377  21.257   5.838  1.00  0.00     0.111 A 
ATOM      6  C   UNL     1      25.847  19.923   5.770  1.00  0.00     0.134 A 
ATOM      7  C   UNL     1      25.024  18.872   6.201  1.00  0.00     0.093 A 
ATOM      8  C   UNL     1      23.741  19.129   6.698  1.00  0.00     0.123 A 
ATOM      9  C   UNL     1      23.274  20.442   6.769  1.00  0.00     0.094 A 
ATOM     10  C   UNL     1      24.079  21.505   6.345  1.00  0.00     0.146 A 
ATOM     11  O   UNL     1      23.611  22.744   6.429  1.00  0.00    -0.452 OA
ENDROOT
BRANCH   1  12
ATOM     12  C   UNL     1      23.675  25.145   6.209  1.00  0.00     0.025 A 
ATOM     13  C   UNL     1      24.280  26.159   6.972  1.00  0.00     0.016 A 
ATOM     14  C   UNL     1      23.654  27.399   7.123  1.00  0.00     0.051 A 
ATOM     15  C   UNL     1      22.409  27.640   6.526  1.00  0.00     0.157 A 
ATOM     16  C   UNL     1      22.417  25.384   5.631  1.00  0.00     0.062 A 
ATOM     17  C   UNL     1      21.786  26.624   5.779  1.00  0.00     0.158 A 
BRANCH  15  18
ATOM     18  O   UNL     1      21.787  28.878   6.677  1.00  0.00    -0.504 OA
ATOM     19  H   UNL     1      22.291  29.746   6.532  1.00  0.00     0.293 HD
ENDBRANCH  15  18
BRANCH  17  20
ATOM     20  O   UNL     1      20.545  26.829   5.180  1.00  0.00    -0.504 OA
ATOM     21  H   UNL     1      20.289  26.386   4.305  1.00  0.00     0.293 HD
ENDBRANCH  17  20
ENDBRANCH   1  12
BRANCH   2  22
ATOM     22  O   UNL     1      26.312  24.768   5.060  1.00  0.00    -0.502 OA
ATOM     23  H   UNL     1      27.251  24.977   5.379  1.00  0.00     0.293 HD
ENDBRANCH   2  22
BRANCH   6  24
ATOM     24  O   UNL     1      27.121  19.635   5.277  1.00  0.00    -0.507 OA
ATOM     25  H   UNL     1      27.263  19.303   4.330  1.00  0.00     0.293 HD
ENDBRANCH   6  24
BRANCH   8  26
ATOM     26  O   UNL     1      22.923  18.085   7.125  1.00  0.00    -0.508 OA
ATOM     27  H   UNL     1      22.044  18.260   7.597  1.00  0.00     0.293 HD
ENDBRANCH   8  26
TORSDOF 6
ENDMDL
