MODEL 1
REMARK VINA RESULT:    -4.788      0.000      0.000
REMARK INTER + INTRA:         -12.508
REMARK INTER:                 -10.387
REMARK INTRA:                  -2.121
REMARK UNBOUND:                -2.121
REMARK SMILES CCCCCCCCCCCCCCCCCCCCCC(=O)[O-]
REMARK SMILES IDX 12 1 11 2 10 3 9 4 8 5 7 6 6 7 5 8 4 9 3 10 2 11 1 12 13 13
REMARK SMILES IDX 14 14 15 15 16 16 17 17 18 18 19 19 20 20 21 21 22 22 23 23
REMARK SMILES IDX 24 24
REMARK H PARENT
REMARK Flexibility Score: inf
ROOT
ATOM      1  C   UNL     1      -7.063 -10.353  -5.065  1.00  0.00     0.000 C 
ENDROOT
BRANCH   1   2
ATOM      2  C   UNL     1      -6.321 -10.180  -6.402  1.00  0.00     0.000 C 
BRANCH   2   3
ATOM      3  C   UNL     1      -4.931 -10.853  -6.385  1.00  0.00     0.000 C 
BRANCH   3   4
ATOM      4  C   UNL     1      -4.876 -12.180  -7.162  1.00  0.00    -0.000 C 
BRANCH   4   5
ATOM      5  C   UNL     1      -6.113 -12.410  -8.045  1.00  0.00    -0.000 C 
BRANCH   5   6
ATOM      6  C   UNL     1      -6.809 -13.753  -7.738  1.00  0.00    -0.000 C 
BRANCH   6   7
ATOM      7  C   UNL     1      -8.335 -13.723  -7.935  1.00  0.00    -0.000 C 
BRANCH   7   8
ATOM      8  C   UNL     1      -9.038 -12.731  -6.995  1.00  0.00    -0.000 C 
BRANCH   8   9
ATOM      9  C   UNL     1     -10.545 -13.009  -6.842  1.00  0.00    -0.000 C 
BRANCH   9  10
ATOM     10  C   UNL     1     -11.457 -11.766  -6.899  1.00  0.00    -0.000 C 
BRANCH  10  11
ATOM     11  C   UNL     1     -11.800 -11.145  -5.534  1.00  0.00    -0.003 C 
ATOM     12  C   UNL     1     -11.418 -12.043  -4.358  1.00  0.00     0.004 C 
ENDBRANCH  10  11
ENDBRANCH   9  10
ENDBRANCH   8   9
ENDBRANCH   7   8
ENDBRANCH   6   7
ENDBRANCH   5   6
ENDBRANCH   4   5
ENDBRANCH   3   4
ENDBRANCH   2   3
ENDBRANCH   1   2
BRANCH   1  13
ATOM     13  C   UNL     1      -8.484  -9.768  -5.097  1.00  0.00     0.000 C 
BRANCH  13  14
ATOM     14  C   UNL     1      -8.498  -8.242  -4.892  1.00  0.00     0.000 C 
BRANCH  14  15
ATOM     15  C   UNL     1      -9.747  -7.578  -5.489  1.00  0.00     0.000 C 
BRANCH  15  16
ATOM     16  C   UNL     1      -9.404  -6.438  -6.464  1.00  0.00     0.000 C 
BRANCH  16  17
ATOM     17  C   UNL     1     -10.465  -6.284  -7.574  1.00  0.00     0.000 C 
BRANCH  17  18
ATOM     18  C   UNL     1     -10.466  -4.897  -8.240  1.00  0.00     0.000 C 
BRANCH  18  19
ATOM     19  C   UNL     1     -11.252  -3.850  -7.433  1.00  0.00     0.000 C 
BRANCH  19  20
ATOM     20  C   UNL     1     -12.434  -4.462  -6.664  1.00  0.00     0.006 C 
BRANCH  20  21
ATOM     21  C   UNL     1     -12.191  -4.511  -5.150  1.00  0.00     0.053 C 
BRANCH  21  22
ATOM     22  C   UNL     1     -12.971  -5.628  -4.528  1.00  0.00     0.041 C 
ATOM     23  O   UNL     1     -13.095  -6.726  -5.130  1.00  0.00    -0.550 OA
ATOM     24  O   UNL     1     -13.538  -5.465  -3.269  1.00  0.00    -0.550 OA
ENDBRANCH  21  22
ENDBRANCH  20  21
ENDBRANCH  19  20
ENDBRANCH  18  19
ENDBRANCH  17  18
ENDBRANCH  16  17
ENDBRANCH  15  16
ENDBRANCH  14  15
ENDBRANCH  13  14
ENDBRANCH   1  13
TORSDOF 20
ENDMDL
MODEL 2
REMARK VINA RESULT:    -4.762      3.368      7.727
REMARK INTER + INTRA:         -12.450
REMARK INTER:                  -9.774
REMARK INTRA:                  -2.677
REMARK UNBOUND:                -2.121
REMARK SMILES CCCCCCCCCCCCCCCCCCCCCC(=O)[O-]
REMARK SMILES IDX 12 1 11 2 10 3 9 4 8 5 7 6 6 7 5 8 4 9 3 10 2 11 1 12 13 13
REMARK SMILES IDX 14 14 15 15 16 16 17 17 18 18 19 19 20 20 21 21 22 22 23 23
REMARK SMILES IDX 24 24
REMARK H PARENT
REMARK Flexibility Score: inf
ROOT
ATOM      1  C   UNL     1     -12.831 -11.345  -4.710  1.00  0.00     0.000 C 
ENDROOT
BRANCH   1   2
ATOM      2  C   UNL     1     -12.790 -10.043  -5.528  1.00  0.00     0.000 C 
BRANCH   2   3
ATOM      3  C   UNL     1     -11.352  -9.499  -5.681  1.00  0.00     0.000 C 
BRANCH   3   4
ATOM      4  C   UNL     1     -11.289  -7.985  -5.945  1.00  0.00    -0.000 C 
BRANCH   4   5
ATOM      5  C   UNL     1      -9.901  -7.384  -5.666  1.00  0.00    -0.000 C 
BRANCH   5   6
ATOM      6  C   UNL     1      -9.525  -6.284  -6.682  1.00  0.00    -0.000 C 
BRANCH   6   7
ATOM      7  C   UNL     1     -10.672  -5.890  -7.628  1.00  0.00    -0.000 C 
BRANCH   7   8
ATOM      8  C   UNL     1     -10.944  -4.377  -7.639  1.00  0.00    -0.000 C 
BRANCH   8   9
ATOM      9  C   UNL     1     -11.674  -3.886  -6.375  1.00  0.00    -0.000 C 
BRANCH   9  10
ATOM     10  C   UNL     1     -12.817  -4.792  -5.876  1.00  0.00    -0.000 C 
BRANCH  10  11
ATOM     11  C   UNL     1     -12.767  -5.143  -4.378  1.00  0.00    -0.003 C 
ATOM     12  C   UNL     1     -13.653  -6.334  -4.016  1.00  0.00     0.004 C 
ENDBRANCH  10  11
ENDBRANCH   9  10
ENDBRANCH   8   9
ENDBRANCH   7   8
ENDBRANCH   6   7
ENDBRANCH   5   6
ENDBRANCH   4   5
ENDBRANCH   3   4
ENDBRANCH   2   3
ENDBRANCH   1   2
BRANCH   1  13
ATOM     13  C   UNL     1     -11.534 -11.591  -3.922  1.00  0.00     0.000 C 
BRANCH  13  14
ATOM     14  C   UNL     1     -11.024 -13.036  -4.061  1.00  0.00     0.000 C 
BRANCH  14  15
ATOM     15  C   UNL     1     -11.387 -13.662  -5.415  1.00  0.00     0.000 C 
BRANCH  15  16
ATOM     16  C   UNL     1     -10.164 -13.844  -6.332  1.00  0.00     0.000 C 
BRANCH  16  17
ATOM     17  C   UNL     1      -9.708 -12.511  -6.962  1.00  0.00     0.000 C 
BRANCH  17  18
ATOM     18  C   UNL     1      -8.263 -12.120  -6.603  1.00  0.00     0.000 C 
BRANCH  18  19
ATOM     19  C   UNL     1      -8.193 -11.072  -5.481  1.00  0.00     0.000 C 
BRANCH  19  20
ATOM     20  C   UNL     1      -6.757 -10.596  -5.206  1.00  0.00     0.006 C 
BRANCH  20  21
ATOM     21  C   UNL     1      -5.977 -10.298  -6.492  1.00  0.00     0.053 C 
BRANCH  21  22
ATOM     22  C   UNL     1      -4.726 -11.119  -6.552  1.00  0.00     0.041 C 
ATOM     23  O   UNL     1      -4.656 -12.111  -7.324  1.00  0.00    -0.550 OA
ATOM     24  O   UNL     1      -3.627 -10.773  -5.774  1.00  0.00    -0.550 OA
ENDBRANCH  21  22
ENDBRANCH  20  21
ENDBRANCH  19  20
ENDBRANCH  18  19
ENDBRANCH  17  18
ENDBRANCH  16  17
ENDBRANCH  15  16
ENDBRANCH  14  15
ENDBRANCH  13  14
ENDBRANCH   1  13
TORSDOF 20
ENDMDL
MODEL 3
REMARK VINA RESULT:    -4.719      2.968      5.943
REMARK INTER + INTRA:         -12.356
REMARK INTER:                 -10.907
REMARK INTRA:                  -1.449
REMARK UNBOUND:                -2.121
REMARK SMILES CCCCCCCCCCCCCCCCCCCCCC(=O)[O-]
REMARK SMILES IDX 12 1 11 2 10 3 9 4 8 5 7 6 6 7 5 8 4 9 3 10 2 11 1 12 13 13
REMARK SMILES IDX 14 14 15 15 16 16 17 17 18 18 19 19 20 20 21 21 22 22 23 23
REMARK SMILES IDX 24 24
REMARK H PARENT
REMARK Flexibility Score: inf
ROOT
ATOM      1  C   UNL     1      -8.967  -8.906  -5.033  1.00  0.00     0.000 C 
ENDROOT
BRANCH   1   2
ATOM      2  C   UNL     1      -7.593  -9.596  -5.074  1.00  0.00     0.000 C 
BRANCH   2   3
ATOM      3  C   UNL     1      -7.645 -10.947  -5.821  1.00  0.00     0.000 C 
BRANCH   3   4
ATOM      4  C   UNL     1      -6.555 -11.101  -6.896  1.00  0.00    -0.000 C 
BRANCH   4   5
ATOM      5  C   UNL     1      -5.173 -10.620  -6.425  1.00  0.00    -0.000 C 
BRANCH   5   6
ATOM      6  C   UNL     1      -4.125 -11.753  -6.431  1.00  0.00    -0.000 C 
BRANCH   6   7
ATOM      7  C   UNL     1      -2.971 -11.540  -5.436  1.00  0.00    -0.000 C 
BRANCH   7   8
ATOM      8  C   UNL     1      -2.381 -12.860  -4.914  1.00  0.00    -0.000 C 
BRANCH   8   9
ATOM      9  C   UNL     1      -1.040 -12.673  -4.180  1.00  0.00    -0.000 C 
BRANCH   9  10
ATOM     10  C   UNL     1       0.215 -12.710  -5.075  1.00  0.00    -0.000 C 
BRANCH  10  11
ATOM     11  C   UNL     1       0.135 -13.673  -6.273  1.00  0.00    -0.003 C 
ATOM     12  C   UNL     1       1.277 -13.478  -7.270  1.00  0.00     0.004 C 
ENDBRANCH  10  11
ENDBRANCH   9  10
ENDBRANCH   8   9
ENDBRANCH   7   8
ENDBRANCH   6   7
ENDBRANCH   5   6
ENDBRANCH   4   5
ENDBRANCH   3   4
ENDBRANCH   2   3
ENDBRANCH   1   2
BRANCH   1  13
ATOM     13  C   UNL     1     -10.133  -9.901  -5.153  1.00  0.00     0.000 C 
BRANCH  13  14
ATOM     14  C   UNL     1     -11.292  -9.350  -6.003  1.00  0.00     0.000 C 
BRANCH  14  15
ATOM     15  C   UNL     1     -11.414  -7.822  -5.917  1.00  0.00     0.000 C 
BRANCH  15  16
ATOM     16  C   UNL     1     -12.722  -7.368  -5.246  1.00  0.00     0.000 C 
BRANCH  16  17
ATOM     17  C   UNL     1     -12.704  -5.865  -4.896  1.00  0.00     0.000 C 
BRANCH  17  18
ATOM     18  C   UNL     1     -11.361  -5.177  -5.194  1.00  0.00     0.000 C 
BRANCH  18  19
ATOM     19  C   UNL     1     -11.530  -3.834  -5.925  1.00  0.00     0.000 C 
BRANCH  19  20
ATOM     20  C   UNL     1     -12.198  -3.990  -7.301  1.00  0.00     0.006 C 
BRANCH  20  21
ATOM     21  C   UNL     1     -11.199  -3.877  -8.459  1.00  0.00     0.053 C 
BRANCH  21  22
ATOM     22  C   UNL     1     -10.847  -5.234  -8.986  1.00  0.00     0.041 C 
ATOM     23  O   UNL     1     -11.418  -5.682 -10.015  1.00  0.00    -0.550 OA
ATOM     24  O   UNL     1      -9.868  -5.993  -8.355  1.00  0.00    -0.550 OA
ENDBRANCH  21  22
ENDBRANCH  20  21
ENDBRANCH  19  20
ENDBRANCH  18  19
ENDBRANCH  17  18
ENDBRANCH  16  17
ENDBRANCH  15  16
ENDBRANCH  14  15
ENDBRANCH  13  14
ENDBRANCH   1  13
TORSDOF 20
ENDMDL
MODEL 4
REMARK VINA RESULT:    -4.693      2.149      7.143
REMARK INTER + INTRA:         -12.301
REMARK INTER:                 -10.268
REMARK INTRA:                  -2.032
REMARK UNBOUND:                -2.121
REMARK SMILES CCCCCCCCCCCCCCCCCCCCCC(=O)[O-]
REMARK SMILES IDX 12 1 11 2 10 3 9 4 8 5 7 6 6 7 5 8 4 9 3 10 2 11 1 12 13 13
REMARK SMILES IDX 14 14 15 15 16 16 17 17 18 18 19 19 20 20 21 21 22 22 23 23
REMARK SMILES IDX 24 24
REMARK H PARENT
REMARK Flexibility Score: inf
ROOT
ATOM      1  C   UNL     1      -6.495 -10.139  -6.472  1.00  0.00     0.000 C 
ENDROOT
BRANCH   1   2
ATOM      2  C   UNL     1      -7.068  -9.964  -5.055  1.00  0.00     0.000 C 
BRANCH   2   3
ATOM      3  C   UNL     1      -8.567  -9.590  -5.079  1.00  0.00     0.000 C 
BRANCH   3   4
ATOM      4  C   UNL     1      -8.830  -8.081  -4.935  1.00  0.00    -0.000 C 
BRANCH   4   5
ATOM      5  C   UNL     1     -10.139  -7.633  -5.605  1.00  0.00    -0.000 C 
BRANCH   5   6
ATOM      6  C   UNL     1     -10.322  -6.101  -5.566  1.00  0.00    -0.000 C 
BRANCH   6   7
ATOM      7  C   UNL     1     -11.786  -5.651  -5.424  1.00  0.00    -0.000 C 
BRANCH   7   8
ATOM      8  C   UNL     1     -12.219  -4.669  -6.524  1.00  0.00    -0.000 C 
BRANCH   8   9
ATOM      9  C   UNL     1     -11.038  -3.903  -7.148  1.00  0.00    -0.000 C 
BRANCH   9  10
ATOM     10  C   UNL     1     -10.953  -3.956  -8.687  1.00  0.00    -0.000 C 
BRANCH  10  11
ATOM     11  C   UNL     1     -10.989  -5.369  -9.295  1.00  0.00    -0.003 C 
ATOM     12  C   UNL     1     -11.431  -5.377 -10.758  1.00  0.00     0.004 C 
ENDBRANCH  10  11
ENDBRANCH   9  10
ENDBRANCH   8   9
ENDBRANCH   7   8
ENDBRANCH   6   7
ENDBRANCH   5   6
ENDBRANCH   4   5
ENDBRANCH   3   4
ENDBRANCH   2   3
ENDBRANCH   1   2
BRANCH   1  13
ATOM     13  C   UNL     1      -5.181 -10.938  -6.484  1.00  0.00     0.000 C 
BRANCH  13  14
ATOM     14  C   UNL     1      -5.272 -12.208  -7.349  1.00  0.00     0.000 C 
BRANCH  14  15
ATOM     15  C   UNL     1      -6.637 -12.357  -8.037  1.00  0.00     0.000 C 
BRANCH  15  16
ATOM     16  C   UNL     1      -7.243 -13.760  -7.854  1.00  0.00     0.000 C 
BRANCH  16  17
ATOM     17  C   UNL     1      -8.780 -13.713  -7.708  1.00  0.00     0.000 C 
BRANCH  17  18
ATOM     18  C   UNL     1      -9.272 -12.675  -6.684  1.00  0.00     0.000 C 
BRANCH  18  19
ATOM     19  C   UNL     1     -10.686 -12.157  -6.996  1.00  0.00     0.000 C 
BRANCH  19  20
ATOM     20  C   UNL     1     -11.708 -12.540  -5.915  1.00  0.00     0.006 C 
BRANCH  20  21
ATOM     21  C   UNL     1     -11.637 -11.627  -4.684  1.00  0.00     0.053 C 
BRANCH  21  22
ATOM     22  C   UNL     1     -11.441 -12.435  -3.439  1.00  0.00     0.041 C 
ATOM     23  O   UNL     1     -10.727 -13.472  -3.463  1.00  0.00    -0.550 OA
ATOM     24  O   UNL     1     -12.025 -12.028  -2.245  1.00  0.00    -0.550 OA
ENDBRANCH  21  22
ENDBRANCH  20  21
ENDBRANCH  19  20
ENDBRANCH  18  19
ENDBRANCH  17  18
ENDBRANCH  16  17
ENDBRANCH  15  16
ENDBRANCH  14  15
ENDBRANCH  13  14
ENDBRANCH   1  13
TORSDOF 20
ENDMDL
MODEL 5
REMARK VINA RESULT:    -4.679      2.293      7.135
REMARK INTER + INTRA:         -12.271
REMARK INTER:                  -9.752
REMARK INTRA:                  -2.519
REMARK UNBOUND:                -2.121
REMARK SMILES CCCCCCCCCCCCCCCCCCCCCC(=O)[O-]
REMARK SMILES IDX 12 1 11 2 10 3 9 4 8 5 7 6 6 7 5 8 4 9 3 10 2 11 1 12 13 13
REMARK SMILES IDX 14 14 15 15 16 16 17 17 18 18 19 19 20 20 21 21 22 22 23 23
REMARK SMILES IDX 24 24
REMARK H PARENT
REMARK Flexibility Score: inf
ROOT
ATOM      1  C   UNL     1      -8.865  -9.078  -4.893  1.00  0.00     0.000 C 
ENDROOT
BRANCH   1   2
ATOM      2  C   UNL     1      -8.858  -7.544  -4.771  1.00  0.00     0.000 C 
BRANCH   2   3
ATOM      3  C   UNL     1      -9.599  -6.866  -5.944  1.00  0.00     0.000 C 
BRANCH   3   4
ATOM      4  C   UNL     1     -10.941  -7.534  -6.296  1.00  0.00    -0.000 C 
BRANCH   4   5
ATOM      5  C   UNL     1     -12.144  -6.860  -5.616  1.00  0.00    -0.000 C 
BRANCH   5   6
ATOM      6  C   UNL     1     -11.751  -5.552  -4.895  1.00  0.00    -0.000 C 
BRANCH   6   7
ATOM      7  C   UNL     1     -12.482  -4.306  -5.423  1.00  0.00    -0.000 C 
BRANCH   7   8
ATOM      8  C   UNL     1     -12.478  -4.218  -6.958  1.00  0.00    -0.000 C 
BRANCH   8   9
ATOM      9  C   UNL     1     -11.105  -3.829  -7.537  1.00  0.00    -0.000 C 
BRANCH   9  10
ATOM     10  C   UNL     1     -10.966  -3.976  -9.066  1.00  0.00    -0.000 C 
BRANCH  10  11
ATOM     11  C   UNL     1     -11.154  -5.405  -9.604  1.00  0.00    -0.003 C 
ATOM     12  C   UNL     1     -11.373  -5.448 -11.117  1.00  0.00     0.004 C 
ENDBRANCH  10  11
ENDBRANCH   9  10
ENDBRANCH   8   9
ENDBRANCH   7   8
ENDBRANCH   6   7
ENDBRANCH   5   6
ENDBRANCH   4   5
ENDBRANCH   3   4
ENDBRANCH   2   3
ENDBRANCH   1   2
BRANCH   1  13
ATOM     13  C   UNL     1      -7.504  -9.643  -5.333  1.00  0.00     0.000 C 
BRANCH  13  14
ATOM     14  C   UNL     1      -7.583 -11.128  -5.730  1.00  0.00     0.000 C 
BRANCH  14  15
ATOM     15  C   UNL     1      -8.973 -11.733  -5.479  1.00  0.00     0.000 C 
BRANCH  15  16
ATOM     16  C   UNL     1      -9.581 -12.366  -6.743  1.00  0.00     0.000 C 
BRANCH  16  17
ATOM     17  C   UNL     1     -11.124 -12.370  -6.706  1.00  0.00     0.000 C 
BRANCH  17  18
ATOM     18  C   UNL     1     -11.742 -10.973  -6.528  1.00  0.00     0.000 C 
BRANCH  18  19
ATOM     19  C   UNL     1     -12.354 -10.766  -5.133  1.00  0.00     0.000 C 
BRANCH  19  20
ATOM     20  C   UNL     1     -13.445 -11.799  -4.806  1.00  0.00     0.006 C 
BRANCH  20  21
ATOM     21  C   UNL     1     -13.065 -12.708  -3.631  1.00  0.00     0.053 C 
BRANCH  21  22
ATOM     22  C   UNL     1     -12.881 -11.904  -2.381  1.00  0.00     0.041 C 
ATOM     23  O   UNL     1     -11.771 -11.902  -1.786  1.00  0.00    -0.550 OA
ATOM     24  O   UNL     1     -13.927 -11.133  -1.888  1.00  0.00    -0.550 OA
ENDBRANCH  21  22
ENDBRANCH  20  21
ENDBRANCH  19  20
ENDBRANCH  18  19
ENDBRANCH  17  18
ENDBRANCH  16  17
ENDBRANCH  15  16
ENDBRANCH  14  15
ENDBRANCH  13  14
ENDBRANCH   1  13
TORSDOF 20
ENDMDL
MODEL 6
REMARK VINA RESULT:    -4.665      1.918      6.918
REMARK INTER + INTRA:         -12.241
REMARK INTER:                  -9.874
REMARK INTRA:                  -2.367
REMARK UNBOUND:                -2.121
REMARK SMILES CCCCCCCCCCCCCCCCCCCCCC(=O)[O-]
REMARK SMILES IDX 12 1 11 2 10 3 9 4 8 5 7 6 6 7 5 8 4 9 3 10 2 11 1 12 13 13
REMARK SMILES IDX 14 14 15 15 16 16 17 17 18 18 19 19 20 20 21 21 22 22 23 23
REMARK SMILES IDX 24 24
REMARK H PARENT
REMARK Flexibility Score: inf
ROOT
ATOM      1  C   UNL     1      -7.005 -10.359  -5.129  1.00  0.00     0.000 C 
ENDROOT
BRANCH   1   2
ATOM      2  C   UNL     1      -7.932  -9.143  -4.951  1.00  0.00     0.000 C 
BRANCH   2   3
ATOM      3  C   UNL     1      -9.417  -9.512  -5.159  1.00  0.00     0.000 C 
BRANCH   3   4
ATOM      4  C   UNL     1     -10.297  -8.320  -5.575  1.00  0.00    -0.000 C 
BRANCH   4   5
ATOM      5  C   UNL     1      -9.614  -6.961  -5.351  1.00  0.00    -0.000 C 
BRANCH   5   6
ATOM      6  C   UNL     1      -9.345  -6.216  -6.676  1.00  0.00    -0.000 C 
BRANCH   6   7
ATOM      7  C   UNL     1     -10.431  -6.432  -7.744  1.00  0.00    -0.000 C 
BRANCH   7   8
ATOM      8  C   UNL     1     -10.521  -5.270  -8.747  1.00  0.00    -0.000 C 
BRANCH   8   9
ATOM      9  C   UNL     1     -10.818  -3.916  -8.078  1.00  0.00    -0.000 C 
BRANCH   9  10
ATOM     10  C   UNL     1     -12.186  -3.812  -7.373  1.00  0.00    -0.000 C 
BRANCH  10  11
ATOM     11  C   UNL     1     -12.135  -3.875  -5.836  1.00  0.00    -0.003 C 
ATOM     12  C   UNL     1     -12.791  -5.135  -5.271  1.00  0.00     0.004 C 
ENDBRANCH  10  11
ENDBRANCH   9  10
ENDBRANCH   8   9
ENDBRANCH   7   8
ENDBRANCH   6   7
ENDBRANCH   5   6
ENDBRANCH   4   5
ENDBRANCH   3   4
ENDBRANCH   2   3
ENDBRANCH   1   2
BRANCH   1  13
ATOM     13  C   UNL     1      -6.238 -10.328  -6.461  1.00  0.00     0.000 C 
BRANCH  13  14
ATOM     14  C   UNL     1      -6.586 -11.521  -7.369  1.00  0.00     0.000 C 
BRANCH  14  15
ATOM     15  C   UNL     1      -7.764 -12.347  -6.832  1.00  0.00     0.000 C 
BRANCH  15  16
ATOM     16  C   UNL     1      -8.128 -13.527  -7.751  1.00  0.00     0.000 C 
BRANCH  16  17
ATOM     17  C   UNL     1      -9.654 -13.742  -7.843  1.00  0.00     0.000 C 
BRANCH  17  18
ATOM     18  C   UNL     1     -10.456 -12.932  -6.809  1.00  0.00     0.000 C 
BRANCH  18  19
ATOM     19  C   UNL     1     -10.942 -13.791  -5.629  1.00  0.00     0.000 C 
BRANCH  19  20
ATOM     20  C   UNL     1     -11.003 -13.004  -4.310  1.00  0.00     0.006 C 
BRANCH  20  21
ATOM     21  C   UNL     1     -12.132 -11.966  -4.293  1.00  0.00     0.053 C 
BRANCH  21  22
ATOM     22  C   UNL     1     -12.642 -11.766  -2.899  1.00  0.00     0.041 C 
ATOM     23  O   UNL     1     -13.818 -11.360  -2.708  1.00  0.00    -0.550 OA
ATOM     24  O   UNL     1     -11.827 -12.055  -1.811  1.00  0.00    -0.550 OA
ENDBRANCH  21  22
ENDBRANCH  20  21
ENDBRANCH  19  20
ENDBRANCH  18  19
ENDBRANCH  17  18
ENDBRANCH  16  17
ENDBRANCH  15  16
ENDBRANCH  14  15
ENDBRANCH  13  14
ENDBRANCH   1  13
TORSDOF 20
ENDMDL
MODEL 7
REMARK VINA RESULT:    -4.643      2.515      5.156
REMARK INTER + INTRA:         -12.193
REMARK INTER:                 -10.564
REMARK INTRA:                  -1.629
REMARK UNBOUND:                -2.121
REMARK SMILES CCCCCCCCCCCCCCCCCCCCCC(=O)[O-]
REMARK SMILES IDX 12 1 11 2 10 3 9 4 8 5 7 6 6 7 5 8 4 9 3 10 2 11 1 12 13 13
REMARK SMILES IDX 14 14 15 15 16 16 17 17 18 18 19 19 20 20 21 21 22 22 23 23
REMARK SMILES IDX 24 24
REMARK H PARENT
REMARK Flexibility Score: inf
ROOT
ATOM      1  C   UNL     1      -8.496  -8.480  -4.628  1.00  0.00     0.000 C 
ENDROOT
BRANCH   1   2
ATOM      2  C   UNL     1      -8.522  -9.873  -5.281  1.00  0.00     0.000 C 
BRANCH   2   3
ATOM      3  C   UNL     1      -7.110 -10.489  -5.387  1.00  0.00     0.000 C 
BRANCH   3   4
ATOM      4  C   UNL     1      -6.941 -11.449  -6.578  1.00  0.00    -0.000 C 
BRANCH   4   5
ATOM      5  C   UNL     1      -5.515 -11.451  -7.150  1.00  0.00    -0.000 C 
BRANCH   5   6
ATOM      6  C   UNL     1      -4.474 -10.938  -6.132  1.00  0.00    -0.000 C 
BRANCH   6   7
ATOM      7  C   UNL     1      -3.304 -11.908  -5.894  1.00  0.00    -0.000 C 
BRANCH   7   8
ATOM      8  C   UNL     1      -2.384 -11.464  -4.746  1.00  0.00    -0.000 C 
BRANCH   8   9
ATOM      9  C   UNL     1      -2.294 -12.499  -3.609  1.00  0.00    -0.000 C 
BRANCH   9  10
ATOM     10  C   UNL     1      -1.761 -13.887  -4.019  1.00  0.00    -0.000 C 
BRANCH  10  11
ATOM     11  C   UNL     1      -0.280 -13.920  -4.436  1.00  0.00    -0.003 C 
ATOM     12  C   UNL     1       0.663 -13.468  -3.321  1.00  0.00     0.004 C 
ENDBRANCH  10  11
ENDBRANCH   9  10
ENDBRANCH   8   9
ENDBRANCH   7   8
ENDBRANCH   6   7
ENDBRANCH   5   6
ENDBRANCH   4   5
ENDBRANCH   3   4
ENDBRANCH   2   3
ENDBRANCH   1   2
BRANCH   1  13
ATOM     13  C   UNL     1      -9.262  -7.428  -5.446  1.00  0.00     0.000 C 
BRANCH  13  14
ATOM     14  C   UNL     1     -10.684  -7.887  -5.813  1.00  0.00     0.000 C 
BRANCH  14  15
ATOM     15  C   UNL     1     -11.153  -7.331  -7.166  1.00  0.00     0.000 C 
BRANCH  15  16
ATOM     16  C   UNL     1     -10.144  -6.350  -7.786  1.00  0.00     0.000 C 
BRANCH  16  17
ATOM     17  C   UNL     1     -10.716  -5.637  -9.031  1.00  0.00     0.000 C 
BRANCH  17  18
ATOM     18  C   UNL     1     -11.377  -4.284  -8.719  1.00  0.00     0.000 C 
BRANCH  18  19
ATOM     19  C   UNL     1     -10.787  -3.608  -7.470  1.00  0.00     0.000 C 
BRANCH  19  20
ATOM     20  C   UNL     1     -11.857  -3.269  -6.420  1.00  0.00     0.006 C 
BRANCH  20  21
ATOM     21  C   UNL     1     -12.731  -4.476  -6.057  1.00  0.00     0.053 C 
BRANCH  21  22
ATOM     22  C   UNL     1     -12.444  -4.934  -4.661  1.00  0.00     0.041 C 
ATOM     23  O   UNL     1     -13.351  -5.466  -3.969  1.00  0.00    -0.550 OA
ATOM     24  O   UNL     1     -11.165  -4.798  -4.132  1.00  0.00    -0.550 OA
ENDBRANCH  21  22
ENDBRANCH  20  21
ENDBRANCH  19  20
ENDBRANCH  18  19
ENDBRANCH  17  18
ENDBRANCH  16  17
ENDBRANCH  15  16
ENDBRANCH  14  15
ENDBRANCH  13  14
ENDBRANCH   1  13
TORSDOF 20
ENDMDL
MODEL 8
REMARK VINA RESULT:    -4.638      3.287      7.526
REMARK INTER + INTRA:         -12.181
REMARK INTER:                  -9.411
REMARK INTRA:                  -2.770
REMARK UNBOUND:                -2.121
REMARK SMILES CCCCCCCCCCCCCCCCCCCCCC(=O)[O-]
REMARK SMILES IDX 12 1 11 2 10 3 9 4 8 5 7 6 6 7 5 8 4 9 3 10 2 11 1 12 13 13
REMARK SMILES IDX 14 14 15 15 16 16 17 17 18 18 19 19 20 20 21 21 22 22 23 23
REMARK SMILES IDX 24 24
REMARK H PARENT
REMARK Flexibility Score: inf
ROOT
ATOM      1  C   UNL     1     -10.827  -4.450  -7.740  1.00  0.00     0.000 C 
ENDROOT
BRANCH   1   2
ATOM      2  C   UNL     1     -11.698  -3.844  -6.626  1.00  0.00     0.000 C 
BRANCH   2   3
ATOM      3  C   UNL     1     -12.714  -4.864  -6.067  1.00  0.00     0.000 C 
BRANCH   3   4
ATOM      4  C   UNL     1     -12.607  -5.072  -4.546  1.00  0.00    -0.000 C 
BRANCH   4   5
ATOM      5  C   UNL     1     -13.456  -6.249  -4.039  1.00  0.00    -0.000 C 
BRANCH   5   6
ATOM      6  C   UNL     1     -13.537  -7.397  -5.068  1.00  0.00    -0.000 C 
BRANCH   6   7
ATOM      7  C   UNL     1     -13.864  -8.767  -4.449  1.00  0.00    -0.000 C 
BRANCH   7   8
ATOM      8  C   UNL     1     -13.266  -9.939  -5.243  1.00  0.00    -0.000 C 
BRANCH   8   9
ATOM      9  C   UNL     1     -12.878 -11.135  -4.354  1.00  0.00    -0.000 C 
BRANCH   9  10
ATOM     10  C   UNL     1     -11.657 -11.947  -4.832  1.00  0.00    -0.000 C 
BRANCH  10  11
ATOM     11  C   UNL     1     -11.232 -11.690  -6.288  1.00  0.00    -0.003 C 
ATOM     12  C   UNL     1      -9.989 -12.482  -6.695  1.00  0.00     0.004 C 
ENDBRANCH  10  11
ENDBRANCH   9  10
ENDBRANCH   8   9
ENDBRANCH   7   8
ENDBRANCH   6   7
ENDBRANCH   5   6
ENDBRANCH   4   5
ENDBRANCH   3   4
ENDBRANCH   2   3
ENDBRANCH   1   2
BRANCH   1  13
ATOM     13  C   UNL     1     -10.498  -5.932  -7.495  1.00  0.00     0.000 C 
BRANCH  13  14
ATOM     14  C   UNL     1      -9.254  -6.121  -6.608  1.00  0.00     0.000 C 
BRANCH  14  15
ATOM     15  C   UNL     1      -9.578  -6.813  -5.277  1.00  0.00     0.000 C 
BRANCH  15  16
ATOM     16  C   UNL     1      -9.966  -8.292  -5.456  1.00  0.00     0.000 C 
BRANCH  16  17
ATOM     17  C   UNL     1      -8.937  -9.245  -4.811  1.00  0.00     0.000 C 
BRANCH  17  18
ATOM     18  C   UNL     1      -7.543  -9.179  -5.458  1.00  0.00     0.000 C 
BRANCH  18  19
ATOM     19  C   UNL     1      -6.635 -10.345  -5.033  1.00  0.00     0.000 C 
BRANCH  19  20
ATOM     20  C   UNL     1      -5.765 -10.868  -6.187  1.00  0.00     0.006 C 
BRANCH  20  21
ATOM     21  C   UNL     1      -6.596 -11.457  -7.334  1.00  0.00     0.053 C 
BRANCH  21  22
ATOM     22  C   UNL     1      -5.992 -12.739  -7.816  1.00  0.00     0.041 C 
ATOM     23  O   UNL     1      -4.752 -12.933  -7.715  1.00  0.00    -0.550 OA
ATOM     24  O   UNL     1      -6.802 -13.733  -8.354  1.00  0.00    -0.550 OA
ENDBRANCH  21  22
ENDBRANCH  20  21
ENDBRANCH  19  20
ENDBRANCH  18  19
ENDBRANCH  17  18
ENDBRANCH  16  17
ENDBRANCH  15  16
ENDBRANCH  14  15
ENDBRANCH  13  14
ENDBRANCH   1  13
TORSDOF 20
ENDMDL
MODEL 9
REMARK VINA RESULT:    -4.634      4.394      9.155
REMARK INTER + INTRA:         -12.173
REMARK INTER:                 -10.257
REMARK INTRA:                  -1.916
REMARK UNBOUND:                -2.121
REMARK SMILES CCCCCCCCCCCCCCCCCCCCCC(=O)[O-]
REMARK SMILES IDX 12 1 11 2 10 3 9 4 8 5 7 6 6 7 5 8 4 9 3 10 2 11 1 12 13 13
REMARK SMILES IDX 14 14 15 15 16 16 17 17 18 18 19 19 20 20 21 21 22 22 23 23
REMARK SMILES IDX 24 24
REMARK H PARENT
REMARK Flexibility Score: inf
ROOT
ATOM      1  C   UNL     1      -8.667  -8.152  -5.114  1.00  0.00     0.000 C 
ENDROOT
BRANCH   1   2
ATOM      2  C   UNL     1      -9.618  -6.963  -5.334  1.00  0.00     0.000 C 
BRANCH   2   3
ATOM      3  C   UNL     1      -9.380  -6.276  -6.697  1.00  0.00     0.000 C 
BRANCH   3   4
ATOM      4  C   UNL     1     -10.579  -6.375  -7.657  1.00  0.00    -0.000 C 
BRANCH   4   5
ATOM      5  C   UNL     1     -10.410  -5.515  -8.920  1.00  0.00    -0.000 C 
BRANCH   5   6
ATOM      6  C   UNL     1     -10.873  -4.058  -8.703  1.00  0.00    -0.000 C 
BRANCH   6   7
ATOM      7  C   UNL     1     -12.005  -3.912  -7.672  1.00  0.00    -0.000 C 
BRANCH   7   8
ATOM      8  C   UNL     1     -11.523  -3.324  -6.336  1.00  0.00    -0.000 C 
BRANCH   8   9
ATOM      9  C   UNL     1     -12.053  -4.093  -5.112  1.00  0.00    -0.000 C 
BRANCH   9  10
ATOM     10  C   UNL     1     -13.066  -5.215  -5.422  1.00  0.00    -0.000 C 
BRANCH  10  11
ATOM     11  C   UNL     1     -13.106  -6.361  -4.397  1.00  0.00    -0.003 C 
ATOM     12  C   UNL     1     -13.241  -7.737  -5.047  1.00  0.00     0.004 C 
ENDBRANCH  10  11
ENDBRANCH   9  10
ENDBRANCH   8   9
ENDBRANCH   7   8
ENDBRANCH   6   7
ENDBRANCH   5   6
ENDBRANCH   4   5
ENDBRANCH   3   4
ENDBRANCH   2   3
ENDBRANCH   1   2
BRANCH   1  13
ATOM     13  C   UNL     1      -9.405  -9.501  -5.073  1.00  0.00     0.000 C 
BRANCH  13  14
ATOM     14  C   UNL     1      -8.511 -10.675  -5.509  1.00  0.00     0.000 C 
BRANCH  14  15
ATOM     15  C   UNL     1      -7.014 -10.351  -5.396  1.00  0.00     0.000 C 
BRANCH  15  16
ATOM     16  C   UNL     1      -6.146 -11.228  -6.317  1.00  0.00     0.000 C 
BRANCH  16  17
ATOM     17  C   UNL     1      -4.707 -10.686  -6.448  1.00  0.00     0.000 C 
BRANCH  17  18
ATOM     18  C   UNL     1      -3.706 -11.352  -5.488  1.00  0.00     0.000 C 
BRANCH  18  19
ATOM     19  C   UNL     1      -3.056 -12.611  -6.088  1.00  0.00     0.000 C 
BRANCH  19  20
ATOM     20  C   UNL     1      -1.686 -12.924  -5.464  1.00  0.00     0.006 C 
BRANCH  20  21
ATOM     21  C   UNL     1      -1.525 -12.324  -4.062  1.00  0.00     0.053 C 
BRANCH  21  22
ATOM     22  C   UNL     1      -1.574 -13.398  -3.021  1.00  0.00     0.041 C 
ATOM     23  O   UNL     1      -0.515 -13.794  -2.467  1.00  0.00    -0.550 OA
ATOM     24  O   UNL     1      -2.795 -13.945  -2.640  1.00  0.00    -0.550 OA
ENDBRANCH  21  22
ENDBRANCH  20  21
ENDBRANCH  19  20
ENDBRANCH  18  19
ENDBRANCH  17  18
ENDBRANCH  16  17
ENDBRANCH  15  16
ENDBRANCH  14  15
ENDBRANCH  13  14
ENDBRANCH   1  13
TORSDOF 20
ENDMDL
