MODEL 1
REMARK VINA RESULT:    -6.788      0.000      0.000
REMARK INTER + INTRA:          -8.238
REMARK INTER:                  -8.177
REMARK INTRA:                  -0.061
REMARK UNBOUND:                -0.061
REMARK SMILES O=c1c(O)c(-c2ccc(O)c(O)c2)oc2cc(O)cc(O)c12
REMARK SMILES IDX 5 1 3 2 2 3 1 4 22 5 20 6 19 7 17 8 16 9 15 10 14 11 6 12
REMARK SMILES IDX 7 13 8 14 9 15 13 16 11 17 10 18 12 20 4 22 21 24 18 26
REMARK H PARENT 10 19 12 21 4 23 21 25 18 27
REMARK Flexibility Score: inf
ROOT
ATOM      1  C   UNL     1     -16.258  14.647  -8.294  1.00  0.00     0.180 A 
ATOM      2  C   UNL     1     -14.977  15.160  -8.563  1.00  0.00     0.208 A 
ATOM      3  C   UNL     1     -14.337  15.939  -7.587  1.00  0.00     0.238 A 
ATOM      4  O   UNL     1     -13.214  16.441  -7.854  1.00  0.00    -0.285 OA
ATOM      5  C   UNL     1     -14.977  16.182  -6.348  1.00  0.00     0.111 A 
ATOM      6  C   UNL     1     -14.405  16.924  -5.271  1.00  0.00     0.134 A 
ATOM      7  C   UNL     1     -15.181  17.211  -4.141  1.00  0.00     0.093 A 
ATOM      8  C   UNL     1     -16.483  16.731  -4.020  1.00  0.00     0.123 A 
ATOM      9  C   UNL     1     -17.033  15.954  -5.042  1.00  0.00     0.094 A 
ATOM     10  C   UNL     1     -16.296  15.680  -6.196  1.00  0.00     0.146 A 
ATOM     11  O   UNL     1     -16.860  14.947  -7.150  1.00  0.00    -0.452 OA
ENDROOT
BRANCH   1  12
ATOM     12  C   UNL     1     -16.986  13.797  -9.264  1.00  0.00     0.025 A 
ATOM     13  C   UNL     1     -18.252  14.165  -9.753  1.00  0.00     0.016 A 
ATOM     14  C   UNL     1     -18.911  13.360 -10.685  1.00  0.00     0.051 A 
ATOM     15  C   UNL     1     -18.310  12.184 -11.153  1.00  0.00     0.157 A 
ATOM     16  C   UNL     1     -16.379  12.628  -9.752  1.00  0.00     0.062 A 
ATOM     17  C   UNL     1     -17.037  11.819 -10.685  1.00  0.00     0.158 A 
BRANCH  15  18
ATOM     18  O   UNL     1     -18.970  11.381 -12.082  1.00  0.00    -0.504 OA
ATOM     19  H   UNL     1     -19.250  10.433 -11.861  1.00  0.00     0.293 HD
ENDBRANCH  15  18
BRANCH  17  20
ATOM     20  O   UNL     1     -16.409  10.658 -11.137  1.00  0.00    -0.504 OA
ATOM     21  H   UNL     1     -15.596  10.686 -11.740  1.00  0.00     0.293 HD
ENDBRANCH  17  20
ENDBRANCH   1  12
BRANCH   2  22
ATOM     22  O   UNL     1     -14.372  14.927  -9.802  1.00  0.00    -0.502 OA
ATOM     23  H   UNL     1     -14.896  14.911 -10.668  1.00  0.00     0.293 HD
ENDBRANCH   2  22
BRANCH   6  24
ATOM     24  O   UNL     1     -13.081  17.372  -5.249  1.00  0.00    -0.507 OA
ATOM     25  H   UNL     1     -12.328  16.918  -4.755  1.00  0.00     0.293 HD
ENDBRANCH   6  24
BRANCH   8  26
ATOM     26  O   UNL     1     -17.221  17.023  -2.875  1.00  0.00    -0.508 OA
ATOM     27  H   UNL     1     -16.955  17.775  -2.251  1.00  0.00     0.293 HD
ENDBRANCH   8  26
TORSDOF 6
ENDMDL
MODEL 2
REMARK VINA RESULT:    -6.596      1.926      7.342
REMARK INTER + INTRA:          -8.007
REMARK INTER:                  -7.712
REMARK INTRA:                  -0.295
REMARK UNBOUND:                -0.061
REMARK SMILES O=c1c(O)c(-c2ccc(O)c(O)c2)oc2cc(O)cc(O)c12
REMARK SMILES IDX 5 1 3 2 2 3 1 4 22 5 20 6 19 7 17 8 16 9 15 10 14 11 6 12
REMARK SMILES IDX 7 13 8 14 9 15 13 16 11 17 10 18 12 20 4 22 21 24 18 26
REMARK H PARENT 10 19 12 21 4 23 21 25 18 27
REMARK Flexibility Score: inf
ROOT
ATOM      1  C   UNL     1     -16.712  14.529  -6.906  1.00  0.00     0.180 A 
ATOM      2  C   UNL     1     -18.029  14.050  -6.797  1.00  0.00     0.208 A 
ATOM      3  C   UNL     1     -18.494  13.118  -7.737  1.00  0.00     0.238 A 
ATOM      4  O   UNL     1     -19.690  12.734  -7.666  1.00  0.00    -0.285 OA
ATOM      5  C   UNL     1     -17.633  12.665  -8.765  1.00  0.00     0.111 A 
ATOM      6  C   UNL     1     -17.985  11.691  -9.749  1.00  0.00     0.134 A 
ATOM      7  C   UNL     1     -17.099  11.415 -10.796  1.00  0.00     0.093 A 
ATOM      8  C   UNL     1     -15.848  12.026 -10.861  1.00  0.00     0.123 A 
ATOM      9  C   UNL     1     -15.468  12.934  -9.872  1.00  0.00     0.094 A 
ATOM     10  C   UNL     1     -16.345  13.258  -8.834  1.00  0.00     0.146 A 
ATOM     11  O   UNL     1     -15.950  14.136  -7.919  1.00  0.00    -0.452 OA
ENDROOT
BRANCH   1  12
ATOM     12  C   UNL     1     -16.141  15.495  -5.938  1.00  0.00     0.025 A 
ATOM     13  C   UNL     1     -15.276  15.076  -4.911  1.00  0.00     0.016 A 
ATOM     14  C   UNL     1     -14.731  16.008  -4.024  1.00  0.00     0.051 A 
ATOM     15  C   UNL     1     -15.030  17.370  -4.157  1.00  0.00     0.157 A 
ATOM     16  C   UNL     1     -16.421  16.864  -6.080  1.00  0.00     0.062 A 
ATOM     17  C   UNL     1     -15.877  17.799  -5.193  1.00  0.00     0.158 A 
BRANCH  15  18
ATOM     18  O   UNL     1     -14.486  18.297  -3.269  1.00  0.00    -0.504 OA
ATOM     19  H   UNL     1     -14.128  18.018  -2.363  1.00  0.00     0.293 HD
ENDBRANCH  15  18
BRANCH  17  20
ATOM     20  O   UNL     1     -16.188  19.149  -5.356  1.00  0.00    -0.504 OA
ATOM     21  H   UNL     1     -17.105  19.520  -5.137  1.00  0.00     0.293 HD
ENDBRANCH  17  20
ENDBRANCH   1  12
BRANCH   2  22
ATOM     22  O   UNL     1     -18.869  14.528  -5.787  1.00  0.00    -0.502 OA
ATOM     23  H   UNL     1     -18.928  15.511  -5.550  1.00  0.00     0.293 HD
ENDBRANCH   2  22
BRANCH   6  24
ATOM     24  O   UNL     1     -19.173  10.954  -9.725  1.00  0.00    -0.507 OA
ATOM     25  H   UNL     1     -19.452  10.337  -8.978  1.00  0.00     0.293 HD
ENDBRANCH   6  24
BRANCH   8  26
ATOM     26  O   UNL     1     -14.984  11.715 -11.909  1.00  0.00    -0.508 OA
ATOM     27  H   UNL     1     -14.052  12.109 -11.963  1.00  0.00     0.293 HD
ENDBRANCH   8  26
TORSDOF 6
ENDMDL
MODEL 3
REMARK VINA RESULT:    -6.564      2.200      3.723
REMARK INTER + INTRA:          -7.968
REMARK INTER:                  -7.670
REMARK INTRA:                  -0.299
REMARK UNBOUND:                -0.061
REMARK SMILES O=c1c(O)c(-c2ccc(O)c(O)c2)oc2cc(O)cc(O)c12
REMARK SMILES IDX 5 1 3 2 2 3 1 4 22 5 20 6 19 7 17 8 16 9 15 10 14 11 6 12
REMARK SMILES IDX 7 13 8 14 9 15 13 16 11 17 10 18 12 20 4 22 21 24 18 26
REMARK H PARENT 10 19 12 21 4 23 21 25 18 27
REMARK Flexibility Score: inf
ROOT
ATOM      1  C   UNL     1     -17.427  13.622  -7.778  1.00  0.00     0.180 A 
ATOM      2  C   UNL     1     -17.486  14.118  -6.464  1.00  0.00     0.208 A 
ATOM      3  C   UNL     1     -16.571  15.105  -6.068  1.00  0.00     0.238 A 
ATOM      4  O   UNL     1     -16.594  15.506  -4.874  1.00  0.00    -0.285 OA
ATOM      5  C   UNL     1     -15.619  15.596  -6.993  1.00  0.00     0.111 A 
ATOM      6  C   UNL     1     -14.670  16.625  -6.712  1.00  0.00     0.134 A 
ATOM      7  C   UNL     1     -13.691  16.940  -7.662  1.00  0.00     0.093 A 
ATOM      8  C   UNL     1     -13.665  16.312  -8.905  1.00  0.00     0.123 A 
ATOM      9  C   UNL     1     -14.625  15.347  -9.214  1.00  0.00     0.094 A 
ATOM     10  C   UNL     1     -15.592  14.985  -8.274  1.00  0.00     0.146 A 
ATOM     11  O   UNL     1     -16.481  14.054  -8.603  1.00  0.00    -0.452 OA
ENDROOT
BRANCH   1  12
ATOM     12  C   UNL     1     -18.374  12.598  -8.278  1.00  0.00     0.025 A 
ATOM     13  C   UNL     1     -19.476  12.949  -9.077  1.00  0.00     0.016 A 
ATOM     14  C   UNL     1     -20.342  11.964  -9.557  1.00  0.00     0.051 A 
ATOM     15  C   UNL     1     -20.114  10.615  -9.258  1.00  0.00     0.157 A 
ATOM     16  C   UNL     1     -18.137  11.242  -7.998  1.00  0.00     0.062 A 
ATOM     17  C   UNL     1     -19.004  10.253  -8.477  1.00  0.00     0.158 A 
BRANCH  15  18
ATOM     18  O   UNL     1     -20.982   9.634  -9.737  1.00  0.00    -0.504 OA
ATOM     19  H   UNL     1     -20.819   8.649  -9.559  1.00  0.00     0.293 HD
ENDBRANCH  15  18
BRANCH  17  20
ATOM     20  O   UNL     1     -18.745   8.918  -8.167  1.00  0.00    -0.504 OA
ATOM     21  H   UNL     1     -17.931   8.638  -7.633  1.00  0.00     0.293 HD
ENDBRANCH  17  20
ENDBRANCH   1  12
BRANCH   2  22
ATOM     22  O   UNL     1     -18.420  13.603  -5.560  1.00  0.00    -0.502 OA
ATOM     23  H   UNL     1     -18.544  12.609  -5.415  1.00  0.00     0.293 HD
ENDBRANCH   2  22
BRANCH   6  24
ATOM     24  O   UNL     1     -14.664  17.381  -5.535  1.00  0.00    -0.507 OA
ATOM     25  H   UNL     1     -13.860  17.865  -5.166  1.00  0.00     0.293 HD
ENDBRANCH   6  24
BRANCH   8  26
ATOM     26  O   UNL     1     -12.686  16.662  -9.833  1.00  0.00    -0.508 OA
ATOM     27  H   UNL     1     -12.892  16.725 -10.823  1.00  0.00     0.293 HD
ENDBRANCH   8  26
TORSDOF 6
ENDMDL
MODEL 4
REMARK VINA RESULT:    -6.337      2.054      6.780
REMARK INTER + INTRA:          -7.695
REMARK INTER:                  -7.395
REMARK INTRA:                  -0.300
REMARK UNBOUND:                -0.061
REMARK SMILES O=c1c(O)c(-c2ccc(O)c(O)c2)oc2cc(O)cc(O)c12
REMARK SMILES IDX 5 1 3 2 2 3 1 4 22 5 20 6 19 7 17 8 16 9 15 10 14 11 6 12
REMARK SMILES IDX 7 13 8 14 9 15 13 16 11 17 10 18 12 20 4 22 21 24 18 26
REMARK H PARENT 10 19 12 21 4 23 21 25 18 27
REMARK Flexibility Score: inf
ROOT
ATOM      1  C   UNL     1     -16.415  14.560  -7.174  1.00  0.00     0.180 A 
ATOM      2  C   UNL     1     -15.610  14.323  -8.301  1.00  0.00     0.208 A 
ATOM      3  C   UNL     1     -16.003  13.343  -9.225  1.00  0.00     0.238 A 
ATOM      4  O   UNL     1     -15.250  13.098 -10.204  1.00  0.00    -0.285 OA
ATOM      5  C   UNL     1     -17.204  12.623  -9.019  1.00  0.00     0.111 A 
ATOM      6  C   UNL     1     -17.721  11.635  -9.912  1.00  0.00     0.134 A 
ATOM      7  C   UNL     1     -18.850  10.894  -9.543  1.00  0.00     0.093 A 
ATOM      8  C   UNL     1     -19.519  11.147  -8.347  1.00  0.00     0.123 A 
ATOM      9  C   UNL     1     -19.058  12.151  -7.495  1.00  0.00     0.094 A 
ATOM     10  C   UNL     1     -17.913  12.883  -7.818  1.00  0.00     0.146 A 
ATOM     11  O   UNL     1     -17.501  13.823  -6.974  1.00  0.00    -0.452 OA
ENDROOT
BRANCH   1  12
ATOM     12  C   UNL     1     -16.080  15.594  -6.167  1.00  0.00     0.025 A 
ATOM     13  C   UNL     1     -15.411  15.265  -4.975  1.00  0.00     0.016 A 
ATOM     14  C   UNL     1     -15.084  16.260  -4.051  1.00  0.00     0.051 A 
ATOM     15  C   UNL     1     -15.405  17.599  -4.310  1.00  0.00     0.157 A 
ATOM     16  C   UNL     1     -16.382  16.940  -6.432  1.00  0.00     0.062 A 
ATOM     17  C   UNL     1     -16.055  17.939  -5.508  1.00  0.00     0.158 A 
BRANCH  15  18
ATOM     18  O   UNL     1     -15.079  18.590  -3.385  1.00  0.00    -0.504 OA
ATOM     19  H   UNL     1     -14.116  18.813  -3.164  1.00  0.00     0.293 HD
ENDBRANCH  15  18
BRANCH  17  20
ATOM     20  O   UNL     1     -16.383  19.263  -5.799  1.00  0.00    -0.504 OA
ATOM     21  H   UNL     1     -15.690  20.001  -5.801  1.00  0.00     0.293 HD
ENDBRANCH  17  20
ENDBRANCH   1  12
BRANCH   2  22
ATOM     22  O   UNL     1     -14.416  15.030  -8.473  1.00  0.00    -0.502 OA
ATOM     23  H   UNL     1     -14.169  15.475  -9.349  1.00  0.00     0.293 HD
ENDBRANCH   2  22
BRANCH   6  24
ATOM     24  O   UNL     1     -17.182  11.366 -11.174  1.00  0.00    -0.507 OA
ATOM     25  H   UNL     1     -17.037  10.443 -11.553  1.00  0.00     0.293 HD
ENDBRANCH   6  24
BRANCH   8  26
ATOM     26  O   UNL     1     -20.649  10.400  -8.020  1.00  0.00    -0.508 OA
ATOM     27  H   UNL     1     -21.563  10.633  -8.390  1.00  0.00     0.293 HD
ENDBRANCH   8  26
TORSDOF 6
ENDMDL
MODEL 5
REMARK VINA RESULT:    -6.136      1.738      2.891
REMARK INTER + INTRA:          -7.452
REMARK INTER:                  -7.158
REMARK INTRA:                  -0.294
REMARK UNBOUND:                -0.061
REMARK SMILES O=c1c(O)c(-c2ccc(O)c(O)c2)oc2cc(O)cc(O)c12
REMARK SMILES IDX 5 1 3 2 2 3 1 4 22 5 20 6 19 7 17 8 16 9 15 10 14 11 6 12
REMARK SMILES IDX 7 13 8 14 9 15 13 16 11 17 10 18 12 20 4 22 21 24 18 26
REMARK H PARENT 10 19 12 21 4 23 21 25 18 27
REMARK Flexibility Score: inf
ROOT
ATOM      1  C   UNL     1     -17.378  14.510  -7.973  1.00  0.00     0.180 A 
ATOM      2  C   UNL     1     -18.139  15.489  -7.309  1.00  0.00     0.208 A 
ATOM      3  C   UNL     1     -17.517  16.293  -6.342  1.00  0.00     0.238 A 
ATOM      4  O   UNL     1     -18.216  17.131  -5.713  1.00  0.00    -0.285 OA
ATOM      5  C   UNL     1     -16.140  16.121  -6.062  1.00  0.00     0.111 A 
ATOM      6  C   UNL     1     -15.398  16.908  -5.130  1.00  0.00     0.134 A 
ATOM      7  C   UNL     1     -14.073  16.564  -4.838  1.00  0.00     0.093 A 
ATOM      8  C   UNL     1     -13.442  15.506  -5.488  1.00  0.00     0.123 A 
ATOM      9  C   UNL     1     -14.140  14.767  -6.445  1.00  0.00     0.094 A 
ATOM     10  C   UNL     1     -15.474  15.062  -6.732  1.00  0.00     0.146 A 
ATOM     11  O   UNL     1     -16.106  14.328  -7.641  1.00  0.00    -0.452 OA
ENDROOT
BRANCH   1  12
ATOM     12  C   UNL     1     -17.957  13.639  -9.022  1.00  0.00     0.025 A 
ATOM     13  C   UNL     1     -18.182  14.115 -10.326  1.00  0.00     0.016 A 
ATOM     14  C   UNL     1     -18.707  13.270 -11.306  1.00  0.00     0.051 A 
ATOM     15  C   UNL     1     -19.002  11.934 -11.004  1.00  0.00     0.157 A 
ATOM     16  C   UNL     1     -18.235  12.294  -8.729  1.00  0.00     0.062 A 
ATOM     17  C   UNL     1     -18.761  11.444  -9.709  1.00  0.00     0.158 A 
BRANCH  15  18
ATOM     18  O   UNL     1     -19.527  11.092 -11.983  1.00  0.00    -0.504 OA
ATOM     19  H   UNL     1     -19.927  10.191 -11.750  1.00  0.00     0.293 HD
ENDBRANCH  15  18
BRANCH  17  20
ATOM     20  O   UNL     1     -19.038  10.117  -9.377  1.00  0.00    -0.504 OA
ATOM     21  H   UNL     1     -18.386   9.547  -8.851  1.00  0.00     0.293 HD
ENDBRANCH  17  20
ENDBRANCH   1  12
BRANCH   2  22
ATOM     22  O   UNL     1     -19.502  15.626  -7.586  1.00  0.00    -0.502 OA
ATOM     23  H   UNL     1     -19.966  15.092  -8.310  1.00  0.00     0.293 HD
ENDBRANCH   2  22
BRANCH   6  24
ATOM     24  O   UNL     1     -15.903  18.045  -4.492  1.00  0.00    -0.507 OA
ATOM     25  H   UNL     1     -16.069  18.122  -3.500  1.00  0.00     0.293 HD
ENDBRANCH   6  24
BRANCH   8  26
ATOM     26  O   UNL     1     -12.117  15.202  -5.184  1.00  0.00    -0.508 OA
ATOM     27  H   UNL     1     -11.510  15.874  -4.730  1.00  0.00     0.293 HD
ENDBRANCH   8  26
TORSDOF 6
ENDMDL
MODEL 6
REMARK VINA RESULT:    -6.027      1.220      1.514
REMARK INTER + INTRA:          -7.321
REMARK INTER:                  -7.213
REMARK INTRA:                  -0.108
REMARK UNBOUND:                -0.061
REMARK SMILES O=c1c(O)c(-c2ccc(O)c(O)c2)oc2cc(O)cc(O)c12
REMARK SMILES IDX 5 1 3 2 2 3 1 4 22 5 20 6 19 7 17 8 16 9 15 10 14 11 6 12
REMARK SMILES IDX 7 13 8 14 9 15 13 16 11 17 10 18 12 20 4 22 21 24 18 26
REMARK H PARENT 10 19 12 21 4 23 21 25 18 27
REMARK Flexibility Score: inf
ROOT
ATOM      1  C   UNL     1     -16.783  14.239  -7.978  1.00  0.00     0.180 A 
ATOM      2  C   UNL     1     -15.502  14.591  -8.438  1.00  0.00     0.208 A 
ATOM      3  C   UNL     1     -14.721  15.468  -7.671  1.00  0.00     0.238 A 
ATOM      4  O   UNL     1     -13.597  15.822  -8.114  1.00  0.00    -0.285 OA
ATOM      5  C   UNL     1     -15.222  15.970  -6.445  1.00  0.00     0.111 A 
ATOM      6  C   UNL     1     -14.500  16.833  -5.567  1.00  0.00     0.134 A 
ATOM      7  C   UNL     1     -15.143  17.372  -4.446  1.00  0.00     0.093 A 
ATOM      8  C   UNL     1     -16.458  17.029  -4.135  1.00  0.00     0.123 A 
ATOM      9  C   UNL     1     -17.153  16.138  -4.954  1.00  0.00     0.094 A 
ATOM     10  C   UNL     1     -16.551  15.613  -6.099  1.00  0.00     0.146 A 
ATOM     11  O   UNL     1     -17.252  14.777  -6.859  1.00  0.00    -0.452 OA
ENDROOT
BRANCH   1  12
ATOM     12  C   UNL     1     -17.657  13.300  -8.719  1.00  0.00     0.025 A 
ATOM     13  C   UNL     1     -18.113  12.107  -8.132  1.00  0.00     0.016 A 
ATOM     14  C   UNL     1     -18.956  11.248  -8.842  1.00  0.00     0.051 A 
ATOM     15  C   UNL     1     -19.367  11.573 -10.141  1.00  0.00     0.157 A 
ATOM     16  C   UNL     1     -18.088  13.633 -10.014  1.00  0.00     0.062 A 
ATOM     17  C   UNL     1     -18.932  12.774 -10.727  1.00  0.00     0.158 A 
BRANCH  15  18
ATOM     18  O   UNL     1     -20.206  10.714 -10.848  1.00  0.00    -0.504 OA
ATOM     19  H   UNL     1     -19.978  10.399 -11.783  1.00  0.00     0.293 HD
ENDBRANCH  15  18
BRANCH  17  20
ATOM     20  O   UNL     1     -19.329  13.131 -12.016  1.00  0.00    -0.504 OA
ATOM     21  H   UNL     1     -18.868  12.766 -12.841  1.00  0.00     0.293 HD
ENDBRANCH  17  20
ENDBRANCH   1  12
BRANCH   2  22
ATOM     22  O   UNL     1     -15.036  14.101  -9.662  1.00  0.00    -0.502 OA
ATOM     23  H   UNL     1     -15.514  14.282 -10.537  1.00  0.00     0.293 HD
ENDBRANCH   2  22
BRANCH   6  24
ATOM     24  O   UNL     1     -13.153  17.167  -5.734  1.00  0.00    -0.507 OA
ATOM     25  H   UNL     1     -12.471  17.195  -4.992  1.00  0.00     0.293 HD
ENDBRANCH   6  24
BRANCH   8  26
ATOM     26  O   UNL     1     -17.061  17.571  -3.002  1.00  0.00    -0.508 OA
ATOM     27  H   UNL     1     -17.195  18.570  -2.900  1.00  0.00     0.293 HD
ENDBRANCH   8  26
TORSDOF 6
ENDMDL
MODEL 7
REMARK VINA RESULT:    -6.019      2.232      7.205
REMARK INTER + INTRA:          -7.311
REMARK INTER:                  -7.265
REMARK INTRA:                  -0.046
REMARK UNBOUND:                -0.061
REMARK SMILES O=c1c(O)c(-c2ccc(O)c(O)c2)oc2cc(O)cc(O)c12
REMARK SMILES IDX 5 1 3 2 2 3 1 4 22 5 20 6 19 7 17 8 16 9 15 10 14 11 6 12
REMARK SMILES IDX 7 13 8 14 9 15 13 16 11 17 10 18 12 20 4 22 21 24 18 26
REMARK H PARENT 10 19 12 21 4 23 21 25 18 27
REMARK Flexibility Score: inf
ROOT
ATOM      1  C   UNL     1     -16.943  13.987  -6.893  1.00  0.00     0.180 A 
ATOM      2  C   UNL     1     -18.102  13.791  -6.122  1.00  0.00     0.208 A 
ATOM      3  C   UNL     1     -19.143  13.010  -6.645  1.00  0.00     0.238 A 
ATOM      4  O   UNL     1     -20.200  12.883  -5.973  1.00  0.00    -0.285 OA
ATOM      5  C   UNL     1     -19.007  12.420  -7.925  1.00  0.00     0.111 A 
ATOM      6  C   UNL     1     -19.982  11.575  -8.537  1.00  0.00     0.134 A 
ATOM      7  C   UNL     1     -19.798  11.154  -9.859  1.00  0.00     0.093 A 
ATOM      8  C   UNL     1     -18.648  11.490 -10.569  1.00  0.00     0.123 A 
ATOM      9  C   UNL     1     -17.659  12.265  -9.960  1.00  0.00     0.094 A 
ATOM     10  C   UNL     1     -17.830  12.731  -8.655  1.00  0.00     0.146 A 
ATOM     11  O   UNL     1     -16.871  13.476  -8.116  1.00  0.00    -0.452 OA
ENDROOT
BRANCH   1  12
ATOM     12  C   UNL     1     -15.792  14.778  -6.400  1.00  0.00     0.025 A 
ATOM     13  C   UNL     1     -15.203  14.513  -5.150  1.00  0.00     0.016 A 
ATOM     14  C   UNL     1     -14.104  15.257  -4.716  1.00  0.00     0.051 A 
ATOM     15  C   UNL     1     -13.567  16.266  -5.526  1.00  0.00     0.157 A 
ATOM     16  C   UNL     1     -15.237  15.777  -7.217  1.00  0.00     0.062 A 
ATOM     17  C   UNL     1     -14.136  16.524  -6.785  1.00  0.00     0.158 A 
BRANCH  15  18
ATOM     18  O   UNL     1     -12.471  17.008  -5.089  1.00  0.00    -0.504 OA
ATOM     19  H   UNL     1     -12.134  16.946  -4.135  1.00  0.00     0.293 HD
ENDBRANCH  15  18
BRANCH  17  20
ATOM     20  O   UNL     1     -13.621  17.517  -7.618  1.00  0.00    -0.504 OA
ATOM     21  H   UNL     1     -12.625  17.652  -7.743  1.00  0.00     0.293 HD
ENDBRANCH  17  20
ENDBRANCH   1  12
BRANCH   2  22
ATOM     22  O   UNL     1     -18.224  14.401  -4.870  1.00  0.00    -0.502 OA
ATOM     23  H   UNL     1     -18.819  15.206  -4.714  1.00  0.00     0.293 HD
ENDBRANCH   2  22
BRANCH   6  24
ATOM     24  O   UNL     1     -21.125  11.103  -7.884  1.00  0.00    -0.507 OA
ATOM     25  H   UNL     1     -21.335  11.256  -6.909  1.00  0.00     0.293 HD
ENDBRANCH   6  24
BRANCH   8  26
ATOM     26  O   UNL     1     -18.490  11.039 -11.878  1.00  0.00    -0.508 OA
ATOM     27  H   UNL     1     -19.035  10.265 -12.241  1.00  0.00     0.293 HD
ENDBRANCH   8  26
TORSDOF 6
ENDMDL
MODEL 8
REMARK VINA RESULT:    -5.835     15.380     17.723
REMARK INTER + INTRA:          -7.090
REMARK INTER:                  -7.120
REMARK INTRA:                   0.030
REMARK UNBOUND:                -0.061
REMARK SMILES O=c1c(O)c(-c2ccc(O)c(O)c2)oc2cc(O)cc(O)c12
REMARK SMILES IDX 5 1 3 2 2 3 1 4 22 5 20 6 19 7 17 8 16 9 15 10 14 11 6 12
REMARK SMILES IDX 7 13 8 14 9 15 13 16 11 17 10 18 12 20 4 22 21 24 18 26
REMARK H PARENT 10 19 12 21 4 23 21 25 18 27
REMARK Flexibility Score: inf
ROOT
ATOM      1  C   UNL     1      -5.212   5.174 -18.233  1.00  0.00     0.180 A 
ATOM      2  C   UNL     1      -3.837   4.881 -18.244  1.00  0.00     0.208 A 
ATOM      3  C   UNL     1      -3.156   4.770 -17.021  1.00  0.00     0.238 A 
ATOM      4  O   UNL     1      -1.915   4.560 -17.038  1.00  0.00    -0.285 OA
ATOM      5  C   UNL     1      -3.860   4.937 -15.805  1.00  0.00     0.111 A 
ATOM      6  C   UNL     1      -3.279   4.806 -14.507  1.00  0.00     0.134 A 
ATOM      7  C   UNL     1      -4.040   5.122 -13.375  1.00  0.00     0.093 A 
ATOM      8  C   UNL     1      -5.377   5.499 -13.487  1.00  0.00     0.123 A 
ATOM      9  C   UNL     1      -5.972   5.573 -14.748  1.00  0.00     0.094 A 
ATOM     10  C   UNL     1      -5.229   5.299 -15.898  1.00  0.00     0.146 A 
ATOM     11  O   UNL     1      -5.830   5.391 -17.079  1.00  0.00    -0.452 OA
ENDROOT
BRANCH   1  12
ATOM     12  C   UNL     1      -6.004   5.283 -19.480  1.00  0.00     0.025 A 
ATOM     13  C   UNL     1      -5.563   6.068 -20.561  1.00  0.00     0.016 A 
ATOM     14  C   UNL     1      -6.315   6.137 -21.736  1.00  0.00     0.051 A 
ATOM     15  C   UNL     1      -7.509   5.414 -21.856  1.00  0.00     0.157 A 
ATOM     16  C   UNL     1      -7.191   4.544 -19.612  1.00  0.00     0.062 A 
ATOM     17  C   UNL     1      -7.947   4.612 -20.788  1.00  0.00     0.158 A 
BRANCH  15  18
ATOM     18  O   UNL     1      -8.258   5.487 -23.029  1.00  0.00    -0.504 OA
ATOM     19  H   UNL     1      -7.842   5.314 -23.936  1.00  0.00     0.293 HD
ENDBRANCH  15  18
BRANCH  17  20
ATOM     20  O   UNL     1      -9.128   3.875 -20.878  1.00  0.00    -0.504 OA
ATOM     21  H   UNL     1      -9.222   2.957 -20.461  1.00  0.00     0.293 HD
ENDBRANCH  17  20
ENDBRANCH   1  12
BRANCH   2  22
ATOM     22  O   UNL     1      -3.157   4.741 -19.457  1.00  0.00    -0.502 OA
ATOM     23  H   UNL     1      -2.156   4.597 -19.505  1.00  0.00     0.293 HD
ENDBRANCH   2  22
BRANCH   6  24
ATOM     24  O   UNL     1      -1.979   4.347 -14.277  1.00  0.00    -0.507 OA
ATOM     25  H   UNL     1      -1.213   4.440 -14.927  1.00  0.00     0.293 HD
ENDBRANCH   6  24
BRANCH   8  26
ATOM     26  O   UNL     1      -6.109   5.791 -12.338  1.00  0.00    -0.508 OA
ATOM     27  H   UNL     1      -6.724   6.594 -12.291  1.00  0.00     0.293 HD
ENDBRANCH   8  26
TORSDOF 6
ENDMDL
MODEL 9
REMARK VINA RESULT:    -5.695      1.956      2.544
REMARK INTER + INTRA:          -6.921
REMARK INTER:                  -6.708
REMARK INTRA:                  -0.212
REMARK UNBOUND:                -0.061
REMARK SMILES O=c1c(O)c(-c2ccc(O)c(O)c2)oc2cc(O)cc(O)c12
REMARK SMILES IDX 5 1 3 2 2 3 1 4 22 5 20 6 19 7 17 8 16 9 15 10 14 11 6 12
REMARK SMILES IDX 7 13 8 14 9 15 13 16 11 17 10 18 12 20 4 22 21 24 18 26
REMARK H PARENT 10 19 12 21 4 23 21 25 18 27
REMARK Flexibility Score: inf
ROOT
ATOM      1  C   UNL     1     -16.117  14.893  -7.027  1.00  0.00     0.180 A 
ATOM      2  C   UNL     1     -15.068  14.721  -6.108  1.00  0.00     0.208 A 
ATOM      3  C   UNL     1     -14.887  15.677  -5.097  1.00  0.00     0.238 A 
ATOM      4  O   UNL     1     -13.912  15.546  -4.310  1.00  0.00    -0.285 OA
ATOM      5  C   UNL     1     -15.766  16.782  -5.005  1.00  0.00     0.111 A 
ATOM      6  C   UNL     1     -15.701  17.790  -3.996  1.00  0.00     0.134 A 
ATOM      7  C   UNL     1     -16.540  18.907  -4.080  1.00  0.00     0.093 A 
ATOM      8  C   UNL     1     -17.485  19.023  -5.097  1.00  0.00     0.123 A 
ATOM      9  C   UNL     1     -17.599  18.015  -6.056  1.00  0.00     0.094 A 
ATOM     10  C   UNL     1     -16.751  16.906  -6.019  1.00  0.00     0.146 A 
ATOM     11  O   UNL     1     -16.884  15.974  -6.957  1.00  0.00    -0.452 OA
ENDROOT
BRANCH   1  12
ATOM     12  C   UNL     1     -16.387  13.916  -8.108  1.00  0.00     0.025 A 
ATOM     13  C   UNL     1     -15.507  13.764  -9.194  1.00  0.00     0.016 A 
ATOM     14  C   UNL     1     -15.769  12.820 -10.189  1.00  0.00     0.051 A 
ATOM     15  C   UNL     1     -16.905  12.004 -10.108  1.00  0.00     0.157 A 
ATOM     16  C   UNL     1     -17.514  13.081  -8.020  1.00  0.00     0.062 A 
ATOM     17  C   UNL     1     -17.779  12.134  -9.015  1.00  0.00     0.158 A 
BRANCH  15  18
ATOM     18  O   UNL     1     -17.166  11.063 -11.103  1.00  0.00    -0.504 OA
ATOM     19  H   UNL     1     -16.736  11.126 -12.019  1.00  0.00     0.293 HD
ENDBRANCH  15  18
BRANCH  17  20
ATOM     20  O   UNL     1     -18.915  11.333  -8.902  1.00  0.00    -0.504 OA
ATOM     21  H   UNL     1     -19.783  11.560  -9.371  1.00  0.00     0.293 HD
ENDBRANCH  17  20
ENDBRANCH   1  12
BRANCH   2  22
ATOM     22  O   UNL     1     -14.198  13.634  -6.230  1.00  0.00    -0.502 OA
ATOM     23  H   UNL     1     -13.191  13.738  -6.197  1.00  0.00     0.293 HD
ENDBRANCH   2  22
BRANCH   6  24
ATOM     24  O   UNL     1     -14.855  17.726  -2.884  1.00  0.00    -0.507 OA
ATOM     25  H   UNL     1     -14.056  17.116  -2.803  1.00  0.00     0.293 HD
ENDBRANCH   6  24
BRANCH   8  26
ATOM     26  O   UNL     1     -18.316  20.142  -5.141  1.00  0.00    -0.508 OA
ATOM     27  H   UNL     1     -18.676  20.567  -4.295  1.00  0.00     0.293 HD
ENDBRANCH   8  26
TORSDOF 6
ENDMDL
