MODEL 1
REMARK VINA RESULT:    -3.090      0.000      0.000
REMARK INTER + INTRA:          -6.843
REMARK INTER:                  -5.257
REMARK INTRA:                  -1.585
REMARK UNBOUND:                -1.585
REMARK SMILES CCCCCCCCCCCCCC(=O)[O-]
REMARK SMILES IDX 8 1 9 2 10 3 11 4 12 5 13 6 14 7 15 8 16 9 7 10 6 11 5 12
REMARK SMILES IDX 4 13 3 14 2 15 1 16
REMARK H PARENT
REMARK Flexibility Score: inf
ROOT
ATOM      1  C   UNL     1    -115.082  34.981  -7.506  1.00  0.00     0.000 C 
ENDROOT
BRANCH   1   2
ATOM      2  C   UNL     1    -115.148  33.895  -8.594  1.00  0.00     0.000 C 
BRANCH   2   3
ATOM      3  C   UNL     1    -116.582  33.611  -9.065  1.00  0.00     0.000 C 
BRANCH   3   4
ATOM      4  C   UNL     1    -116.648  33.508 -10.593  1.00  0.00     0.000 C 
BRANCH   4   5
ATOM      5  C   UNL     1    -115.497  34.285 -11.248  1.00  0.00     0.006 C 
BRANCH   5   6
ATOM      6  C   UNL     1    -115.749  34.556 -12.736  1.00  0.00     0.053 C 
BRANCH   6   7
ATOM      7  C   UNL     1    -114.853  33.735 -13.612  1.00  0.00     0.041 C 
ATOM      8  O   UNL     1    -114.341  34.241 -14.645  1.00  0.00    -0.550 OA
ATOM      9  O   UNL     1    -114.609  32.403 -13.306  1.00  0.00    -0.550 OA
ENDBRANCH   6   7
ENDBRANCH   5   6
ENDBRANCH   4   5
ENDBRANCH   3   4
ENDBRANCH   2   3
ENDBRANCH   1   2
BRANCH   1  10
ATOM     10  C   UNL     1    -116.436  35.619  -7.135  1.00  0.00     0.000 C 
BRANCH  10  11
ATOM     11  C   UNL     1    -116.637  37.074  -7.607  1.00  0.00    -0.000 C 
BRANCH  11  12
ATOM     12  C   UNL     1    -116.989  37.229  -9.101  1.00  0.00    -0.000 C 
BRANCH  12  13
ATOM     13  C   UNL     1    -115.828  37.778  -9.962  1.00  0.00    -0.000 C 
BRANCH  13  14
ATOM     14  C   UNL     1    -114.690  38.405  -9.135  1.00  0.00    -0.000 C 
BRANCH  14  15
ATOM     15  C   UNL     1    -114.693  39.943  -9.111  1.00  0.00    -0.003 C 
ATOM     16  C   UNL     1    -114.629  40.515  -7.694  1.00  0.00     0.004 C 
ENDBRANCH  14  15
ENDBRANCH  13  14
ENDBRANCH  12  13
ENDBRANCH  11  12
ENDBRANCH  10  11
ENDBRANCH   1  10
TORSDOF 12
ENDMDL
MODEL 2
REMARK VINA RESULT:    -3.076      1.636      2.694
REMARK INTER + INTRA:          -6.819
REMARK INTER:                  -5.155
REMARK INTRA:                  -1.665
REMARK UNBOUND:                -1.585
REMARK SMILES CCCCCCCCCCCCCC(=O)[O-]
REMARK SMILES IDX 8 1 9 2 10 3 11 4 12 5 13 6 14 7 15 8 16 9 7 10 6 11 5 12
REMARK SMILES IDX 4 13 3 14 2 15 1 16
REMARK H PARENT
REMARK Flexibility Score: inf
ROOT
ATOM      1  C   UNL     1    -115.135  33.902  -8.689  1.00  0.00     0.000 C 
ENDROOT
BRANCH   1   2
ATOM      2  C   UNL     1    -116.563  33.612  -9.183  1.00  0.00     0.000 C 
BRANCH   2   3
ATOM      3  C   UNL     1    -116.692  33.702 -10.711  1.00  0.00     0.000 C 
BRANCH   3   4
ATOM      4  C   UNL     1    -115.320  33.886 -11.368  1.00  0.00     0.000 C 
BRANCH   4   5
ATOM      5  C   UNL     1    -115.414  33.740 -12.894  1.00  0.00     0.006 C 
BRANCH   5   6
ATOM      6  C   UNL     1    -114.799  32.427 -13.393  1.00  0.00     0.053 C 
BRANCH   6   7
ATOM      7  C   UNL     1    -115.849  31.440 -13.801  1.00  0.00     0.041 C 
ATOM      8  O   UNL     1    -116.482  30.791 -12.926  1.00  0.00    -0.550 OA
ATOM      9  O   UNL     1    -116.105  31.210 -15.147  1.00  0.00    -0.550 OA
ENDBRANCH   6   7
ENDBRANCH   5   6
ENDBRANCH   4   5
ENDBRANCH   3   4
ENDBRANCH   2   3
ENDBRANCH   1   2
BRANCH   1  10
ATOM     10  C   UNL     1    -115.035  34.929  -7.543  1.00  0.00     0.000 C 
BRANCH  10  11
ATOM     11  C   UNL     1    -116.366  35.587  -7.123  1.00  0.00    -0.000 C 
BRANCH  11  12
ATOM     12  C   UNL     1    -116.478  37.091  -7.447  1.00  0.00    -0.000 C 
BRANCH  12  13
ATOM     13  C   UNL     1    -115.705  37.515  -8.716  1.00  0.00    -0.000 C 
BRANCH  13  14
ATOM     14  C   UNL     1    -116.492  37.290 -10.021  1.00  0.00    -0.000 C 
BRANCH  14  15
ATOM     15  C   UNL     1    -115.664  37.477 -11.304  1.00  0.00    -0.003 C 
ATOM     16  C   UNL     1    -116.503  37.348 -12.576  1.00  0.00     0.004 C 
ENDBRANCH  14  15
ENDBRANCH  13  14
ENDBRANCH  12  13
ENDBRANCH  11  12
ENDBRANCH  10  11
ENDBRANCH   1  10
TORSDOF 12
ENDMDL
MODEL 3
REMARK VINA RESULT:    -2.973      1.003      1.576
REMARK INTER + INTRA:          -6.643
REMARK INTER:                  -5.551
REMARK INTRA:                  -1.093
REMARK UNBOUND:                -1.585
REMARK SMILES CCCCCCCCCCCCCC(=O)[O-]
REMARK SMILES IDX 8 1 9 2 10 3 11 4 12 5 13 6 14 7 15 8 16 9 7 10 6 11 5 12
REMARK SMILES IDX 4 13 3 14 2 15 1 16
REMARK H PARENT
REMARK Flexibility Score: inf
ROOT
ATOM      1  C   UNL     1    -115.147  33.893  -8.683  1.00  0.00     0.000 C 
ENDROOT
BRANCH   1   2
ATOM      2  C   UNL     1    -116.583  33.586  -9.145  1.00  0.00     0.000 C 
BRANCH   2   3
ATOM      3  C   UNL     1    -116.776  33.781 -10.656  1.00  0.00     0.000 C 
BRANCH   3   4
ATOM      4  C   UNL     1    -115.590  34.535 -11.267  1.00  0.00     0.000 C 
BRANCH   4   5
ATOM      5  C   UNL     1    -115.458  34.233 -12.768  1.00  0.00     0.006 C 
BRANCH   5   6
ATOM      6  C   UNL     1    -114.617  32.979 -13.038  1.00  0.00     0.053 C 
BRANCH   6   7
ATOM      7  C   UNL     1    -115.342  31.999 -13.908  1.00  0.00     0.041 C 
ATOM      8  O   UNL     1    -115.337  32.140 -15.160  1.00  0.00    -0.550 OA
ATOM      9  O   UNL     1    -116.052  30.951 -13.338  1.00  0.00    -0.550 OA
ENDBRANCH   6   7
ENDBRANCH   5   6
ENDBRANCH   4   5
ENDBRANCH   3   4
ENDBRANCH   2   3
ENDBRANCH   1   2
BRANCH   1  10
ATOM     10  C   UNL     1    -115.032  34.933  -7.550  1.00  0.00     0.000 C 
BRANCH  10  11
ATOM     11  C   UNL     1    -116.325  35.711  -7.230  1.00  0.00    -0.000 C 
BRANCH  11  12
ATOM     12  C   UNL     1    -116.341  37.175  -7.716  1.00  0.00    -0.000 C 
BRANCH  12  13
ATOM     13  C   UNL     1    -115.639  37.388  -9.076  1.00  0.00    -0.000 C 
BRANCH  13  14
ATOM     14  C   UNL     1    -114.725  38.627  -9.111  1.00  0.00    -0.000 C 
BRANCH  14  15
ATOM     15  C   UNL     1    -115.119  39.737  -8.122  1.00  0.00    -0.003 C 
ATOM     16  C   UNL     1    -114.415  41.064  -8.406  1.00  0.00     0.004 C 
ENDBRANCH  14  15
ENDBRANCH  13  14
ENDBRANCH  12  13
ENDBRANCH  11  12
ENDBRANCH  10  11
ENDBRANCH   1  10
TORSDOF 12
ENDMDL
MODEL 4
REMARK VINA RESULT:    -2.953      1.288      2.048
REMARK INTER + INTRA:          -6.610
REMARK INTER:                  -5.145
REMARK INTRA:                  -1.465
REMARK UNBOUND:                -1.585
REMARK SMILES CCCCCCCCCCCCCC(=O)[O-]
REMARK SMILES IDX 8 1 9 2 10 3 11 4 12 5 13 6 14 7 15 8 16 9 7 10 6 11 5 12
REMARK SMILES IDX 4 13 3 14 2 15 1 16
REMARK H PARENT
REMARK Flexibility Score: inf
ROOT
ATOM      1  C   UNL     1    -114.974  34.929  -7.566  1.00  0.00     0.000 C 
ENDROOT
BRANCH   1   2
ATOM      2  C   UNL     1    -115.146  33.860  -8.660  1.00  0.00     0.000 C 
BRANCH   2   3
ATOM      3  C   UNL     1    -116.608  33.688  -9.099  1.00  0.00     0.000 C 
BRANCH   3   4
ATOM      4  C   UNL     1    -116.722  33.656 -10.627  1.00  0.00     0.000 C 
BRANCH   4   5
ATOM      5  C   UNL     1    -115.356  33.896 -11.287  1.00  0.00     0.006 C 
BRANCH   5   6
ATOM      6  C   UNL     1    -115.487  34.403 -12.729  1.00  0.00     0.053 C 
BRANCH   6   7
ATOM      7  C   UNL     1    -114.904  33.437 -13.714  1.00  0.00     0.041 C 
ATOM      8  O   UNL     1    -114.742  32.229 -13.396  1.00  0.00    -0.550 OA
ATOM      9  O   UNL     1    -114.508  33.876 -14.970  1.00  0.00    -0.550 OA
ENDBRANCH   6   7
ENDBRANCH   5   6
ENDBRANCH   4   5
ENDBRANCH   3   4
ENDBRANCH   2   3
ENDBRANCH   1   2
BRANCH   1  10
ATOM     10  C   UNL     1    -116.263  35.681  -7.178  1.00  0.00     0.000 C 
BRANCH  10  11
ATOM     11  C   UNL     1    -116.405  37.102  -7.764  1.00  0.00    -0.000 C 
BRANCH  11  12
ATOM     12  C   UNL     1    -115.388  37.453  -8.869  1.00  0.00    -0.000 C 
BRANCH  12  13
ATOM     13  C   UNL     1    -115.975  37.397 -10.298  1.00  0.00    -0.000 C 
BRANCH  13  14
ATOM     14  C   UNL     1    -115.516  38.558 -11.199  1.00  0.00    -0.000 C 
BRANCH  14  15
ATOM     15  C   UNL     1    -115.071  38.133 -12.608  1.00  0.00    -0.003 C 
ATOM     16  C   UNL     1    -113.602  38.450 -12.888  1.00  0.00     0.004 C 
ENDBRANCH  14  15
ENDBRANCH  13  14
ENDBRANCH  12  13
ENDBRANCH  11  12
ENDBRANCH  10  11
ENDBRANCH   1  10
TORSDOF 12
ENDMDL
MODEL 5
REMARK VINA RESULT:    -2.937      3.032      4.455
REMARK INTER + INTRA:          -6.582
REMARK INTER:                  -5.253
REMARK INTRA:                  -1.329
REMARK UNBOUND:                -1.585
REMARK SMILES CCCCCCCCCCCCCC(=O)[O-]
REMARK SMILES IDX 8 1 9 2 10 3 11 4 12 5 13 6 14 7 15 8 16 9 7 10 6 11 5 12
REMARK SMILES IDX 4 13 3 14 2 15 1 16
REMARK H PARENT
REMARK Flexibility Score: inf
ROOT
ATOM      1  C   UNL     1    -115.675  34.145 -11.089  1.00  0.00     0.000 C 
ENDROOT
BRANCH   1   2
ATOM      2  C   UNL     1    -116.057  35.560 -11.558  1.00  0.00     0.000 C 
BRANCH   2   3
ATOM      3  C   UNL     1    -115.415  35.933 -12.903  1.00  0.00     0.000 C 
BRANCH   3   4
ATOM      4  C   UNL     1    -115.200  37.447 -13.007  1.00  0.00     0.000 C 
BRANCH   4   5
ATOM      5  C   UNL     1    -113.795  37.770 -13.536  1.00  0.00     0.006 C 
BRANCH   5   6
ATOM      6  C   UNL     1    -113.066  38.799 -12.662  1.00  0.00     0.053 C 
BRANCH   6   7
ATOM      7  C   UNL     1    -111.693  39.096 -13.181  1.00  0.00     0.041 C 
ATOM      8  O   UNL     1    -111.097  40.149 -12.830  1.00  0.00    -0.550 OA
ATOM      9  O   UNL     1    -111.083  38.229 -14.079  1.00  0.00    -0.550 OA
ENDBRANCH   6   7
ENDBRANCH   5   6
ENDBRANCH   4   5
ENDBRANCH   3   4
ENDBRANCH   2   3
ENDBRANCH   1   2
BRANCH   1  10
ATOM     10  C   UNL     1    -116.097  33.798  -9.647  1.00  0.00     0.000 C 
BRANCH  10  11
ATOM     11  C   UNL     1    -114.963  33.814  -8.601  1.00  0.00    -0.000 C 
BRANCH  11  12
ATOM     12  C   UNL     1    -115.094  34.903  -7.517  1.00  0.00    -0.000 C 
BRANCH  12  13
ATOM     13  C   UNL     1    -116.463  35.621  -7.515  1.00  0.00    -0.000 C 
BRANCH  13  14
ATOM     14  C   UNL     1    -116.383  37.100  -7.939  1.00  0.00    -0.000 C 
BRANCH  14  15
ATOM     15  C   UNL     1    -115.095  37.479  -8.690  1.00  0.00    -0.003 C 
ATOM     16  C   UNL     1    -115.264  38.716  -9.571  1.00  0.00     0.004 C 
ENDBRANCH  14  15
ENDBRANCH  13  14
ENDBRANCH  12  13
ENDBRANCH  11  12
ENDBRANCH  10  11
ENDBRANCH   1  10
TORSDOF 12
ENDMDL
MODEL 6
REMARK VINA RESULT:    -2.921      3.285      5.892
REMARK INTER + INTRA:          -6.555
REMARK INTER:                  -5.182
REMARK INTRA:                  -1.373
REMARK UNBOUND:                -1.585
REMARK SMILES CCCCCCCCCCCCCC(=O)[O-]
REMARK SMILES IDX 8 1 9 2 10 3 11 4 12 5 13 6 14 7 15 8 16 9 7 10 6 11 5 12
REMARK SMILES IDX 4 13 3 14 2 15 1 16
REMARK H PARENT
REMARK Flexibility Score: inf
ROOT
ATOM      1  C   UNL     1    -114.960  34.712  -7.856  1.00  0.00     0.000 C 
ENDROOT
BRANCH   1   2
ATOM      2  C   UNL     1    -116.234  35.349  -7.274  1.00  0.00     0.000 C 
BRANCH   2   3
ATOM      3  C   UNL     1    -116.437  36.800  -7.735  1.00  0.00     0.000 C 
BRANCH   3   4
ATOM      4  C   UNL     1    -115.266  37.268  -8.605  1.00  0.00     0.000 C 
BRANCH   4   5
ATOM      5  C   UNL     1    -115.711  38.360  -9.590  1.00  0.00     0.006 C 
BRANCH   5   6
ATOM      6  C   UNL     1    -114.522  39.075 -10.244  1.00  0.00     0.053 C 
BRANCH   6   7
ATOM      7  C   UNL     1    -114.288  40.428  -9.646  1.00  0.00     0.041 C 
ATOM      8  O   UNL     1    -114.761  40.709  -8.513  1.00  0.00    -0.550 OA
ATOM      9  O   UNL     1    -113.577  41.389 -10.352  1.00  0.00    -0.550 OA
ENDBRANCH   6   7
ENDBRANCH   5   6
ENDBRANCH   4   5
ENDBRANCH   3   4
ENDBRANCH   2   3
ENDBRANCH   1   2
BRANCH   1  10
ATOM     10  C   UNL     1    -115.196  33.700  -8.995  1.00  0.00     0.000 C 
BRANCH  10  11
ATOM     11  C   UNL     1    -116.664  33.530  -9.439  1.00  0.00    -0.000 C 
BRANCH  11  12
ATOM     12  C   UNL     1    -116.987  34.081 -10.842  1.00  0.00    -0.000 C 
BRANCH  12  13
ATOM     13  C   UNL     1    -115.914  35.046 -11.397  1.00  0.00    -0.000 C 
BRANCH  13  14
ATOM     14  C   UNL     1    -115.333  34.607 -12.754  1.00  0.00    -0.000 C 
BRANCH  14  15
ATOM     15  C   UNL     1    -114.711  33.201 -12.755  1.00  0.00    -0.003 C 
ATOM     16  C   UNL     1    -115.170  32.350 -13.940  1.00  0.00     0.004 C 
ENDBRANCH  14  15
ENDBRANCH  13  14
ENDBRANCH  12  13
ENDBRANCH  11  12
ENDBRANCH  10  11
ENDBRANCH   1  10
TORSDOF 12
ENDMDL
MODEL 7
REMARK VINA RESULT:    -2.916      1.740      2.972
REMARK INTER + INTRA:          -6.547
REMARK INTER:                  -4.858
REMARK INTRA:                  -1.689
REMARK UNBOUND:                -1.585
REMARK SMILES CCCCCCCCCCCCCC(=O)[O-]
REMARK SMILES IDX 8 1 9 2 10 3 11 4 12 5 13 6 14 7 15 8 16 9 7 10 6 11 5 12
REMARK SMILES IDX 4 13 3 14 2 15 1 16
REMARK H PARENT
REMARK Flexibility Score: inf
ROOT
ATOM      1  C   UNL     1    -116.525  33.565  -9.147  1.00  0.00     0.000 C 
ENDROOT
BRANCH   1   2
ATOM      2  C   UNL     1    -116.663  33.463 -10.677  1.00  0.00     0.000 C 
BRANCH   2   3
ATOM      3  C   UNL     1    -115.435  34.007 -11.422  1.00  0.00     0.000 C 
BRANCH   3   4
ATOM      4  C   UNL     1    -115.217  33.257 -12.741  1.00  0.00     0.000 C 
BRANCH   4   5
ATOM      5  C   UNL     1    -114.889  34.232 -13.882  1.00  0.00     0.006 C 
BRANCH   5   6
ATOM      6  C   UNL     1    -115.215  35.686 -13.518  1.00  0.00     0.053 C 
BRANCH   6   7
ATOM      7  C   UNL     1    -114.220  36.642 -14.100  1.00  0.00     0.041 C 
ATOM      8  O   UNL     1    -114.287  37.870 -13.827  1.00  0.00    -0.550 OA
ATOM      9  O   UNL     1    -113.241  36.185 -14.972  1.00  0.00    -0.550 OA
ENDBRANCH   6   7
ENDBRANCH   5   6
ENDBRANCH   4   5
ENDBRANCH   3   4
ENDBRANCH   2   3
ENDBRANCH   1   2
BRANCH   1  10
ATOM     10  C   UNL     1    -115.092  33.811  -8.634  1.00  0.00     0.000 C 
BRANCH  10  11
ATOM     11  C   UNL     1    -114.950  34.911  -7.562  1.00  0.00    -0.000 C 
BRANCH  11  12
ATOM     12  C   UNL     1    -116.273  35.584  -7.143  1.00  0.00    -0.000 C 
BRANCH  12  13
ATOM     13  C   UNL     1    -116.577  36.894  -7.904  1.00  0.00    -0.000 C 
BRANCH  13  14
ATOM     14  C   UNL     1    -115.385  37.419  -8.727  1.00  0.00    -0.000 C 
BRANCH  14  15
ATOM     15  C   UNL     1    -115.628  37.454 -10.246  1.00  0.00    -0.003 C 
ATOM     16  C   UNL     1    -117.099  37.268 -10.617  1.00  0.00     0.004 C 
ENDBRANCH  14  15
ENDBRANCH  13  14
ENDBRANCH  12  13
ENDBRANCH  11  12
ENDBRANCH  10  11
ENDBRANCH   1  10
TORSDOF 12
ENDMDL
MODEL 8
REMARK VINA RESULT:    -2.910      3.166      5.307
REMARK INTER + INTRA:          -6.537
REMARK INTER:                  -4.875
REMARK INTRA:                  -1.661
REMARK UNBOUND:                -1.585
REMARK SMILES CCCCCCCCCCCCCC(=O)[O-]
REMARK SMILES IDX 8 1 9 2 10 3 11 4 12 5 13 6 14 7 15 8 16 9 7 10 6 11 5 12
REMARK SMILES IDX 4 13 3 14 2 15 1 16
REMARK H PARENT
REMARK Flexibility Score: inf
ROOT
ATOM      1  C   UNL     1    -115.063  34.804  -7.521  1.00  0.00     0.000 C 
ENDROOT
BRANCH   1   2
ATOM      2  C   UNL     1    -116.433  35.400  -7.149  1.00  0.00     0.000 C 
BRANCH   2   3
ATOM      3  C   UNL     1    -116.539  36.897  -7.477  1.00  0.00     0.000 C 
BRANCH   3   4
ATOM      4  C   UNL     1    -117.092  37.111  -8.891  1.00  0.00     0.000 C 
BRANCH   4   5
ATOM      5  C   UNL     1    -116.129  37.955  -9.738  1.00  0.00     0.006 C 
BRANCH   5   6
ATOM      6  C   UNL     1    -114.809  38.240  -9.010  1.00  0.00     0.053 C 
BRANCH   6   7
ATOM      7  C   UNL     1    -114.566  39.709  -8.852  1.00  0.00     0.041 C 
ATOM      8  O   UNL     1    -114.748  40.265  -7.737  1.00  0.00    -0.550 OA
ATOM      9  O   UNL     1    -114.171  40.472  -9.944  1.00  0.00    -0.550 OA
ENDBRANCH   6   7
ENDBRANCH   5   6
ENDBRANCH   4   5
ENDBRANCH   3   4
ENDBRANCH   2   3
ENDBRANCH   1   2
BRANCH   1  10
ATOM     10  C   UNL     1    -115.062  33.893  -8.765  1.00  0.00     0.000 C 
BRANCH  10  11
ATOM     11  C   UNL     1    -116.454  33.518  -9.315  1.00  0.00    -0.000 C 
BRANCH  11  12
ATOM     12  C   UNL     1    -116.657  33.800 -10.818  1.00  0.00    -0.000 C 
BRANCH  12  13
ATOM     13  C   UNL     1    -115.635  34.796 -11.410  1.00  0.00    -0.000 C 
BRANCH  13  14
ATOM     14  C   UNL     1    -116.128  35.500 -12.688  1.00  0.00    -0.000 C 
BRANCH  14  15
ATOM     15  C   UNL     1    -115.009  35.932 -13.649  1.00  0.00    -0.003 C 
ATOM     16  C   UNL     1    -114.554  37.374 -13.422  1.00  0.00     0.004 C 
ENDBRANCH  14  15
ENDBRANCH  13  14
ENDBRANCH  12  13
ENDBRANCH  11  12
ENDBRANCH  10  11
ENDBRANCH   1  10
TORSDOF 12
ENDMDL
MODEL 9
REMARK VINA RESULT:    -2.893      2.681      5.794
REMARK INTER + INTRA:          -6.507
REMARK INTER:                  -4.928
REMARK INTRA:                  -1.579
REMARK UNBOUND:                -1.585
REMARK SMILES CCCCCCCCCCCCCC(=O)[O-]
REMARK SMILES IDX 8 1 9 2 10 3 11 4 12 5 13 6 14 7 15 8 16 9 7 10 6 11 5 12
REMARK SMILES IDX 4 13 3 14 2 15 1 16
REMARK H PARENT
REMARK Flexibility Score: inf
ROOT
ATOM      1  C   UNL     1    -116.593  33.659  -9.346  1.00  0.00     0.000 C 
ENDROOT
BRANCH   1   2
ATOM      2  C   UNL     1    -115.139  33.876  -8.891  1.00  0.00     0.000 C 
BRANCH   2   3
ATOM      3  C   UNL     1    -115.035  34.734  -7.621  1.00  0.00     0.000 C 
BRANCH   3   4
ATOM      4  C   UNL     1    -116.412  35.261  -7.202  1.00  0.00     0.000 C 
BRANCH   4   5
ATOM      5  C   UNL     1    -116.446  36.796  -7.226  1.00  0.00     0.006 C 
BRANCH   5   6
ATOM      6  C   UNL     1    -116.911  37.347  -8.579  1.00  0.00     0.053 C 
BRANCH   6   7
ATOM      7  C   UNL     1    -115.822  38.101  -9.278  1.00  0.00     0.041 C 
ATOM      8  O   UNL     1    -114.639  38.047  -8.849  1.00  0.00    -0.550 OA
ATOM      9  O   UNL     1    -116.117  38.891 -10.381  1.00  0.00    -0.550 OA
ENDBRANCH   6   7
ENDBRANCH   5   6
ENDBRANCH   4   5
ENDBRANCH   3   4
ENDBRANCH   2   3
ENDBRANCH   1   2
BRANCH   1  10
ATOM     10  C   UNL     1    -116.984  34.378 -10.654  1.00  0.00     0.000 C 
BRANCH  10  11
ATOM     11  C   UNL     1    -115.832  35.096 -11.386  1.00  0.00    -0.000 C 
BRANCH  11  12
ATOM     12  C   UNL     1    -116.057  35.312 -12.897  1.00  0.00    -0.000 C 
BRANCH  12  13
ATOM     13  C   UNL     1    -115.172  34.417 -13.794  1.00  0.00    -0.000 C 
BRANCH  13  14
ATOM     14  C   UNL     1    -114.684  33.135 -13.095  1.00  0.00    -0.000 C 
BRANCH  14  15
ATOM     15  C   UNL     1    -115.354  31.843 -13.595  1.00  0.00    -0.003 C 
ATOM     16  C   UNL     1    -116.718  31.594 -12.949  1.00  0.00     0.004 C 
ENDBRANCH  14  15
ENDBRANCH  13  14
ENDBRANCH  12  13
ENDBRANCH  11  12
ENDBRANCH  10  11
ENDBRANCH   1  10
TORSDOF 12
ENDMDL
