MODEL 1
REMARK VINA RESULT:     5.410      0.000      0.000
REMARK INTER + INTRA:           9.360
REMARK INTER:                   9.838
REMARK INTRA:                  -0.478
REMARK UNBOUND:                -0.478
REMARK SMILES CCCCCCCCCCCCCCCC(=O)[O-]
REMARK SMILES IDX 9 1 10 2 11 3 12 4 13 5 14 6 15 7 16 8 17 9 18 10 8 11 7 12
REMARK SMILES IDX 6 13 5 14 4 15 3 16 2 17 1 18
REMARK H PARENT
REMARK Flexibility Score: inf
ROOT
ATOM      1  C   UNL     1      -1.374 -18.974 -25.468  1.00  0.00     0.000 C 
ENDROOT
BRANCH   1   2
ATOM      2  C   UNL     1      -1.384 -17.680 -26.305  1.00  0.00     0.000 C 
BRANCH   2   3
ATOM      3  C   UNL     1      -1.820 -16.410 -25.553  1.00  0.00     0.000 C 
BRANCH   3   4
ATOM      4  C   UNL     1      -1.456 -15.116 -26.301  1.00  0.00     0.000 C 
BRANCH   4   5
ATOM      5  C   UNL     1      -0.190 -15.256 -27.164  1.00  0.00     0.000 C 
BRANCH   5   6
ATOM      6  C   UNL     1       0.105 -14.072 -28.107  1.00  0.00     0.006 C 
BRANCH   6   7
ATOM      7  C   UNL     1      -0.969 -12.968 -28.086  1.00  0.00     0.053 C 
BRANCH   7   8
ATOM      8  C   UNL     1      -0.430 -11.647 -27.624  1.00  0.00     0.041 C 
ATOM      9  O   UNL     1       0.628 -11.182 -28.125  1.00  0.00    -0.550 OA
ATOM     10  O   UNL     1      -1.120 -10.907 -26.671  1.00  0.00    -0.550 OA
ENDBRANCH   7   8
ENDBRANCH   6   7
ENDBRANCH   5   6
ENDBRANCH   4   5
ENDBRANCH   3   4
ENDBRANCH   2   3
ENDBRANCH   1   2
BRANCH   1  11
ATOM     11  C   UNL     1      -0.069 -19.773 -25.616  1.00  0.00     0.000 C 
BRANCH  11  12
ATOM     12  C   UNL     1      -0.288 -21.170 -26.229  1.00  0.00    -0.000 C 
BRANCH  12  13
ATOM     13  C   UNL     1      -0.299 -22.332 -25.217  1.00  0.00    -0.000 C 
BRANCH  13  14
ATOM     14  C   UNL     1       0.940 -23.248 -25.261  1.00  0.00    -0.000 C 
BRANCH  14  15
ATOM     15  C   UNL     1       0.603 -24.739 -25.476  1.00  0.00    -0.000 C 
BRANCH  15  16
ATOM     16  C   UNL     1       1.862 -25.617 -25.565  1.00  0.00    -0.000 C 
BRANCH  16  17
ATOM     17  C   UNL     1       2.012 -26.559 -24.359  1.00  0.00    -0.003 C 
ATOM     18  C   UNL     1       2.848 -27.798 -24.676  1.00  0.00     0.004 C 
ENDBRANCH  16  17
ENDBRANCH  15  16
ENDBRANCH  14  15
ENDBRANCH  13  14
ENDBRANCH  12  13
ENDBRANCH  11  12
ENDBRANCH   1  11
TORSDOF 14
ENDMDL
MODEL 2
REMARK VINA RESULT:     5.737      1.177      2.105
REMARK INTER + INTRA:           9.956
REMARK INTER:                  10.371
REMARK INTRA:                  -0.415
REMARK UNBOUND:                -0.478
REMARK SMILES CCCCCCCCCCCCCCCC(=O)[O-]
REMARK SMILES IDX 9 1 10 2 11 3 12 4 13 5 14 6 15 7 16 8 17 9 18 10 8 11 7 12
REMARK SMILES IDX 6 13 5 14 4 15 3 16 2 17 1 18
REMARK H PARENT
REMARK Flexibility Score: inf
ROOT
ATOM      1  C   UNL     1       0.256 -20.470 -25.989  1.00  0.00     0.000 C 
ENDROOT
BRANCH   1   2
ATOM      2  C   UNL     1      -0.941 -19.569 -25.629  1.00  0.00     0.000 C 
BRANCH   2   3
ATOM      3  C   UNL     1      -0.749 -18.069 -25.919  1.00  0.00     0.000 C 
BRANCH   3   4
ATOM      4  C   UNL     1      -2.046 -17.257 -25.760  1.00  0.00     0.000 C 
BRANCH   4   5
ATOM      5  C   UNL     1      -1.916 -15.810 -26.264  1.00  0.00     0.000 C 
BRANCH   5   6
ATOM      6  C   UNL     1      -0.705 -15.532 -27.176  1.00  0.00     0.006 C 
BRANCH   6   7
ATOM      7  C   UNL     1      -0.104 -14.123 -27.013  1.00  0.00     0.053 C 
BRANCH   7   8
ATOM      8  C   UNL     1      -1.138 -13.041 -27.098  1.00  0.00     0.041 C 
ATOM      9  O   UNL     1      -1.860 -12.930 -28.125  1.00  0.00    -0.550 OA
ATOM     10  O   UNL     1      -1.336 -12.179 -26.027  1.00  0.00    -0.550 OA
ENDBRANCH   7   8
ENDBRANCH   6   7
ENDBRANCH   5   6
ENDBRANCH   4   5
ENDBRANCH   3   4
ENDBRANCH   2   3
ENDBRANCH   1   2
BRANCH   1  11
ATOM     11  C   UNL     1       0.500 -21.584 -24.957  1.00  0.00     0.000 C 
BRANCH  11  12
ATOM     12  C   UNL     1       0.091 -22.977 -25.471  1.00  0.00    -0.000 C 
BRANCH  12  13
ATOM     13  C   UNL     1       1.161 -24.074 -25.304  1.00  0.00    -0.000 C 
BRANCH  13  14
ATOM     14  C   UNL     1       0.657 -25.516 -25.506  1.00  0.00    -0.000 C 
BRANCH  14  15
ATOM     15  C   UNL     1       1.785 -26.543 -25.736  1.00  0.00    -0.000 C 
BRANCH  15  16
ATOM     16  C   UNL     1       2.388 -27.056 -24.417  1.00  0.00    -0.000 C 
BRANCH  16  17
ATOM     17  C   UNL     1       3.688 -27.847 -24.629  1.00  0.00    -0.003 C 
ATOM     18  C   UNL     1       4.576 -27.873 -23.387  1.00  0.00     0.004 C 
ENDBRANCH  16  17
ENDBRANCH  15  16
ENDBRANCH  14  15
ENDBRANCH  13  14
ENDBRANCH  12  13
ENDBRANCH  11  12
ENDBRANCH   1  11
TORSDOF 14
ENDMDL
MODEL 3
REMARK VINA RESULT:     8.225     13.155     14.819
REMARK INTER + INTRA:          14.480
REMARK INTER:                  14.755
REMARK INTRA:                  -0.276
REMARK UNBOUND:                -0.478
REMARK SMILES CCCCCCCCCCCCCCCC(=O)[O-]
REMARK SMILES IDX 9 1 10 2 11 3 12 4 13 5 14 6 15 7 16 8 17 9 18 10 8 11 7 12
REMARK SMILES IDX 6 13 5 14 4 15 3 16 2 17 1 18
REMARK H PARENT
REMARK Flexibility Score: inf
ROOT
ATOM      1  C   UNL     1       8.263 -24.801 -18.022  1.00  0.00     0.000 C 
ENDROOT
BRANCH   1   2
ATOM      2  C   UNL     1       7.150 -25.640 -17.366  1.00  0.00     0.000 C 
BRANCH   2   3
ATOM      3  C   UNL     1       6.545 -25.045 -16.081  1.00  0.00     0.000 C 
BRANCH   3   4
ATOM      4  C   UNL     1       5.014 -25.189 -16.017  1.00  0.00     0.000 C 
BRANCH   4   5
ATOM      5  C   UNL     1       4.513 -25.670 -14.645  1.00  0.00     0.000 C 
BRANCH   5   6
ATOM      6  C   UNL     1       4.116 -24.557 -13.655  1.00  0.00     0.006 C 
BRANCH   6   7
ATOM      7  C   UNL     1       5.300 -23.961 -12.870  1.00  0.00     0.053 C 
BRANCH   7   8
ATOM      8  C   UNL     1       5.902 -22.769 -13.550  1.00  0.00     0.041 C 
ATOM      9  O   UNL     1       7.030 -22.334 -13.192  1.00  0.00    -0.550 OA
ATOM     10  O   UNL     1       5.239 -22.160 -14.609  1.00  0.00    -0.550 OA
ENDBRANCH   7   8
ENDBRANCH   6   7
ENDBRANCH   5   6
ENDBRANCH   4   5
ENDBRANCH   3   4
ENDBRANCH   2   3
ENDBRANCH   1   2
BRANCH   1  11
ATOM     11  C   UNL     1       8.159 -24.760 -19.556  1.00  0.00     0.000 C 
BRANCH  11  12
ATOM     12  C   UNL     1       9.534 -24.732 -20.249  1.00  0.00    -0.000 C 
BRANCH  12  13
ATOM     13  C   UNL     1       9.589 -23.916 -21.556  1.00  0.00    -0.000 C 
BRANCH  13  14
ATOM     14  C   UNL     1      10.847 -24.143 -22.416  1.00  0.00    -0.000 C 
BRANCH  14  15
ATOM     15  C   UNL     1      10.945 -23.200 -23.635  1.00  0.00    -0.000 C 
BRANCH  15  16
ATOM     16  C   UNL     1      12.401 -22.944 -24.060  1.00  0.00    -0.000 C 
BRANCH  16  17
ATOM     17  C   UNL     1      12.624 -23.161 -25.565  1.00  0.00    -0.003 C 
ATOM     18  C   UNL     1      13.968 -23.816 -25.876  1.00  0.00     0.004 C 
ENDBRANCH  16  17
ENDBRANCH  15  16
ENDBRANCH  14  15
ENDBRANCH  13  14
ENDBRANCH  12  13
ENDBRANCH  11  12
ENDBRANCH   1  11
TORSDOF 14
ENDMDL
MODEL 4
REMARK VINA RESULT:     8.301     13.219     14.779
REMARK INTER + INTRA:          14.617
REMARK INTER:                  14.872
REMARK INTRA:                  -0.255
REMARK UNBOUND:                -0.478
REMARK SMILES CCCCCCCCCCCCCCCC(=O)[O-]
REMARK SMILES IDX 9 1 10 2 11 3 12 4 13 5 14 6 15 7 16 8 17 9 18 10 8 11 7 12
REMARK SMILES IDX 6 13 5 14 4 15 3 16 2 17 1 18
REMARK H PARENT
REMARK Flexibility Score: inf
ROOT
ATOM      1  C   UNL     1       7.993 -25.079 -17.716  1.00  0.00     0.000 C 
ENDROOT
BRANCH   1   2
ATOM      2  C   UNL     1       6.874 -25.830 -16.970  1.00  0.00     0.000 C 
BRANCH   2   3
ATOM      3  C   UNL     1       6.114 -25.005 -15.914  1.00  0.00     0.000 C 
BRANCH   3   4
ATOM      4  C   UNL     1       4.670 -25.489 -15.702  1.00  0.00     0.000 C 
BRANCH   4   5
ATOM      5  C   UNL     1       4.314 -25.688 -14.219  1.00  0.00     0.000 C 
BRANCH   5   6
ATOM      6  C   UNL     1       3.961 -24.404 -13.442  1.00  0.00     0.006 C 
BRANCH   6   7
ATOM      7  C   UNL     1       5.158 -23.755 -12.722  1.00  0.00     0.053 C 
BRANCH   7   8
ATOM      8  C   UNL     1       5.864 -22.742 -13.572  1.00  0.00     0.041 C 
ATOM      9  O   UNL     1       5.248 -22.147 -14.496  1.00  0.00    -0.550 OA
ATOM     10  O   UNL     1       7.192 -22.423 -13.319  1.00  0.00    -0.550 OA
ENDBRANCH   7   8
ENDBRANCH   6   7
ENDBRANCH   5   6
ENDBRANCH   4   5
ENDBRANCH   3   4
ENDBRANCH   2   3
ENDBRANCH   1   2
BRANCH   1  11
ATOM     11  C   UNL     1       7.971 -25.323 -19.234  1.00  0.00     0.000 C 
BRANCH  11  12
ATOM     12  C   UNL     1       8.843 -24.321 -20.015  1.00  0.00    -0.000 C 
BRANCH  12  13
ATOM     13  C   UNL     1      10.286 -24.788 -20.288  1.00  0.00    -0.000 C 
BRANCH  13  14
ATOM     14  C   UNL     1      10.697 -24.808 -21.773  1.00  0.00    -0.000 C 
BRANCH  14  15
ATOM     15  C   UNL     1      10.218 -23.574 -22.568  1.00  0.00    -0.000 C 
BRANCH  15  16
ATOM     16  C   UNL     1      11.347 -22.935 -23.392  1.00  0.00    -0.000 C 
BRANCH  16  17
ATOM     17  C   UNL     1      11.580 -23.652 -24.732  1.00  0.00    -0.003 C 
ATOM     18  C   UNL     1      12.908 -23.272 -25.385  1.00  0.00     0.004 C 
ENDBRANCH  16  17
ENDBRANCH  15  16
ENDBRANCH  14  15
ENDBRANCH  13  14
ENDBRANCH  12  13
ENDBRANCH  11  12
ENDBRANCH   1  11
TORSDOF 14
ENDMDL
