MODEL 1
REMARK VINA RESULT:    -3.578      0.000      0.000
REMARK INTER + INTRA:          -9.317
REMARK INTER:                  -8.181
REMARK INTRA:                  -1.137
REMARK UNBOUND:                -1.137
REMARK SMILES CCCCCCCCCCCCCCCCCCCCCCCC(=O)[O-]
REMARK SMILES IDX 13 1 14 2 15 3 16 4 17 5 18 6 19 7 20 8 21 9 22 10 23 11
REMARK SMILES IDX 24 12 25 13 26 14 12 15 11 16 10 17 9 18 8 19 7 20 6 21 5 22
REMARK SMILES IDX 4 23 3 24 2 25 1 26
REMARK H PARENT
REMARK Flexibility Score: inf
ROOT
ATOM      1  C   UNL     1      22.293  65.137  16.171  1.00  0.00     0.000 C 
ENDROOT
BRANCH   1   2
ATOM      2  C   UNL     1      23.496  66.093  16.149  1.00  0.00     0.000 C 
BRANCH   2   3
ATOM      3  C   UNL     1      24.833  65.341  15.977  1.00  0.00     0.000 C 
BRANCH   3   4
ATOM      4  C   UNL     1      26.014  66.005  16.706  1.00  0.00     0.000 C 
BRANCH   4   5
ATOM      5  C   UNL     1      27.257  65.102  16.772  1.00  0.00     0.000 C 
BRANCH   5   6
ATOM      6  C   UNL     1      27.737  64.863  18.213  1.00  0.00     0.000 C 
BRANCH   6   7
ATOM      7  C   UNL     1      28.996  65.677  18.561  1.00  0.00     0.000 C 
BRANCH   7   8
ATOM      8  C   UNL     1      30.226  64.785  18.795  1.00  0.00     0.000 C 
BRANCH   8   9
ATOM      9  C   UNL     1      31.126  65.307  19.929  1.00  0.00     0.000 C 
BRANCH   9  10
ATOM     10  C   UNL     1      31.938  64.194  20.615  1.00  0.00     0.006 C 
BRANCH  10  11
ATOM     11  C   UNL     1      31.979  62.873  19.823  1.00  0.00     0.053 C 
BRANCH  11  12
ATOM     12  C   UNL     1      32.498  61.729  20.640  1.00  0.00     0.041 C 
ATOM     13  O   UNL     1      32.694  60.606  20.106  1.00  0.00    -0.550 OA
ATOM     14  O   UNL     1      32.734  61.892  22.001  1.00  0.00    -0.550 OA
ENDBRANCH  11  12
ENDBRANCH  10  11
ENDBRANCH   9  10
ENDBRANCH   8   9
ENDBRANCH   7   8
ENDBRANCH   6   7
ENDBRANCH   5   6
ENDBRANCH   4   5
ENDBRANCH   3   4
ENDBRANCH   2   3
ENDBRANCH   1   2
BRANCH   1  15
ATOM     15  C   UNL     1      20.948  65.864  16.006  1.00  0.00     0.000 C 
BRANCH  15  16
ATOM     16  C   UNL     1      20.134  65.391  14.783  1.00  0.00     0.000 C 
BRANCH  16  17
ATOM     17  C   UNL     1      18.659  65.825  14.863  1.00  0.00     0.000 C 
BRANCH  17  18
ATOM     18  C   UNL     1      18.132  65.854  16.314  1.00  0.00    -0.000 C 
BRANCH  18  19
ATOM     19  C   UNL     1      16.598  65.747  16.423  1.00  0.00    -0.000 C 
BRANCH  19  20
ATOM     20  C   UNL     1      16.086  64.619  17.337  1.00  0.00    -0.000 C 
BRANCH  20  21
ATOM     21  C   UNL     1      14.623  64.820  17.769  1.00  0.00    -0.000 C 
BRANCH  21  22
ATOM     22  C   UNL     1      13.690  65.093  16.576  1.00  0.00    -0.000 C 
BRANCH  22  23
ATOM     23  C   UNL     1      13.652  63.924  15.578  1.00  0.00    -0.000 C 
BRANCH  23  24
ATOM     24  C   UNL     1      13.608  64.391  14.112  1.00  0.00    -0.000 C 
BRANCH  24  25
ATOM     25  C   UNL     1      14.533  65.576  13.780  1.00  0.00    -0.003 C 
ATOM     26  C   UNL     1      15.498  65.279  12.632  1.00  0.00     0.004 C 
ENDBRANCH  24  25
ENDBRANCH  23  24
ENDBRANCH  22  23
ENDBRANCH  21  22
ENDBRANCH  20  21
ENDBRANCH  19  20
ENDBRANCH  18  19
ENDBRANCH  17  18
ENDBRANCH  16  17
ENDBRANCH  15  16
ENDBRANCH   1  15
TORSDOF 22
ENDMDL
MODEL 2
REMARK VINA RESULT:    -2.892      5.733     14.366
REMARK INTER + INTRA:          -7.749
REMARK INTER:                  -6.970
REMARK INTRA:                  -0.779
REMARK UNBOUND:                -1.137
REMARK SMILES CCCCCCCCCCCCCCCCCCCCCCCC(=O)[O-]
REMARK SMILES IDX 13 1 14 2 15 3 16 4 17 5 18 6 19 7 20 8 21 9 22 10 23 11
REMARK SMILES IDX 24 12 25 13 26 14 12 15 11 16 10 17 9 18 8 19 7 20 6 21 5 22
REMARK SMILES IDX 4 23 3 24 2 25 1 26
REMARK H PARENT
REMARK Flexibility Score: inf
ROOT
ATOM      1  C   UNL     1      20.970  65.377  15.997  1.00  0.00     0.000 C 
ENDROOT
BRANCH   1   2
ATOM      2  C   UNL     1      20.350  65.968  14.720  1.00  0.00     0.000 C 
BRANCH   2   3
ATOM      3  C   UNL     1      18.813  66.067  14.814  1.00  0.00     0.000 C 
BRANCH   3   4
ATOM      4  C   UNL     1      18.259  65.784  16.221  1.00  0.00     0.000 C 
BRANCH   4   5
ATOM      5  C   UNL     1      16.746  66.036  16.329  1.00  0.00     0.000 C 
BRANCH   5   6
ATOM      6  C   UNL     1      15.957  64.755  16.645  1.00  0.00     0.000 C 
BRANCH   6   7
ATOM      7  C   UNL     1      15.080  64.895  17.902  1.00  0.00     0.000 C 
BRANCH   7   8
ATOM      8  C   UNL     1      13.578  64.895  17.575  1.00  0.00     0.000 C 
BRANCH   8   9
ATOM      9  C   UNL     1      13.272  65.539  16.211  1.00  0.00     0.000 C 
BRANCH   9  10
ATOM     10  C   UNL     1      13.066  64.505  15.089  1.00  0.00     0.006 C 
BRANCH  10  11
ATOM     11  C   UNL     1      13.174  65.094  13.671  1.00  0.00     0.053 C 
BRANCH  11  12
ATOM     12  C   UNL     1      14.195  64.387  12.831  1.00  0.00     0.041 C 
ATOM     13  O   UNL     1      13.917  63.286  12.289  1.00  0.00    -0.550 OA
ATOM     14  O   UNL     1      15.465  64.929  12.672  1.00  0.00    -0.550 OA
ENDBRANCH  11  12
ENDBRANCH  10  11
ENDBRANCH   9  10
ENDBRANCH   8   9
ENDBRANCH   7   8
ENDBRANCH   6   7
ENDBRANCH   5   6
ENDBRANCH   4   5
ENDBRANCH   3   4
ENDBRANCH   2   3
ENDBRANCH   1   2
BRANCH   1  15
ATOM     15  C   UNL     1      22.317  66.024  16.361  1.00  0.00     0.000 C 
BRANCH  15  16
ATOM     16  C   UNL     1      23.522  65.070  16.215  1.00  0.00     0.000 C 
BRANCH  16  17
ATOM     17  C   UNL     1      24.840  65.829  15.979  1.00  0.00     0.000 C 
BRANCH  17  18
ATOM     18  C   UNL     1      26.079  64.989  16.357  1.00  0.00    -0.000 C 
BRANCH  18  19
ATOM     19  C   UNL     1      27.165  65.781  17.109  1.00  0.00    -0.000 C 
BRANCH  19  20
ATOM     20  C   UNL     1      27.969  64.969  18.140  1.00  0.00    -0.000 C 
BRANCH  20  21
ATOM     21  C   UNL     1      29.304  65.637  18.516  1.00  0.00    -0.000 C 
BRANCH  21  22
ATOM     22  C   UNL     1      30.408  65.366  17.480  1.00  0.00    -0.000 C 
BRANCH  22  23
ATOM     23  C   UNL     1      31.446  64.346  17.976  1.00  0.00    -0.000 C 
BRANCH  23  24
ATOM     24  C   UNL     1      32.634  64.183  17.011  1.00  0.00    -0.000 C 
BRANCH  24  25
ATOM     25  C   UNL     1      32.584  62.924  16.126  1.00  0.00    -0.003 C 
ATOM     26  C   UNL     1      32.342  63.239  14.650  1.00  0.00     0.004 C 
ENDBRANCH  24  25
ENDBRANCH  23  24
ENDBRANCH  22  23
ENDBRANCH  21  22
ENDBRANCH  20  21
ENDBRANCH  19  20
ENDBRANCH  18  19
ENDBRANCH  17  18
ENDBRANCH  16  17
ENDBRANCH  15  16
ENDBRANCH   1  15
TORSDOF 22
ENDMDL
MODEL 3
REMARK VINA RESULT:    -2.628      5.934     14.934
REMARK INTER + INTRA:          -7.144
REMARK INTER:                  -6.143
REMARK INTRA:                  -1.001
REMARK UNBOUND:                -1.137
REMARK SMILES CCCCCCCCCCCCCCCCCCCCCCCC(=O)[O-]
REMARK SMILES IDX 13 1 14 2 15 3 16 4 17 5 18 6 19 7 20 8 21 9 22 10 23 11
REMARK SMILES IDX 24 12 25 13 26 14 12 15 11 16 10 17 9 18 8 19 7 20 6 21 5 22
REMARK SMILES IDX 4 23 3 24 2 25 1 26
REMARK H PARENT
REMARK Flexibility Score: inf
ROOT
ATOM      1  C   UNL     1      23.883  65.007  15.887  1.00  0.00     0.000 C 
ENDROOT
BRANCH   1   2
ATOM      2  C   UNL     1      22.464  65.148  16.462  1.00  0.00     0.000 C 
BRANCH   2   3
ATOM      3  C   UNL     1      21.598  66.122  15.636  1.00  0.00     0.000 C 
BRANCH   3   4
ATOM      4  C   UNL     1      20.261  65.518  15.170  1.00  0.00     0.000 C 
BRANCH   4   5
ATOM      5  C   UNL     1      19.048  66.125  15.893  1.00  0.00     0.000 C 
BRANCH   5   6
ATOM      6  C   UNL     1      17.806  65.221  15.821  1.00  0.00     0.000 C 
BRANCH   6   7
ATOM      7  C   UNL     1      16.538  65.915  16.349  1.00  0.00     0.000 C 
BRANCH   7   8
ATOM      8  C   UNL     1      15.324  65.699  15.429  1.00  0.00     0.000 C 
BRANCH   8   9
ATOM      9  C   UNL     1      14.207  64.888  16.107  1.00  0.00     0.000 C 
BRANCH   9  10
ATOM     10  C   UNL     1      13.353  64.086  15.108  1.00  0.00     0.006 C 
BRANCH  10  11
ATOM     11  C   UNL     1      13.405  64.628  13.668  1.00  0.00     0.053 C 
BRANCH  11  12
ATOM     12  C   UNL     1      13.344  63.538  12.641  1.00  0.00     0.041 C 
ATOM     13  O   UNL     1      13.431  62.332  12.991  1.00  0.00    -0.550 OA
ATOM     14  O   UNL     1      13.223  63.854  11.292  1.00  0.00    -0.550 OA
ENDBRANCH  11  12
ENDBRANCH  10  11
ENDBRANCH   9  10
ENDBRANCH   8   9
ENDBRANCH   7   8
ENDBRANCH   6   7
ENDBRANCH   5   6
ENDBRANCH   4   5
ENDBRANCH   3   4
ENDBRANCH   2   3
ENDBRANCH   1   2
BRANCH   1  15
ATOM     15  C   UNL     1      24.834  66.119  16.361  1.00  0.00     0.000 C 
BRANCH  15  16
ATOM     16  C   UNL     1      26.102  65.592  17.064  1.00  0.00     0.000 C 
BRANCH  16  17
ATOM     17  C   UNL     1      27.136  65.042  16.064  1.00  0.00     0.000 C 
BRANCH  17  18
ATOM     18  C   UNL     1      28.582  65.433  16.438  1.00  0.00    -0.000 C 
BRANCH  18  19
ATOM     19  C   UNL     1      28.835  65.512  17.956  1.00  0.00    -0.000 C 
BRANCH  19  20
ATOM     20  C   UNL     1      30.095  64.778  18.448  1.00  0.00    -0.000 C 
BRANCH  20  21
ATOM     21  C   UNL     1      31.393  65.374  17.876  1.00  0.00    -0.000 C 
BRANCH  21  22
ATOM     22  C   UNL     1      32.563  65.299  18.873  1.00  0.00    -0.000 C 
BRANCH  22  23
ATOM     23  C   UNL     1      32.103  64.939  20.295  1.00  0.00    -0.000 C 
BRANCH  23  24
ATOM     24  C   UNL     1      32.803  63.685  20.850  1.00  0.00    -0.000 C 
BRANCH  24  25
ATOM     25  C   UNL     1      32.293  62.350  20.279  1.00  0.00    -0.003 C 
ATOM     26  C   UNL     1      32.488  61.174  21.237  1.00  0.00     0.004 C 
ENDBRANCH  24  25
ENDBRANCH  23  24
ENDBRANCH  22  23
ENDBRANCH  21  22
ENDBRANCH  20  21
ENDBRANCH  19  20
ENDBRANCH  18  19
ENDBRANCH  17  18
ENDBRANCH  16  17
ENDBRANCH  15  16
ENDBRANCH   1  15
TORSDOF 22
ENDMDL
MODEL 4
REMARK VINA RESULT:    -2.498      1.044      2.060
REMARK INTER + INTRA:          -6.847
REMARK INTER:                  -6.328
REMARK INTRA:                  -0.519
REMARK UNBOUND:                -1.137
REMARK SMILES CCCCCCCCCCCCCCCCCCCCCCCC(=O)[O-]
REMARK SMILES IDX 13 1 14 2 15 3 16 4 17 5 18 6 19 7 20 8 21 9 22 10 23 11
REMARK SMILES IDX 24 12 25 13 26 14 12 15 11 16 10 17 9 18 8 19 7 20 6 21 5 22
REMARK SMILES IDX 4 23 3 24 2 25 1 26
REMARK H PARENT
REMARK Flexibility Score: inf
ROOT
ATOM      1  C   UNL     1      24.506  65.494  15.839  1.00  0.00     0.000 C 
ENDROOT
BRANCH   1   2
ATOM      2  C   UNL     1      25.620  65.461  16.897  1.00  0.00     0.000 C 
BRANCH   2   3
ATOM      3  C   UNL     1      26.979  65.045  16.297  1.00  0.00     0.000 C 
BRANCH   3   4
ATOM      4  C   UNL     1      28.088  64.858  17.346  1.00  0.00     0.000 C 
BRANCH   4   5
ATOM      5  C   UNL     1      29.357  65.666  17.025  1.00  0.00     0.000 C 
BRANCH   5   6
ATOM      6  C   UNL     1      30.561  64.767  16.700  1.00  0.00     0.000 C 
BRANCH   6   7
ATOM      7  C   UNL     1      31.675  64.866  17.758  1.00  0.00     0.000 C 
BRANCH   7   8
ATOM      8  C   UNL     1      31.226  65.629  19.015  1.00  0.00     0.000 C 
BRANCH   8   9
ATOM      9  C   UNL     1      31.471  64.831  20.308  1.00  0.00     0.000 C 
BRANCH   9  10
ATOM     10  C   UNL     1      32.735  63.953  20.243  1.00  0.00     0.006 C 
BRANCH  10  11
ATOM     11  C   UNL     1      32.478  62.526  19.726  1.00  0.00     0.053 C 
BRANCH  11  12
ATOM     12  C   UNL     1      32.626  61.490  20.800  1.00  0.00     0.041 C 
ATOM     13  O   UNL     1      32.351  60.286  20.560  1.00  0.00    -0.550 OA
ATOM     14  O   UNL     1      33.036  61.860  22.075  1.00  0.00    -0.550 OA
ENDBRANCH  11  12
ENDBRANCH  10  11
ENDBRANCH   9  10
ENDBRANCH   8   9
ENDBRANCH   7   8
ENDBRANCH   6   7
ENDBRANCH   5   6
ENDBRANCH   4   5
ENDBRANCH   3   4
ENDBRANCH   2   3
ENDBRANCH   1   2
BRANCH   1  15
ATOM     15  C   UNL     1      23.204  66.125  16.361  1.00  0.00     0.000 C 
BRANCH  15  16
ATOM     16  C   UNL     1      21.939  65.313  16.011  1.00  0.00     0.000 C 
BRANCH  16  17
ATOM     17  C   UNL     1      20.976  66.098  15.102  1.00  0.00     0.000 C 
BRANCH  17  18
ATOM     18  C   UNL     1      19.568  65.467  15.051  1.00  0.00    -0.000 C 
BRANCH  18  19
ATOM     19  C   UNL     1      18.902  65.314  16.432  1.00  0.00    -0.000 C 
BRANCH  19  20
ATOM     20  C   UNL     1      17.421  65.726  16.493  1.00  0.00    -0.000 C 
BRANCH  20  21
ATOM     21  C   UNL     1      16.522  64.633  17.096  1.00  0.00    -0.000 C 
BRANCH  21  22
ATOM     22  C   UNL     1      15.293  65.214  17.817  1.00  0.00    -0.000 C 
BRANCH  22  23
ATOM     23  C   UNL     1      14.172  65.613  16.843  1.00  0.00    -0.000 C 
BRANCH  23  24
ATOM     24  C   UNL     1      14.288  64.910  15.478  1.00  0.00    -0.000 C 
BRANCH  24  25
ATOM     25  C   UNL     1      13.240  63.812  15.223  1.00  0.00    -0.003 C 
ATOM     26  C   UNL     1      13.230  63.318  13.776  1.00  0.00     0.004 C 
ENDBRANCH  24  25
ENDBRANCH  23  24
ENDBRANCH  22  23
ENDBRANCH  21  22
ENDBRANCH  20  21
ENDBRANCH  19  20
ENDBRANCH  18  19
ENDBRANCH  17  18
ENDBRANCH  16  17
ENDBRANCH  15  16
ENDBRANCH   1  15
TORSDOF 22
ENDMDL
MODEL 5
REMARK VINA RESULT:    -2.482      1.665      2.261
REMARK INTER + INTRA:          -6.811
REMARK INTER:                  -5.572
REMARK INTRA:                  -1.238
REMARK UNBOUND:                -1.137
REMARK SMILES CCCCCCCCCCCCCCCCCCCCCCCC(=O)[O-]
REMARK SMILES IDX 13 1 14 2 15 3 16 4 17 5 18 6 19 7 20 8 21 9 22 10 23 11
REMARK SMILES IDX 24 12 25 13 26 14 12 15 11 16 10 17 9 18 8 19 7 20 6 21 5 22
REMARK SMILES IDX 4 23 3 24 2 25 1 26
REMARK H PARENT
REMARK Flexibility Score: inf
ROOT
ATOM      1  C   UNL     1      23.710  65.130  16.451  1.00  0.00     0.000 C 
ENDROOT
BRANCH   1   2
ATOM      2  C   UNL     1      25.051  65.729  15.994  1.00  0.00     0.000 C 
BRANCH   2   3
ATOM      3  C   UNL     1      26.152  64.656  15.864  1.00  0.00     0.000 C 
BRANCH   3   4
ATOM      4  C   UNL     1      27.465  65.027  16.575  1.00  0.00     0.000 C 
BRANCH   4   5
ATOM      5  C   UNL     1      27.236  65.735  17.920  1.00  0.00     0.000 C 
BRANCH   5   6
ATOM      6  C   UNL     1      28.551  66.079  18.638  1.00  0.00     0.000 C 
BRANCH   6   7
ATOM      7  C   UNL     1      29.696  65.119  18.266  1.00  0.00     0.000 C 
BRANCH   7   8
ATOM      8  C   UNL     1      31.042  65.547  18.873  1.00  0.00     0.000 C 
BRANCH   8   9
ATOM      9  C   UNL     1      31.927  64.347  19.252  1.00  0.00     0.000 C 
BRANCH   9  10
ATOM     10  C   UNL     1      32.002  64.109  20.771  1.00  0.00     0.006 C 
BRANCH  10  11
ATOM     11  C   UNL     1      31.164  65.100  21.600  1.00  0.00     0.053 C 
BRANCH  11  12
ATOM     12  C   UNL     1      31.649  65.222  23.013  1.00  0.00     0.041 C 
ATOM     13  O   UNL     1      32.883  65.233  23.261  1.00  0.00    -0.550 OA
ATOM     14  O   UNL     1      30.738  65.291  24.061  1.00  0.00    -0.550 OA
ENDBRANCH  11  12
ENDBRANCH  10  11
ENDBRANCH   9  10
ENDBRANCH   8   9
ENDBRANCH   7   8
ENDBRANCH   6   7
ENDBRANCH   5   6
ENDBRANCH   4   5
ENDBRANCH   3   4
ENDBRANCH   2   3
ENDBRANCH   1   2
BRANCH   1  15
ATOM     15  C   UNL     1      22.514  66.049  16.156  1.00  0.00     0.000 C 
BRANCH  15  16
ATOM     16  C   UNL     1      21.302  65.313  15.546  1.00  0.00     0.000 C 
BRANCH  16  17
ATOM     17  C   UNL     1      19.962  65.917  16.005  1.00  0.00     0.000 C 
BRANCH  17  18
ATOM     18  C   UNL     1      18.954  66.062  14.845  1.00  0.00    -0.000 C 
BRANCH  18  19
ATOM     19  C   UNL     1      17.482  65.919  15.275  1.00  0.00    -0.000 C 
BRANCH  19  20
ATOM     20  C   UNL     1      17.259  65.713  16.784  1.00  0.00    -0.000 C 
BRANCH  20  21
ATOM     21  C   UNL     1      16.311  64.541  17.092  1.00  0.00    -0.000 C 
BRANCH  21  22
ATOM     22  C   UNL     1      15.109  64.968  17.952  1.00  0.00    -0.000 C 
BRANCH  22  23
ATOM     23  C   UNL     1      13.791  64.974  17.161  1.00  0.00    -0.000 C 
BRANCH  23  24
ATOM     24  C   UNL     1      13.880  64.182  15.844  1.00  0.00    -0.000 C 
BRANCH  24  25
ATOM     25  C   UNL     1      13.873  65.043  14.567  1.00  0.00    -0.003 C 
ATOM     26  C   UNL     1      13.511  64.249  13.312  1.00  0.00     0.004 C 
ENDBRANCH  24  25
ENDBRANCH  23  24
ENDBRANCH  22  23
ENDBRANCH  21  22
ENDBRANCH  20  21
ENDBRANCH  19  20
ENDBRANCH  18  19
ENDBRANCH  17  18
ENDBRANCH  16  17
ENDBRANCH  15  16
ENDBRANCH   1  15
TORSDOF 22
ENDMDL
MODEL 6
REMARK VINA RESULT:    -2.215      1.411      2.063
REMARK INTER + INTRA:          -6.201
REMARK INTER:                  -4.781
REMARK INTRA:                  -1.420
REMARK UNBOUND:                -1.137
REMARK SMILES CCCCCCCCCCCCCCCCCCCCCCCC(=O)[O-]
REMARK SMILES IDX 13 1 14 2 15 3 16 4 17 5 18 6 19 7 20 8 21 9 22 10 23 11
REMARK SMILES IDX 24 12 25 13 26 14 12 15 11 16 10 17 9 18 8 19 7 20 6 21 5 22
REMARK SMILES IDX 4 23 3 24 2 25 1 26
REMARK H PARENT
REMARK Flexibility Score: inf
ROOT
ATOM      1  C   UNL     1      21.279  65.451  15.534  1.00  0.00     0.000 C 
ENDROOT
BRANCH   1   2
ATOM      2  C   UNL     1      22.327  65.895  16.568  1.00  0.00     0.000 C 
BRANCH   2   3
ATOM      3  C   UNL     1      23.730  66.050  15.944  1.00  0.00     0.000 C 
BRANCH   3   4
ATOM      4  C   UNL     1      24.755  65.027  16.464  1.00  0.00     0.000 C 
BRANCH   4   5
ATOM      5  C   UNL     1      26.208  65.501  16.295  1.00  0.00     0.000 C 
BRANCH   5   6
ATOM      6  C   UNL     1      26.778  66.125  17.579  1.00  0.00     0.000 C 
BRANCH   6   7
ATOM      7  C   UNL     1      28.250  65.744  17.820  1.00  0.00     0.000 C 
BRANCH   7   8
ATOM      8  C   UNL     1      28.862  64.986  16.631  1.00  0.00     0.000 C 
BRANCH   8   9
ATOM      9  C   UNL     1      30.400  64.962  16.676  1.00  0.00     0.000 C 
BRANCH   9  10
ATOM     10  C   UNL     1      30.969  65.400  18.038  1.00  0.00     0.006 C 
BRANCH  10  11
ATOM     11  C   UNL     1      32.376  64.847  18.333  1.00  0.00     0.053 C 
BRANCH  11  12
ATOM     12  C   UNL     1      32.356  63.396  18.709  1.00  0.00     0.041 C 
ATOM     13  O   UNL     1      31.716  63.013  19.723  1.00  0.00    -0.550 OA
ATOM     14  O   UNL     1      33.070  62.470  17.958  1.00  0.00    -0.550 OA
ENDBRANCH  11  12
ENDBRANCH  10  11
ENDBRANCH   9  10
ENDBRANCH   8   9
ENDBRANCH   7   8
ENDBRANCH   6   7
ENDBRANCH   5   6
ENDBRANCH   4   5
ENDBRANCH   3   4
ENDBRANCH   2   3
ENDBRANCH   1   2
BRANCH   1  15
ATOM     15  C   UNL     1      19.899  66.085  15.771  1.00  0.00     0.000 C 
BRANCH  15  16
ATOM     16  C   UNL     1      18.977  66.045  14.533  1.00  0.00     0.000 C 
BRANCH  16  17
ATOM     17  C   UNL     1      17.486  66.046  14.918  1.00  0.00     0.000 C 
BRANCH  17  18
ATOM     18  C   UNL     1      17.189  65.127  16.122  1.00  0.00    -0.000 C 
BRANCH  18  19
ATOM     19  C   UNL     1      16.101  65.671  17.068  1.00  0.00    -0.000 C 
BRANCH  19  20
ATOM     20  C   UNL     1      15.076  64.630  17.552  1.00  0.00    -0.000 C 
BRANCH  20  21
ATOM     21  C   UNL     1      13.661  64.886  17.005  1.00  0.00    -0.000 C 
BRANCH  21  22
ATOM     22  C   UNL     1      13.630  66.019  15.965  1.00  0.00    -0.000 C 
BRANCH  22  23
ATOM     23  C   UNL     1      12.901  65.614  14.673  1.00  0.00    -0.000 C 
BRANCH  23  24
ATOM     24  C   UNL     1      13.848  65.027  13.611  1.00  0.00    -0.000 C 
BRANCH  24  25
ATOM     25  C   UNL     1      13.193  64.029  12.638  1.00  0.00    -0.003 C 
ATOM     26  C   UNL     1      13.023  62.633  13.237  1.00  0.00     0.004 C 
ENDBRANCH  24  25
ENDBRANCH  23  24
ENDBRANCH  22  23
ENDBRANCH  21  22
ENDBRANCH  20  21
ENDBRANCH  19  20
ENDBRANCH  18  19
ENDBRANCH  17  18
ENDBRANCH  16  17
ENDBRANCH  15  16
ENDBRANCH   1  15
TORSDOF 22
ENDMDL
MODEL 7
REMARK VINA RESULT:    -2.144      6.095     14.827
REMARK INTER + INTRA:          -6.038
REMARK INTER:                  -5.132
REMARK INTRA:                  -0.906
REMARK UNBOUND:                -1.137
REMARK SMILES CCCCCCCCCCCCCCCCCCCCCCCC(=O)[O-]
REMARK SMILES IDX 13 1 14 2 15 3 16 4 17 5 18 6 19 7 20 8 21 9 22 10 23 11
REMARK SMILES IDX 24 12 25 13 26 14 12 15 11 16 10 17 9 18 8 19 7 20 6 21 5 22
REMARK SMILES IDX 4 23 3 24 2 25 1 26
REMARK H PARENT
REMARK Flexibility Score: inf
ROOT
ATOM      1  C   UNL     1      21.042  65.736  15.435  1.00  0.00     0.000 C 
ENDROOT
BRANCH   1   2
ATOM      2  C   UNL     1      19.974  65.699  16.541  1.00  0.00     0.000 C 
BRANCH   2   3
ATOM      3  C   UNL     1      18.582  65.325  15.993  1.00  0.00     0.000 C 
BRANCH   3   4
ATOM      4  C   UNL     1      17.430  65.632  16.966  1.00  0.00     0.000 C 
BRANCH   4   5
ATOM      5  C   UNL     1      16.059  65.193  16.425  1.00  0.00     0.000 C 
BRANCH   5   6
ATOM      6  C   UNL     1      15.121  64.690  17.534  1.00  0.00     0.000 C 
BRANCH   6   7
ATOM      7  C   UNL     1      13.776  65.438  17.556  1.00  0.00     0.000 C 
BRANCH   7   8
ATOM      8  C   UNL     1      12.875  65.061  16.368  1.00  0.00     0.000 C 
BRANCH   8   9
ATOM      9  C   UNL     1      12.985  66.063  15.205  1.00  0.00     0.000 C 
BRANCH   9  10
ATOM     10  C   UNL     1      13.405  65.402  13.879  1.00  0.00     0.006 C 
BRANCH  10  11
ATOM     11  C   UNL     1      13.220  63.873  13.857  1.00  0.00     0.053 C 
BRANCH  11  12
ATOM     12  C   UNL     1      13.222  63.314  12.467  1.00  0.00     0.041 C 
ATOM     13  O   UNL     1      13.508  64.050  11.487  1.00  0.00    -0.550 OA
ATOM     14  O   UNL     1      12.875  61.985  12.248  1.00  0.00    -0.550 OA
ENDBRANCH  11  12
ENDBRANCH  10  11
ENDBRANCH   9  10
ENDBRANCH   8   9
ENDBRANCH   7   8
ENDBRANCH   6   7
ENDBRANCH   5   6
ENDBRANCH   4   5
ENDBRANCH   3   4
ENDBRANCH   2   3
ENDBRANCH   1   2
BRANCH   1  15
ATOM     15  C   UNL     1      22.441  66.089  15.966  1.00  0.00     0.000 C 
BRANCH  15  16
ATOM     16  C   UNL     1      23.205  64.882  16.550  1.00  0.00     0.000 C 
BRANCH  16  17
ATOM     17  C   UNL     1      24.582  64.689  15.888  1.00  0.00     0.000 C 
BRANCH  17  18
ATOM     18  C   UNL     1      25.645  65.656  16.451  1.00  0.00    -0.000 C 
BRANCH  18  19
ATOM     19  C   UNL     1      27.096  65.225  16.163  1.00  0.00    -0.000 C 
BRANCH  19  20
ATOM     20  C   UNL     1      28.174  65.992  16.949  1.00  0.00    -0.000 C 
BRANCH  20  21
ATOM     21  C   UNL     1      28.814  65.146  18.064  1.00  0.00    -0.000 C 
BRANCH  21  22
ATOM     22  C   UNL     1      29.921  65.905  18.815  1.00  0.00    -0.000 C 
BRANCH  22  23
ATOM     23  C   UNL     1      31.287  65.206  18.714  1.00  0.00    -0.000 C 
BRANCH  23  24
ATOM     24  C   UNL     1      32.188  65.475  19.933  1.00  0.00    -0.000 C 
BRANCH  24  25
ATOM     25  C   UNL     1      32.403  64.265  20.860  1.00  0.00    -0.003 C 
ATOM     26  C   UNL     1      32.004  62.937  20.214  1.00  0.00     0.004 C 
ENDBRANCH  24  25
ENDBRANCH  23  24
ENDBRANCH  22  23
ENDBRANCH  21  22
ENDBRANCH  20  21
ENDBRANCH  19  20
ENDBRANCH  18  19
ENDBRANCH  17  18
ENDBRANCH  16  17
ENDBRANCH  15  16
ENDBRANCH   1  15
TORSDOF 22
ENDMDL
MODEL 8
REMARK VINA RESULT:    -2.107      2.027      3.142
REMARK INTER + INTRA:          -5.955
REMARK INTER:                  -4.759
REMARK INTRA:                  -1.196
REMARK UNBOUND:                -1.137
REMARK SMILES CCCCCCCCCCCCCCCCCCCCCCCC(=O)[O-]
REMARK SMILES IDX 13 1 14 2 15 3 16 4 17 5 18 6 19 7 20 8 21 9 22 10 23 11
REMARK SMILES IDX 24 12 25 13 26 14 12 15 11 16 10 17 9 18 8 19 7 20 6 21 5 22
REMARK SMILES IDX 4 23 3 24 2 25 1 26
REMARK H PARENT
REMARK Flexibility Score: inf
ROOT
ATOM      1  C   UNL     1      24.872  64.918  15.481  1.00  0.00     0.000 C 
ENDROOT
BRANCH   1   2
ATOM      2  C   UNL     1      25.760  65.955  16.189  1.00  0.00     0.000 C 
BRANCH   2   3
ATOM      3  C   UNL     1      27.029  65.319  16.792  1.00  0.00     0.000 C 
BRANCH   3   4
ATOM      4  C   UNL     1      28.321  66.090  16.471  1.00  0.00     0.000 C 
BRANCH   4   5
ATOM      5  C   UNL     1      29.588  65.244  16.676  1.00  0.00     0.000 C 
BRANCH   5   6
ATOM      6  C   UNL     1      30.250  64.841  15.349  1.00  0.00     0.000 C 
BRANCH   6   7
ATOM      7  C   UNL     1      30.619  63.347  15.301  1.00  0.00     0.000 C 
BRANCH   7   8
ATOM      8  C   UNL     1      32.064  63.114  14.829  1.00  0.00     0.000 C 
BRANCH   8   9
ATOM      9  C   UNL     1      33.088  63.277  15.966  1.00  0.00     0.000 C 
BRANCH   9  10
ATOM     10  C   UNL     1      32.467  63.113  17.365  1.00  0.00     0.006 C 
BRANCH  10  11
ATOM     11  C   UNL     1      33.075  64.043  18.431  1.00  0.00     0.053 C 
BRANCH  11  12
ATOM     12  C   UNL     1      32.444  63.862  19.779  1.00  0.00     0.041 C 
ATOM     13  O   UNL     1      31.866  64.828  20.343  1.00  0.00    -0.550 OA
ATOM     14  O   UNL     1      32.522  62.635  20.428  1.00  0.00    -0.550 OA
ENDBRANCH  11  12
ENDBRANCH  10  11
ENDBRANCH   9  10
ENDBRANCH   8   9
ENDBRANCH   7   8
ENDBRANCH   6   7
ENDBRANCH   5   6
ENDBRANCH   4   5
ENDBRANCH   3   4
ENDBRANCH   2   3
ENDBRANCH   1   2
BRANCH   1  15
ATOM     15  C   UNL     1      23.498  64.749  16.152  1.00  0.00     0.000 C 
BRANCH  15  16
ATOM     16  C   UNL     1      22.581  65.982  16.003  1.00  0.00     0.000 C 
BRANCH  16  17
ATOM     17  C   UNL     1      21.098  65.633  16.222  1.00  0.00     0.000 C 
BRANCH  17  18
ATOM     18  C   UNL     1      20.219  66.012  15.011  1.00  0.00    -0.000 C 
BRANCH  18  19
ATOM     19  C   UNL     1      19.003  65.087  14.808  1.00  0.00    -0.000 C 
BRANCH  19  20
ATOM     20  C   UNL     1      17.723  65.789  14.321  1.00  0.00    -0.000 C 
BRANCH  20  21
ATOM     21  C   UNL     1      16.754  66.125  15.468  1.00  0.00    -0.000 C 
BRANCH  21  22
ATOM     22  C   UNL     1      16.855  65.127  16.634  1.00  0.00    -0.000 C 
BRANCH  22  23
ATOM     23  C   UNL     1      15.486  64.558  17.043  1.00  0.00    -0.000 C 
BRANCH  23  24
ATOM     24  C   UNL     1      14.310  65.277  16.358  1.00  0.00    -0.000 C 
BRANCH  24  25
ATOM     25  C   UNL     1      13.089  64.387  16.061  1.00  0.00    -0.003 C 
ATOM     26  C   UNL     1      13.074  63.851  14.629  1.00  0.00     0.004 C 
ENDBRANCH  24  25
ENDBRANCH  23  24
ENDBRANCH  22  23
ENDBRANCH  21  22
ENDBRANCH  20  21
ENDBRANCH  19  20
ENDBRANCH  18  19
ENDBRANCH  17  18
ENDBRANCH  16  17
ENDBRANCH  15  16
ENDBRANCH   1  15
TORSDOF 22
ENDMDL
MODEL 9
REMARK VINA RESULT:    -1.216      1.587      3.213
REMARK INTER + INTRA:          -3.916
REMARK INTER:                  -2.794
REMARK INTRA:                  -1.122
REMARK UNBOUND:                -1.137
REMARK SMILES CCCCCCCCCCCCCCCCCCCCCCCC(=O)[O-]
REMARK SMILES IDX 13 1 14 2 15 3 16 4 17 5 18 6 19 7 20 8 21 9 22 10 23 11
REMARK SMILES IDX 24 12 25 13 26 14 12 15 11 16 10 17 9 18 8 19 7 20 6 21 5 22
REMARK SMILES IDX 4 23 3 24 2 25 1 26
REMARK H PARENT
REMARK Flexibility Score: inf
ROOT
ATOM      1  C   UNL     1      19.556  66.099  16.276  1.00  0.00     0.000 C 
ENDROOT
BRANCH   1   2
ATOM      2  C   UNL     1      20.557  65.406  15.336  1.00  0.00     0.000 C 
BRANCH   2   3
ATOM      3  C   UNL     1      21.985  65.968  15.493  1.00  0.00     0.000 C 
BRANCH   3   4
ATOM      4  C   UNL     1      22.829  65.228  16.545  1.00  0.00     0.000 C 
BRANCH   4   5
ATOM      5  C   UNL     1      24.243  64.889  16.044  1.00  0.00     0.000 C 
BRANCH   5   6
ATOM      6  C   UNL     1      25.273  65.970  16.411  1.00  0.00     0.000 C 
BRANCH   6   7
ATOM      7  C   UNL     1      26.719  65.445  16.379  1.00  0.00     0.000 C 
BRANCH   7   8
ATOM      8  C   UNL     1      27.518  65.847  17.631  1.00  0.00     0.000 C 
BRANCH   8   9
ATOM      9  C   UNL     1      29.017  66.031  17.339  1.00  0.00     0.000 C 
BRANCH   9  10
ATOM     10  C   UNL     1      29.885  66.018  18.611  1.00  0.00     0.006 C 
BRANCH  10  11
ATOM     11  C   UNL     1      30.397  64.620  19.002  1.00  0.00     0.053 C 
BRANCH  11  12
ATOM     12  C   UNL     1      31.608  64.678  19.884  1.00  0.00     0.041 C 
ATOM     13  O   UNL     1      31.480  64.719  21.135  1.00  0.00    -0.550 OA
ATOM     14  O   UNL     1      32.880  64.719  19.323  1.00  0.00    -0.550 OA
ENDBRANCH  11  12
ENDBRANCH  10  11
ENDBRANCH   9  10
ENDBRANCH   8   9
ENDBRANCH   7   8
ENDBRANCH   6   7
ENDBRANCH   5   6
ENDBRANCH   4   5
ENDBRANCH   3   4
ENDBRANCH   2   3
ENDBRANCH   1   2
BRANCH   1  15
ATOM     15  C   UNL     1      18.111  66.050  15.752  1.00  0.00     0.000 C 
BRANCH  15  16
ATOM     16  C   UNL     1      17.049  65.984  16.869  1.00  0.00     0.000 C 
BRANCH  16  17
ATOM     17  C   UNL     1      16.797  64.542  17.349  1.00  0.00     0.000 C 
BRANCH  17  18
ATOM     18  C   UNL     1      15.296  64.183  17.372  1.00  0.00    -0.000 C 
BRANCH  18  19
ATOM     19  C   UNL     1      14.366  65.399  17.551  1.00  0.00    -0.000 C 
BRANCH  19  20
ATOM     20  C   UNL     1      13.007  65.292  16.838  1.00  0.00    -0.000 C 
BRANCH  20  21
ATOM     21  C   UNL     1      12.943  66.125  15.546  1.00  0.00    -0.000 C 
BRANCH  21  22
ATOM     22  C   UNL     1      13.847  65.560  14.437  1.00  0.00    -0.000 C 
BRANCH  22  23
ATOM     23  C   UNL     1      13.190  65.628  13.049  1.00  0.00    -0.000 C 
BRANCH  23  24
ATOM     24  C   UNL     1      13.247  64.288  12.293  1.00  0.00    -0.000 C 
BRANCH  24  25
ATOM     25  C   UNL     1      13.443  63.049  13.184  1.00  0.00    -0.003 C 
ATOM     26  C   UNL     1      12.875  61.771  12.566  1.00  0.00     0.004 C 
ENDBRANCH  24  25
ENDBRANCH  23  24
ENDBRANCH  22  23
ENDBRANCH  21  22
ENDBRANCH  20  21
ENDBRANCH  19  20
ENDBRANCH  18  19
ENDBRANCH  17  18
ENDBRANCH  16  17
ENDBRANCH  15  16
ENDBRANCH   1  15
TORSDOF 22
ENDMDL
