MODEL 1
REMARK VINA RESULT:     9.997      0.000      0.000
REMARK INTER + INTRA:          11.614
REMARK INTER:                  11.751
REMARK INTRA:                  -0.136
REMARK UNBOUND:                -0.136
REMARK SMILES O=C([O-])C=Cc1ccc(O)c(O)c1
REMARK SMILES IDX 6 1 13 2 7 3 11 4 8 5 9 6 5 7 4 8 2 9 1 10 3 11 12 12 10 14
REMARK H PARENT 12 13 10 15
REMARK Flexibility Score: inf
ROOT
ATOM      1  C   UNL     1     -30.768  41.060 -23.114  1.00  0.00    -0.022 A 
ATOM      2  C   UNL     1     -29.412  41.074 -23.492  1.00  0.00     0.058 A 
ATOM      3  C   UNL     1     -31.091  41.092 -21.750  1.00  0.00     0.012 A 
ATOM      4  C   UNL     1     -28.396  41.094 -22.527  1.00  0.00     0.157 A 
ATOM      5  C   UNL     1     -30.084  41.108 -20.784  1.00  0.00     0.051 A 
ATOM      6  C   UNL     1     -28.736  41.105 -21.155  1.00  0.00     0.157 A 
ENDROOT
BRANCH   1   7
ATOM      7  C   UNL     1     -31.873  41.052 -24.105  1.00  0.00     0.010 C 
ATOM      8  C   UNL     1     -32.864  40.148 -24.109  1.00  0.00     0.025 C 
BRANCH   8   9
ATOM      9  C   UNL     1     -33.947  40.185 -25.103  1.00  0.00     0.064 C 
ATOM     10  O   UNL     1     -33.877  39.454 -26.125  1.00  0.00    -0.545 OA
ATOM     11  O   UNL     1     -35.048  41.016 -24.933  1.00  0.00    -0.545 OA
ENDBRANCH   8   9
ENDBRANCH   1   7
BRANCH   4  12
ATOM     12  O   UNL     1     -27.073  41.107 -22.975  1.00  0.00    -0.504 OA
ATOM     13  H   UNL     1     -26.756  41.616 -23.787  1.00  0.00     0.293 HD
ENDBRANCH   4  12
BRANCH   6  14
ATOM     14  O   UNL     1     -27.779  41.115 -20.139  1.00  0.00    -0.504 OA
ATOM     15  H   UNL     1     -27.723  41.825 -19.423  1.00  0.00     0.293 HD
ENDBRANCH   6  14
TORSDOF 4
ENDMDL
