MODEL 1
REMARK VINA RESULT:    -3.797      0.000      0.000
REMARK INTER + INTRA:         -15.515
REMARK INTER:                 -10.011
REMARK INTRA:                  -5.504
REMARK UNBOUND:                -5.504
REMARK SMILES CCCCCCCCCCCCCCCCCCCCCCCCCCCCCC(=O)[O-]
REMARK SMILES IDX 16 1 17 2 18 3 19 4 20 5 21 6 22 7 23 8 24 9 25 10 26 11
REMARK SMILES IDX 27 12 28 13 29 14 30 15 31 16 32 17 15 18 14 19 13 20 12 21
REMARK SMILES IDX 11 22 10 23 9 24 8 25 7 26 6 27 5 28 4 29 3 30 2 31 1 32
REMARK H PARENT
REMARK Flexibility Score: inf
ROOT
ATOM      1  C   UNL     1      16.642 127.499  54.747  1.00  0.00     0.000 C 
ENDROOT
BRANCH   1   2
ATOM      2  C   UNL     1      17.912 128.278  55.128  1.00  0.00     0.000 C 
BRANCH   2   3
ATOM      3  C   UNL     1      17.786 129.023  56.468  1.00  0.00     0.000 C 
BRANCH   3   4
ATOM      4  C   UNL     1      16.502 128.682  57.253  1.00  0.00     0.000 C 
BRANCH   4   5
ATOM      5  C   UNL     1      15.569 129.894  57.403  1.00  0.00     0.000 C 
BRANCH   5   6
ATOM      6  C   UNL     1      16.256 131.182  56.926  1.00  0.00     0.000 C 
BRANCH   6   7
ATOM      7  C   UNL     1      15.855 132.415  57.753  1.00  0.00     0.000 C 
BRANCH   7   8
ATOM      8  C   UNL     1      16.740 132.693  58.985  1.00  0.00     0.000 C 
BRANCH   8   9
ATOM      9  C   UNL     1      18.101 131.966  58.957  1.00  0.00     0.000 C 
BRANCH   9  10
ATOM     10  C   UNL     1      18.441 131.298  60.301  1.00  0.00     0.000 C 
BRANCH  10  11
ATOM     11  C   UNL     1      18.676 129.784  60.166  1.00  0.00     0.000 C 
BRANCH  11  12
ATOM     12  C   UNL     1      19.108 129.127  61.487  1.00  0.00     0.000 C 
BRANCH  12  13
ATOM     13  C   UNL     1      17.900 128.525  62.215  1.00  0.00     0.006 C 
BRANCH  13  14
ATOM     14  C   UNL     1      18.298 127.276  63.007  1.00  0.00     0.053 C 
BRANCH  14  15
ATOM     15  C   UNL     1      17.159 126.307  63.066  1.00  0.00     0.041 C 
ATOM     16  O   UNL     1      16.073 126.633  63.613  1.00  0.00    -0.550 OA
ATOM     17  O   UNL     1      17.318 125.021  62.564  1.00  0.00    -0.550 OA
ENDBRANCH  14  15
ENDBRANCH  13  14
ENDBRANCH  12  13
ENDBRANCH  11  12
ENDBRANCH  10  11
ENDBRANCH   9  10
ENDBRANCH   8   9
ENDBRANCH   7   8
ENDBRANCH   6   7
ENDBRANCH   5   6
ENDBRANCH   4   5
ENDBRANCH   3   4
ENDBRANCH   2   3
ENDBRANCH   1   2
BRANCH   1  18
ATOM     18  C   UNL     1      15.958 128.065  53.493  1.00  0.00     0.000 C 
BRANCH  18  19
ATOM     19  C   UNL     1      14.822 129.048  53.828  1.00  0.00     0.000 C 
BRANCH  19  20
ATOM     20  C   UNL     1      15.174 130.502  53.476  1.00  0.00     0.000 C 
BRANCH  20  21
ATOM     21  C   UNL     1      16.008 130.612  52.186  1.00  0.00     0.000 C 
BRANCH  21  22
ATOM     22  C   UNL     1      17.265 131.491  52.357  1.00  0.00     0.000 C 
BRANCH  22  23
ATOM     23  C   UNL     1      17.728 131.637  53.820  1.00  0.00     0.000 C 
BRANCH  23  24
ATOM     24  C   UNL     1      19.189 132.092  53.998  1.00  0.00    -0.000 C 
BRANCH  24  25
ATOM     25  C   UNL     1      19.691 132.127  55.457  1.00  0.00    -0.000 C 
BRANCH  25  26
ATOM     26  C   UNL     1      19.723 133.524  56.106  1.00  0.00    -0.000 C 
BRANCH  26  27
ATOM     27  C   UNL     1      18.461 134.351  55.804  1.00  0.00    -0.000 C 
BRANCH  27  28
ATOM     28  C   UNL     1      18.734 135.515  54.837  1.00  0.00    -0.000 C 
BRANCH  28  29
ATOM     29  C   UNL     1      17.759 135.544  53.648  1.00  0.00    -0.000 C 
BRANCH  29  30
ATOM     30  C   UNL     1      16.295 135.359  54.084  1.00  0.00    -0.000 C 
BRANCH  30  31
ATOM     31  C   UNL     1      15.473 134.558  53.062  1.00  0.00    -0.003 C 
ATOM     32  C   UNL     1      15.933 134.850  51.637  1.00  0.00     0.004 C 
ENDBRANCH  30  31
ENDBRANCH  29  30
ENDBRANCH  28  29
ENDBRANCH  27  28
ENDBRANCH  26  27
ENDBRANCH  25  26
ENDBRANCH  24  25
ENDBRANCH  23  24
ENDBRANCH  22  23
ENDBRANCH  21  22
ENDBRANCH  20  21
ENDBRANCH  19  20
ENDBRANCH  18  19
ENDBRANCH   1  18
TORSDOF 28
ENDMDL
MODEL 2
REMARK VINA RESULT:    -3.779      3.716      7.758
REMARK INTER + INTRA:         -15.468
REMARK INTER:                  -8.622
REMARK INTRA:                  -6.846
REMARK UNBOUND:                -5.504
REMARK SMILES CCCCCCCCCCCCCCCCCCCCCCCCCCCCCC(=O)[O-]
REMARK SMILES IDX 16 1 17 2 18 3 19 4 20 5 21 6 22 7 23 8 24 9 25 10 26 11
REMARK SMILES IDX 27 12 28 13 29 14 30 15 31 16 32 17 15 18 14 19 13 20 12 21
REMARK SMILES IDX 11 22 10 23 9 24 8 25 7 26 6 27 5 28 4 29 3 30 2 31 1 32
REMARK H PARENT
REMARK Flexibility Score: inf
ROOT
ATOM      1  C   UNL     1      15.120 132.911  55.641  1.00  0.00     0.000 C 
ENDROOT
BRANCH   1   2
ATOM      2  C   UNL     1      15.062 131.499  55.036  1.00  0.00     0.000 C 
BRANCH   2   3
ATOM      3  C   UNL     1      15.212 130.384  56.086  1.00  0.00     0.000 C 
BRANCH   3   4
ATOM      4  C   UNL     1      14.931 128.969  55.538  1.00  0.00     0.000 C 
BRANCH   4   5
ATOM      5  C   UNL     1      16.102 128.004  55.780  1.00  0.00     0.000 C 
BRANCH   5   6
ATOM      6  C   UNL     1      16.731 127.557  54.452  1.00  0.00     0.000 C 
BRANCH   6   7
ATOM      7  C   UNL     1      16.162 128.310  53.238  1.00  0.00     0.000 C 
BRANCH   7   8
ATOM      8  C   UNL     1      17.175 128.597  52.112  1.00  0.00     0.000 C 
BRANCH   8   9
ATOM      9  C   UNL     1      16.646 129.552  51.020  1.00  0.00     0.000 C 
BRANCH   9  10
ATOM     10  C   UNL     1      15.884 130.754  51.606  1.00  0.00     0.000 C 
BRANCH  10  11
ATOM     11  C   UNL     1      16.769 132.003  51.749  1.00  0.00     0.000 C 
BRANCH  11  12
ATOM     12  C   UNL     1      15.964 133.311  51.733  1.00  0.00     0.000 C 
BRANCH  12  13
ATOM     13  C   UNL     1      14.499 133.044  51.363  1.00  0.00     0.006 C 
BRANCH  13  14
ATOM     14  C   UNL     1      13.548 133.661  52.392  1.00  0.00     0.053 C 
BRANCH  14  15
ATOM     15  C   UNL     1      12.387 132.752  52.646  1.00  0.00     0.041 C 
ATOM     16  O   UNL     1      12.527 131.502  52.562  1.00  0.00    -0.550 OA
ATOM     17  O   UNL     1      11.136 133.287  52.924  1.00  0.00    -0.550 OA
ENDBRANCH  14  15
ENDBRANCH  13  14
ENDBRANCH  12  13
ENDBRANCH  11  12
ENDBRANCH  10  11
ENDBRANCH   9  10
ENDBRANCH   8   9
ENDBRANCH   7   8
ENDBRANCH   6   7
ENDBRANCH   5   6
ENDBRANCH   4   5
ENDBRANCH   3   4
ENDBRANCH   2   3
ENDBRANCH   1   2
BRANCH   1  18
ATOM     18  C   UNL     1      16.013 132.980  56.890  1.00  0.00     0.000 C 
BRANCH  18  19
ATOM     19  C   UNL     1      17.234 133.897  56.697  1.00  0.00     0.000 C 
BRANCH  19  20
ATOM     20  C   UNL     1      17.165 134.709  55.394  1.00  0.00     0.000 C 
BRANCH  20  21
ATOM     21  C   UNL     1      18.326 134.385  54.435  1.00  0.00     0.000 C 
BRANCH  21  22
ATOM     22  C   UNL     1      19.279 133.307  54.991  1.00  0.00     0.000 C 
BRANCH  22  23
ATOM     23  C   UNL     1      19.411 132.065  54.087  1.00  0.00     0.000 C 
BRANCH  23  24
ATOM     24  C   UNL     1      18.705 130.801  54.611  1.00  0.00    -0.000 C 
BRANCH  24  25
ATOM     25  C   UNL     1      19.640 129.726  55.204  1.00  0.00    -0.000 C 
BRANCH  25  26
ATOM     26  C   UNL     1      19.434 129.430  56.702  1.00  0.00    -0.000 C 
BRANCH  26  27
ATOM     27  C   UNL     1      18.607 130.514  57.415  1.00  0.00    -0.000 C 
BRANCH  27  28
ATOM     28  C   UNL     1      18.416 130.222  58.913  1.00  0.00    -0.000 C 
BRANCH  28  29
ATOM     29  C   UNL     1      17.077 129.531  59.220  1.00  0.00    -0.000 C 
BRANCH  29  30
ATOM     30  C   UNL     1      16.000 130.521  59.699  1.00  0.00    -0.000 C 
BRANCH  30  31
ATOM     31  C   UNL     1      14.600 129.890  59.751  1.00  0.00    -0.003 C 
ATOM     32  C   UNL     1      14.655 128.403  59.409  1.00  0.00     0.004 C 
ENDBRANCH  30  31
ENDBRANCH  29  30
ENDBRANCH  28  29
ENDBRANCH  27  28
ENDBRANCH  26  27
ENDBRANCH  25  26
ENDBRANCH  24  25
ENDBRANCH  23  24
ENDBRANCH  22  23
ENDBRANCH  21  22
ENDBRANCH  20  21
ENDBRANCH  19  20
ENDBRANCH  18  19
ENDBRANCH   1  18
TORSDOF 28
ENDMDL
MODEL 3
REMARK VINA RESULT:    -3.749      4.003      9.441
REMARK INTER + INTRA:         -15.390
REMARK INTER:                  -9.871
REMARK INTRA:                  -5.519
REMARK UNBOUND:                -5.504
REMARK SMILES CCCCCCCCCCCCCCCCCCCCCCCCCCCCCC(=O)[O-]
REMARK SMILES IDX 16 1 17 2 18 3 19 4 20 5 21 6 22 7 23 8 24 9 25 10 26 11
REMARK SMILES IDX 27 12 28 13 29 14 30 15 31 16 32 17 15 18 14 19 13 20 12 21
REMARK SMILES IDX 11 22 10 23 9 24 8 25 7 26 6 27 5 28 4 29 3 30 2 31 1 32
REMARK H PARENT
REMARK Flexibility Score: inf
ROOT
ATOM      1  C   UNL     1      14.866 128.318  59.549  1.00  0.00     0.000 C 
ENDROOT
BRANCH   1   2
ATOM      2  C   UNL     1      15.986 128.879  58.657  1.00  0.00     0.000 C 
BRANCH   2   3
ATOM      3  C   UNL     1      15.865 130.393  58.415  1.00  0.00     0.000 C 
BRANCH   3   4
ATOM      4  C   UNL     1      16.813 130.928  57.321  1.00  0.00     0.000 C 
BRANCH   4   5
ATOM      5  C   UNL     1      18.292 130.810  57.719  1.00  0.00     0.000 C 
BRANCH   5   6
ATOM      6  C   UNL     1      18.994 129.707  56.912  1.00  0.00     0.000 C 
BRANCH   6   7
ATOM      7  C   UNL     1      18.391 129.516  55.510  1.00  0.00     0.000 C 
BRANCH   7   8
ATOM      8  C   UNL     1      18.262 128.052  55.047  1.00  0.00     0.000 C 
BRANCH   8   9
ATOM      9  C   UNL     1      16.894 127.710  54.420  1.00  0.00     0.000 C 
BRANCH   9  10
ATOM     10  C   UNL     1      15.722 127.968  55.383  1.00  0.00     0.000 C 
BRANCH  10  11
ATOM     11  C   UNL     1      14.740 129.024  54.850  1.00  0.00     0.000 C 
BRANCH  11  12
ATOM     12  C   UNL     1      14.771 129.150  53.319  1.00  0.00     0.000 C 
BRANCH  12  13
ATOM     13  C   UNL     1      15.224 130.554  52.898  1.00  0.00     0.006 C 
BRANCH  13  14
ATOM     14  C   UNL     1      16.655 130.533  52.352  1.00  0.00     0.053 C 
BRANCH  14  15
ATOM     15  C   UNL     1      16.718 129.763  51.071  1.00  0.00     0.041 C 
ATOM     16  O   UNL     1      16.008 130.105  50.087  1.00  0.00    -0.550 OA
ATOM     17  O   UNL     1      17.522 128.634  50.980  1.00  0.00    -0.550 OA
ENDBRANCH  14  15
ENDBRANCH  13  14
ENDBRANCH  12  13
ENDBRANCH  11  12
ENDBRANCH  10  11
ENDBRANCH   9  10
ENDBRANCH   8   9
ENDBRANCH   7   8
ENDBRANCH   6   7
ENDBRANCH   5   6
ENDBRANCH   4   5
ENDBRANCH   3   4
ENDBRANCH   2   3
ENDBRANCH   1   2
BRANCH   1  18
ATOM     18  C   UNL     1      14.169 129.411  60.376  1.00  0.00     0.000 C 
BRANCH  18  19
ATOM     19  C   UNL     1      13.916 128.982  61.832  1.00  0.00     0.000 C 
BRANCH  19  20
ATOM     20  C   UNL     1      14.314 130.067  62.846  1.00  0.00     0.000 C 
BRANCH  20  21
ATOM     21  C   UNL     1      15.328 131.072  62.268  1.00  0.00     0.000 C 
BRANCH  21  22
ATOM     22  C   UNL     1      16.780 130.772  62.696  1.00  0.00     0.000 C 
BRANCH  22  23
ATOM     23  C   UNL     1      17.781 130.734  61.525  1.00  0.00     0.000 C 
BRANCH  23  24
ATOM     24  C   UNL     1      18.529 129.399  61.351  1.00  0.00    -0.000 C 
BRANCH  24  25
ATOM     25  C   UNL     1      18.869 128.663  62.664  1.00  0.00    -0.000 C 
BRANCH  25  26
ATOM     26  C   UNL     1      18.359 127.211  62.753  1.00  0.00    -0.000 C 
BRANCH  26  27
ATOM     27  C   UNL     1      16.828 127.108  62.635  1.00  0.00    -0.000 C 
BRANCH  27  28
ATOM     28  C   UNL     1      16.197 126.327  63.798  1.00  0.00    -0.000 C 
BRANCH  28  29
ATOM     29  C   UNL     1      15.488 127.238  64.814  1.00  0.00    -0.000 C 
BRANCH  29  30
ATOM     30  C   UNL     1      16.463 128.183  65.537  1.00  0.00    -0.000 C 
BRANCH  30  31
ATOM     31  C   UNL     1      15.745 129.349  66.235  1.00  0.00    -0.003 C 
ATOM     32  C   UNL     1      16.679 130.543  66.409  1.00  0.00     0.004 C 
ENDBRANCH  30  31
ENDBRANCH  29  30
ENDBRANCH  28  29
ENDBRANCH  27  28
ENDBRANCH  26  27
ENDBRANCH  25  26
ENDBRANCH  24  25
ENDBRANCH  23  24
ENDBRANCH  22  23
ENDBRANCH  21  22
ENDBRANCH  20  21
ENDBRANCH  19  20
ENDBRANCH  18  19
ENDBRANCH   1  18
TORSDOF 28
ENDMDL
MODEL 4
REMARK VINA RESULT:    -3.699      1.715      3.683
REMARK INTER + INTRA:         -15.258
REMARK INTER:                  -9.058
REMARK INTRA:                  -6.200
REMARK UNBOUND:                -5.504
REMARK SMILES CCCCCCCCCCCCCCCCCCCCCCCCCCCCCC(=O)[O-]
REMARK SMILES IDX 16 1 17 2 18 3 19 4 20 5 21 6 22 7 23 8 24 9 25 10 26 11
REMARK SMILES IDX 27 12 28 13 29 14 30 15 31 16 32 17 15 18 14 19 13 20 12 21
REMARK SMILES IDX 11 22 10 23 9 24 8 25 7 26 6 27 5 28 4 29 3 30 2 31 1 32
REMARK H PARENT
REMARK Flexibility Score: inf
ROOT
ATOM      1  C   UNL     1      15.616 128.796  56.481  1.00  0.00     0.000 C 
ENDROOT
BRANCH   1   2
ATOM      2  C   UNL     1      16.735 129.847  56.552  1.00  0.00     0.000 C 
BRANCH   2   3
ATOM      3  C   UNL     1      18.144 129.230  56.560  1.00  0.00     0.000 C 
BRANCH   3   4
ATOM      4  C   UNL     1      19.282 130.271  56.623  1.00  0.00     0.000 C 
BRANCH   4   5
ATOM      5  C   UNL     1      20.016 130.417  55.281  1.00  0.00     0.000 C 
BRANCH   5   6
ATOM      6  C   UNL     1      20.203 131.896  54.913  1.00  0.00     0.000 C 
BRANCH   6   7
ATOM      7  C   UNL     1      18.886 132.690  54.939  1.00  0.00     0.000 C 
BRANCH   7   8
ATOM      8  C   UNL     1      18.920 133.986  55.773  1.00  0.00     0.000 C 
BRANCH   8   9
ATOM      9  C   UNL     1      18.278 133.851  57.170  1.00  0.00     0.000 C 
BRANCH   9  10
ATOM     10  C   UNL     1      19.324 133.777  58.296  1.00  0.00     0.000 C 
BRANCH  10  11
ATOM     11  C   UNL     1      18.945 132.764  59.389  1.00  0.00     0.000 C 
BRANCH  11  12
ATOM     12  C   UNL     1      17.539 132.175  59.197  1.00  0.00     0.000 C 
BRANCH  12  13
ATOM     13  C   UNL     1      17.139 131.317  60.403  1.00  0.00     0.006 C 
BRANCH  13  14
ATOM     14  C   UNL     1      17.560 129.858  60.208  1.00  0.00     0.053 C 
BRANCH  14  15
ATOM     15  C   UNL     1      18.461 129.418  61.318  1.00  0.00     0.041 C 
ATOM     16  O   UNL     1      19.661 129.114  61.083  1.00  0.00    -0.550 OA
ATOM     17  O   UNL     1      17.959 129.291  62.608  1.00  0.00    -0.550 OA
ENDBRANCH  14  15
ENDBRANCH  13  14
ENDBRANCH  12  13
ENDBRANCH  11  12
ENDBRANCH  10  11
ENDBRANCH   9  10
ENDBRANCH   8   9
ENDBRANCH   7   8
ENDBRANCH   6   7
ENDBRANCH   5   6
ENDBRANCH   4   5
ENDBRANCH   3   4
ENDBRANCH   2   3
ENDBRANCH   1   2
BRANCH   1  18
ATOM     18  C   UNL     1      15.864 127.744  55.389  1.00  0.00     0.000 C 
BRANCH  18  19
ATOM     19  C   UNL     1      15.484 128.244  53.985  1.00  0.00     0.000 C 
BRANCH  19  20
ATOM     20  C   UNL     1      16.452 127.750  52.898  1.00  0.00     0.000 C 
BRANCH  20  21
ATOM     21  C   UNL     1      17.525 128.797  52.543  1.00  0.00     0.000 C 
BRANCH  21  22
ATOM     22  C   UNL     1      17.106 130.235  52.919  1.00  0.00     0.000 C 
BRANCH  22  23
ATOM     23  C   UNL     1      16.622 131.076  51.721  1.00  0.00     0.000 C 
BRANCH  23  24
ATOM     24  C   UNL     1      15.182 130.784  51.260  1.00  0.00    -0.000 C 
BRANCH  24  25
ATOM     25  C   UNL     1      14.098 131.686  51.886  1.00  0.00    -0.000 C 
BRANCH  25  26
ATOM     26  C   UNL     1      13.703 131.331  53.332  1.00  0.00    -0.000 C 
BRANCH  26  27
ATOM     27  C   UNL     1      13.796 132.534  54.288  1.00  0.00    -0.000 C 
BRANCH  27  28
ATOM     28  C   UNL     1      15.231 133.069  54.427  1.00  0.00    -0.000 C 
BRANCH  28  29
ATOM     29  C   UNL     1      15.314 134.598  54.283  1.00  0.00    -0.000 C 
BRANCH  29  30
ATOM     30  C   UNL     1      16.424 135.038  53.313  1.00  0.00    -0.000 C 
BRANCH  30  31
ATOM     31  C   UNL     1      16.078 134.739  51.846  1.00  0.00    -0.003 C 
ATOM     32  C   UNL     1      14.744 135.369  51.457  1.00  0.00     0.004 C 
ENDBRANCH  30  31
ENDBRANCH  29  30
ENDBRANCH  28  29
ENDBRANCH  27  28
ENDBRANCH  26  27
ENDBRANCH  25  26
ENDBRANCH  24  25
ENDBRANCH  23  24
ENDBRANCH  22  23
ENDBRANCH  21  22
ENDBRANCH  20  21
ENDBRANCH  19  20
ENDBRANCH  18  19
ENDBRANCH   1  18
TORSDOF 28
ENDMDL
MODEL 5
REMARK VINA RESULT:    -3.689      1.913      4.113
REMARK INTER + INTRA:         -15.231
REMARK INTER:                  -9.610
REMARK INTRA:                  -5.620
REMARK UNBOUND:                -5.504
REMARK SMILES CCCCCCCCCCCCCCCCCCCCCCCCCCCCCC(=O)[O-]
REMARK SMILES IDX 16 1 17 2 18 3 19 4 20 5 21 6 22 7 23 8 24 9 25 10 26 11
REMARK SMILES IDX 27 12 28 13 29 14 30 15 31 16 32 17 15 18 14 19 13 20 12 21
REMARK SMILES IDX 11 22 10 23 9 24 8 25 7 26 6 27 5 28 4 29 3 30 2 31 1 32
REMARK H PARENT
REMARK Flexibility Score: inf
ROOT
ATOM      1  C   UNL     1      16.775 130.604  57.574  1.00  0.00     0.000 C 
ENDROOT
BRANCH   1   2
ATOM      2  C   UNL     1      16.546 129.095  57.759  1.00  0.00     0.000 C 
BRANCH   2   3
ATOM      3  C   UNL     1      15.155 128.760  58.326  1.00  0.00     0.000 C 
BRANCH   3   4
ATOM      4  C   UNL     1      15.178 128.276  59.791  1.00  0.00     0.000 C 
BRANCH   4   5
ATOM      5  C   UNL     1      14.393 129.207  60.728  1.00  0.00     0.000 C 
BRANCH   5   6
ATOM      6  C   UNL     1      15.083 130.574  60.851  1.00  0.00     0.000 C 
BRANCH   6   7
ATOM      7  C   UNL     1      16.302 130.546  61.788  1.00  0.00     0.000 C 
BRANCH   7   8
ATOM      8  C   UNL     1      17.671 130.602  61.082  1.00  0.00     0.000 C 
BRANCH   8   9
ATOM      9  C   UNL     1      18.550 129.355  61.318  1.00  0.00     0.000 C 
BRANCH   9  10
ATOM     10  C   UNL     1      18.610 128.947  62.801  1.00  0.00     0.000 C 
BRANCH  10  11
ATOM     11  C   UNL     1      18.402 127.437  63.007  1.00  0.00     0.000 C 
BRANCH  11  12
ATOM     12  C   UNL     1      17.008 126.960  62.569  1.00  0.00     0.000 C 
BRANCH  12  13
ATOM     13  C   UNL     1      16.218 126.418  63.766  1.00  0.00     0.006 C 
BRANCH  13  14
ATOM     14  C   UNL     1      15.810 127.547  64.718  1.00  0.00     0.053 C 
BRANCH  14  15
ATOM     15  C   UNL     1      14.503 128.141  64.299  1.00  0.00     0.041 C 
ATOM     16  O   UNL     1      13.619 127.422  63.762  1.00  0.00    -0.550 OA
ATOM     17  O   UNL     1      14.280 129.504  64.454  1.00  0.00    -0.550 OA
ENDBRANCH  14  15
ENDBRANCH  13  14
ENDBRANCH  12  13
ENDBRANCH  11  12
ENDBRANCH  10  11
ENDBRANCH   9  10
ENDBRANCH   8   9
ENDBRANCH   7   8
ENDBRANCH   6   7
ENDBRANCH   5   6
ENDBRANCH   4   5
ENDBRANCH   3   4
ENDBRANCH   2   3
ENDBRANCH   1   2
BRANCH   1  18
ATOM     18  C   UNL     1      18.128 130.918  56.916  1.00  0.00     0.000 C 
BRANCH  18  19
ATOM     19  C   UNL     1      19.111 129.736  56.987  1.00  0.00     0.000 C 
BRANCH  19  20
ATOM     20  C   UNL     1      19.496 129.202  55.598  1.00  0.00     0.000 C 
BRANCH  20  21
ATOM     21  C   UNL     1      18.810 129.976  54.457  1.00  0.00     0.000 C 
BRANCH  21  22
ATOM     22  C   UNL     1      17.886 129.086  53.600  1.00  0.00     0.000 C 
BRANCH  22  23
ATOM     23  C   UNL     1      17.372 127.832  54.334  1.00  0.00     0.000 C 
BRANCH  23  24
ATOM     24  C   UNL     1      15.859 127.819  54.620  1.00  0.00    -0.000 C 
BRANCH  24  25
ATOM     25  C   UNL     1      15.037 128.870  53.846  1.00  0.00    -0.000 C 
BRANCH  25  26
ATOM     26  C   UNL     1      14.572 130.082  54.676  1.00  0.00    -0.000 C 
BRANCH  26  27
ATOM     27  C   UNL     1      14.602 131.398  53.879  1.00  0.00    -0.000 C 
BRANCH  27  28
ATOM     28  C   UNL     1      15.658 132.384  54.405  1.00  0.00    -0.000 C 
BRANCH  28  29
ATOM     29  C   UNL     1      16.793 132.636  53.399  1.00  0.00    -0.000 C 
BRANCH  29  30
ATOM     30  C   UNL     1      17.620 133.887  53.745  1.00  0.00    -0.000 C 
BRANCH  30  31
ATOM     31  C   UNL     1      17.779 134.088  55.260  1.00  0.00    -0.003 C 
ATOM     32  C   UNL     1      19.238 134.335  55.631  1.00  0.00     0.004 C 
ENDBRANCH  30  31
ENDBRANCH  29  30
ENDBRANCH  28  29
ENDBRANCH  27  28
ENDBRANCH  26  27
ENDBRANCH  25  26
ENDBRANCH  24  25
ENDBRANCH  23  24
ENDBRANCH  22  23
ENDBRANCH  21  22
ENDBRANCH  20  21
ENDBRANCH  19  20
ENDBRANCH  18  19
ENDBRANCH   1  18
TORSDOF 28
ENDMDL
MODEL 6
REMARK VINA RESULT:    -3.685      1.812      3.644
REMARK INTER + INTRA:         -15.221
REMARK INTER:                  -9.272
REMARK INTRA:                  -5.949
REMARK UNBOUND:                -5.504
REMARK SMILES CCCCCCCCCCCCCCCCCCCCCCCCCCCCCC(=O)[O-]
REMARK SMILES IDX 16 1 17 2 18 3 19 4 20 5 21 6 22 7 23 8 24 9 25 10 26 11
REMARK SMILES IDX 27 12 28 13 29 14 30 15 31 16 32 17 15 18 14 19 13 20 12 21
REMARK SMILES IDX 11 22 10 23 9 24 8 25 7 26 6 27 5 28 4 29 3 30 2 31 1 32
REMARK H PARENT
REMARK Flexibility Score: inf
ROOT
ATOM      1  C   UNL     1      17.069 128.815  50.557  1.00  0.00     0.000 C 
ENDROOT
BRANCH   1   2
ATOM      2  C   UNL     1      16.579 130.148  49.967  1.00  0.00     0.000 C 
BRANCH   2   3
ATOM      3  C   UNL     1      16.505 131.279  51.007  1.00  0.00     0.000 C 
BRANCH   3   4
ATOM      4  C   UNL     1      15.066 131.715  51.354  1.00  0.00     0.000 C 
BRANCH   4   5
ATOM      5  C   UNL     1      14.928 132.168  52.816  1.00  0.00     0.000 C 
BRANCH   5   6
ATOM      6  C   UNL     1      16.268 132.053  53.558  1.00  0.00     0.000 C 
BRANCH   6   7
ATOM      7  C   UNL     1      16.115 132.136  55.085  1.00  0.00     0.000 C 
BRANCH   7   8
ATOM      8  C   UNL     1      14.662 132.129  55.599  1.00  0.00     0.000 C 
BRANCH   8   9
ATOM      9  C   UNL     1      14.538 132.248  57.133  1.00  0.00     0.000 C 
BRANCH   9  10
ATOM     10  C   UNL     1      15.501 131.307  57.878  1.00  0.00     0.000 C 
BRANCH  10  11
ATOM     11  C   UNL     1      16.385 132.049  58.894  1.00  0.00     0.000 C 
BRANCH  11  12
ATOM     12  C   UNL     1      17.500 131.164  59.474  1.00  0.00     0.000 C 
BRANCH  12  13
ATOM     13  C   UNL     1      17.060 129.695  59.521  1.00  0.00     0.006 C 
BRANCH  13  14
ATOM     14  C   UNL     1      16.924 129.204  60.965  1.00  0.00     0.053 C 
BRANCH  14  15
ATOM     15  C   UNL     1      18.149 129.544  61.753  1.00  0.00     0.041 C 
ATOM     16  O   UNL     1      18.106 130.433  62.645  1.00  0.00    -0.550 OA
ATOM     17  O   UNL     1      19.355 128.917  61.466  1.00  0.00    -0.550 OA
ENDBRANCH  14  15
ENDBRANCH  13  14
ENDBRANCH  12  13
ENDBRANCH  11  12
ENDBRANCH  10  11
ENDBRANCH   9  10
ENDBRANCH   8   9
ENDBRANCH   7   8
ENDBRANCH   6   7
ENDBRANCH   5   6
ENDBRANCH   4   5
ENDBRANCH   3   4
ENDBRANCH   2   3
ENDBRANCH   1   2
BRANCH   1  18
ATOM     18  C   UNL     1      17.357 128.909  52.064  1.00  0.00     0.000 C 
BRANCH  18  19
ATOM     19  C   UNL     1      16.592 127.852  52.881  1.00  0.00     0.000 C 
BRANCH  19  20
ATOM     20  C   UNL     1      15.378 128.439  53.619  1.00  0.00     0.000 C 
BRANCH  20  21
ATOM     21  C   UNL     1      15.614 128.566  55.135  1.00  0.00     0.000 C 
BRANCH  21  22
ATOM     22  C   UNL     1      17.015 128.084  55.566  1.00  0.00     0.000 C 
BRANCH  22  23
ATOM     23  C   UNL     1      17.948 129.218  56.034  1.00  0.00     0.000 C 
BRANCH  23  24
ATOM     24  C   UNL     1      19.155 129.490  55.116  1.00  0.00    -0.000 C 
BRANCH  24  25
ATOM     25  C   UNL     1      19.922 130.795  55.412  1.00  0.00    -0.000 C 
BRANCH  25  26
ATOM     26  C   UNL     1      19.246 131.739  56.425  1.00  0.00    -0.000 C 
BRANCH  26  27
ATOM     27  C   UNL     1      19.564 133.222  56.163  1.00  0.00    -0.000 C 
BRANCH  27  28
ATOM     28  C   UNL     1      18.552 134.170  56.827  1.00  0.00    -0.000 C 
BRANCH  28  29
ATOM     29  C   UNL     1      17.926 135.165  55.835  1.00  0.00    -0.000 C 
BRANCH  29  30
ATOM     30  C   UNL     1      18.439 134.964  54.398  1.00  0.00    -0.000 C 
BRANCH  30  31
ATOM     31  C   UNL     1      17.735 135.882  53.387  1.00  0.00    -0.003 C 
ATOM     32  C   UNL     1      16.218 135.751  53.491  1.00  0.00     0.004 C 
ENDBRANCH  30  31
ENDBRANCH  29  30
ENDBRANCH  28  29
ENDBRANCH  27  28
ENDBRANCH  26  27
ENDBRANCH  25  26
ENDBRANCH  24  25
ENDBRANCH  23  24
ENDBRANCH  22  23
ENDBRANCH  21  22
ENDBRANCH  20  21
ENDBRANCH  19  20
ENDBRANCH  18  19
ENDBRANCH   1  18
TORSDOF 28
ENDMDL
MODEL 7
REMARK VINA RESULT:    -3.683      4.482      7.420
REMARK INTER + INTRA:         -15.216
REMARK INTER:                  -8.306
REMARK INTRA:                  -6.910
REMARK UNBOUND:                -5.504
REMARK SMILES CCCCCCCCCCCCCCCCCCCCCCCCCCCCCC(=O)[O-]
REMARK SMILES IDX 16 1 17 2 18 3 19 4 20 5 21 6 22 7 23 8 24 9 25 10 26 11
REMARK SMILES IDX 27 12 28 13 29 14 30 15 31 16 32 17 15 18 14 19 13 20 12 21
REMARK SMILES IDX 11 22 10 23 9 24 8 25 7 26 6 27 5 28 4 29 3 30 2 31 1 32
REMARK H PARENT
REMARK Flexibility Score: inf
ROOT
ATOM      1  C   UNL     1      16.160 128.079  52.931  1.00  0.00     0.000 C 
ENDROOT
BRANCH   1   2
ATOM      2  C   UNL     1      17.219 128.627  51.961  1.00  0.00     0.000 C 
BRANCH   2   3
ATOM      3  C   UNL     1      16.611 129.364  50.755  1.00  0.00     0.000 C 
BRANCH   3   4
ATOM      4  C   UNL     1      17.059 130.835  50.631  1.00  0.00     0.000 C 
BRANCH   4   5
ATOM      5  C   UNL     1      16.116 131.799  51.369  1.00  0.00     0.000 C 
BRANCH   5   6
ATOM      6  C   UNL     1      14.945 132.220  50.469  1.00  0.00     0.000 C 
BRANCH   6   7
ATOM      7  C   UNL     1      13.574 131.992  51.127  1.00  0.00     0.000 C 
BRANCH   7   8
ATOM      8  C   UNL     1      13.394 130.621  51.807  1.00  0.00     0.000 C 
BRANCH   8   9
ATOM      9  C   UNL     1      13.119 130.703  53.323  1.00  0.00     0.000 C 
BRANCH   9  10
ATOM     10  C   UNL     1      12.960 132.152  53.817  1.00  0.00     0.000 C 
BRANCH  10  11
ATOM     11  C   UNL     1      14.052 132.559  54.820  1.00  0.00     0.000 C 
BRANCH  11  12
ATOM     12  C   UNL     1      15.098 133.507  54.213  1.00  0.00     0.000 C 
BRANCH  12  13
ATOM     13  C   UNL     1      14.615 134.961  54.274  1.00  0.00     0.006 C 
BRANCH  13  14
ATOM     14  C   UNL     1      15.044 135.740  53.028  1.00  0.00     0.053 C 
BRANCH  14  15
ATOM     15  C   UNL     1      14.006 135.630  51.956  1.00  0.00     0.041 C 
ATOM     16  O   UNL     1      12.799 135.430  52.256  1.00  0.00    -0.550 OA
ATOM     17  O   UNL     1      14.381 135.695  50.620  1.00  0.00    -0.550 OA
ENDBRANCH  14  15
ENDBRANCH  13  14
ENDBRANCH  12  13
ENDBRANCH  11  12
ENDBRANCH  10  11
ENDBRANCH   9  10
ENDBRANCH   8   9
ENDBRANCH   7   8
ENDBRANCH   6   7
ENDBRANCH   5   6
ENDBRANCH   4   5
ENDBRANCH   3   4
ENDBRANCH   2   3
ENDBRANCH   1   2
BRANCH   1  18
ATOM     18  C   UNL     1      16.782 127.339  54.125  1.00  0.00     0.000 C 
BRANCH  18  19
ATOM     19  C   UNL     1      16.063 127.643  55.452  1.00  0.00     0.000 C 
BRANCH  19  20
ATOM     20  C   UNL     1      15.439 129.047  55.479  1.00  0.00     0.000 C 
BRANCH  20  21
ATOM     21  C   UNL     1      15.739 129.800  56.789  1.00  0.00     0.000 C 
BRANCH  21  22
ATOM     22  C   UNL     1      17.059 129.350  57.451  1.00  0.00     0.000 C 
BRANCH  22  23
ATOM     23  C   UNL     1      18.261 130.256  57.123  1.00  0.00     0.000 C 
BRANCH  23  24
ATOM     24  C   UNL     1      19.209 129.714  56.036  1.00  0.00    -0.000 C 
BRANCH  24  25
ATOM     25  C   UNL     1      18.923 130.219  54.607  1.00  0.00    -0.000 C 
BRANCH  25  26
ATOM     26  C   UNL     1      18.133 131.539  54.522  1.00  0.00    -0.000 C 
BRANCH  26  27
ATOM     27  C   UNL     1      18.998 132.722  54.052  1.00  0.00    -0.000 C 
BRANCH  27  28
ATOM     28  C   UNL     1      19.289 133.727  55.179  1.00  0.00    -0.000 C 
BRANCH  28  29
ATOM     29  C   UNL     1      18.372 134.960  55.130  1.00  0.00    -0.000 C 
BRANCH  29  30
ATOM     30  C   UNL     1      17.553 135.136  56.421  1.00  0.00    -0.000 C 
BRANCH  30  31
ATOM     31  C   UNL     1      17.685 133.936  57.371  1.00  0.00    -0.003 C 
ATOM     32  C   UNL     1      16.313 133.399  57.770  1.00  0.00     0.004 C 
ENDBRANCH  30  31
ENDBRANCH  29  30
ENDBRANCH  28  29
ENDBRANCH  27  28
ENDBRANCH  26  27
ENDBRANCH  25  26
ENDBRANCH  24  25
ENDBRANCH  23  24
ENDBRANCH  22  23
ENDBRANCH  21  22
ENDBRANCH  20  21
ENDBRANCH  19  20
ENDBRANCH  18  19
ENDBRANCH   1  18
TORSDOF 28
ENDMDL
MODEL 8
REMARK VINA RESULT:    -3.664      3.963      6.485
REMARK INTER + INTRA:         -15.167
REMARK INTER:                  -9.013
REMARK INTRA:                  -6.154
REMARK UNBOUND:                -5.504
REMARK SMILES CCCCCCCCCCCCCCCCCCCCCCCCCCCCCC(=O)[O-]
REMARK SMILES IDX 16 1 17 2 18 3 19 4 20 5 21 6 22 7 23 8 24 9 25 10 26 11
REMARK SMILES IDX 27 12 28 13 29 14 30 15 31 16 32 17 15 18 14 19 13 20 12 21
REMARK SMILES IDX 11 22 10 23 9 24 8 25 7 26 6 27 5 28 4 29 3 30 2 31 1 32
REMARK H PARENT
REMARK Flexibility Score: inf
ROOT
ATOM      1  C   UNL     1      16.982 128.753  51.713  1.00  0.00     0.000 C 
ENDROOT
BRANCH   1   2
ATOM      2  C   UNL     1      16.054 128.371  52.877  1.00  0.00     0.000 C 
BRANCH   2   3
ATOM      3  C   UNL     1      16.739 127.483  53.930  1.00  0.00     0.000 C 
BRANCH   3   4
ATOM      4  C   UNL     1      16.128 127.603  55.342  1.00  0.00     0.000 C 
BRANCH   4   5
ATOM      5  C   UNL     1      15.214 128.830  55.481  1.00  0.00     0.000 C 
BRANCH   5   6
ATOM      6  C   UNL     1      15.452 129.546  56.819  1.00  0.00     0.000 C 
BRANCH   6   7
ATOM      7  C   UNL     1      16.793 129.166  57.470  1.00  0.00     0.000 C 
BRANCH   7   8
ATOM      8  C   UNL     1      17.948 130.154  57.215  1.00  0.00     0.000 C 
BRANCH   8   9
ATOM      9  C   UNL     1      19.181 129.518  56.540  1.00  0.00     0.000 C 
BRANCH   9  10
ATOM     10  C   UNL     1      19.241 129.806  55.029  1.00  0.00     0.000 C 
BRANCH  10  11
ATOM     11  C   UNL     1      18.294 130.941  54.606  1.00  0.00     0.000 C 
BRANCH  11  12
ATOM     12  C   UNL     1      19.040 132.170  54.064  1.00  0.00     0.000 C 
BRANCH  12  13
ATOM     13  C   UNL     1      19.640 132.992  55.212  1.00  0.00     0.006 C 
BRANCH  13  14
ATOM     14  C   UNL     1      18.543 133.609  56.083  1.00  0.00     0.053 C 
BRANCH  14  15
ATOM     15  C   UNL     1      18.229 134.999  55.627  1.00  0.00     0.041 C 
ATOM     16  O   UNL     1      19.108 135.693  55.049  1.00  0.00    -0.550 OA
ATOM     17  O   UNL     1      16.981 135.549  55.889  1.00  0.00    -0.550 OA
ENDBRANCH  14  15
ENDBRANCH  13  14
ENDBRANCH  12  13
ENDBRANCH  11  12
ENDBRANCH  10  11
ENDBRANCH   9  10
ENDBRANCH   8   9
ENDBRANCH   7   8
ENDBRANCH   6   7
ENDBRANCH   5   6
ENDBRANCH   4   5
ENDBRANCH   3   4
ENDBRANCH   2   3
ENDBRANCH   1   2
BRANCH   1  18
ATOM     18  C   UNL     1      16.650 130.133  51.123  1.00  0.00     0.000 C 
BRANCH  18  19
ATOM     19  C   UNL     1      17.013 130.244  49.632  1.00  0.00     0.000 C 
BRANCH  19  20
ATOM     20  C   UNL     1      16.622 128.991  48.832  1.00  0.00     0.000 C 
BRANCH  20  21
ATOM     21  C   UNL     1      15.502 129.268  47.812  1.00  0.00     0.000 C 
BRANCH  21  22
ATOM     22  C   UNL     1      15.159 130.768  47.692  1.00  0.00     0.000 C 
BRANCH  22  23
ATOM     23  C   UNL     1      13.722 131.115  48.128  1.00  0.00     0.000 C 
BRANCH  23  24
ATOM     24  C   UNL     1      13.588 132.399  48.967  1.00  0.00    -0.000 C 
BRANCH  24  25
ATOM     25  C   UNL     1      13.005 132.200  50.382  1.00  0.00    -0.000 C 
BRANCH  25  26
ATOM     26  C   UNL     1      12.795 130.733  50.805  1.00  0.00    -0.000 C 
BRANCH  26  27
ATOM     27  C   UNL     1      13.188 130.473  52.270  1.00  0.00    -0.000 C 
BRANCH  27  28
ATOM     28  C   UNL     1      12.441 131.388  53.254  1.00  0.00    -0.000 C 
BRANCH  28  29
ATOM     29  C   UNL     1      13.375 132.364  53.989  1.00  0.00    -0.000 C 
BRANCH  29  30
ATOM     30  C   UNL     1      14.861 132.076  53.714  1.00  0.00    -0.000 C 
BRANCH  30  31
ATOM     31  C   UNL     1      15.679 133.358  53.495  1.00  0.00    -0.003 C 
ATOM     32  C   UNL     1      15.892 133.626  52.008  1.00  0.00     0.004 C 
ENDBRANCH  30  31
ENDBRANCH  29  30
ENDBRANCH  28  29
ENDBRANCH  27  28
ENDBRANCH  26  27
ENDBRANCH  25  26
ENDBRANCH  24  25
ENDBRANCH  23  24
ENDBRANCH  22  23
ENDBRANCH  21  22
ENDBRANCH  20  21
ENDBRANCH  19  20
ENDBRANCH  18  19
ENDBRANCH   1  18
TORSDOF 28
ENDMDL
MODEL 9
REMARK VINA RESULT:    -3.632      3.362      8.540
REMARK INTER + INTRA:         -15.083
REMARK INTER:                  -8.546
REMARK INTRA:                  -6.536
REMARK UNBOUND:                -5.504
REMARK SMILES CCCCCCCCCCCCCCCCCCCCCCCCCCCCCC(=O)[O-]
REMARK SMILES IDX 16 1 17 2 18 3 19 4 20 5 21 6 22 7 23 8 24 9 25 10 26 11
REMARK SMILES IDX 27 12 28 13 29 14 30 15 31 16 32 17 15 18 14 19 13 20 12 21
REMARK SMILES IDX 11 22 10 23 9 24 8 25 7 26 6 27 5 28 4 29 3 30 2 31 1 32
REMARK H PARENT
REMARK Flexibility Score: inf
ROOT
ATOM      1  C   UNL     1      16.406 128.920  58.430  1.00  0.00     0.000 C 
ENDROOT
BRANCH   1   2
ATOM      2  C   UNL     1      17.434 130.048  58.251  1.00  0.00     0.000 C 
BRANCH   2   3
ATOM      3  C   UNL     1      18.485 130.093  59.375  1.00  0.00     0.000 C 
BRANCH   3   4
ATOM      4  C   UNL     1      18.507 131.423  60.157  1.00  0.00     0.000 C 
BRANCH   4   5
ATOM      5  C   UNL     1      18.813 132.628  59.255  1.00  0.00     0.000 C 
BRANCH   5   6
ATOM      6  C   UNL     1      17.647 133.627  59.255  1.00  0.00     0.000 C 
BRANCH   6   7
ATOM      7  C   UNL     1      17.052 133.853  57.855  1.00  0.00     0.000 C 
BRANCH   7   8
ATOM      8  C   UNL     1      17.886 133.286  56.690  1.00  0.00     0.000 C 
BRANCH   8   9
ATOM      9  C   UNL     1      17.063 132.478  55.664  1.00  0.00     0.000 C 
BRANCH   9  10
ATOM     10  C   UNL     1      15.547 132.691  55.824  1.00  0.00     0.000 C 
BRANCH  10  11
ATOM     11  C   UNL     1      14.733 131.438  55.461  1.00  0.00     0.000 C 
BRANCH  11  12
ATOM     12  C   UNL     1      15.580 130.351  54.782  1.00  0.00     0.000 C 
BRANCH  12  13
ATOM     13  C   UNL     1      14.954 128.966  54.986  1.00  0.00     0.006 C 
BRANCH  13  14
ATOM     14  C   UNL     1      16.018 127.866  54.947  1.00  0.00     0.053 C 
BRANCH  14  15
ATOM     15  C   UNL     1      16.988 128.111  53.835  1.00  0.00     0.041 C 
ATOM     16  O   UNL     1      18.129 128.587  54.078  1.00  0.00    -0.550 OA
ATOM     17  O   UNL     1      16.611 127.864  52.521  1.00  0.00    -0.550 OA
ENDBRANCH  14  15
ENDBRANCH  13  14
ENDBRANCH  12  13
ENDBRANCH  11  12
ENDBRANCH  10  11
ENDBRANCH   9  10
ENDBRANCH   8   9
ENDBRANCH   7   8
ENDBRANCH   6   7
ENDBRANCH   5   6
ENDBRANCH   4   5
ENDBRANCH   3   4
ENDBRANCH   2   3
ENDBRANCH   1   2
BRANCH   1  18
ATOM     18  C   UNL     1      14.991 129.452  58.709  1.00  0.00     0.000 C 
BRANCH  18  19
ATOM     19  C   UNL     1      14.980 130.945  59.079  1.00  0.00     0.000 C 
BRANCH  19  20
ATOM     20  C   UNL     1      14.230 131.224  60.392  1.00  0.00     0.000 C 
BRANCH  20  21
ATOM     21  C   UNL     1      15.132 131.872  61.460  1.00  0.00     0.000 C 
BRANCH  21  22
ATOM     22  C   UNL     1      15.757 130.841  62.423  1.00  0.00     0.000 C 
BRANCH  22  23
ATOM     23  C   UNL     1      14.749 129.818  62.980  1.00  0.00     0.000 C 
BRANCH  23  24
ATOM     24  C   UNL     1      15.149 128.342  62.796  1.00  0.00    -0.000 C 
BRANCH  24  25
ATOM     25  C   UNL     1      16.398 128.106  61.921  1.00  0.00    -0.000 C 
BRANCH  25  26
ATOM     26  C   UNL     1      17.634 127.573  62.671  1.00  0.00    -0.000 C 
BRANCH  26  27
ATOM     27  C   UNL     1      18.719 128.646  62.870  1.00  0.00    -0.000 C 
BRANCH  27  28
ATOM     28  C   UNL     1      18.665 129.290  64.265  1.00  0.00    -0.000 C 
BRANCH  28  29
ATOM     29  C   UNL     1      18.087 128.349  65.335  1.00  0.00    -0.000 C 
BRANCH  29  30
ATOM     30  C   UNL     1      16.972 129.012  66.162  1.00  0.00    -0.000 C 
BRANCH  30  31
ATOM     31  C   UNL     1      16.944 130.539  65.997  1.00  0.00    -0.003 C 
ATOM     32  C   UNL     1      15.566 131.103  66.332  1.00  0.00     0.004 C 
ENDBRANCH  30  31
ENDBRANCH  29  30
ENDBRANCH  28  29
ENDBRANCH  27  28
ENDBRANCH  26  27
ENDBRANCH  25  26
ENDBRANCH  24  25
ENDBRANCH  23  24
ENDBRANCH  22  23
ENDBRANCH  21  22
ENDBRANCH  20  21
ENDBRANCH  19  20
ENDBRANCH  18  19
ENDBRANCH   1  18
TORSDOF 28
ENDMDL
