MODEL 1
REMARK VINA RESULT:    -3.427      0.000      0.000
REMARK INTER + INTRA:          -7.200
REMARK INTER:                  -6.632
REMARK INTRA:                  -0.568
REMARK UNBOUND:                -0.568
REMARK SMILES CCCCCCCCCCCCCCCCCC(=O)[O-]
REMARK SMILES IDX 10 1 11 2 12 3 13 4 14 5 15 6 16 7 17 8 18 9 19 10 20 11
REMARK SMILES IDX 9 12 8 13 7 14 6 15 5 16 4 17 3 18 2 19 1 20
REMARK H PARENT
REMARK Flexibility Score: inf
ROOT
ATOM      1  C   UNL     1      -0.387   0.074   9.882  1.00  0.00     0.000 C 
ENDROOT
BRANCH   1   2
ATOM      2  C   UNL     1      -1.779  -0.535  10.124  1.00  0.00     0.000 C 
BRANCH   2   3
ATOM      3  C   UNL     1      -2.093  -1.801   9.301  1.00  0.00     0.000 C 
BRANCH   3   4
ATOM      4  C   UNL     1      -2.572  -3.014  10.125  1.00  0.00     0.000 C 
BRANCH   4   5
ATOM      5  C   UNL     1      -4.087  -3.289  10.054  1.00  0.00     0.000 C 
BRANCH   5   6
ATOM      6  C   UNL     1      -4.477  -4.777   9.947  1.00  0.00     0.000 C 
BRANCH   6   7
ATOM      7  C   UNL     1      -5.675  -5.070   9.026  1.00  0.00     0.006 C 
BRANCH   7   8
ATOM      8  C   UNL     1      -5.812  -6.558   8.681  1.00  0.00     0.053 C 
BRANCH   8   9
ATOM      9  C   UNL     1      -7.224  -7.011   8.879  1.00  0.00     0.041 C 
ATOM     10  O   UNL     1      -8.180  -6.225   8.649  1.00  0.00    -0.550 OA
ATOM     11  O   UNL     1      -7.486  -8.317   9.271  1.00  0.00    -0.550 OA
ENDBRANCH   8   9
ENDBRANCH   7   8
ENDBRANCH   6   7
ENDBRANCH   5   6
ENDBRANCH   4   5
ENDBRANCH   3   4
ENDBRANCH   2   3
ENDBRANCH   1   2
BRANCH   1  12
ATOM     12  C   UNL     1      -0.436   1.589   9.615  1.00  0.00     0.000 C 
BRANCH  12  13
ATOM     13  C   UNL     1       0.818   2.318  10.125  1.00  0.00    -0.000 C 
BRANCH  13  14
ATOM     14  C   UNL     1       2.120   1.696   9.599  1.00  0.00    -0.000 C 
BRANCH  14  15
ATOM     15  C   UNL     1       3.343   2.461  10.120  1.00  0.00    -0.000 C 
BRANCH  15  16
ATOM     16  C   UNL     1       3.299   3.933   9.682  1.00  0.00    -0.000 C 
BRANCH  16  17
ATOM     17  C   UNL     1       4.585   4.696  10.040  1.00  0.00    -0.000 C 
BRANCH  17  18
ATOM     18  C   UNL     1       5.851   3.848   9.850  1.00  0.00    -0.000 C 
BRANCH  18  19
ATOM     19  C   UNL     1       6.970   4.672   9.203  1.00  0.00    -0.003 C 
ATOM     20  C   UNL     1       6.420   5.945   8.566  1.00  0.00     0.004 C 
ENDBRANCH  18  19
ENDBRANCH  17  18
ENDBRANCH  16  17
ENDBRANCH  15  16
ENDBRANCH  14  15
ENDBRANCH  13  14
ENDBRANCH  12  13
ENDBRANCH   1  12
TORSDOF 16
ENDMDL
MODEL 2
REMARK VINA RESULT:    -3.294      6.358     13.042
REMARK INTER + INTRA:          -6.943
REMARK INTER:                  -6.449
REMARK INTRA:                  -0.494
REMARK UNBOUND:                -0.568
REMARK SMILES CCCCCCCCCCCCCCCCCC(=O)[O-]
REMARK SMILES IDX 10 1 11 2 12 3 13 4 14 5 15 6 16 7 17 8 18 9 19 10 20 11
REMARK SMILES IDX 9 12 8 13 7 14 6 15 5 16 4 17 3 18 2 19 1 20
REMARK H PARENT
REMARK Flexibility Score: inf
ROOT
ATOM      1  C   UNL     1      -0.653  -0.534   9.647  1.00  0.00     0.000 C 
ENDROOT
BRANCH   1   2
ATOM      2  C   UNL     1      -0.339   0.966   9.795  1.00  0.00     0.000 C 
BRANCH   2   3
ATOM      3  C   UNL     1       1.130   1.301  10.122  1.00  0.00     0.000 C 
BRANCH   3   4
ATOM      4  C   UNL     1       1.914   1.982   8.981  1.00  0.00     0.000 C 
BRANCH   4   5
ATOM      5  C   UNL     1       3.322   2.476   9.367  1.00  0.00     0.000 C 
BRANCH   5   6
ATOM      6  C   UNL     1       3.361   3.833  10.098  1.00  0.00     0.000 C 
BRANCH   6   7
ATOM      7  C   UNL     1       4.492   4.778   9.654  1.00  0.00     0.006 C 
BRANCH   7   8
ATOM      8  C   UNL     1       3.988   6.179   9.287  1.00  0.00     0.053 C 
BRANCH   8   9
ATOM      9  C   UNL     1       5.141   7.114   9.096  1.00  0.00     0.041 C 
ATOM     10  O   UNL     1       5.937   6.951   8.134  1.00  0.00    -0.550 OA
ATOM     11  O   UNL     1       5.309   8.194   9.953  1.00  0.00    -0.550 OA
ENDBRANCH   8   9
ENDBRANCH   7   8
ENDBRANCH   6   7
ENDBRANCH   5   6
ENDBRANCH   4   5
ENDBRANCH   3   4
ENDBRANCH   2   3
ENDBRANCH   1   2
BRANCH   1  12
ATOM     12  C   UNL     1      -2.092  -0.887  10.058  1.00  0.00     0.000 C 
BRANCH  12  13
ATOM     13  C   UNL     1      -2.660  -2.071   9.259  1.00  0.00    -0.000 C 
BRANCH  13  14
ATOM     14  C   UNL     1      -2.788  -3.349  10.102  1.00  0.00    -0.000 C 
BRANCH  14  15
ATOM     15  C   UNL     1      -4.202  -3.932  10.004  1.00  0.00    -0.000 C 
BRANCH  15  16
ATOM     16  C   UNL     1      -4.195  -5.267   9.243  1.00  0.00    -0.000 C 
BRANCH  16  17
ATOM     17  C   UNL     1      -5.605  -5.850   9.055  1.00  0.00    -0.000 C 
BRANCH  17  18
ATOM     18  C   UNL     1      -6.711  -4.801   9.246  1.00  0.00    -0.000 C 
BRANCH  18  19
ATOM     19  C   UNL     1      -7.998  -5.450   9.764  1.00  0.00    -0.003 C 
ATOM     20  C   UNL     1      -8.370  -6.677   8.936  1.00  0.00     0.004 C 
ENDBRANCH  18  19
ENDBRANCH  17  18
ENDBRANCH  16  17
ENDBRANCH  15  16
ENDBRANCH  14  15
ENDBRANCH  13  14
ENDBRANCH  12  13
ENDBRANCH   1  12
TORSDOF 16
ENDMDL
MODEL 3
REMARK VINA RESULT:    -3.153     20.258     21.378
REMARK INTER + INTRA:          -6.670
REMARK INTER:                  -6.143
REMARK INTRA:                  -0.527
REMARK UNBOUND:                -0.568
REMARK SMILES CCCCCCCCCCCCCCCCCC(=O)[O-]
REMARK SMILES IDX 10 1 11 2 12 3 13 4 14 5 15 6 16 7 17 8 18 9 19 10 20 11
REMARK SMILES IDX 9 12 8 13 7 14 6 15 5 16 4 17 3 18 2 19 1 20
REMARK H PARENT
REMARK Flexibility Score: inf
ROOT
ATOM      1  C   UNL     1      -1.258   1.249  -9.233  1.00  0.00     0.000 C 
ENDROOT
BRANCH   1   2
ATOM      2  C   UNL     1      -0.034   0.772 -10.037  1.00  0.00     0.000 C 
BRANCH   2   3
ATOM      3  C   UNL     1       0.211  -0.750 -10.018  1.00  0.00     0.000 C 
BRANCH   3   4
ATOM      4  C   UNL     1       1.476  -1.198  -9.259  1.00  0.00     0.000 C 
BRANCH   4   5
ATOM      5  C   UNL     1       2.534  -1.911 -10.125  1.00  0.00     0.000 C 
BRANCH   5   6
ATOM      6  C   UNL     1       3.094  -3.218  -9.528  1.00  0.00     0.000 C 
BRANCH   6   7
ATOM      7  C   UNL     1       4.524  -3.576  -9.975  1.00  0.00     0.006 C 
BRANCH   7   8
ATOM      8  C   UNL     1       4.956  -4.975  -9.523  1.00  0.00     0.053 C 
BRANCH   8   9
ATOM      9  C   UNL     1       6.394  -4.968  -9.109  1.00  0.00     0.041 C 
ATOM     10  O   UNL     1       6.853  -5.899  -8.395  1.00  0.00    -0.550 OA
ATOM     11  O   UNL     1       7.240  -3.959  -9.551  1.00  0.00    -0.550 OA
ENDBRANCH   8   9
ENDBRANCH   7   8
ENDBRANCH   6   7
ENDBRANCH   5   6
ENDBRANCH   4   5
ENDBRANCH   3   4
ENDBRANCH   2   3
ENDBRANCH   1   2
BRANCH   1  12
ATOM     12  C   UNL     1      -2.370   1.828 -10.125  1.00  0.00     0.000 C 
BRANCH  12  13
ATOM     13  C   UNL     1      -3.188   2.918  -9.414  1.00  0.00    -0.000 C 
BRANCH  13  14
ATOM     14  C   UNL     1      -4.619   3.036  -9.958  1.00  0.00    -0.000 C 
BRANCH  14  15
ATOM     15  C   UNL     1      -5.024   4.505 -10.124  1.00  0.00    -0.000 C 
BRANCH  15  16
ATOM     16  C   UNL     1      -4.289   5.396  -9.111  1.00  0.00    -0.000 C 
BRANCH  16  17
ATOM     17  C   UNL     1      -5.181   6.517  -8.551  1.00  0.00    -0.000 C 
BRANCH  17  18
ATOM     18  C   UNL     1      -6.490   6.682  -9.337  1.00  0.00    -0.000 C 
BRANCH  18  19
ATOM     19  C   UNL     1      -7.682   6.842  -8.388  1.00  0.00    -0.003 C 
ATOM     20  C   UNL     1      -8.683   7.860  -8.926  1.00  0.00     0.004 C 
ENDBRANCH  18  19
ENDBRANCH  17  18
ENDBRANCH  16  17
ENDBRANCH  15  16
ENDBRANCH  14  15
ENDBRANCH  13  14
ENDBRANCH  12  13
ENDBRANCH   1  12
TORSDOF 16
ENDMDL
MODEL 4
REMARK VINA RESULT:    -1.893     20.333     21.410
REMARK INTER + INTRA:          -4.232
REMARK INTER:                  -3.739
REMARK INTRA:                  -0.494
REMARK UNBOUND:                -0.568
REMARK SMILES CCCCCCCCCCCCCCCCCC(=O)[O-]
REMARK SMILES IDX 10 1 11 2 12 3 13 4 14 5 15 6 16 7 17 8 18 9 19 10 20 11
REMARK SMILES IDX 9 12 8 13 7 14 6 15 5 16 4 17 3 18 2 19 1 20
REMARK H PARENT
REMARK Flexibility Score: inf
ROOT
ATOM      1  C   UNL     1      -3.738   2.015  -8.946  1.00  0.00     0.000 C 
ENDROOT
BRANCH   1   2
ATOM      2  C   UNL     1      -2.797   0.891  -9.418  1.00  0.00     0.000 C 
BRANCH   2   3
ATOM      3  C   UNL     1      -1.506   1.366 -10.115  1.00  0.00     0.000 C 
BRANCH   3   4
ATOM      4  C   UNL     1      -0.205   1.100  -9.331  1.00  0.00     0.000 C 
BRANCH   4   5
ATOM      5  C   UNL     1       0.891   0.361 -10.125  1.00  0.00     0.000 C 
BRANCH   5   6
ATOM      6  C   UNL     1       1.068  -1.128  -9.765  1.00  0.00     0.000 C 
BRANCH   6   7
ATOM      7  C   UNL     1       2.455  -1.714 -10.087  1.00  0.00     0.006 C 
BRANCH   7   8
ATOM      8  C   UNL     1       2.470  -3.247 -10.076  1.00  0.00     0.053 C 
BRANCH   8   9
ATOM      9  C   UNL     1       3.875  -3.753  -9.975  1.00  0.00     0.041 C 
ATOM     10  O   UNL     1       4.839  -2.944  -9.930  1.00  0.00    -0.550 OA
ATOM     11  O   UNL     1       4.117  -5.117  -9.883  1.00  0.00    -0.550 OA
ENDBRANCH   8   9
ENDBRANCH   7   8
ENDBRANCH   6   7
ENDBRANCH   5   6
ENDBRANCH   4   5
ENDBRANCH   3   4
ENDBRANCH   2   3
ENDBRANCH   1   2
BRANCH   1  12
ATOM     12  C   UNL     1      -4.286   2.862 -10.107  1.00  0.00     0.000 C 
BRANCH  12  13
ATOM     13  C   UNL     1      -4.745   4.257  -9.653  1.00  0.00    -0.000 C 
BRANCH  13  14
ATOM     14  C   UNL     1      -6.253   4.478  -9.848  1.00  0.00    -0.000 C 
BRANCH  14  15
ATOM     15  C   UNL     1      -6.873   5.147  -8.615  1.00  0.00    -0.000 C 
BRANCH  15  16
ATOM     16  C   UNL     1      -8.124   5.953  -8.998  1.00  0.00    -0.000 C 
BRANCH  16  17
ATOM     17  C   UNL     1      -7.846   7.462  -9.106  1.00  0.00    -0.000 C 
BRANCH  17  18
ATOM     18  C   UNL     1      -6.372   7.774  -9.400  1.00  0.00    -0.000 C 
BRANCH  18  19
ATOM     19  C   UNL     1      -6.129   9.287  -9.436  1.00  0.00    -0.003 C 
ATOM     20  C   UNL     1      -7.315  10.050  -8.853  1.00  0.00     0.004 C 
ENDBRANCH  18  19
ENDBRANCH  17  18
ENDBRANCH  16  17
ENDBRANCH  15  16
ENDBRANCH  14  15
ENDBRANCH  13  14
ENDBRANCH  12  13
ENDBRANCH   1  12
TORSDOF 16
ENDMDL
MODEL 5
REMARK VINA RESULT:    -1.002     20.897     21.606
REMARK INTER + INTRA:          -2.508
REMARK INTER:                  -1.797
REMARK INTRA:                  -0.710
REMARK UNBOUND:                -0.568
REMARK SMILES CCCCCCCCCCCCCCCCCC(=O)[O-]
REMARK SMILES IDX 10 1 11 2 12 3 13 4 14 5 15 6 16 7 17 8 18 9 19 10 20 11
REMARK SMILES IDX 9 12 8 13 7 14 6 15 5 16 4 17 3 18 2 19 1 20
REMARK H PARENT
REMARK Flexibility Score: inf
ROOT
ATOM      1  C   UNL     1       8.294  -5.957  -9.716  1.00  0.00     0.000 C 
ENDROOT
BRANCH   1   2
ATOM      2  C   UNL     1       9.575  -6.659  -9.229  1.00  0.00     0.000 C 
BRANCH   2   3
ATOM      3  C   UNL     1       9.378  -8.099  -8.712  1.00  0.00     0.000 C 
BRANCH   3   4
ATOM      4  C   UNL     1       7.930  -8.463  -8.329  1.00  0.00     0.000 C 
BRANCH   4   5
ATOM      5  C   UNL     1       7.491  -9.886  -8.727  1.00  0.00     0.000 C 
BRANCH   5   6
ATOM      6  C   UNL     1       6.507  -9.958  -9.913  1.00  0.00     0.000 C 
BRANCH   6   7
ATOM      7  C   UNL     1       5.021 -10.034  -9.520  1.00  0.00     0.006 C 
BRANCH   7   8
ATOM      8  C   UNL     1       4.635  -9.009  -8.447  1.00  0.00     0.053 C 
BRANCH   8   9
ATOM      9  C   UNL     1       4.492  -7.649  -9.054  1.00  0.00     0.041 C 
ATOM     10  O   UNL     1       5.167  -7.333 -10.070  1.00  0.00    -0.550 OA
ATOM     11  O   UNL     1       3.580  -6.745  -8.527  1.00  0.00    -0.550 OA
ENDBRANCH   8   9
ENDBRANCH   7   8
ENDBRANCH   6   7
ENDBRANCH   5   6
ENDBRANCH   4   5
ENDBRANCH   3   4
ENDBRANCH   2   3
ENDBRANCH   1   2
BRANCH   1  12
ATOM     12  C   UNL     1       8.491  -4.449  -9.945  1.00  0.00     0.000 C 
BRANCH  12  13
ATOM     13  C   UNL     1       7.158  -3.699 -10.106  1.00  0.00    -0.000 C 
BRANCH  13  14
ATOM     14  C   UNL     1       6.059  -4.237  -9.178  1.00  0.00    -0.000 C 
BRANCH  14  15
ATOM     15  C   UNL     1       4.693  -3.645  -9.545  1.00  0.00    -0.000 C 
BRANCH  15  16
ATOM     16  C   UNL     1       4.817  -2.155  -9.901  1.00  0.00    -0.000 C 
BRANCH  16  17
ATOM     17  C   UNL     1       3.472  -1.415  -9.831  1.00  0.00    -0.000 C 
BRANCH  17  18
ATOM     18  C   UNL     1       2.292  -2.355  -9.543  1.00  0.00    -0.000 C 
BRANCH  18  19
ATOM     19  C   UNL     1       0.985  -1.567  -9.403  1.00  0.00    -0.003 C 
ATOM     20  C   UNL     1       1.109  -0.178 -10.023  1.00  0.00     0.004 C 
ENDBRANCH  18  19
ENDBRANCH  17  18
ENDBRANCH  16  17
ENDBRANCH  15  16
ENDBRANCH  14  15
ENDBRANCH  13  14
ENDBRANCH  12  13
ENDBRANCH   1  12
TORSDOF 16
ENDMDL
