MODEL 1
REMARK VINA RESULT:    -5.412      0.000      0.000
REMARK INTER + INTRA:         -14.711
REMARK INTER:                 -12.372
REMARK INTRA:                  -2.339
REMARK UNBOUND:                -2.339
REMARK SMILES CCCCCCCCCCCCCCCCCCCCCCCC(=O)[O-]
REMARK SMILES IDX 13 1 14 2 15 3 16 4 17 5 18 6 19 7 20 8 21 9 22 10 23 11
REMARK SMILES IDX 24 12 25 13 26 14 12 15 11 16 10 17 9 18 8 19 7 20 6 21 5 22
REMARK SMILES IDX 4 23 3 24 2 25 1 26
REMARK H PARENT
REMARK Flexibility Score: inf
ROOT
ATOM      1  C   UNL     1      10.930  49.648  22.643  1.00  0.00     0.000 C 
ENDROOT
BRANCH   1   2
ATOM      2  C   UNL     1      11.762  48.878  23.689  1.00  0.00     0.000 C 
BRANCH   2   3
ATOM      3  C   UNL     1      10.977  48.391  24.924  1.00  0.00     0.000 C 
BRANCH   3   4
ATOM      4  C   UNL     1       9.698  47.594  24.608  1.00  0.00     0.000 C 
BRANCH   4   5
ATOM      5  C   UNL     1       9.915  46.324  23.763  1.00  0.00     0.000 C 
BRANCH   5   6
ATOM      6  C   UNL     1      10.953  45.347  24.358  1.00  0.00     0.000 C 
BRANCH   6   7
ATOM      7  C   UNL     1      10.378  44.507  25.510  1.00  0.00     0.000 C 
BRANCH   7   8
ATOM      8  C   UNL     1      11.087  44.777  26.848  1.00  0.00     0.000 C 
BRANCH   8   9
ATOM      9  C   UNL     1      12.474  45.416  26.664  1.00  0.00     0.000 C 
BRANCH   9  10
ATOM     10  C   UNL     1      12.811  46.430  27.772  1.00  0.00     0.006 C 
BRANCH  10  11
ATOM     11  C   UNL     1      13.715  47.586  27.313  1.00  0.00     0.053 C 
BRANCH  11  12
ATOM     12  C   UNL     1      13.541  48.804  28.166  1.00  0.00     0.041 C 
ATOM     13  O   UNL     1      12.665  48.826  29.072  1.00  0.00    -0.550 OA
ATOM     14  O   UNL     1      14.365  49.908  27.978  1.00  0.00    -0.550 OA
ENDBRANCH  11  12
ENDBRANCH  10  11
ENDBRANCH   9  10
ENDBRANCH   8   9
ENDBRANCH   7   8
ENDBRANCH   6   7
ENDBRANCH   5   6
ENDBRANCH   4   5
ENDBRANCH   3   4
ENDBRANCH   2   3
ENDBRANCH   1   2
BRANCH   1  15
ATOM     15  C   UNL     1      10.657  51.124  22.981  1.00  0.00     0.000 C 
BRANCH  15  16
ATOM     16  C   UNL     1      10.386  51.980  21.731  1.00  0.00     0.000 C 
BRANCH  16  17
ATOM     17  C   UNL     1      10.713  53.466  21.948  1.00  0.00     0.000 C 
BRANCH  17  18
ATOM     18  C   UNL     1      10.382  53.947  23.369  1.00  0.00    -0.000 C 
BRANCH  18  19
ATOM     19  C   UNL     1       9.208  54.939  23.352  1.00  0.00    -0.000 C 
BRANCH  19  20
ATOM     20  C   UNL     1       7.900  54.307  22.843  1.00  0.00    -0.000 C 
BRANCH  20  21
ATOM     21  C   UNL     1       7.012  55.239  21.993  1.00  0.00    -0.000 C 
BRANCH  21  22
ATOM     22  C   UNL     1       7.771  56.187  21.047  1.00  0.00    -0.000 C 
BRANCH  22  23
ATOM     23  C   UNL     1       8.222  55.499  19.747  1.00  0.00    -0.000 C 
BRANCH  23  24
ATOM     24  C   UNL     1       7.335  54.300  19.374  1.00  0.00    -0.000 C 
BRANCH  24  25
ATOM     25  C   UNL     1       6.901  54.319  17.901  1.00  0.00    -0.003 C 
ATOM     26  C   UNL     1       7.374  55.593  17.207  1.00  0.00     0.004 C 
ENDBRANCH  24  25
ENDBRANCH  23  24
ENDBRANCH  22  23
ENDBRANCH  21  22
ENDBRANCH  20  21
ENDBRANCH  19  20
ENDBRANCH  18  19
ENDBRANCH  17  18
ENDBRANCH  16  17
ENDBRANCH  15  16
ENDBRANCH   1  15
TORSDOF 22
ENDMDL
MODEL 2
REMARK VINA RESULT:    -5.383      3.770     10.523
REMARK INTER + INTRA:         -14.646
REMARK INTER:                 -12.295
REMARK INTRA:                  -2.351
REMARK UNBOUND:                -2.339
REMARK SMILES CCCCCCCCCCCCCCCCCCCCCCCC(=O)[O-]
REMARK SMILES IDX 13 1 14 2 15 3 16 4 17 5 18 6 19 7 20 8 21 9 22 10 23 11
REMARK SMILES IDX 24 12 25 13 26 14 12 15 11 16 10 17 9 18 8 19 7 20 6 21 5 22
REMARK SMILES IDX 4 23 3 24 2 25 1 26
REMARK H PARENT
REMARK Flexibility Score: inf
ROOT
ATOM      1  C   UNL     1      10.684  51.052  23.144  1.00  0.00     0.000 C 
ENDROOT
BRANCH   1   2
ATOM      2  C   UNL     1      10.409  51.952  21.922  1.00  0.00     0.000 C 
BRANCH   2   3
ATOM      3  C   UNL     1      11.061  53.348  21.975  1.00  0.00     0.000 C 
BRANCH   3   4
ATOM      4  C   UNL     1      11.034  54.026  23.358  1.00  0.00     0.000 C 
BRANCH   4   5
ATOM      5  C   UNL     1       9.884  55.030  23.569  1.00  0.00     0.000 C 
BRANCH   5   6
ATOM      6  C   UNL     1       8.751  54.501  24.476  1.00  0.00     0.000 C 
BRANCH   6   7
ATOM      7  C   UNL     1       7.615  53.842  23.675  1.00  0.00     0.000 C 
BRANCH   7   8
ATOM      8  C   UNL     1       7.609  54.270  22.198  1.00  0.00     0.000 C 
BRANCH   8   9
ATOM      9  C   UNL     1       6.657  55.449  21.928  1.00  0.00     0.000 C 
BRANCH   9  10
ATOM     10  C   UNL     1       7.231  56.452  20.912  1.00  0.00     0.006 C 
BRANCH  10  11
ATOM     11  C   UNL     1       8.264  55.850  19.947  1.00  0.00     0.053 C 
BRANCH  11  12
ATOM     12  C   UNL     1       7.641  55.431  18.651  1.00  0.00     0.041 C 
ATOM     13  O   UNL     1       7.334  56.295  17.786  1.00  0.00    -0.550 OA
ATOM     14  O   UNL     1       7.422  54.084  18.388  1.00  0.00    -0.550 OA
ENDBRANCH  11  12
ENDBRANCH  10  11
ENDBRANCH   9  10
ENDBRANCH   8   9
ENDBRANCH   7   8
ENDBRANCH   6   7
ENDBRANCH   5   6
ENDBRANCH   4   5
ENDBRANCH   3   4
ENDBRANCH   2   3
ENDBRANCH   1   2
BRANCH   1  15
ATOM     15  C   UNL     1      10.757  49.544  22.844  1.00  0.00     0.000 C 
BRANCH  15  16
ATOM     16  C   UNL     1      12.147  48.948  23.126  1.00  0.00     0.000 C 
BRANCH  16  17
ATOM     17  C   UNL     1      12.082  47.481  23.577  1.00  0.00     0.000 C 
BRANCH  17  18
ATOM     18  C   UNL     1      10.688  46.862  23.391  1.00  0.00    -0.000 C 
BRANCH  18  19
ATOM     19  C   UNL     1      10.621  45.461  24.020  1.00  0.00    -0.000 C 
BRANCH  19  20
ATOM     20  C   UNL     1      11.577  45.297  25.215  1.00  0.00    -0.000 C 
BRANCH  20  21
ATOM     21  C   UNL     1      10.924  44.766  26.507  1.00  0.00    -0.000 C 
BRANCH  21  22
ATOM     22  C   UNL     1      11.889  44.530  27.683  1.00  0.00    -0.000 C 
BRANCH  22  23
ATOM     23  C   UNL     1      12.977  45.611  27.788  1.00  0.00    -0.000 C 
BRANCH  23  24
ATOM     24  C   UNL     1      12.680  46.645  28.887  1.00  0.00    -0.000 C 
BRANCH  24  25
ATOM     25  C   UNL     1      13.090  48.070  28.487  1.00  0.00    -0.003 C 
ATOM     26  C   UNL     1      12.670  48.379  27.053  1.00  0.00     0.004 C 
ENDBRANCH  24  25
ENDBRANCH  23  24
ENDBRANCH  22  23
ENDBRANCH  21  22
ENDBRANCH  20  21
ENDBRANCH  19  20
ENDBRANCH  18  19
ENDBRANCH  17  18
ENDBRANCH  16  17
ENDBRANCH  15  16
ENDBRANCH   1  15
TORSDOF 22
ENDMDL
MODEL 3
REMARK VINA RESULT:    -5.242      4.365     10.221
REMARK INTER + INTRA:         -14.323
REMARK INTER:                 -12.447
REMARK INTRA:                  -1.876
REMARK UNBOUND:                -2.339
REMARK SMILES CCCCCCCCCCCCCCCCCCCCCCCC(=O)[O-]
REMARK SMILES IDX 13 1 14 2 15 3 16 4 17 5 18 6 19 7 20 8 21 9 22 10 23 11
REMARK SMILES IDX 24 12 25 13 26 14 12 15 11 16 10 17 9 18 8 19 7 20 6 21 5 22
REMARK SMILES IDX 4 23 3 24 2 25 1 26
REMARK H PARENT
REMARK Flexibility Score: inf
ROOT
ATOM      1  C   UNL     1      10.883  53.655  21.900  1.00  0.00     0.000 C 
ENDROOT
BRANCH   1   2
ATOM      2  C   UNL     1      11.157  54.081  23.357  1.00  0.00     0.000 C 
BRANCH   2   3
ATOM      3  C   UNL     1      10.224  55.179  23.906  1.00  0.00     0.000 C 
BRANCH   3   4
ATOM      4  C   UNL     1       9.089  54.672  24.817  1.00  0.00     0.000 C 
BRANCH   4   5
ATOM      5  C   UNL     1       8.116  53.679  24.153  1.00  0.00     0.000 C 
BRANCH   5   6
ATOM      6  C   UNL     1       6.972  54.355  23.368  1.00  0.00     0.000 C 
BRANCH   6   7
ATOM      7  C   UNL     1       7.354  54.648  21.907  1.00  0.00     0.000 C 
BRANCH   7   8
ATOM      8  C   UNL     1       6.679  55.919  21.364  1.00  0.00     0.000 C 
BRANCH   8   9
ATOM      9  C   UNL     1       7.286  56.386  20.029  1.00  0.00     0.000 C 
BRANCH   9  10
ATOM     10  C   UNL     1       8.188  55.320  19.383  1.00  0.00     0.006 C 
BRANCH  10  11
ATOM     11  C   UNL     1       7.439  54.321  18.486  1.00  0.00     0.053 C 
BRANCH  11  12
ATOM     12  C   UNL     1       6.949  54.962  17.224  1.00  0.00     0.041 C 
ATOM     13  O   UNL     1       6.114  54.366  16.493  1.00  0.00    -0.550 OA
ATOM     14  O   UNL     1       7.395  56.230  16.870  1.00  0.00    -0.550 OA
ENDBRANCH  11  12
ENDBRANCH  10  11
ENDBRANCH   9  10
ENDBRANCH   8   9
ENDBRANCH   7   8
ENDBRANCH   6   7
ENDBRANCH   5   6
ENDBRANCH   4   5
ENDBRANCH   3   4
ENDBRANCH   2   3
ENDBRANCH   1   2
BRANCH   1  15
ATOM     15  C   UNL     1      10.306  52.238  21.729  1.00  0.00     0.000 C 
BRANCH  15  16
ATOM     16  C   UNL     1      10.682  51.299  22.889  1.00  0.00     0.000 C 
BRANCH  16  17
ATOM     17  C   UNL     1      10.731  49.823  22.464  1.00  0.00     0.000 C 
BRANCH  17  18
ATOM     18  C   UNL     1      11.676  48.982  23.336  1.00  0.00    -0.000 C 
BRANCH  18  19
ATOM     19  C   UNL     1      10.920  48.359  24.520  1.00  0.00    -0.000 C 
BRANCH  19  20
ATOM     20  C   UNL     1      11.770  47.341  25.302  1.00  0.00    -0.000 C 
BRANCH  20  21
ATOM     21  C   UNL     1      11.344  45.868  25.133  1.00  0.00    -0.000 C 
BRANCH  21  22
ATOM     22  C   UNL     1      10.743  45.511  23.762  1.00  0.00    -0.000 C 
BRANCH  22  23
ATOM     23  C   UNL     1      10.010  44.158  23.765  1.00  0.00    -0.000 C 
BRANCH  23  24
ATOM     24  C   UNL     1       8.495  44.305  23.550  1.00  0.00    -0.000 C 
BRANCH  24  25
ATOM     25  C   UNL     1       7.977  45.705  23.915  1.00  0.00    -0.003 C 
ATOM     26  C   UNL     1       7.528  45.760  25.372  1.00  0.00     0.004 C 
ENDBRANCH  24  25
ENDBRANCH  23  24
ENDBRANCH  22  23
ENDBRANCH  21  22
ENDBRANCH  20  21
ENDBRANCH  19  20
ENDBRANCH  18  19
ENDBRANCH  17  18
ENDBRANCH  16  17
ENDBRANCH  15  16
ENDBRANCH   1  15
TORSDOF 22
ENDMDL
MODEL 4
REMARK VINA RESULT:    -5.180      8.280     14.496
REMARK INTER + INTRA:         -14.182
REMARK INTER:                 -11.943
REMARK INTRA:                  -2.239
REMARK UNBOUND:                -2.339
REMARK SMILES CCCCCCCCCCCCCCCCCCCCCCCC(=O)[O-]
REMARK SMILES IDX 13 1 14 2 15 3 16 4 17 5 18 6 19 7 20 8 21 9 22 10 23 11
REMARK SMILES IDX 24 12 25 13 26 14 12 15 11 16 10 17 9 18 8 19 7 20 6 21 5 22
REMARK SMILES IDX 4 23 3 24 2 25 1 26
REMARK H PARENT
REMARK Flexibility Score: inf
ROOT
ATOM      1  C   UNL     1       2.946  59.295  22.314  1.00  0.00     0.000 C 
ENDROOT
BRANCH   1   2
ATOM      2  C   UNL     1       1.690  60.094  22.719  1.00  0.00     0.000 C 
BRANCH   2   3
ATOM      3  C   UNL     1       0.554  59.259  23.343  1.00  0.00     0.000 C 
BRANCH   3   4
ATOM      4  C   UNL     1      -0.329  58.503  22.332  1.00  0.00     0.000 C 
BRANCH   4   5
ATOM      5  C   UNL     1      -1.728  59.108  22.110  1.00  0.00     0.000 C 
BRANCH   5   6
ATOM      6  C   UNL     1      -1.875  59.867  20.773  1.00  0.00     0.000 C 
BRANCH   6   7
ATOM      7  C   UNL     1      -1.591  61.372  20.916  1.00  0.00     0.000 C 
BRANCH   7   8
ATOM      8  C   UNL     1      -0.325  61.808  20.160  1.00  0.00     0.000 C 
BRANCH   8   9
ATOM      9  C   UNL     1      -0.062  60.955  18.906  1.00  0.00     0.000 C 
BRANCH   9  10
ATOM     10  C   UNL     1       1.294  61.271  18.249  1.00  0.00     0.006 C 
BRANCH  10  11
ATOM     11  C   UNL     1       1.991  60.050  17.628  1.00  0.00     0.053 C 
BRANCH  11  12
ATOM     12  C   UNL     1       1.804  59.993  16.143  1.00  0.00     0.041 C 
ATOM     13  O   UNL     1       0.996  59.170  15.636  1.00  0.00    -0.550 OA
ATOM     14  O   UNL     1       2.503  60.869  15.321  1.00  0.00    -0.550 OA
ENDBRANCH  11  12
ENDBRANCH  10  11
ENDBRANCH   9  10
ENDBRANCH   8   9
ENDBRANCH   7   8
ENDBRANCH   6   7
ENDBRANCH   5   6
ENDBRANCH   4   5
ENDBRANCH   3   4
ENDBRANCH   2   3
ENDBRANCH   1   2
BRANCH   1  15
ATOM     15  C   UNL     1       3.147  59.115  20.798  1.00  0.00     0.000 C 
BRANCH  15  16
ATOM     16  C   UNL     1       4.354  58.222  20.460  1.00  0.00     0.000 C 
BRANCH  16  17
ATOM     17  C   UNL     1       4.827  57.388  21.661  1.00  0.00     0.000 C 
BRANCH  17  18
ATOM     18  C   UNL     1       5.905  56.360  21.284  1.00  0.00    -0.000 C 
BRANCH  18  19
ATOM     19  C   UNL     1       6.810  56.899  20.165  1.00  0.00    -0.000 C 
BRANCH  19  20
ATOM     20  C   UNL     1       8.174  56.187  20.104  1.00  0.00    -0.000 C 
BRANCH  20  21
ATOM     21  C   UNL     1       8.153  54.700  20.511  1.00  0.00    -0.000 C 
BRANCH  21  22
ATOM     22  C   UNL     1       9.412  54.201  21.243  1.00  0.00    -0.000 C 
BRANCH  22  23
ATOM     23  C   UNL     1       9.085  53.376  22.499  1.00  0.00    -0.000 C 
BRANCH  23  24
ATOM     24  C   UNL     1       8.974  54.243  23.764  1.00  0.00    -0.000 C 
BRANCH  24  25
ATOM     25  C   UNL     1      10.139  55.234  23.907  1.00  0.00    -0.003 C 
ATOM     26  C   UNL     1      11.223  54.677  24.826  1.00  0.00     0.004 C 
ENDBRANCH  24  25
ENDBRANCH  23  24
ENDBRANCH  22  23
ENDBRANCH  21  22
ENDBRANCH  20  21
ENDBRANCH  19  20
ENDBRANCH  18  19
ENDBRANCH  17  18
ENDBRANCH  16  17
ENDBRANCH  15  16
ENDBRANCH   1  15
TORSDOF 22
ENDMDL
MODEL 5
REMARK VINA RESULT:    -5.103      4.274     10.683
REMARK INTER + INTRA:         -14.004
REMARK INTER:                 -12.247
REMARK INTRA:                  -1.758
REMARK UNBOUND:                -2.339
REMARK SMILES CCCCCCCCCCCCCCCCCCCCCCCC(=O)[O-]
REMARK SMILES IDX 13 1 14 2 15 3 16 4 17 5 18 6 19 7 20 8 21 9 22 10 23 11
REMARK SMILES IDX 24 12 25 13 26 14 12 15 11 16 10 17 9 18 8 19 7 20 6 21 5 22
REMARK SMILES IDX 4 23 3 24 2 25 1 26
REMARK H PARENT
REMARK Flexibility Score: inf
ROOT
ATOM      1  C   UNL     1      10.980  53.596  22.097  1.00  0.00     0.000 C 
ENDROOT
BRANCH   1   2
ATOM      2  C   UNL     1      11.123  53.929  23.596  1.00  0.00     0.000 C 
BRANCH   2   3
ATOM      3  C   UNL     1      10.494  55.267  24.034  1.00  0.00     0.000 C 
BRANCH   3   4
ATOM      4  C   UNL     1       9.141  55.141  24.762  1.00  0.00     0.000 C 
BRANCH   4   5
ATOM      5  C   UNL     1       8.352  53.855  24.452  1.00  0.00     0.000 C 
BRANCH   5   6
ATOM      6  C   UNL     1       7.185  54.061  23.462  1.00  0.00     0.000 C 
BRANCH   6   7
ATOM      7  C   UNL     1       7.647  54.664  22.125  1.00  0.00     0.000 C 
BRANCH   7   8
ATOM      8  C   UNL     1       6.595  55.599  21.504  1.00  0.00     0.000 C 
BRANCH   8   9
ATOM      9  C   UNL     1       7.078  56.244  20.193  1.00  0.00     0.000 C 
BRANCH   9  10
ATOM     10  C   UNL     1       8.051  55.344  19.413  1.00  0.00     0.006 C 
BRANCH  10  11
ATOM     11  C   UNL     1       7.363  54.304  18.513  1.00  0.00     0.053 C 
BRANCH  11  12
ATOM     12  C   UNL     1       6.878  54.908  17.232  1.00  0.00     0.041 C 
ATOM     13  O   UNL     1       6.078  54.274  16.493  1.00  0.00    -0.550 OA
ATOM     14  O   UNL     1       7.288  56.185  16.866  1.00  0.00    -0.550 OA
ENDBRANCH  11  12
ENDBRANCH  10  11
ENDBRANCH   9  10
ENDBRANCH   8   9
ENDBRANCH   7   8
ENDBRANCH   6   7
ENDBRANCH   5   6
ENDBRANCH   4   5
ENDBRANCH   3   4
ENDBRANCH   2   3
ENDBRANCH   1   2
BRANCH   1  15
ATOM     15  C   UNL     1      10.514  52.162  21.786  1.00  0.00     0.000 C 
BRANCH  15  16
ATOM     16  C   UNL     1      10.508  51.256  23.030  1.00  0.00     0.000 C 
BRANCH  16  17
ATOM     17  C   UNL     1      11.065  49.853  22.744  1.00  0.00     0.000 C 
BRANCH  17  18
ATOM     18  C   UNL     1      10.780  48.855  23.877  1.00  0.00    -0.000 C 
BRANCH  18  19
ATOM     19  C   UNL     1      11.176  47.429  23.465  1.00  0.00    -0.000 C 
BRANCH  19  20
ATOM     20  C   UNL     1      11.403  46.500  24.671  1.00  0.00    -0.000 C 
BRANCH  20  21
ATOM     21  C   UNL     1      12.843  46.485  25.224  1.00  0.00    -0.000 C 
BRANCH  21  22
ATOM     22  C   UNL     1      13.107  45.461  26.342  1.00  0.00    -0.000 C 
BRANCH  22  23
ATOM     23  C   UNL     1      12.449  45.852  27.677  1.00  0.00    -0.000 C 
BRANCH  23  24
ATOM     24  C   UNL     1      13.319  46.809  28.508  1.00  0.00    -0.000 C 
BRANCH  24  25
ATOM     25  C   UNL     1      12.705  48.211  28.631  1.00  0.00    -0.003 C 
ATOM     26  C   UNL     1      13.731  49.290  28.297  1.00  0.00     0.004 C 
ENDBRANCH  24  25
ENDBRANCH  23  24
ENDBRANCH  22  23
ENDBRANCH  21  22
ENDBRANCH  20  21
ENDBRANCH  19  20
ENDBRANCH  18  19
ENDBRANCH  17  18
ENDBRANCH  16  17
ENDBRANCH  15  16
ENDBRANCH   1  15
TORSDOF 22
ENDMDL
MODEL 6
REMARK VINA RESULT:    -5.072      6.563     10.616
REMARK INTER + INTRA:         -13.936
REMARK INTER:                 -11.927
REMARK INTRA:                  -2.009
REMARK UNBOUND:                -2.339
REMARK SMILES CCCCCCCCCCCCCCCCCCCCCCCC(=O)[O-]
REMARK SMILES IDX 13 1 14 2 15 3 16 4 17 5 18 6 19 7 20 8 21 9 22 10 23 11
REMARK SMILES IDX 24 12 25 13 26 14 12 15 11 16 10 17 9 18 8 19 7 20 6 21 5 22
REMARK SMILES IDX 4 23 3 24 2 25 1 26
REMARK H PARENT
REMARK Flexibility Score: inf
ROOT
ATOM      1  C   UNL     1       3.174  59.268  20.530  1.00  0.00     0.000 C 
ENDROOT
BRANCH   1   2
ATOM      2  C   UNL     1       4.033  58.321  21.392  1.00  0.00     0.000 C 
BRANCH   2   3
ATOM      3  C   UNL     1       5.044  57.459  20.610  1.00  0.00     0.000 C 
BRANCH   3   4
ATOM      4  C   UNL     1       5.857  56.471  21.468  1.00  0.00     0.000 C 
BRANCH   4   5
ATOM      5  C   UNL     1       7.387  56.606  21.344  1.00  0.00     0.000 C 
BRANCH   5   6
ATOM      6  C   UNL     1       7.937  56.216  19.955  1.00  0.00     0.000 C 
BRANCH   6   7
ATOM      7  C   UNL     1       8.043  54.692  19.770  1.00  0.00     0.000 C 
BRANCH   7   8
ATOM      8  C   UNL     1       8.549  53.978  21.035  1.00  0.00     0.000 C 
BRANCH   8   9
ATOM      9  C   UNL     1      10.052  53.655  20.970  1.00  0.00     0.000 C 
BRANCH   9  10
ATOM     10  C   UNL     1      10.618  53.190  22.323  1.00  0.00     0.006 C 
BRANCH  10  11
ATOM     11  C   UNL     1       9.761  53.592  23.534  1.00  0.00     0.053 C 
BRANCH  11  12
ATOM     12  C   UNL     1      10.311  54.799  24.231  1.00  0.00     0.041 C 
ATOM     13  O   UNL     1       9.916  55.952  23.911  1.00  0.00    -0.550 OA
ATOM     14  O   UNL     1      11.240  54.648  25.254  1.00  0.00    -0.550 OA
ENDBRANCH  11  12
ENDBRANCH  10  11
ENDBRANCH   9  10
ENDBRANCH   8   9
ENDBRANCH   7   8
ENDBRANCH   6   7
ENDBRANCH   5   6
ENDBRANCH   4   5
ENDBRANCH   3   4
ENDBRANCH   2   3
ENDBRANCH   1   2
BRANCH   1  15
ATOM     15  C   UNL     1       2.385  60.333  21.314  1.00  0.00     0.000 C 
BRANCH  15  16
ATOM     16  C   UNL     1       1.900  59.824  22.684  1.00  0.00     0.000 C 
BRANCH  16  17
ATOM     17  C   UNL     1       0.382  59.977  22.868  1.00  0.00     0.000 C 
BRANCH  17  18
ATOM     18  C   UNL     1      -0.013  61.341  23.455  1.00  0.00    -0.000 C 
BRANCH  18  19
ATOM     19  C   UNL     1      -1.276  61.887  22.772  1.00  0.00    -0.000 C 
BRANCH  19  20
ATOM     20  C   UNL     1      -1.452  61.364  21.335  1.00  0.00    -0.000 C 
BRANCH  20  21
ATOM     21  C   UNL     1      -0.928  62.302  20.229  1.00  0.00    -0.000 C 
BRANCH  21  22
ATOM     22  C   UNL     1      -0.801  61.666  18.833  1.00  0.00    -0.000 C 
BRANCH  22  23
ATOM     23  C   UNL     1       0.651  61.621  18.327  1.00  0.00    -0.000 C 
BRANCH  23  24
ATOM     24  C   UNL     1       1.012  60.271  17.687  1.00  0.00    -0.000 C 
BRANCH  24  25
ATOM     25  C   UNL     1       2.408  60.274  17.045  1.00  0.00    -0.003 C 
ATOM     26  C   UNL     1       2.312  60.377  15.525  1.00  0.00     0.004 C 
ENDBRANCH  24  25
ENDBRANCH  23  24
ENDBRANCH  22  23
ENDBRANCH  21  22
ENDBRANCH  20  21
ENDBRANCH  19  20
ENDBRANCH  18  19
ENDBRANCH  17  18
ENDBRANCH  16  17
ENDBRANCH  15  16
ENDBRANCH   1  15
TORSDOF 22
ENDMDL
MODEL 7
REMARK VINA RESULT:    -4.998      3.048      4.028
REMARK INTER + INTRA:         -13.766
REMARK INTER:                 -12.043
REMARK INTRA:                  -1.723
REMARK UNBOUND:                -2.339
REMARK SMILES CCCCCCCCCCCCCCCCCCCCCCCC(=O)[O-]
REMARK SMILES IDX 13 1 14 2 15 3 16 4 17 5 18 6 19 7 20 8 21 9 22 10 23 11
REMARK SMILES IDX 24 12 25 13 26 14 12 15 11 16 10 17 9 18 8 19 7 20 6 21 5 22
REMARK SMILES IDX 4 23 3 24 2 25 1 26
REMARK H PARENT
REMARK Flexibility Score: inf
ROOT
ATOM      1  C   UNL     1      10.717  49.735  22.724  1.00  0.00     0.000 C 
ENDROOT
BRANCH   1   2
ATOM      2  C   UNL     1      12.036  49.040  23.114  1.00  0.00     0.000 C 
BRANCH   2   3
ATOM      3  C   UNL     1      11.888  47.844  24.077  1.00  0.00     0.000 C 
BRANCH   3   4
ATOM      4  C   UNL     1      11.392  46.540  23.422  1.00  0.00     0.000 C 
BRANCH   4   5
ATOM      5  C   UNL     1      10.479  45.673  24.310  1.00  0.00     0.000 C 
BRANCH   5   6
ATOM      6  C   UNL     1       9.019  46.171  24.382  1.00  0.00     0.000 C 
BRANCH   6   7
ATOM      7  C   UNL     1       8.021  45.153  23.806  1.00  0.00     0.000 C 
BRANCH   7   8
ATOM      8  C   UNL     1       7.702  44.016  24.792  1.00  0.00     0.000 C 
BRANCH   8   9
ATOM      9  C   UNL     1       7.706  44.486  26.257  1.00  0.00     0.000 C 
BRANCH   9  10
ATOM     10  C   UNL     1       6.318  44.949  26.734  1.00  0.00     0.006 C 
BRANCH  10  11
ATOM     11  C   UNL     1       6.132  44.913  28.260  1.00  0.00     0.053 C 
BRANCH  11  12
ATOM     12  C   UNL     1       5.357  46.095  28.757  1.00  0.00     0.041 C 
ATOM     13  O   UNL     1       5.488  47.219  28.202  1.00  0.00    -0.550 OA
ATOM     14  O   UNL     1       4.470  45.948  29.817  1.00  0.00    -0.550 OA
ENDBRANCH  11  12
ENDBRANCH  10  11
ENDBRANCH   9  10
ENDBRANCH   8   9
ENDBRANCH   7   8
ENDBRANCH   6   7
ENDBRANCH   5   6
ENDBRANCH   4   5
ENDBRANCH   3   4
ENDBRANCH   2   3
ENDBRANCH   1   2
BRANCH   1  15
ATOM     15  C   UNL     1      10.673  51.251  22.986  1.00  0.00     0.000 C 
BRANCH  15  16
ATOM     16  C   UNL     1      10.265  52.059  21.741  1.00  0.00     0.000 C 
BRANCH  16  17
ATOM     17  C   UNL     1      10.754  53.514  21.793  1.00  0.00     0.000 C 
BRANCH  17  18
ATOM     18  C   UNL     1      10.668  54.122  23.202  1.00  0.00    -0.000 C 
BRANCH  18  19
ATOM     19  C   UNL     1       9.509  55.126  23.297  1.00  0.00    -0.000 C 
BRANCH  19  20
ATOM     20  C   UNL     1       8.127  54.454  23.197  1.00  0.00    -0.000 C 
BRANCH  20  21
ATOM     21  C   UNL     1       7.300  54.842  21.954  1.00  0.00    -0.000 C 
BRANCH  21  22
ATOM     22  C   UNL     1       7.678  56.187  21.307  1.00  0.00    -0.000 C 
BRANCH  22  23
ATOM     23  C   UNL     1       7.882  56.081  19.786  1.00  0.00    -0.000 C 
BRANCH  23  24
ATOM     24  C   UNL     1       8.135  54.638  19.322  1.00  0.00    -0.000 C 
BRANCH  24  25
ATOM     25  C   UNL     1       7.212  54.216  18.169  1.00  0.00    -0.003 C 
ATOM     26  C   UNL     1       7.211  55.260  17.056  1.00  0.00     0.004 C 
ENDBRANCH  24  25
ENDBRANCH  23  24
ENDBRANCH  22  23
ENDBRANCH  21  22
ENDBRANCH  20  21
ENDBRANCH  19  20
ENDBRANCH  18  19
ENDBRANCH  17  18
ENDBRANCH  16  17
ENDBRANCH  15  16
ENDBRANCH   1  15
TORSDOF 22
ENDMDL
MODEL 8
REMARK VINA RESULT:    -4.967      6.334     10.415
REMARK INTER + INTRA:         -13.694
REMARK INTER:                 -11.844
REMARK INTRA:                  -1.849
REMARK UNBOUND:                -2.339
REMARK SMILES CCCCCCCCCCCCCCCCCCCCCCCC(=O)[O-]
REMARK SMILES IDX 13 1 14 2 15 3 16 4 17 5 18 6 19 7 20 8 21 9 22 10 23 11
REMARK SMILES IDX 24 12 25 13 26 14 12 15 11 16 10 17 9 18 8 19 7 20 6 21 5 22
REMARK SMILES IDX 4 23 3 24 2 25 1 26
REMARK H PARENT
REMARK Flexibility Score: inf
ROOT
ATOM      1  C   UNL     1       3.236  58.287  20.910  1.00  0.00     0.000 C 
ENDROOT
BRANCH   1   2
ATOM      2  C   UNL     1       4.746  58.095  20.659  1.00  0.00     0.000 C 
BRANCH   2   3
ATOM      3  C   UNL     1       5.382  56.888  21.377  1.00  0.00     0.000 C 
BRANCH   3   4
ATOM      4  C   UNL     1       6.907  56.758  21.201  1.00  0.00     0.000 C 
BRANCH   4   5
ATOM      5  C   UNL     1       7.380  56.559  19.749  1.00  0.00     0.000 C 
BRANCH   5   6
ATOM      6  C   UNL     1       7.981  55.164  19.472  1.00  0.00     0.000 C 
BRANCH   6   7
ATOM      7  C   UNL     1       8.038  54.287  20.734  1.00  0.00     0.000 C 
BRANCH   7   8
ATOM      8  C   UNL     1       9.467  53.836  21.076  1.00  0.00     0.000 C 
BRANCH   8   9
ATOM      9  C   UNL     1       9.541  53.054  22.399  1.00  0.00     0.000 C 
BRANCH   9  10
ATOM     10  C   UNL     1       8.389  53.403  23.358  1.00  0.00     0.006 C 
BRANCH  10  11
ATOM     11  C   UNL     1       8.829  54.160  24.621  1.00  0.00     0.053 C 
BRANCH  11  12
ATOM     12  C   UNL     1      10.022  55.029  24.365  1.00  0.00     0.041 C 
ATOM     13  O   UNL     1       9.901  56.093  23.701  1.00  0.00    -0.550 OA
ATOM     14  O   UNL     1      11.263  54.676  24.882  1.00  0.00    -0.550 OA
ENDBRANCH  11  12
ENDBRANCH  10  11
ENDBRANCH   9  10
ENDBRANCH   8   9
ENDBRANCH   7   8
ENDBRANCH   6   7
ENDBRANCH   5   6
ENDBRANCH   4   5
ENDBRANCH   3   4
ENDBRANCH   2   3
ENDBRANCH   1   2
BRANCH   1  15
ATOM     15  C   UNL     1       2.874  59.402  21.907  1.00  0.00     0.000 C 
BRANCH  15  16
ATOM     16  C   UNL     1       2.795  60.789  21.245  1.00  0.00     0.000 C 
BRANCH  16  17
ATOM     17  C   UNL     1       1.770  60.841  20.101  1.00  0.00     0.000 C 
BRANCH  17  18
ATOM     18  C   UNL     1       0.357  60.432  20.548  1.00  0.00    -0.000 C 
BRANCH  18  19
ATOM     19  C   UNL     1      -0.540  61.667  20.728  1.00  0.00    -0.000 C 
BRANCH  19  20
ATOM     20  C   UNL     1      -0.742  62.454  19.421  1.00  0.00    -0.000 C 
BRANCH  20  21
ATOM     21  C   UNL     1      -1.100  61.597  18.190  1.00  0.00    -0.000 C 
BRANCH  21  22
ATOM     22  C   UNL     1      -0.192  61.799  16.963  1.00  0.00    -0.000 C 
BRANCH  22  23
ATOM     23  C   UNL     1      -0.082  60.538  16.089  1.00  0.00    -0.000 C 
BRANCH  23  24
ATOM     24  C   UNL     1       1.069  59.616  16.523  1.00  0.00    -0.000 C 
BRANCH  24  25
ATOM     25  C   UNL     1       2.425  60.336  16.557  1.00  0.00    -0.003 C 
ATOM     26  C   UNL     1       2.881  60.715  15.150  1.00  0.00     0.004 C 
ENDBRANCH  24  25
ENDBRANCH  23  24
ENDBRANCH  22  23
ENDBRANCH  21  22
ENDBRANCH  20  21
ENDBRANCH  19  20
ENDBRANCH  18  19
ENDBRANCH  17  18
ENDBRANCH  16  17
ENDBRANCH  15  16
ENDBRANCH   1  15
TORSDOF 22
ENDMDL
MODEL 9
REMARK VINA RESULT:    -4.935      4.175     10.070
REMARK INTER + INTRA:         -13.621
REMARK INTER:                 -11.632
REMARK INTRA:                  -1.989
REMARK UNBOUND:                -2.339
REMARK SMILES CCCCCCCCCCCCCCCCCCCCCCCC(=O)[O-]
REMARK SMILES IDX 13 1 14 2 15 3 16 4 17 5 18 6 19 7 20 8 21 9 22 10 23 11
REMARK SMILES IDX 24 12 25 13 26 14 12 15 11 16 10 17 9 18 8 19 7 20 6 21 5 22
REMARK SMILES IDX 4 23 3 24 2 25 1 26
REMARK H PARENT
REMARK Flexibility Score: inf
ROOT
ATOM      1  C   UNL     1      10.634  49.655  22.745  1.00  0.00     0.000 C 
ENDROOT
BRANCH   1   2
ATOM      2  C   UNL     1      10.700  51.172  23.019  1.00  0.00     0.000 C 
BRANCH   2   3
ATOM      3  C   UNL     1      10.292  52.070  21.833  1.00  0.00     0.000 C 
BRANCH   3   4
ATOM      4  C   UNL     1      10.827  53.513  21.898  1.00  0.00     0.000 C 
BRANCH   4   5
ATOM      5  C   UNL     1      10.898  54.119  23.313  1.00  0.00     0.000 C 
BRANCH   5   6
ATOM      6  C   UNL     1       9.661  54.960  23.696  1.00  0.00     0.000 C 
BRANCH   6   7
ATOM      7  C   UNL     1       8.441  54.089  24.039  1.00  0.00     0.000 C 
BRANCH   7   8
ATOM      8  C   UNL     1       7.342  54.164  22.966  1.00  0.00     0.000 C 
BRANCH   8   9
ATOM      9  C   UNL     1       7.465  55.415  22.079  1.00  0.00     0.000 C 
BRANCH   9  10
ATOM     10  C   UNL     1       6.933  55.185  20.653  1.00  0.00     0.006 C 
BRANCH  10  11
ATOM     11  C   UNL     1       7.974  55.423  19.547  1.00  0.00     0.053 C 
BRANCH  11  12
ATOM     12  C   UNL     1       7.466  55.002  18.202  1.00  0.00     0.041 C 
ATOM     13  O   UNL     1       7.216  53.790  17.969  1.00  0.00    -0.550 OA
ATOM     14  O   UNL     1       7.245  55.954  17.214  1.00  0.00    -0.550 OA
ENDBRANCH  11  12
ENDBRANCH  10  11
ENDBRANCH   9  10
ENDBRANCH   8   9
ENDBRANCH   7   8
ENDBRANCH   6   7
ENDBRANCH   5   6
ENDBRANCH   4   5
ENDBRANCH   3   4
ENDBRANCH   2   3
ENDBRANCH   1   2
BRANCH   1  15
ATOM     15  C   UNL     1      11.667  48.807  23.509  1.00  0.00     0.000 C 
BRANCH  15  16
ATOM     16  C   UNL     1      11.189  48.414  24.918  1.00  0.00     0.000 C 
BRANCH  16  17
ATOM     17  C   UNL     1      12.315  47.825  25.782  1.00  0.00     0.000 C 
BRANCH  17  18
ATOM     18  C   UNL     1      12.517  46.319  25.552  1.00  0.00    -0.000 C 
BRANCH  18  19
ATOM     19  C   UNL     1      11.169  45.581  25.534  1.00  0.00    -0.000 C 
BRANCH  19  20
ATOM     20  C   UNL     1      10.835  44.981  24.156  1.00  0.00    -0.000 C 
BRANCH  20  21
ATOM     21  C   UNL     1       9.470  45.400  23.574  1.00  0.00    -0.000 C 
BRANCH  21  22
ATOM     22  C   UNL     1       8.325  44.395  23.793  1.00  0.00    -0.000 C 
BRANCH  22  23
ATOM     23  C   UNL     1       7.538  44.658  25.088  1.00  0.00    -0.000 C 
BRANCH  23  24
ATOM     24  C   UNL     1       7.116  46.128  25.236  1.00  0.00    -0.000 C 
BRANCH  24  25
ATOM     25  C   UNL     1       6.293  46.384  26.508  1.00  0.00    -0.003 C 
ATOM     26  C   UNL     1       5.068  45.475  26.560  1.00  0.00     0.004 C 
ENDBRANCH  24  25
ENDBRANCH  23  24
ENDBRANCH  22  23
ENDBRANCH  21  22
ENDBRANCH  20  21
ENDBRANCH  19  20
ENDBRANCH  18  19
ENDBRANCH  17  18
ENDBRANCH  16  17
ENDBRANCH  15  16
ENDBRANCH   1  15
TORSDOF 22
ENDMDL
