MODEL 1
REMARK VINA RESULT:   144.224      0.000      0.000
REMARK INTER + INTRA:         157.026
REMARK INTER:                 156.871
REMARK INTRA:                   0.155
REMARK UNBOUND:                 0.155
REMARK SMILES C[C@H]1[C@H](C)CC[C@@]2(C(=O)[O-])CC[C@]3(C)C(=CC[C@@H]4[C@@]5(C)CC[C@H](O)C(C)(C)[C@@H]5CC[C@]43C)[C@H]12
REMARK SMILES IDX 7 1 6 2 11 3 33 4 5 5 12 6 15 7 2 8 3 9 13 10 16 11 1 12
REMARK SMILES IDX 4 13 14 14 31 15 17 16 18 17 30 18 32 19 19 20 29 21 28 22
REMARK SMILES IDX 21 23 20 24 25 25 22 26 23 27 26 28 27 29 8 30 9 31 10 32
REMARK SMILES IDX 24 33
REMARK H PARENT 24 34
REMARK Flexibility Score: inf
ROOT
ATOM      1  C   UNL     1       0.504   9.367   8.244  1.00  0.00     0.017 C 
ATOM      2  C   UNL     1       0.472   8.471   6.971  1.00  0.00     0.014 C 
ATOM      3  C   UNL     1       0.383  10.862   7.791  1.00  0.00     0.014 C 
ATOM      4  C   UNL     1      -0.703   8.872   9.161  1.00  0.00     0.030 C 
ATOM      5  C   UNL     1       0.649   6.980   7.295  1.00  0.00     0.004 C 
ATOM      6  C   UNL     1      -0.802  11.622   8.380  1.00  0.00     0.013 C 
ATOM      7  C   UNL     1      -1.257   9.942  10.169  1.00  0.00    -0.063 C 
ATOM      8  C   UNL     1      -0.412   7.360   9.600  1.00  0.00    -0.003 C 
ATOM      9  C   UNL     1      -0.391   6.466   8.312  1.00  0.00    -0.011 C 
ATOM     10  C   UNL     1      -0.969  11.454   9.923  1.00  0.00    -0.006 C 
ATOM     11  C   UNL     1      -2.327   9.604  10.938  1.00  0.00    -0.027 C 
ATOM     12  C   UNL     1      -1.318   6.739  10.678  1.00  0.00     0.008 C 
ATOM     13  C   UNL     1      -0.097   4.980   8.600  1.00  0.00     0.008 C 
ATOM     14  C   UNL     1       0.379  11.837  10.613  1.00  0.00     0.017 C 
ATOM     15  C   UNL     1      -2.173  12.415  10.446  1.00  0.00    -0.020 C 
ATOM     16  C   UNL     1      -3.122  10.510  11.837  1.00  0.00     0.032 C 
ATOM     17  C   UNL     1      -2.577  11.946  11.899  1.00  0.00     0.006 C 
ATOM     18  C   UNL     1      -1.729  13.920  10.470  1.00  0.00     0.008 C 
ATOM     19  C   UNL     1      -3.397  12.310   9.475  1.00  0.00     0.012 C 
ATOM     20  C   UNL     1      -3.425  12.936  12.828  1.00  0.00    -0.025 C 
ATOM     21  C   UNL     1      -2.672  14.834  11.253  1.00  0.00     0.005 C 
ATOM     22  C   UNL     1      -2.777  14.365  12.725  1.00  0.00     0.003 C 
ATOM     23  C   UNL     1      -3.326  12.428  14.322  1.00  0.00     0.010 C 
ATOM     24  C   UNL     1      -4.944  12.976  12.454  1.00  0.00     0.012 C 
ATOM     25  C   UNL     1      -3.332  15.463  13.730  1.00  0.00    -0.006 C 
ATOM     26  C   UNL     1      -2.998  13.507  15.371  1.00  0.00     0.033 C 
ATOM     27  C   UNL     1      -3.737  14.828  15.116  1.00  0.00     0.120 C 
ATOM     28  C   UNL     1      -4.517  16.271  13.136  1.00  0.00     0.014 C 
ATOM     29  C   UNL     1      -2.198  16.492  14.008  1.00  0.00     0.014 C 
ENDROOT
BRANCH   1  30
ATOM     30  C   UNL     1       1.900   9.206   8.869  1.00  0.00     0.048 C 
ATOM     31  O   UNL     1       2.077   8.684  10.002  1.00  0.00    -0.550 OA
ATOM     32  O   UNL     1       3.011   9.702   8.195  1.00  0.00    -0.550 OA
ENDBRANCH   1  30
BRANCH  27  33
ATOM     33  O   UNL     1      -5.125  14.625  15.221  1.00  0.00    -0.393 OA
ATOM     34  H   UNL     1      -5.563  15.506  15.092  1.00  0.00     0.210 HD
ENDBRANCH  27  33
TORSDOF 2
ENDMDL
MODEL 2
REMARK VINA RESULT:   144.241      3.987      5.470
REMARK INTER + INTRA:         157.045
REMARK INTER:                 156.482
REMARK INTRA:                   0.563
REMARK UNBOUND:                 0.155
REMARK SMILES C[C@H]1[C@H](C)CC[C@@]2(C(=O)[O-])CC[C@]3(C)C(=CC[C@@H]4[C@@]5(C)CC[C@H](O)C(C)(C)[C@@H]5CC[C@]43C)[C@H]12
REMARK SMILES IDX 7 1 6 2 11 3 33 4 5 5 12 6 15 7 2 8 3 9 13 10 16 11 1 12
REMARK SMILES IDX 4 13 14 14 31 15 17 16 18 17 30 18 32 19 19 20 29 21 28 22
REMARK SMILES IDX 21 23 20 24 25 25 22 26 23 27 26 28 27 29 8 30 9 31 10 32
REMARK SMILES IDX 24 33
REMARK H PARENT 24 34
REMARK Flexibility Score: inf
ROOT
ATOM      1  C   UNL     1       3.480   8.972   9.008  1.00  0.00     0.017 C 
ATOM      2  C   UNL     1       4.061   7.547   9.252  1.00  0.00     0.014 C 
ATOM      3  C   UNL     1       3.485   9.242   7.465  1.00  0.00     0.014 C 
ATOM      4  C   UNL     1       2.024   8.970   9.657  1.00  0.00     0.030 C 
ATOM      5  C   UNL     1       4.162   7.199  10.744  1.00  0.00     0.004 C 
ATOM      6  C   UNL     1       2.121   9.561   6.860  1.00  0.00     0.013 C 
ATOM      7  C   UNL     1       1.024  10.021   9.054  1.00  0.00    -0.063 C 
ATOM      8  C   UNL     1       2.178   8.751  11.235  1.00  0.00    -0.003 C 
ATOM      9  C   UNL     1       2.813   7.338  11.479  1.00  0.00    -0.011 C 
ATOM     10  C   UNL     1       1.304  10.633   7.648  1.00  0.00    -0.006 C 
ATOM     11  C   UNL     1      -0.253  10.032   9.522  1.00  0.00    -0.027 C 
ATOM     12  C   UNL     1       0.929   8.944  12.113  1.00  0.00     0.008 C 
ATOM     13  C   UNL     1       3.035   7.013  12.970  1.00  0.00     0.008 C 
ATOM     14  C   UNL     1       2.189  11.910   7.813  1.00  0.00     0.017 C 
ATOM     15  C   UNL     1      -0.059  10.983   6.833  1.00  0.00    -0.020 C 
ATOM     16  C   UNL     1      -1.412  10.823   8.981  1.00  0.00     0.032 C 
ATOM     17  C   UNL     1      -1.032  11.749   7.814  1.00  0.00     0.006 C 
ATOM     18  C   UNL     1       0.242  11.869   5.574  1.00  0.00     0.008 C 
ATOM     19  C   UNL     1      -0.726   9.663   6.320  1.00  0.00     0.012 C 
ATOM     20  C   UNL     1      -2.257  12.580   7.203  1.00  0.00    -0.025 C 
ATOM     21  C   UNL     1      -0.999  12.511   4.953  1.00  0.00     0.005 C 
ATOM     22  C   UNL     1      -1.712  13.416   5.988  1.00  0.00     0.003 C 
ATOM     23  C   UNL     1      -2.794  13.569   8.314  1.00  0.00     0.010 C 
ATOM     24  C   UNL     1      -3.457  11.674   6.772  1.00  0.00     0.012 C 
ATOM     25  C   UNL     1      -2.713  14.477   5.359  1.00  0.00    -0.006 C 
ATOM     26  C   UNL     1      -3.021  15.023   7.857  1.00  0.00     0.033 C 
ATOM     27  C   UNL     1      -3.646  15.114   6.458  1.00  0.00     0.120 C 
ATOM     28  C   UNL     1      -3.561  13.884   4.202  1.00  0.00     0.014 C 
ATOM     29  C   UNL     1      -1.876  15.634   4.738  1.00  0.00     0.014 C 
ENDROOT
BRANCH   1  30
ATOM     30  C   UNL     1       4.467   9.971   9.635  1.00  0.00     0.048 C 
ATOM     31  O   UNL     1       4.432  10.279  10.856  1.00  0.00    -0.550 OA
ATOM     32  O   UNL     1       5.403  10.606   8.824  1.00  0.00    -0.550 OA
ENDBRANCH   1  30
BRANCH  27  33
ATOM     33  O   UNL     1      -4.926  14.530   6.470  1.00  0.00    -0.393 OA
ATOM     34  H   UNL     1      -4.930  13.810   5.787  1.00  0.00     0.210 HD
ENDBRANCH  27  33
TORSDOF 2
ENDMDL
MODEL 3
REMARK VINA RESULT:   147.108      4.231      8.219
REMARK INTER + INTRA:         160.163
REMARK INTER:                 159.151
REMARK INTRA:                   1.012
REMARK UNBOUND:                 0.155
REMARK SMILES C[C@H]1[C@H](C)CC[C@@]2(C(=O)[O-])CC[C@]3(C)C(=CC[C@@H]4[C@@]5(C)CC[C@H](O)C(C)(C)[C@@H]5CC[C@]43C)[C@H]12
REMARK SMILES IDX 7 1 6 2 11 3 33 4 5 5 12 6 15 7 2 8 3 9 13 10 16 11 1 12
REMARK SMILES IDX 4 13 14 14 31 15 17 16 18 17 30 18 32 19 19 20 29 21 28 22
REMARK SMILES IDX 21 23 20 24 25 25 22 26 23 27 26 28 27 29 8 30 9 31 10 32
REMARK SMILES IDX 24 33
REMARK H PARENT 24 34
REMARK Flexibility Score: inf
ROOT
ATOM      1  C   UNL     1      -1.692  12.728   6.297  1.00  0.00     0.017 C 
ATOM      2  C   UNL     1      -2.232  13.214   4.920  1.00  0.00     0.014 C 
ATOM      3  C   UNL     1      -2.080  11.219   6.467  1.00  0.00     0.014 C 
ATOM      4  C   UNL     1      -0.119  12.989   6.271  1.00  0.00     0.030 C 
ATOM      5  C   UNL     1      -1.962  14.706   4.674  1.00  0.00     0.004 C 
ATOM      6  C   UNL     1      -0.905  10.270   6.683  1.00  0.00     0.013 C 
ATOM      7  C   UNL     1       0.725  12.079   7.233  1.00  0.00    -0.063 C 
ATOM      8  C   UNL     1       0.125  14.568   6.161  1.00  0.00    -0.003 C 
ATOM      9  C   UNL     1      -0.467  15.067   4.798  1.00  0.00    -0.011 C 
ATOM     10  C   UNL     1       0.115  10.746   7.765  1.00  0.00    -0.006 C 
ATOM     11  C   UNL     1       2.079  12.209   7.215  1.00  0.00    -0.027 C 
ATOM     12  C   UNL     1       1.561  15.087   6.353  1.00  0.00     0.008 C 
ATOM     13  C   UNL     1      -0.313  16.586   4.580  1.00  0.00     0.008 C 
ATOM     14  C   UNL     1      -0.663  11.032   9.089  1.00  0.00     0.017 C 
ATOM     15  C   UNL     1       1.237   9.592   7.998  1.00  0.00    -0.020 C 
ATOM     16  C   UNL     1       3.084  11.338   7.915  1.00  0.00     0.032 C 
ATOM     17  C   UNL     1       2.448  10.238   8.780  1.00  0.00     0.006 C 
ATOM     18  C   UNL     1       0.652   8.387   8.814  1.00  0.00     0.008 C 
ATOM     19  C   UNL     1       1.714   9.028   6.618  1.00  0.00     0.012 C 
ATOM     20  C   UNL     1       3.500   9.279   9.513  1.00  0.00    -0.025 C 
ATOM     21  C   UNL     1       1.712   7.428   9.356  1.00  0.00     0.005 C 
ATOM     22  C   UNL     1       2.689   8.181  10.293  1.00  0.00     0.003 C 
ATOM     23  C   UNL     1       4.329  10.144  10.546  1.00  0.00     0.010 C 
ATOM     24  C   UNL     1       4.527   8.631   8.527  1.00  0.00     0.012 C 
ATOM     25  C   UNL     1       3.528   7.244  11.264  1.00  0.00    -0.006 C 
ATOM     26  C   UNL     1       4.474   9.538  11.955  1.00  0.00     0.033 C 
ATOM     27  C   UNL     1       4.727   8.024  11.927  1.00  0.00     0.120 C 
ATOM     28  C   UNL     1       4.039   5.959  10.558  1.00  0.00     0.014 C 
ATOM     29  C   UNL     1       2.594   6.769  12.415  1.00  0.00     0.014 C 
ENDROOT
BRANCH   1  30
ATOM     30  C   UNL     1      -2.459  13.506   7.379  1.00  0.00     0.048 C 
ATOM     31  O   UNL     1      -2.552  13.098   8.567  1.00  0.00    -0.550 OA
ATOM     32  O   UNL     1      -3.126  14.678   7.034  1.00  0.00    -0.550 OA
ENDBRANCH   1  30
BRANCH  27  33
ATOM     33  O   UNL     1       5.952   7.758  11.287  1.00  0.00    -0.393 OA
ATOM     34  H   UNL     1       5.811   6.976  10.692  1.00  0.00     0.210 HD
ENDBRANCH  27  33
TORSDOF 2
ENDMDL
