MODEL 1
REMARK VINA RESULT:    -5.079      0.000      0.000
REMARK INTER + INTRA:         -11.418
REMARK INTER:                  -8.345
REMARK INTRA:                  -3.072
REMARK UNBOUND:                -3.072
REMARK SMILES C[C@@H]1O[C@H](OC[C@@H]2O[C@@H](Oc3c(-c4ccc(O)c(O)c4)oc4cc(O)cc(O)c4c3=O)[C@H](O)[C@@H](O)[C@@H]2O)[C@@H](O)[C@H](O)[C@@H]1O
REMARK SMILES IDX 7 1 36 2 34 3 32 4 9 5 8 6 6 7 5 8 4 9 1 10 2 11 42 12 3 13
REMARK SMILES IDX 40 14 38 15 43 16 41 18 39 20 37 22 35 24 10 26 11 27 12 28
REMARK SMILES IDX 30 29 21 30 29 31 31 32 22 33 27 34 23 35 26 36 24 37 13 38
REMARK SMILES IDX 20 39 14 40 18 41 15 42 16 43 19 44 17 46 28 48 25 50 33 52
REMARK H PARENT 43 17 41 19 39 21 37 23 35 25 19 45 17 47 28 49 25 51 33 53
REMARK Flexibility Score: inf
ROOT
ATOM      1  C   UNL     1      87.390  90.614  90.588  1.00  0.00     0.180 C 
ATOM      2  C   UNL     1      86.063  91.352  90.290  1.00  0.00     0.177 C 
ATOM      3  C   UNL     1      86.188  92.844  90.679  1.00  0.00     0.180 C 
ATOM      4  C   UNL     1      87.323  93.079  91.697  1.00  0.00     0.214 C 
ATOM      5  C   UNL     1      87.504  91.869  92.636  1.00  0.00     0.339 C 
ATOM      6  O   UNL     1      87.707  90.622  91.970  1.00  0.00    -0.332 OA
ENDROOT
BRANCH   1   7
ATOM      7  C   UNL     1      87.334  89.145  90.122  1.00  0.00     0.198 C 
BRANCH   7   8
ATOM      8  O   UNL     1      88.458  88.374  90.532  1.00  0.00    -0.347 OA
BRANCH   8   9
ATOM      9  C   UNL     1      88.093  87.183  91.230  1.00  0.00     0.281 C 
ATOM     10  C   UNL     1      90.994  86.623  90.737  1.00  0.00     0.041 C 
ATOM     11  C   UNL     1      89.885  85.606  91.091  1.00  0.00     0.150 C 
ATOM     12  C   UNL     1      89.803  85.180  92.587  1.00  0.00     0.174 C 
ATOM     13  O   UNL     1      88.618  86.006  90.605  1.00  0.00    -0.344 OA
ATOM     14  C   UNL     1      88.704  85.950  93.354  1.00  0.00     0.179 C 
ATOM     15  C   UNL     1      88.468  87.329  92.734  1.00  0.00     0.202 C 
BRANCH  12  16
ATOM     16  O   UNL     1      91.055  85.298  93.231  1.00  0.00    -0.388 OA
ATOM     17  H   UNL     1      90.955  86.024  93.908  1.00  0.00     0.211 HD
ENDBRANCH  12  16
BRANCH  14  18
ATOM     18  O   UNL     1      89.059  86.086  94.710  1.00  0.00    -0.387 OA
ATOM     19  H   UNL     1      89.971  85.705  94.811  1.00  0.00     0.211 HD
ENDBRANCH  14  18
BRANCH  15  20
ATOM     20  O   UNL     1      87.474  88.046  93.428  1.00  0.00    -0.385 OA
ATOM     21  H   UNL     1      87.927  88.666  94.062  1.00  0.00     0.211 HD
ENDBRANCH  15  20
ENDBRANCH   8   9
ENDBRANCH   7   8
ENDBRANCH   1   7
BRANCH   2  22
ATOM     22  O   UNL     1      85.015  90.769  91.030  1.00  0.00    -0.387 OA
ATOM     23  H   UNL     1      84.720  89.953  90.537  1.00  0.00     0.211 HD
ENDBRANCH   2  22
BRANCH   3  24
ATOM     24  O   UNL     1      86.446  93.617  89.533  1.00  0.00    -0.387 OA
ATOM     25  H   UNL     1      87.430  93.758  89.494  1.00  0.00     0.211 HD
ENDBRANCH   3  24
BRANCH   5  26
ATOM     26  O   UNL     1      88.632  92.145  93.463  1.00  0.00    -0.454 OA
BRANCH  26  27
ATOM     27  C   UNL     1      89.027  91.428  94.602  1.00  0.00     0.214 A 
ATOM     28  C   UNL     1      88.548  91.850  95.856  1.00  0.00     0.180 A 
ATOM     29  C   UNL     1      89.907  90.328  94.548  1.00  0.00     0.239 A 
ATOM     30  O   UNL     1      88.929  91.223  96.960  1.00  0.00    -0.452 OA
ATOM     31  C   UNL     1      90.259  89.655  95.743  1.00  0.00     0.111 A 
ATOM     32  O   UNL     1      90.408  89.994  93.445  1.00  0.00    -0.285 OA
ATOM     33  C   UNL     1      89.752  90.185  96.961  1.00  0.00     0.146 A 
ATOM     34  C   UNL     1      91.119  88.515  95.802  1.00  0.00     0.134 A 
ATOM     35  C   UNL     1      90.123  89.629  98.186  1.00  0.00     0.094 A 
ATOM     36  C   UNL     1      91.516  88.016  97.047  1.00  0.00     0.093 A 
ATOM     37  C   UNL     1      91.022  88.565  98.233  1.00  0.00     0.123 A 
BRANCH  28  38
ATOM     38  C   UNL     1      87.587  92.969  95.986  1.00  0.00     0.025 A 
ATOM     39  C   UNL     1      88.059  94.243  96.334  1.00  0.00     0.062 A 
ATOM     40  C   UNL     1      86.212  92.790  95.755  1.00  0.00     0.016 A 
ATOM     41  C   UNL     1      87.167  95.317  96.498  1.00  0.00     0.158 A 
ATOM     42  C   UNL     1      85.321  93.855  95.921  1.00  0.00     0.051 A 
ATOM     43  C   UNL     1      85.791  95.117  96.298  1.00  0.00     0.157 A 
BRANCH  41  44
ATOM     44  O   UNL     1      87.646  96.575  96.864  1.00  0.00    -0.504 OA
ATOM     45  H   UNL     1      87.599  96.900  97.824  1.00  0.00     0.293 HD
ENDBRANCH  41  44
BRANCH  43  46
ATOM     46  O   UNL     1      84.879  96.161  96.464  1.00  0.00    -0.504 OA
ATOM     47  H   UNL     1      84.870  96.738  97.295  1.00  0.00     0.293 HD
ENDBRANCH  43  46
ENDBRANCH  28  38
BRANCH  34  48
ATOM     48  O   UNL     1      91.586  87.830  94.676  1.00  0.00    -0.507 OA
ATOM     49  H   UNL     1      91.134  87.848  93.772  1.00  0.00     0.293 HD
ENDBRANCH  34  48
BRANCH  37  50
ATOM     50  O   UNL     1      91.416  88.055  99.468  1.00  0.00    -0.508 OA
ATOM     51  H   UNL     1      91.402  87.060  99.663  1.00  0.00     0.293 HD
ENDBRANCH  37  50
ENDBRANCH  26  27
ENDBRANCH   5  26
BRANCH   4  52
ATOM     52  O   UNL     1      87.050  94.225  92.463  1.00  0.00    -0.384 OA
ATOM     53  H   UNL     1      86.530  93.935  93.254  1.00  0.00     0.211 HD
ENDBRANCH   4  52
TORSDOF 16
ENDMDL
MODEL 2
REMARK VINA RESULT:    -5.046      1.756      2.472
REMARK INTER + INTRA:         -11.364
REMARK INTER:                  -8.058
REMARK INTRA:                  -3.306
REMARK UNBOUND:                -3.072
REMARK SMILES C[C@@H]1O[C@H](OC[C@@H]2O[C@@H](Oc3c(-c4ccc(O)c(O)c4)oc4cc(O)cc(O)c4c3=O)[C@H](O)[C@@H](O)[C@@H]2O)[C@@H](O)[C@H](O)[C@@H]1O
REMARK SMILES IDX 7 1 36 2 34 3 32 4 9 5 8 6 6 7 5 8 4 9 1 10 2 11 42 12 3 13
REMARK SMILES IDX 40 14 38 15 43 16 41 18 39 20 37 22 35 24 10 26 11 27 12 28
REMARK SMILES IDX 30 29 21 30 29 31 31 32 22 33 27 34 23 35 26 36 24 37 13 38
REMARK SMILES IDX 20 39 14 40 18 41 15 42 16 43 19 44 17 46 28 48 25 50 33 52
REMARK H PARENT 43 17 41 19 39 21 37 23 35 25 19 45 17 47 28 49 25 51 33 53
REMARK Flexibility Score: inf
ROOT
ATOM      1  C   UNL     1      88.829  91.035  90.804  1.00  0.00     0.180 C 
ATOM      2  C   UNL     1      87.993  91.522  89.597  1.00  0.00     0.177 C 
ATOM      3  C   UNL     1      86.644  92.099  90.086  1.00  0.00     0.180 C 
ATOM      4  C   UNL     1      86.271  91.579  91.489  1.00  0.00     0.214 C 
ATOM      5  C   UNL     1      86.792  90.145  91.721  1.00  0.00     0.339 C 
ATOM      6  O   UNL     1      88.193  89.978  91.503  1.00  0.00    -0.332 OA
ENDROOT
BRANCH   1   7
ATOM      7  C   UNL     1      90.221  90.542  90.361  1.00  0.00     0.198 C 
BRANCH   7   8
ATOM      8  O   UNL     1      90.873  89.727  91.332  1.00  0.00    -0.347 OA
BRANCH   8   9
ATOM      9  C   UNL     1      91.240  88.444  90.826  1.00  0.00     0.281 C 
ATOM     10  C   UNL     1      92.831  88.475  93.364  1.00  0.00     0.041 C 
ATOM     11  C   UNL     1      93.046  87.571  92.129  1.00  0.00     0.150 C 
ATOM     12  C   UNL     1      92.457  86.133  92.224  1.00  0.00     0.174 C 
ATOM     13  O   UNL     1      92.649  88.204  90.927  1.00  0.00    -0.344 OA
ATOM     14  C   UNL     1      91.094  86.010  91.505  1.00  0.00     0.179 C 
ATOM     15  C   UNL     1      90.357  87.351  91.497  1.00  0.00     0.202 C 
BRANCH  12  16
ATOM     16  O   UNL     1      92.368  85.695  93.566  1.00  0.00    -0.388 OA
ATOM     17  H   UNL     1      93.296  85.717  93.930  1.00  0.00     0.211 HD
ENDBRANCH  12  16
BRANCH  14  18
ATOM     18  O   UNL     1      90.301  85.028  92.127  1.00  0.00    -0.387 OA
ATOM     19  H   UNL     1      90.779  84.163  92.030  1.00  0.00     0.211 HD
ENDBRANCH  14  18
BRANCH  15  20
ATOM     20  O   UNL     1      89.110  87.252  90.851  1.00  0.00    -0.385 OA
ATOM     21  H   UNL     1      88.416  87.081  91.546  1.00  0.00     0.211 HD
ENDBRANCH  15  20
ENDBRANCH   8   9
ENDBRANCH   7   8
ENDBRANCH   1   7
BRANCH   2  22
ATOM     22  O   UNL     1      87.742  90.444  88.722  1.00  0.00    -0.387 OA
ATOM     23  H   UNL     1      86.783  90.501  88.450  1.00  0.00     0.211 HD
ENDBRANCH   2  22
BRANCH   3  24
ATOM     24  O   UNL     1      86.713  93.503  90.132  1.00  0.00    -0.387 OA
ATOM     25  H   UNL     1      85.777  93.839  90.154  1.00  0.00     0.211 HD
ENDBRANCH   3  24
BRANCH   5  26
ATOM     26  O   UNL     1      86.484  89.800  93.070  1.00  0.00    -0.454 OA
BRANCH  26  27
ATOM     27  C   UNL     1      87.404  89.552  94.098  1.00  0.00     0.214 A 
ATOM     28  C   UNL     1      87.701  90.594  94.995  1.00  0.00     0.180 A 
ATOM     29  C   UNL     1      88.068  88.317  94.250  1.00  0.00     0.239 A 
ATOM     30  O   UNL     1      88.596  90.411  95.956  1.00  0.00    -0.452 OA
ATOM     31  C   UNL     1      88.986  88.142  95.315  1.00  0.00     0.111 A 
ATOM     32  O   UNL     1      87.875  87.407  93.406  1.00  0.00    -0.285 OA
ATOM     33  C   UNL     1      89.243  89.271  96.141  1.00  0.00     0.146 A 
ATOM     34  C   UNL     1      89.691  86.929  95.579  1.00  0.00     0.134 A 
ATOM     35  C   UNL     1      90.197  89.203  97.157  1.00  0.00     0.094 A 
ATOM     36  C   UNL     1      90.681  86.909  96.568  1.00  0.00     0.093 A 
ATOM     37  C   UNL     1      90.933  88.035  97.355  1.00  0.00     0.123 A 
BRANCH  28  38
ATOM     38  C   UNL     1      87.012  91.902  94.924  1.00  0.00     0.025 A 
ATOM     39  C   UNL     1      87.729  93.036  94.512  1.00  0.00     0.062 A 
ATOM     40  C   UNL     1      85.650  92.036  95.245  1.00  0.00     0.016 A 
ATOM     41  C   UNL     1      87.111  94.297  94.467  1.00  0.00     0.158 A 
ATOM     42  C   UNL     1      85.033  93.290  95.206  1.00  0.00     0.051 A 
ATOM     43  C   UNL     1      85.758  94.424  94.824  1.00  0.00     0.157 A 
BRANCH  41  44
ATOM     44  O   UNL     1      87.840  95.420  94.075  1.00  0.00    -0.504 OA
ATOM     45  H   UNL     1      88.131  95.553  93.112  1.00  0.00     0.293 HD
ENDBRANCH  41  44
BRANCH  43  46
ATOM     46  O   UNL     1      85.119  95.664  94.800  1.00  0.00    -0.504 OA
ATOM     47  H   UNL     1      84.444  95.906  94.086  1.00  0.00     0.293 HD
ENDBRANCH  43  46
ENDBRANCH  28  38
BRANCH  34  48
ATOM     48  O   UNL     1      89.443  85.721  94.919  1.00  0.00    -0.507 OA
ATOM     49  H   UNL     1      88.933  84.948  95.321  1.00  0.00     0.293 HD
ENDBRANCH  34  48
BRANCH  37  50
ATOM     50  O   UNL     1      91.913  88.003  98.344  1.00  0.00    -0.508 OA
ATOM     51  H   UNL     1      91.750  88.384  99.271  1.00  0.00     0.293 HD
ENDBRANCH  37  50
ENDBRANCH  26  27
ENDBRANCH   5  26
BRANCH   4  52
ATOM     52  O   UNL     1      84.875  91.598  91.652  1.00  0.00    -0.384 OA
ATOM     53  H   UNL     1      84.572  92.530  91.511  1.00  0.00     0.211 HD
ENDBRANCH   4  52
TORSDOF 16
ENDMDL
MODEL 3
REMARK VINA RESULT:    -5.010      2.526      5.001
REMARK INTER + INTRA:         -11.304
REMARK INTER:                  -7.852
REMARK INTRA:                  -3.451
REMARK UNBOUND:                -3.072
REMARK SMILES C[C@@H]1O[C@H](OC[C@@H]2O[C@@H](Oc3c(-c4ccc(O)c(O)c4)oc4cc(O)cc(O)c4c3=O)[C@H](O)[C@@H](O)[C@@H]2O)[C@@H](O)[C@H](O)[C@@H]1O
REMARK SMILES IDX 7 1 36 2 34 3 32 4 9 5 8 6 6 7 5 8 4 9 1 10 2 11 42 12 3 13
REMARK SMILES IDX 40 14 38 15 43 16 41 18 39 20 37 22 35 24 10 26 11 27 12 28
REMARK SMILES IDX 30 29 21 30 29 31 31 32 22 33 27 34 23 35 26 36 24 37 13 38
REMARK SMILES IDX 20 39 14 40 18 41 15 42 16 43 19 44 17 46 28 48 25 50 33 52
REMARK H PARENT 43 17 41 19 39 21 37 23 35 25 19 45 17 47 28 49 25 51 33 53
REMARK Flexibility Score: inf
ROOT
ATOM      1  C   UNL     1      87.501  90.558  92.123  1.00  0.00     0.180 C 
ATOM      2  C   UNL     1      86.242  90.850  92.973  1.00  0.00     0.177 C 
ATOM      3  C   UNL     1      86.455  92.133  93.811  1.00  0.00     0.180 C 
ATOM      4  C   UNL     1      87.951  92.461  93.991  1.00  0.00     0.214 C 
ATOM      5  C   UNL     1      88.811  91.181  94.042  1.00  0.00     0.339 C 
ATOM      6  O   UNL     1      88.642  90.305  92.927  1.00  0.00    -0.332 OA
ENDROOT
BRANCH   1   7
ATOM      7  C   UNL     1      87.289  89.340  91.203  1.00  0.00     0.198 C 
BRANCH   7   8
ATOM      8  O   UNL     1      88.417  88.474  91.132  1.00  0.00    -0.347 OA
BRANCH   8   9
ATOM      9  C   UNL     1      88.132  87.149  91.580  1.00  0.00     0.281 C 
ATOM     10  C   UNL     1      90.968  86.792  90.683  1.00  0.00     0.041 C 
ATOM     11  C   UNL     1      89.907  85.692  90.912  1.00  0.00     0.150 C 
ATOM     12  C   UNL     1      89.984  84.943  92.275  1.00  0.00     0.174 C 
ATOM     13  O   UNL     1      88.594  86.154  90.658  1.00  0.00    -0.344 OA
ATOM     14  C   UNL     1      88.968  85.493  93.302  1.00  0.00     0.179 C 
ATOM     15  C   UNL     1      88.662  86.968  93.033  1.00  0.00     0.202 C 
BRANCH  12  16
ATOM     16  O   UNL     1      91.297  84.950  92.799  1.00  0.00    -0.388 OA
ATOM     17  H   UNL     1      91.897  84.665  92.056  1.00  0.00     0.211 HD
ENDBRANCH  12  16
BRANCH  14  18
ATOM     18  O   UNL     1      89.463  85.334  94.610  1.00  0.00    -0.387 OA
ATOM     19  H   UNL     1      90.451  85.260  94.540  1.00  0.00     0.211 HD
ENDBRANCH  14  18
BRANCH  15  20
ATOM     20  O   UNL     1      87.743  87.485  93.967  1.00  0.00    -0.385 OA
ATOM     21  H   UNL     1      88.223  87.615  94.830  1.00  0.00     0.211 HD
ENDBRANCH  15  20
ENDBRANCH   8   9
ENDBRANCH   7   8
ENDBRANCH   1   7
BRANCH   2  22
ATOM     22  O   UNL     1      85.990  89.769  93.843  1.00  0.00    -0.387 OA
ATOM     23  H   UNL     1      85.298  90.070  94.497  1.00  0.00     0.211 HD
ENDBRANCH   2  22
BRANCH   3  24
ATOM     24  O   UNL     1      85.829  93.224  93.180  1.00  0.00    -0.387 OA
ATOM     25  H   UNL     1      85.312  92.857  92.414  1.00  0.00     0.211 HD
ENDBRANCH   3  24
BRANCH   5  26
ATOM     26  O   UNL     1      90.174  91.593  94.109  1.00  0.00    -0.454 OA
BRANCH  26  27
ATOM     27  C   UNL     1      91.270  90.951  93.516  1.00  0.00     0.214 A 
ATOM     28  C   UNL     1      91.959  89.979  94.265  1.00  0.00     0.180 A 
ATOM     29  C   UNL     1      91.731  91.261  92.220  1.00  0.00     0.239 A 
ATOM     30  O   UNL     1      93.024  89.377  93.754  1.00  0.00    -0.452 OA
ATOM     31  C   UNL     1      92.846  90.567  91.690  1.00  0.00     0.111 A 
ATOM     32  O   UNL     1      91.177  92.185  91.575  1.00  0.00    -0.285 OA
ATOM     33  C   UNL     1      93.494  89.631  92.542  1.00  0.00     0.146 A 
ATOM     34  C   UNL     1      93.379  90.780  90.381  1.00  0.00     0.134 A 
ATOM     35  C   UNL     1      94.650  88.972  92.123  1.00  0.00     0.094 A 
ATOM     36  C   UNL     1      94.570  90.146  90.012  1.00  0.00     0.093 A 
ATOM     37  C   UNL     1      95.202  89.246  90.873  1.00  0.00     0.123 A 
BRANCH  28  38
ATOM     38  C   UNL     1      91.506  89.570  95.613  1.00  0.00     0.025 A 
ATOM     39  C   UNL     1      90.821  88.355  95.769  1.00  0.00     0.062 A 
ATOM     40  C   UNL     1      91.758  90.361  96.747  1.00  0.00     0.016 A 
ATOM     41  C   UNL     1      90.350  87.956  97.031  1.00  0.00     0.158 A 
ATOM     42  C   UNL     1      91.286  89.969  98.004  1.00  0.00     0.051 A 
ATOM     43  C   UNL     1      90.577  88.774  98.151  1.00  0.00     0.157 A 
BRANCH  41  44
ATOM     44  O   UNL     1      89.652  86.756  97.170  1.00  0.00    -0.504 OA
ATOM     45  H   UNL     1      88.890  86.511  96.546  1.00  0.00     0.293 HD
ENDBRANCH  41  44
BRANCH  43  46
ATOM     46  O   UNL     1      90.111  88.410  99.416  1.00  0.00    -0.504 OA
ATOM     47  H   UNL     1      90.471  88.833 100.262  1.00  0.00     0.293 HD
ENDBRANCH  43  46
ENDBRANCH  28  38
BRANCH  34  48
ATOM     48  O   UNL     1      92.770  91.581  89.411  1.00  0.00    -0.507 OA
ATOM     49  H   UNL     1      93.175  92.427  89.036  1.00  0.00     0.293 HD
ENDBRANCH  34  48
BRANCH  37  50
ATOM     50  O   UNL     1      96.383  88.611  90.492  1.00  0.00    -0.508 OA
ATOM     51  H   UNL     1      96.414  87.969  89.707  1.00  0.00     0.293 HD
ENDBRANCH  37  50
ENDBRANCH  26  27
ENDBRANCH   5  26
BRANCH   4  52
ATOM     52  O   UNL     1      88.141  93.195  95.174  1.00  0.00    -0.384 OA
ATOM     53  H   UNL     1      88.161  92.550  95.924  1.00  0.00     0.211 HD
ENDBRANCH   4  52
TORSDOF 16
ENDMDL
MODEL 4
REMARK VINA RESULT:    -5.000      2.296      6.513
REMARK INTER + INTRA:         -11.288
REMARK INTER:                  -8.282
REMARK INTRA:                  -3.006
REMARK UNBOUND:                -3.072
REMARK SMILES C[C@@H]1O[C@H](OC[C@@H]2O[C@@H](Oc3c(-c4ccc(O)c(O)c4)oc4cc(O)cc(O)c4c3=O)[C@H](O)[C@@H](O)[C@@H]2O)[C@@H](O)[C@H](O)[C@@H]1O
REMARK SMILES IDX 7 1 36 2 34 3 32 4 9 5 8 6 6 7 5 8 4 9 1 10 2 11 42 12 3 13
REMARK SMILES IDX 40 14 38 15 43 16 41 18 39 20 37 22 35 24 10 26 11 27 12 28
REMARK SMILES IDX 30 29 21 30 29 31 31 32 22 33 27 34 23 35 26 36 24 37 13 38
REMARK SMILES IDX 20 39 14 40 18 41 15 42 16 43 19 44 17 46 28 48 25 50 33 52
REMARK H PARENT 43 17 41 19 39 21 37 23 35 25 19 45 17 47 28 49 25 51 33 53
REMARK Flexibility Score: inf
ROOT
ATOM      1  C   UNL     1      91.184  90.877  91.714  1.00  0.00     0.180 C 
ATOM      2  C   UNL     1      91.792  91.322  90.363  1.00  0.00     0.177 C 
ATOM      3  C   UNL     1      91.804  90.134  89.371  1.00  0.00     0.180 C 
ATOM      4  C   UNL     1      91.724  88.777  90.099  1.00  0.00     0.214 C 
ATOM      5  C   UNL     1      92.419  88.828  91.475  1.00  0.00     0.339 C 
ATOM      6  O   UNL     1      91.954  89.864  92.340  1.00  0.00    -0.332 OA
ENDROOT
BRANCH   1   7
ATOM      7  C   UNL     1      91.067  92.060  92.696  1.00  0.00     0.198 C 
BRANCH   7   8
ATOM      8  O   UNL     1      89.731  92.329  93.108  1.00  0.00    -0.347 OA
BRANCH   8   9
ATOM      9  C   UNL     1      88.959  91.144  93.304  1.00  0.00     0.281 C 
ATOM     10  C   UNL     1      87.916  92.819  95.559  1.00  0.00     0.041 C 
ATOM     11  C   UNL     1      87.818  91.284  95.401  1.00  0.00     0.150 C 
ATOM     12  C   UNL     1      86.466  90.740  94.854  1.00  0.00     0.174 C 
ATOM     13  O   UNL     1      88.912  90.749  94.680  1.00  0.00    -0.344 OA
ATOM     14  C   UNL     1      86.530  90.430  93.340  1.00  0.00     0.179 C 
ATOM     15  C   UNL     1      87.560  91.322  92.643  1.00  0.00     0.202 C 
BRANCH  12  16
ATOM     16  O   UNL     1      85.394  91.613  95.152  1.00  0.00    -0.388 OA
ATOM     17  H   UNL     1      84.602  91.034  95.328  1.00  0.00     0.211 HD
ENDBRANCH  12  16
BRANCH  14  18
ATOM     18  O   UNL     1      85.264  90.606  92.752  1.00  0.00    -0.387 OA
ATOM     19  H   UNL     1      84.640  89.987  93.214  1.00  0.00     0.211 HD
ENDBRANCH  14  18
BRANCH  15  20
ATOM     20  O   UNL     1      87.624  91.056  91.262  1.00  0.00    -0.385 OA
ATOM     21  H   UNL     1      86.882  90.432  91.034  1.00  0.00     0.211 HD
ENDBRANCH  15  20
ENDBRANCH   8   9
ENDBRANCH   7   8
ENDBRANCH   1   7
BRANCH   2  22
ATOM     22  O   UNL     1      93.114  91.771  90.558  1.00  0.00    -0.387 OA
ATOM     23  H   UNL     1      93.098  92.769  90.510  1.00  0.00     0.211 HD
ENDBRANCH   2  22
BRANCH   3  24
ATOM     24  O   UNL     1      90.711  90.237  88.491  1.00  0.00    -0.387 OA
ATOM     25  H   UNL     1      91.080  90.202  87.568  1.00  0.00     0.211 HD
ENDBRANCH   3  24
BRANCH   5  26
ATOM     26  O   UNL     1      92.203  87.565  92.101  1.00  0.00    -0.454 OA
BRANCH  26  27
ATOM     27  C   UNL     1      91.784  87.350  93.422  1.00  0.00     0.214 A 
ATOM     28  C   UNL     1      90.466  86.911  93.641  1.00  0.00     0.180 A 
ATOM     29  C   UNL     1      92.614  87.586  94.537  1.00  0.00     0.239 A 
ATOM     30  O   UNL     1      90.019  86.734  94.877  1.00  0.00    -0.452 OA
ATOM     31  C   UNL     1      92.118  87.344  95.842  1.00  0.00     0.111 A 
ATOM     32  O   UNL     1      93.765  88.058  94.359  1.00  0.00    -0.285 OA
ATOM     33  C   UNL     1      90.760  86.940  95.955  1.00  0.00     0.146 A 
ATOM     34  C   UNL     1      92.879  87.523  97.038  1.00  0.00     0.134 A 
ATOM     35  C   UNL     1      90.174  86.766  97.210  1.00  0.00     0.094 A 
ATOM     36  C   UNL     1      92.248  87.395  98.280  1.00  0.00     0.093 A 
ATOM     37  C   UNL     1      90.906  87.017  98.369  1.00  0.00     0.123 A 
BRANCH  28  38
ATOM     38  C   UNL     1      89.552  86.600  92.518  1.00  0.00     0.025 A 
ATOM     39  C   UNL     1      88.709  87.605  92.020  1.00  0.00     0.062 A 
ATOM     40  C   UNL     1      89.518  85.326  91.927  1.00  0.00     0.016 A 
ATOM     41  C   UNL     1      87.807  87.332  90.978  1.00  0.00     0.158 A 
ATOM     42  C   UNL     1      88.618  85.049  90.892  1.00  0.00     0.051 A 
ATOM     43  C   UNL     1      87.757  86.044  90.419  1.00  0.00     0.157 A 
BRANCH  41  44
ATOM     44  O   UNL     1      86.959  88.334  90.505  1.00  0.00    -0.504 OA
ATOM     45  H   UNL     1      86.142  88.626  91.030  1.00  0.00     0.293 HD
ENDBRANCH  41  44
BRANCH  43  46
ATOM     46  O   UNL     1      86.865  85.738  89.390  1.00  0.00    -0.504 OA
ATOM     47  H   UNL     1      86.964  86.128  88.461  1.00  0.00     0.293 HD
ENDBRANCH  43  46
ENDBRANCH  28  38
BRANCH  34  48
ATOM     48  O   UNL     1      94.249  87.802  97.058  1.00  0.00    -0.507 OA
ATOM     49  H   UNL     1      94.702  88.372  97.759  1.00  0.00     0.293 HD
ENDBRANCH  34  48
BRANCH  37  50
ATOM     50  O   UNL     1      90.289  86.882  99.611  1.00  0.00    -0.508 OA
ATOM     51  H   UNL     1      89.292  87.030  99.730  1.00  0.00     0.293 HD
ENDBRANCH  37  50
ENDBRANCH  26  27
ENDBRANCH   5  26
BRANCH   4  52
ATOM     52  O   UNL     1      92.321  87.777  89.313  1.00  0.00    -0.384 OA
ATOM     53  H   UNL     1      91.814  87.723  88.465  1.00  0.00     0.211 HD
ENDBRANCH   4  52
TORSDOF 16
ENDMDL
MODEL 5
REMARK VINA RESULT:    -4.996      2.053      8.261
REMARK INTER + INTRA:         -11.281
REMARK INTER:                  -8.134
REMARK INTRA:                  -3.146
REMARK UNBOUND:                -3.072
REMARK SMILES C[C@@H]1O[C@H](OC[C@@H]2O[C@@H](Oc3c(-c4ccc(O)c(O)c4)oc4cc(O)cc(O)c4c3=O)[C@H](O)[C@@H](O)[C@@H]2O)[C@@H](O)[C@H](O)[C@@H]1O
REMARK SMILES IDX 7 1 36 2 34 3 32 4 9 5 8 6 6 7 5 8 4 9 1 10 2 11 42 12 3 13
REMARK SMILES IDX 40 14 38 15 43 16 41 18 39 20 37 22 35 24 10 26 11 27 12 28
REMARK SMILES IDX 30 29 21 30 29 31 31 32 22 33 27 34 23 35 26 36 24 37 13 38
REMARK SMILES IDX 20 39 14 40 18 41 15 42 16 43 19 44 17 46 28 48 25 50 33 52
REMARK H PARENT 43 17 41 19 39 21 37 23 35 25 19 45 17 47 28 49 25 51 33 53
REMARK Flexibility Score: inf
ROOT
ATOM      1  C   UNL     1      90.032  89.445  94.533  1.00  0.00     0.180 C 
ATOM      2  C   UNL     1      90.061  88.546  95.791  1.00  0.00     0.177 C 
ATOM      3  C   UNL     1      88.985  87.440  95.677  1.00  0.00     0.180 C 
ATOM      4  C   UNL     1      87.877  87.816  94.673  1.00  0.00     0.214 C 
ATOM      5  C   UNL     1      87.632  89.339  94.643  1.00  0.00     0.339 C 
ATOM      6  O   UNL     1      88.796  90.126  94.391  1.00  0.00    -0.332 OA
ENDROOT
BRANCH   1   7
ATOM      7  C   UNL     1      91.155  90.500  94.569  1.00  0.00     0.198 C 
BRANCH   7   8
ATOM      8  O   UNL     1      90.786  91.746  93.987  1.00  0.00    -0.347 OA
BRANCH   8   9
ATOM      9  C   UNL     1      90.732  92.810  94.936  1.00  0.00     0.281 C 
ATOM     10  C   UNL     1      90.264  94.349  92.408  1.00  0.00     0.041 C 
ATOM     11  C   UNL     1      90.724  94.902  93.777  1.00  0.00     0.150 C 
ATOM     12  C   UNL     1      89.614  95.541  94.662  1.00  0.00     0.174 C 
ATOM     13  O   UNL     1      91.479  93.956  94.510  1.00  0.00    -0.344 OA
ATOM     14  C   UNL     1      89.098  94.567  95.747  1.00  0.00     0.179 C 
ATOM     15  C   UNL     1      89.246  93.113  95.291  1.00  0.00     0.202 C 
BRANCH  12  16
ATOM     16  O   UNL     1      88.549  96.044  93.880  1.00  0.00    -0.388 OA
ATOM     17  H   UNL     1      87.806  96.247  94.514  1.00  0.00     0.211 HD
ENDBRANCH  12  16
BRANCH  14  18
ATOM     18  O   UNL     1      87.752  94.842  96.050  1.00  0.00    -0.387 OA
ATOM     19  H   UNL     1      87.653  94.760  97.035  1.00  0.00     0.211 HD
ENDBRANCH  14  18
BRANCH  15  20
ATOM     20  O   UNL     1      88.773  92.214  96.266  1.00  0.00    -0.385 OA
ATOM     21  H   UNL     1      88.773  91.301  95.868  1.00  0.00     0.211 HD
ENDBRANCH  15  20
ENDBRANCH   8   9
ENDBRANCH   7   8
ENDBRANCH   1   7
BRANCH   2  22
ATOM     22  O   UNL     1      89.802  89.322  96.940  1.00  0.00    -0.387 OA
ATOM     23  H   UNL     1      90.223  90.216  96.795  1.00  0.00     0.211 HD
ENDBRANCH   2  22
BRANCH   3  24
ATOM     24  O   UNL     1      89.581  86.236  95.257  1.00  0.00    -0.387 OA
ATOM     25  H   UNL     1      90.286  86.477  94.598  1.00  0.00     0.211 HD
ENDBRANCH   3  24
BRANCH   5  26
ATOM     26  O   UNL     1      86.670  89.589  93.621  1.00  0.00    -0.454 OA
BRANCH  26  27
ATOM     27  C   UNL     1      86.726  90.600  92.651  1.00  0.00     0.214 A 
ATOM     28  C   UNL     1      87.101  90.249  91.341  1.00  0.00     0.180 A 
ATOM     29  C   UNL     1      86.457  91.954  92.940  1.00  0.00     0.239 A 
ATOM     30  O   UNL     1      87.204  91.183  90.406  1.00  0.00    -0.452 OA
ATOM     31  C   UNL     1      86.535  92.919  91.905  1.00  0.00     0.111 A 
ATOM     32  O   UNL     1      86.204  92.293  94.123  1.00  0.00    -0.285 OA
ATOM     33  C   UNL     1      86.960  92.466  90.626  1.00  0.00     0.146 A 
ATOM     34  C   UNL     1      86.257  94.309  92.078  1.00  0.00     0.134 A 
ATOM     35  C   UNL     1      87.144  93.369  89.579  1.00  0.00     0.094 A 
ATOM     36  C   UNL     1      86.504  95.196  91.026  1.00  0.00     0.093 A 
ATOM     37  C   UNL     1      86.942  94.734  89.783  1.00  0.00     0.123 A 
BRANCH  28  38
ATOM     38  C   UNL     1      87.354  88.843  90.955  1.00  0.00     0.025 A 
ATOM     39  C   UNL     1      88.573  88.243  91.309  1.00  0.00     0.062 A 
ATOM     40  C   UNL     1      86.399  88.087  90.254  1.00  0.00     0.016 A 
ATOM     41  C   UNL     1      88.856  86.921  90.927  1.00  0.00     0.158 A 
ATOM     42  C   UNL     1      86.680  86.773  89.868  1.00  0.00     0.051 A 
ATOM     43  C   UNL     1      87.907  86.187  90.195  1.00  0.00     0.157 A 
BRANCH  41  44
ATOM     44  O   UNL     1      90.079  86.341  91.267  1.00  0.00    -0.504 OA
ATOM     45  H   UNL     1      90.490  86.473  92.185  1.00  0.00     0.293 HD
ENDBRANCH  41  44
BRANCH  43  46
ATOM     46  O   UNL     1      88.164  84.875  89.792  1.00  0.00    -0.504 OA
ATOM     47  H   UNL     1      88.231  84.618  88.816  1.00  0.00     0.293 HD
ENDBRANCH  43  46
ENDBRANCH  28  38
BRANCH  34  48
ATOM     48  O   UNL     1      85.721  94.859  93.247  1.00  0.00    -0.507 OA
ATOM     49  H   UNL     1      86.274  95.180  94.029  1.00  0.00     0.293 HD
ENDBRANCH  34  48
BRANCH  37  50
ATOM     50  O   UNL     1      87.176  95.624  88.737  1.00  0.00    -0.508 OA
ATOM     51  H   UNL     1      87.076  96.627  88.857  1.00  0.00     0.293 HD
ENDBRANCH  37  50
ENDBRANCH  26  27
ENDBRANCH   5  26
BRANCH   4  52
ATOM     52  O   UNL     1      86.682  87.160  95.010  1.00  0.00    -0.384 OA
ATOM     53  H   UNL     1      86.297  87.627  95.793  1.00  0.00     0.211 HD
ENDBRANCH   4  52
TORSDOF 16
ENDMDL
MODEL 6
REMARK VINA RESULT:    -4.984      1.885      2.298
REMARK INTER + INTRA:         -11.262
REMARK INTER:                  -7.928
REMARK INTRA:                  -3.334
REMARK UNBOUND:                -3.072
REMARK SMILES C[C@@H]1O[C@H](OC[C@@H]2O[C@@H](Oc3c(-c4ccc(O)c(O)c4)oc4cc(O)cc(O)c4c3=O)[C@H](O)[C@@H](O)[C@@H]2O)[C@@H](O)[C@H](O)[C@@H]1O
REMARK SMILES IDX 7 1 36 2 34 3 32 4 9 5 8 6 6 7 5 8 4 9 1 10 2 11 42 12 3 13
REMARK SMILES IDX 40 14 38 15 43 16 41 18 39 20 37 22 35 24 10 26 11 27 12 28
REMARK SMILES IDX 30 29 21 30 29 31 31 32 22 33 27 34 23 35 26 36 24 37 13 38
REMARK SMILES IDX 20 39 14 40 18 41 15 42 16 43 19 44 17 46 28 48 25 50 33 52
REMARK H PARENT 43 17 41 19 39 21 37 23 35 25 19 45 17 47 28 49 25 51 33 53
REMARK Flexibility Score: inf
ROOT
ATOM      1  C   UNL     1      87.965  90.811  91.789  1.00  0.00     0.180 C 
ATOM      2  C   UNL     1      86.568  90.625  91.153  1.00  0.00     0.177 C 
ATOM      3  C   UNL     1      85.481  91.224  92.076  1.00  0.00     0.180 C 
ATOM      4  C   UNL     1      85.970  91.351  93.533  1.00  0.00     0.214 C 
ATOM      5  C   UNL     1      86.965  90.229  93.897  1.00  0.00     0.339 C 
ATOM      6  O   UNL     1      88.087  90.120  93.021  1.00  0.00    -0.332 OA
ENDROOT
BRANCH   1   7
ATOM      7  C   UNL     1      89.082  90.312  90.851  1.00  0.00     0.198 C 
BRANCH   7   8
ATOM      8  O   UNL     1      90.148  89.657  91.531  1.00  0.00    -0.347 OA
BRANCH   8   9
ATOM      9  C   UNL     1      90.226  88.263  91.234  1.00  0.00     0.281 C 
ATOM     10  C   UNL     1      92.823  88.629  92.682  1.00  0.00     0.041 C 
ATOM     11  C   UNL     1      92.427  87.472  91.737  1.00  0.00     0.150 C 
ATOM     12  C   UNL     1      91.942  86.163  92.428  1.00  0.00     0.174 C 
ATOM     13  O   UNL     1      91.516  87.886  90.737  1.00  0.00    -0.344 OA
ATOM     14  C   UNL     1      90.400  86.055  92.459  1.00  0.00     0.179 C 
ATOM     15  C   UNL     1      89.755  87.442  92.470  1.00  0.00     0.202 C 
BRANCH  12  16
ATOM     16  O   UNL     1      92.491  86.024  93.723  1.00  0.00    -0.388 OA
ATOM     17  H   UNL     1      91.718  85.985  94.352  1.00  0.00     0.211 HD
ENDBRANCH  12  16
BRANCH  14  18
ATOM     18  O   UNL     1      89.986  85.321  93.587  1.00  0.00    -0.387 OA
ATOM     19  H   UNL     1      89.335  85.888  94.079  1.00  0.00     0.211 HD
ENDBRANCH  14  18
BRANCH  15  20
ATOM     20  O   UNL     1      88.349  87.359  92.506  1.00  0.00    -0.385 OA
ATOM     21  H   UNL     1      87.988  88.284  92.585  1.00  0.00     0.211 HD
ENDBRANCH  15  20
ENDBRANCH   8   9
ENDBRANCH   7   8
ENDBRANCH   1   7
BRANCH   2  22
ATOM     22  O   UNL     1      86.306  89.252  90.965  1.00  0.00    -0.387 OA
ATOM     23  H   UNL     1      85.930  89.144  90.047  1.00  0.00     0.211 HD
ENDBRANCH   2  22
BRANCH   3  24
ATOM     24  O   UNL     1      85.113  92.501  91.614  1.00  0.00    -0.387 OA
ATOM     25  H   UNL     1      85.535  92.618  90.721  1.00  0.00     0.211 HD
ENDBRANCH   3  24
BRANCH   5  26
ATOM     26  O   UNL     1      87.429  90.492  95.220  1.00  0.00    -0.454 OA
BRANCH  26  27
ATOM     27  C   UNL     1      88.735  90.313  95.697  1.00  0.00     0.214 A 
ATOM     28  C   UNL     1      89.480  91.454  96.049  1.00  0.00     0.180 A 
ATOM     29  C   UNL     1      89.344  89.046  95.806  1.00  0.00     0.239 A 
ATOM     30  O   UNL     1      90.732  91.329  96.467  1.00  0.00    -0.452 OA
ATOM     31  C   UNL     1      90.669  88.946  96.297  1.00  0.00     0.111 A 
ATOM     32  O   UNL     1      88.720  88.028  95.415  1.00  0.00    -0.285 OA
ATOM     33  C   UNL     1      91.347  90.162  96.588  1.00  0.00     0.146 A 
ATOM     34  C   UNL     1      91.371  87.715  96.475  1.00  0.00     0.134 A 
ATOM     35  C   UNL     1      92.681  90.151  96.995  1.00  0.00     0.094 A 
ATOM     36  C   UNL     1      92.724  87.740  96.829  1.00  0.00     0.093 A 
ATOM     37  C   UNL     1      93.377  88.947  97.090  1.00  0.00     0.123 A 
BRANCH  28  38
ATOM     38  C   UNL     1      88.892  92.812  96.003  1.00  0.00     0.025 A 
ATOM     39  C   UNL     1      88.448  93.409  97.193  1.00  0.00     0.062 A 
ATOM     40  C   UNL     1      88.780  93.527  94.798  1.00  0.00     0.016 A 
ATOM     41  C   UNL     1      87.855  94.682  97.176  1.00  0.00     0.158 A 
ATOM     42  C   UNL     1      88.186  94.792  94.778  1.00  0.00     0.051 A 
ATOM     43  C   UNL     1      87.717  95.372  95.960  1.00  0.00     0.157 A 
BRANCH  41  44
ATOM     44  O   UNL     1      87.398  95.257  98.363  1.00  0.00    -0.504 OA
ATOM     45  H   UNL     1      86.481  95.688  98.423  1.00  0.00     0.293 HD
ENDBRANCH  41  44
BRANCH  43  46
ATOM     46  O   UNL     1      87.122  96.634  95.910  1.00  0.00    -0.504 OA
ATOM     47  H   UNL     1      87.253  97.258  95.124  1.00  0.00     0.293 HD
ENDBRANCH  43  46
ENDBRANCH  28  38
BRANCH  34  48
ATOM     48  O   UNL     1      90.783  86.454  96.338  1.00  0.00    -0.507 OA
ATOM     49  H   UNL     1      91.281  85.581  96.442  1.00  0.00     0.293 HD
ENDBRANCH  34  48
BRANCH  37  50
ATOM     50  O   UNL     1      94.722  88.961  97.453  1.00  0.00    -0.508 OA
ATOM     51  H   UNL     1      95.403  89.527  96.956  1.00  0.00     0.293 HD
ENDBRANCH  37  50
ENDBRANCH  26  27
ENDBRANCH   5  26
BRANCH   4  52
ATOM     52  O   UNL     1      84.875  91.303  94.412  1.00  0.00    -0.384 OA
ATOM     53  H   UNL     1      84.075  91.070  93.878  1.00  0.00     0.211 HD
ENDBRANCH   4  52
TORSDOF 16
ENDMDL
MODEL 7
REMARK VINA RESULT:    -4.917      1.576      6.906
REMARK INTER + INTRA:         -11.151
REMARK INTER:                  -8.515
REMARK INTRA:                  -2.636
REMARK UNBOUND:                -3.072
REMARK SMILES C[C@@H]1O[C@H](OC[C@@H]2O[C@@H](Oc3c(-c4ccc(O)c(O)c4)oc4cc(O)cc(O)c4c3=O)[C@H](O)[C@@H](O)[C@@H]2O)[C@@H](O)[C@H](O)[C@@H]1O
REMARK SMILES IDX 7 1 36 2 34 3 32 4 9 5 8 6 6 7 5 8 4 9 1 10 2 11 42 12 3 13
REMARK SMILES IDX 40 14 38 15 43 16 41 18 39 20 37 22 35 24 10 26 11 27 12 28
REMARK SMILES IDX 30 29 21 30 29 31 31 32 22 33 27 34 23 35 26 36 24 37 13 38
REMARK SMILES IDX 20 39 14 40 18 41 15 42 16 43 19 44 17 46 28 48 25 50 33 52
REMARK H PARENT 43 17 41 19 39 21 37 23 35 25 19 45 17 47 28 49 25 51 33 53
REMARK Flexibility Score: inf
ROOT
ATOM      1  C   UNL     1      87.416  87.891  91.229  1.00  0.00     0.180 C 
ATOM      2  C   UNL     1      88.665  87.030  90.924  1.00  0.00     0.177 C 
ATOM      3  C   UNL     1      89.043  86.188  92.166  1.00  0.00     0.180 C 
ATOM      4  C   UNL     1      88.460  86.784  93.464  1.00  0.00     0.214 C 
ATOM      5  C   UNL     1      88.372  88.323  93.393  1.00  0.00     0.339 C 
ATOM      6  O   UNL     1      87.652  88.827  92.267  1.00  0.00    -0.332 OA
ENDROOT
BRANCH   1   7
ATOM      7  C   UNL     1      86.954  88.671  89.982  1.00  0.00     0.198 C 
BRANCH   7   8
ATOM      8  O   UNL     1      87.418  90.016  89.946  1.00  0.00    -0.347 OA
BRANCH   8   9
ATOM      9  C   UNL     1      86.385  90.955  89.648  1.00  0.00     0.281 C 
ATOM     10  C   UNL     1      87.899  92.494  91.725  1.00  0.00     0.041 C 
ATOM     11  C   UNL     1      86.447  92.730  91.250  1.00  0.00     0.150 C 
ATOM     12  C   UNL     1      86.249  93.863  90.200  1.00  0.00     0.174 C 
ATOM     13  O   UNL     1      85.820  91.533  90.831  1.00  0.00    -0.344 OA
ATOM     14  C   UNL     1      86.144  93.313  88.759  1.00  0.00     0.179 C 
ATOM     15  C   UNL     1      86.913  91.998  88.619  1.00  0.00     0.202 C 
BRANCH  12  16
ATOM     16  O   UNL     1      87.258  94.847  90.300  1.00  0.00    -0.388 OA
ATOM     17  H   UNL     1      87.605  94.988  89.375  1.00  0.00     0.211 HD
ENDBRANCH  12  16
BRANCH  14  18
ATOM     18  O   UNL     1      86.635  94.259  87.839  1.00  0.00    -0.387 OA
ATOM     19  H   UNL     1      86.616  93.830  86.944  1.00  0.00     0.211 HD
ENDBRANCH  14  18
BRANCH  15  20
ATOM     20  O   UNL     1      86.832  91.488  87.308  1.00  0.00    -0.385 OA
ATOM     21  H   UNL     1      86.637  90.513  87.369  1.00  0.00     0.211 HD
ENDBRANCH  15  20
ENDBRANCH   8   9
ENDBRANCH   7   8
ENDBRANCH   1   7
BRANCH   2  22
ATOM     22  O   UNL     1      89.751  87.864  90.587  1.00  0.00    -0.387 OA
ATOM     23  H   UNL     1      89.401  88.574  89.978  1.00  0.00     0.211 HD
ENDBRANCH   2  22
BRANCH   3  24
ATOM     24  O   UNL     1      88.559  84.875  92.018  1.00  0.00    -0.387 OA
ATOM     25  H   UNL     1      88.146  84.620  92.886  1.00  0.00     0.211 HD
ENDBRANCH   3  24
BRANCH   5  26
ATOM     26  O   UNL     1      87.733  88.762  94.589  1.00  0.00    -0.454 OA
BRANCH  26  27
ATOM     27  C   UNL     1      87.836  90.033  95.172  1.00  0.00     0.214 A 
ATOM     28  C   UNL     1      88.890  90.271  96.074  1.00  0.00     0.180 A 
ATOM     29  C   UNL     1      86.914  91.069  94.919  1.00  0.00     0.239 A 
ATOM     30  O   UNL     1      88.998  91.447  96.676  1.00  0.00    -0.452 OA
ATOM     31  C   UNL     1      87.085  92.327  95.547  1.00  0.00     0.111 A 
ATOM     32  O   UNL     1      85.922  90.843  94.182  1.00  0.00    -0.285 OA
ATOM     33  C   UNL     1      88.159  92.451  96.470  1.00  0.00     0.146 A 
ATOM     34  C   UNL     1      86.229  93.452  95.342  1.00  0.00     0.134 A 
ATOM     35  C   UNL     1      88.342  93.631  97.192  1.00  0.00     0.094 A 
ATOM     36  C   UNL     1      86.404  94.601  96.121  1.00  0.00     0.093 A 
ATOM     37  C   UNL     1      87.453  94.694  97.038  1.00  0.00     0.123 A 
BRANCH  28  38
ATOM     38  C   UNL     1      89.921  89.246  96.354  1.00  0.00     0.025 A 
ATOM     39  C   UNL     1      89.672  88.271  97.331  1.00  0.00     0.062 A 
ATOM     40  C   UNL     1      91.139  89.216  95.654  1.00  0.00     0.016 A 
ATOM     41  C   UNL     1      90.645  87.306  97.643  1.00  0.00     0.158 A 
ATOM     42  C   UNL     1      92.112  88.260  95.965  1.00  0.00     0.051 A 
ATOM     43  C   UNL     1      91.874  87.308  96.961  1.00  0.00     0.157 A 
BRANCH  41  44
ATOM     44  O   UNL     1      90.395  86.353  98.631  1.00  0.00    -0.504 OA
ATOM     45  H   UNL     1      89.452  86.037  98.834  1.00  0.00     0.293 HD
ENDBRANCH  41  44
BRANCH  43  46
ATOM     46  O   UNL     1      92.864  86.369  97.255  1.00  0.00    -0.504 OA
ATOM     47  H   UNL     1      93.766  86.380  96.797  1.00  0.00     0.293 HD
ENDBRANCH  43  46
ENDBRANCH  28  38
BRANCH  34  48
ATOM     48  O   UNL     1      85.215  93.498  94.380  1.00  0.00    -0.507 OA
ATOM     49  H   UNL     1      84.736  92.684  94.021  1.00  0.00     0.293 HD
ENDBRANCH  34  48
BRANCH  37  50
ATOM     50  O   UNL     1      87.626  95.847  97.802  1.00  0.00    -0.508 OA
ATOM     51  H   UNL     1      87.636  95.818  98.817  1.00  0.00     0.293 HD
ENDBRANCH  37  50
ENDBRANCH  26  27
ENDBRANCH   5  26
BRANCH   4  52
ATOM     52  O   UNL     1      89.257  86.415  94.561  1.00  0.00    -0.384 OA
ATOM     53  H   UNL     1      90.180  86.284  94.227  1.00  0.00     0.211 HD
ENDBRANCH   4  52
TORSDOF 16
ENDMDL
MODEL 8
REMARK VINA RESULT:    -4.884      2.699      7.243
REMARK INTER + INTRA:         -11.097
REMARK INTER:                  -7.744
REMARK INTRA:                  -3.353
REMARK UNBOUND:                -3.072
REMARK SMILES C[C@@H]1O[C@H](OC[C@@H]2O[C@@H](Oc3c(-c4ccc(O)c(O)c4)oc4cc(O)cc(O)c4c3=O)[C@H](O)[C@@H](O)[C@@H]2O)[C@@H](O)[C@H](O)[C@@H]1O
REMARK SMILES IDX 7 1 36 2 34 3 32 4 9 5 8 6 6 7 5 8 4 9 1 10 2 11 42 12 3 13
REMARK SMILES IDX 40 14 38 15 43 16 41 18 39 20 37 22 35 24 10 26 11 27 12 28
REMARK SMILES IDX 30 29 21 30 29 31 31 32 22 33 27 34 23 35 26 36 24 37 13 38
REMARK SMILES IDX 20 39 14 40 18 41 15 42 16 43 19 44 17 46 28 48 25 50 33 52
REMARK H PARENT 43 17 41 19 39 21 37 23 35 25 19 45 17 47 28 49 25 51 33 53
REMARK Flexibility Score: inf
ROOT
ATOM      1  C   UNL     1      91.494  87.435  92.753  1.00  0.00     0.180 C 
ATOM      2  C   UNL     1      91.608  86.041  92.094  1.00  0.00     0.177 C 
ATOM      3  C   UNL     1      90.254  85.299  92.186  1.00  0.00     0.180 C 
ATOM      4  C   UNL     1      89.362  85.867  93.309  1.00  0.00     0.214 C 
ATOM      5  C   UNL     1      90.203  86.390  94.492  1.00  0.00     0.339 C 
ATOM      6  O   UNL     1      91.199  87.350  94.137  1.00  0.00    -0.332 OA
ENDROOT
BRANCH   1   7
ATOM      7  C   UNL     1      92.798  88.242  92.593  1.00  0.00     0.198 C 
BRANCH   7   8
ATOM      8  O   UNL     1      93.415  88.579  93.832  1.00  0.00    -0.347 OA
BRANCH   8   9
ATOM      9  C   UNL     1      94.587  87.809  94.099  1.00  0.00     0.281 C 
ATOM     10  C   UNL     1      95.347  90.383  95.429  1.00  0.00     0.041 C 
ATOM     11  C   UNL     1      96.287  89.239  94.984  1.00  0.00     0.150 C 
ATOM     12  C   UNL     1      96.729  88.246  96.098  1.00  0.00     0.174 C 
ATOM     13  O   UNL     1      95.789  88.548  93.854  1.00  0.00    -0.344 OA
ATOM     14  C   UNL     1      95.894  86.946  96.088  1.00  0.00     0.179 C 
ATOM     15  C   UNL     1      94.492  87.201  95.529  1.00  0.00     0.202 C 
BRANCH  12  16
ATOM     16  O   UNL     1      96.711  88.855  97.374  1.00  0.00    -0.388 OA
ATOM     17  H   UNL     1      95.786  89.203  97.506  1.00  0.00     0.211 HD
ENDBRANCH  12  16
BRANCH  14  18
ATOM     18  O   UNL     1      95.805  86.412  97.387  1.00  0.00    -0.387 OA
ATOM     19  H   UNL     1      95.585  87.165  97.996  1.00  0.00     0.211 HD
ENDBRANCH  14  18
BRANCH  15  20
ATOM     20  O   UNL     1      93.716  86.025  95.520  1.00  0.00    -0.385 OA
ATOM     21  H   UNL     1      93.138  86.032  96.332  1.00  0.00     0.211 HD
ENDBRANCH  15  20
ENDBRANCH   8   9
ENDBRANCH   7   8
ENDBRANCH   1   7
BRANCH   2  22
ATOM     22  O   UNL     1      92.596  85.280  92.752  1.00  0.00    -0.387 OA
ATOM     23  H   UNL     1      92.138  84.760  93.472  1.00  0.00     0.211 HD
ENDBRANCH   2  22
BRANCH   3  24
ATOM     24  O   UNL     1      89.564  85.410  90.965  1.00  0.00    -0.387 OA
ATOM     25  H   UNL     1      89.064  86.270  90.993  1.00  0.00     0.211 HD
ENDBRANCH   3  24
BRANCH   5  26
ATOM     26  O   UNL     1      89.297  86.980  95.422  1.00  0.00    -0.454 OA
BRANCH  26  27
ATOM     27  C   UNL     1      89.059  88.350  95.601  1.00  0.00     0.214 A 
ATOM     28  C   UNL     1      89.758  89.022  96.621  1.00  0.00     0.180 A 
ATOM     29  C   UNL     1      88.128  89.073  94.827  1.00  0.00     0.239 A 
ATOM     30  O   UNL     1      89.531  90.309  96.847  1.00  0.00    -0.452 OA
ATOM     31  C   UNL     1      87.943  90.457  95.067  1.00  0.00     0.111 A 
ATOM     32  O   UNL     1      87.437  88.467  93.970  1.00  0.00    -0.285 OA
ATOM     33  C   UNL     1      88.669  91.031  96.147  1.00  0.00     0.146 A 
ATOM     34  C   UNL     1      87.049  91.290  94.327  1.00  0.00     0.134 A 
ATOM     35  C   UNL     1      88.476  92.367  96.500  1.00  0.00     0.094 A 
ATOM     36  C   UNL     1      86.836  92.609  94.742  1.00  0.00     0.093 A 
ATOM     37  C   UNL     1      87.545  93.148  95.818  1.00  0.00     0.123 A 
BRANCH  28  38
ATOM     38  C   UNL     1      90.782  88.339  97.443  1.00  0.00     0.025 A 
ATOM     39  C   UNL     1      92.022  88.963  97.652  1.00  0.00     0.062 A 
ATOM     40  C   UNL     1      90.540  87.087  98.032  1.00  0.00     0.016 A 
ATOM     41  C   UNL     1      93.026  88.325  98.399  1.00  0.00     0.158 A 
ATOM     42  C   UNL     1      91.539  86.447  98.772  1.00  0.00     0.051 A 
ATOM     43  C   UNL     1      92.784  87.057  98.954  1.00  0.00     0.157 A 
BRANCH  41  44
ATOM     44  O   UNL     1      94.262  88.945  98.584  1.00  0.00    -0.504 OA
ATOM     45  H   UNL     1      94.789  88.830  99.444  1.00  0.00     0.293 HD
ENDBRANCH  41  44
BRANCH  43  46
ATOM     46  O   UNL     1      93.766  86.393  99.692  1.00  0.00    -0.504 OA
ATOM     47  H   UNL     1      93.589  86.040 100.624  1.00  0.00     0.293 HD
ENDBRANCH  43  46
ENDBRANCH  28  38
BRANCH  34  48
ATOM     48  O   UNL     1      86.369  90.878  93.177  1.00  0.00    -0.507 OA
ATOM     49  H   UNL     1      85.724  91.459  92.660  1.00  0.00     0.293 HD
ENDBRANCH  34  48
BRANCH  37  50
ATOM     50  O   UNL     1      87.333  94.466  96.217  1.00  0.00    -0.508 OA
ATOM     51  H   UNL     1      87.332  95.231  95.551  1.00  0.00     0.293 HD
ENDBRANCH  37  50
ENDBRANCH  26  27
ENDBRANCH   5  26
BRANCH   4  52
ATOM     52  O   UNL     1      88.480  84.875  93.769  1.00  0.00    -0.384 OA
ATOM     53  H   UNL     1      88.007  84.509  92.980  1.00  0.00     0.211 HD
ENDBRANCH   4  52
TORSDOF 16
ENDMDL
MODEL 9
REMARK VINA RESULT:    -4.800      2.359      6.336
REMARK INTER + INTRA:         -10.959
REMARK INTER:                  -8.459
REMARK INTRA:                  -2.500
REMARK UNBOUND:                -3.072
REMARK SMILES C[C@@H]1O[C@H](OC[C@@H]2O[C@@H](Oc3c(-c4ccc(O)c(O)c4)oc4cc(O)cc(O)c4c3=O)[C@H](O)[C@@H](O)[C@@H]2O)[C@@H](O)[C@H](O)[C@@H]1O
REMARK SMILES IDX 7 1 36 2 34 3 32 4 9 5 8 6 6 7 5 8 4 9 1 10 2 11 42 12 3 13
REMARK SMILES IDX 40 14 38 15 43 16 41 18 39 20 37 22 35 24 10 26 11 27 12 28
REMARK SMILES IDX 30 29 21 30 29 31 31 32 22 33 27 34 23 35 26 36 24 37 13 38
REMARK SMILES IDX 20 39 14 40 18 41 15 42 16 43 19 44 17 46 28 48 25 50 33 52
REMARK H PARENT 43 17 41 19 39 21 37 23 35 25 19 45 17 47 28 49 25 51 33 53
REMARK Flexibility Score: inf
ROOT
ATOM      1  C   UNL     1      91.004  90.440  98.042  1.00  0.00     0.180 C 
ATOM      2  C   UNL     1      91.391  91.933  97.935  1.00  0.00     0.177 C 
ATOM      3  C   UNL     1      90.131  92.790  97.670  1.00  0.00     0.180 C 
ATOM      4  C   UNL     1      88.980  91.952  97.077  1.00  0.00     0.214 C 
ATOM      5  C   UNL     1      89.511  90.804  96.192  1.00  0.00     0.339 C 
ATOM      6  O   UNL     1      90.452  89.943  96.834  1.00  0.00    -0.332 OA
ENDROOT
BRANCH   1   7
ATOM      7  C   UNL     1      92.222  89.567  98.403  1.00  0.00     0.198 C 
BRANCH   7   8
ATOM      8  O   UNL     1      92.249  88.316  97.722  1.00  0.00    -0.347 OA
BRANCH   8   9
ATOM      9  C   UNL     1      93.364  88.186  96.840  1.00  0.00     0.281 C 
ATOM     10  C   UNL     1      94.352  86.573  99.163  1.00  0.00     0.041 C 
ATOM     11  C   UNL     1      95.190  87.188  98.019  1.00  0.00     0.150 C 
ATOM     12  C   UNL     1      95.581  86.220  96.863  1.00  0.00     0.174 C 
ATOM     13  O   UNL     1      94.614  88.378  97.514  1.00  0.00    -0.344 OA
ATOM     14  C   UNL     1      94.648  86.364  95.639  1.00  0.00     0.179 C 
ATOM     15  C   UNL     1      93.257  86.840  96.064  1.00  0.00     0.202 C 
BRANCH  12  16
ATOM     16  O   UNL     1      95.641  84.879  97.305  1.00  0.00    -0.388 OA
ATOM     17  H   UNL     1      96.487  84.792  97.825  1.00  0.00     0.211 HD
ENDBRANCH  12  16
BRANCH  14  18
ATOM     18  O   UNL     1      94.550  85.139  94.954  1.00  0.00    -0.387 OA
ATOM     19  H   UNL     1      95.435  84.694  95.026  1.00  0.00     0.211 HD
ENDBRANCH  14  18
BRANCH  15  20
ATOM     20  O   UNL     1      92.394  86.969  94.959  1.00  0.00    -0.385 OA
ATOM     21  H   UNL     1      91.876  87.812  95.070  1.00  0.00     0.211 HD
ENDBRANCH  15  20
ENDBRANCH   8   9
ENDBRANCH   7   8
ENDBRANCH   1   7
BRANCH   2  22
ATOM     22  O   UNL     1      92.303  92.117  96.876  1.00  0.00    -0.387 OA
ATOM     23  H   UNL     1      93.222  92.082  97.265  1.00  0.00     0.211 HD
ENDBRANCH   2  22
BRANCH   3  24
ATOM     24  O   UNL     1      89.688  93.373  98.871  1.00  0.00    -0.387 OA
ATOM     25  H   UNL     1      90.188  94.225  98.981  1.00  0.00     0.211 HD
ENDBRANCH   3  24
BRANCH   5  26
ATOM     26  O   UNL     1      88.383  90.037  95.778  1.00  0.00    -0.454 OA
BRANCH  26  27
ATOM     27  C   UNL     1      88.283  89.262  94.614  1.00  0.00     0.214 A 
ATOM     28  C   UNL     1      87.545  89.774  93.532  1.00  0.00     0.180 A 
ATOM     29  C   UNL     1      88.860  87.981  94.496  1.00  0.00     0.239 A 
ATOM     30  O   UNL     1      87.394  89.055  92.428  1.00  0.00    -0.452 OA
ATOM     31  C   UNL     1      88.715  87.258  93.286  1.00  0.00     0.111 A 
ATOM     32  O   UNL     1      89.449  87.477  95.484  1.00  0.00    -0.285 OA
ATOM     33  C   UNL     1      87.917  87.849  92.268  1.00  0.00     0.146 A 
ATOM     34  C   UNL     1      89.279  85.967  93.047  1.00  0.00     0.134 A 
ATOM     35  C   UNL     1      87.657  87.161  91.082  1.00  0.00     0.094 A 
ATOM     36  C   UNL     1      88.954  85.281  91.872  1.00  0.00     0.093 A 
ATOM     37  C   UNL     1      88.151  85.872  90.893  1.00  0.00     0.123 A 
BRANCH  28  38
ATOM     38  C   UNL     1      86.949  91.129  93.568  1.00  0.00     0.025 A 
ATOM     39  C   UNL     1      87.599  92.183  92.908  1.00  0.00     0.062 A 
ATOM     40  C   UNL     1      85.739  91.385  94.235  1.00  0.00     0.016 A 
ATOM     41  C   UNL     1      87.076  93.486  92.952  1.00  0.00     0.158 A 
ATOM     42  C   UNL     1      85.219  92.682  94.285  1.00  0.00     0.051 A 
ATOM     43  C   UNL     1      85.884  93.736  93.653  1.00  0.00     0.157 A 
BRANCH  41  44
ATOM     44  O   UNL     1      87.743  94.530  92.309  1.00  0.00    -0.504 OA
ATOM     45  H   UNL     1      87.771  94.595  91.297  1.00  0.00     0.293 HD
ENDBRANCH  41  44
BRANCH  43  46
ATOM     46  O   UNL     1      85.346  95.022  93.724  1.00  0.00    -0.504 OA
ATOM     47  H   UNL     1      84.852  95.352  94.543  1.00  0.00     0.293 HD
ENDBRANCH  43  46
ENDBRANCH  28  38
BRANCH  34  48
ATOM     48  O   UNL     1      90.173  85.333  93.914  1.00  0.00    -0.507 OA
ATOM     49  H   UNL     1      90.516  84.390  93.788  1.00  0.00     0.293 HD
ENDBRANCH  34  48
BRANCH  37  50
ATOM     50  O   UNL     1      87.841  85.184  89.722  1.00  0.00    -0.508 OA
ATOM     51  H   UNL     1      86.903  85.187  89.334  1.00  0.00     0.293 HD
ENDBRANCH  37  50
ENDBRANCH  26  27
ENDBRANCH   5  26
BRANCH   4  52
ATOM     52  O   UNL     1      88.134  92.773  96.313  1.00  0.00    -0.384 OA
ATOM     53  H   UNL     1      87.393  92.207  95.980  1.00  0.00     0.211 HD
ENDBRANCH   4  52
TORSDOF 16
ENDMDL
