MODEL 1
REMARK VINA RESULT:    -7.436      0.000      0.000
REMARK INTER + INTRA:          -8.151
REMARK INTER:                  -8.088
REMARK INTRA:                  -0.063
REMARK UNBOUND:                -0.063
REMARK SMILES CC1(C)CC[C@]2(C(=O)[O-])CC[C@]3(C)C(=CC[C@H]4[C@@]5(C)CC[C@@H](O)C(C)(C)[C@@H]5CC[C@]43C)[C@@H]2C1
REMARK SMILES IDX 6 1 5 2 10 3 32 4 4 5 11 6 14 7 33 8 2 9 12 10 15 11 1 12
REMARK SMILES IDX 3 13 13 14 30 15 16 16 17 17 29 18 31 19 18 20 28 21 27 22
REMARK SMILES IDX 20 23 19 24 24 25 21 26 22 27 25 28 26 29 7 30 8 31 9 32
REMARK SMILES IDX 23 33
REMARK H PARENT 23 34
REMARK Flexibility Score: inf
ROOT
ATOM      1  C   UNL     1      16.100 -28.939  18.527  1.00  0.00     0.017 C 
ATOM      2  C   UNL     1      17.068 -29.984  17.865  1.00  0.00     0.014 C 
ATOM      3  C   UNL     1      16.795 -28.347  19.786  1.00  0.00     0.014 C 
ATOM      4  C   UNL     1      14.749 -29.625  18.928  1.00  0.00     0.028 C 
ATOM      5  C   UNL     1      16.319 -31.139  17.181  1.00  0.00     0.007 C 
ATOM      6  C   UNL     1      15.875 -27.469  20.665  1.00  0.00     0.013 C 
ATOM      7  C   UNL     1      13.924 -28.752  19.894  1.00  0.00    -0.064 C 
ATOM      8  C   UNL     1      14.950 -31.089  19.375  1.00  0.00     0.015 C 
ATOM      9  C   UNL     1      15.470 -31.978  18.193  1.00  0.00    -0.035 C 
ATOM     10  C   UNL     1      14.560 -28.168  21.168  1.00  0.00    -0.006 C 
ATOM     11  C   UNL     1      12.778 -28.267  19.392  1.00  0.00    -0.027 C 
ATOM     12  C   UNL     1      14.271 -32.606  17.447  1.00  0.00     0.011 C 
ATOM     13  C   UNL     1      16.331 -33.127  18.763  1.00  0.00     0.011 C 
ATOM     14  C   UNL     1      14.941 -29.345  22.125  1.00  0.00     0.017 C 
ATOM     15  C   UNL     1      13.593 -27.127  21.977  1.00  0.00    -0.020 C 
ATOM     16  C   UNL     1      12.021 -27.110  19.924  1.00  0.00     0.032 C 
ATOM     17  C   UNL     1      12.742 -26.226  20.982  1.00  0.00     0.006 C 
ATOM     18  C   UNL     1      12.565 -27.865  22.905  1.00  0.00     0.008 C 
ATOM     19  C   UNL     1      14.520 -26.257  22.894  1.00  0.00     0.012 C 
ATOM     20  C   UNL     1      11.692 -25.226  21.687  1.00  0.00    -0.025 C 
ATOM     21  C   UNL     1      11.565 -26.938  23.635  1.00  0.00     0.005 C 
ATOM     22  C   UNL     1      10.760 -26.048  22.663  1.00  0.00     0.003 C 
ATOM     23  C   UNL     1      10.762 -24.538  20.625  1.00  0.00     0.010 C 
ATOM     24  C   UNL     1      12.483 -24.075  22.396  1.00  0.00     0.012 C 
ATOM     25  C   UNL     1       9.559 -25.244  23.317  1.00  0.00    -0.006 C 
ATOM     26  C   UNL     1       9.614 -23.708  21.236  1.00  0.00     0.033 C 
ATOM     27  C   UNL     1       8.736 -24.540  22.185  1.00  0.00     0.120 C 
ATOM     28  C   UNL     1       8.607 -26.222  24.061  1.00  0.00     0.014 C 
ATOM     29  C   UNL     1      10.004 -24.195  24.369  1.00  0.00     0.014 C 
ENDROOT
BRANCH   1  30
ATOM     30  C   UNL     1      15.856 -27.807  17.527  1.00  0.00     0.048 C 
ATOM     31  O   UNL     1      16.784 -27.000  17.250  1.00  0.00    -0.550 OA
ATOM     32  O   UNL     1      14.636 -27.662  16.875  1.00  0.00    -0.550 OA
ENDBRANCH   1  30
BRANCH  27  33
ATOM     33  O   UNL     1       8.038 -25.490  21.412  1.00  0.00    -0.393 OA
ATOM     34  H   UNL     1       7.199 -25.063  21.098  1.00  0.00     0.210 HD
ENDBRANCH  27  33
TORSDOF 2
ENDMDL
MODEL 2
REMARK VINA RESULT:    -7.053      2.875      4.605
REMARK INTER + INTRA:          -7.734
REMARK INTER:                  -7.522
REMARK INTRA:                  -0.213
REMARK UNBOUND:                -0.063
REMARK SMILES CC1(C)CC[C@]2(C(=O)[O-])CC[C@]3(C)C(=CC[C@H]4[C@@]5(C)CC[C@@H](O)C(C)(C)[C@@H]5CC[C@]43C)[C@@H]2C1
REMARK SMILES IDX 6 1 5 2 10 3 32 4 4 5 11 6 14 7 33 8 2 9 12 10 15 11 1 12
REMARK SMILES IDX 3 13 13 14 30 15 16 16 17 17 29 18 31 19 18 20 28 21 27 22
REMARK SMILES IDX 20 23 19 24 24 25 21 26 22 27 25 28 26 29 7 30 8 31 9 32
REMARK SMILES IDX 23 33
REMARK H PARENT 23 34
REMARK Flexibility Score: inf
ROOT
ATOM      1  C   UNL     1      13.140 -27.714  19.642  1.00  0.00     0.017 C 
ATOM      2  C   UNL     1      14.177 -27.696  18.463  1.00  0.00     0.014 C 
ATOM      3  C   UNL     1      12.897 -26.251  20.110  1.00  0.00     0.014 C 
ATOM      4  C   UNL     1      13.683 -28.579  20.832  1.00  0.00     0.028 C 
ATOM      5  C   UNL     1      15.065 -28.952  18.431  1.00  0.00     0.007 C 
ATOM      6  C   UNL     1      12.070 -26.130  21.411  1.00  0.00     0.013 C 
ATOM      7  C   UNL     1      12.889 -28.334  22.130  1.00  0.00    -0.064 C 
ATOM      8  C   UNL     1      15.217 -28.482  20.971  1.00  0.00     0.015 C 
ATOM      9  C   UNL     1      15.941 -29.091  19.722  1.00  0.00    -0.035 C 
ATOM     10  C   UNL     1      12.648 -26.906  22.650  1.00  0.00    -0.006 C 
ATOM     11  C   UNL     1      12.157 -29.374  22.560  1.00  0.00    -0.027 C 
ATOM     12  C   UNL     1      16.238 -30.587  19.969  1.00  0.00     0.011 C 
ATOM     13  C   UNL     1      17.289 -28.366  19.513  1.00  0.00     0.011 C 
ATOM     14  C   UNL     1      14.024 -26.277  23.050  1.00  0.00     0.017 C 
ATOM     15  C   UNL     1      11.642 -26.827  23.936  1.00  0.00    -0.020 C 
ATOM     16  C   UNL     1      11.019 -29.299  23.505  1.00  0.00     0.032 C 
ATOM     17  C   UNL     1      10.459 -27.882  23.819  1.00  0.00     0.006 C 
ATOM     18  C   UNL     1      12.377 -27.126  25.289  1.00  0.00     0.008 C 
ATOM     19  C   UNL     1      11.101 -25.357  24.006  1.00  0.00     0.012 C 
ATOM     20  C   UNL     1       9.462 -27.940  25.084  1.00  0.00    -0.025 C 
ATOM     21  C   UNL     1      11.463 -27.149  26.537  1.00  0.00     0.005 C 
ATOM     22  C   UNL     1      10.302 -28.158  26.405  1.00  0.00     0.003 C 
ATOM     23  C   UNL     1       8.462 -29.145  24.964  1.00  0.00     0.010 C 
ATOM     24  C   UNL     1       8.589 -26.640  25.105  1.00  0.00     0.012 C 
ATOM     25  C   UNL     1       9.464 -28.404  27.728  1.00  0.00    -0.006 C 
ATOM     26  C   UNL     1       7.598 -29.375  26.222  1.00  0.00     0.033 C 
ATOM     27  C   UNL     1       8.451 -29.575  27.485  1.00  0.00     0.120 C 
ATOM     28  C   UNL     1      10.411 -28.826  28.887  1.00  0.00     0.014 C 
ATOM     29  C   UNL     1       8.702 -27.151  28.232  1.00  0.00     0.014 C 
ENDROOT
BRANCH   1  30
ATOM     30  C   UNL     1      11.821 -28.283  19.116  1.00  0.00     0.048 C 
ATOM     31  O   UNL     1      10.969 -27.517  18.592  1.00  0.00    -0.550 OA
ATOM     32  O   UNL     1      11.546 -29.645  19.163  1.00  0.00    -0.550 OA
ENDBRANCH   1  30
BRANCH  27  33
ATOM     33  O   UNL     1       9.131 -30.804  27.362  1.00  0.00    -0.393 OA
ATOM     34  H   UNL     1       8.706 -31.308  26.620  1.00  0.00     0.210 HD
ENDBRANCH  27  33
TORSDOF 2
ENDMDL
MODEL 3
REMARK VINA RESULT:    -6.533      2.147      8.044
REMARK INTER + INTRA:          -7.168
REMARK INTER:                  -7.117
REMARK INTRA:                  -0.052
REMARK UNBOUND:                -0.063
REMARK SMILES CC1(C)CC[C@]2(C(=O)[O-])CC[C@]3(C)C(=CC[C@H]4[C@@]5(C)CC[C@@H](O)C(C)(C)[C@@H]5CC[C@]43C)[C@@H]2C1
REMARK SMILES IDX 6 1 5 2 10 3 32 4 4 5 11 6 14 7 33 8 2 9 12 10 15 11 1 12
REMARK SMILES IDX 3 13 13 14 30 15 16 16 17 17 29 18 31 19 18 20 28 21 27 22
REMARK SMILES IDX 20 23 19 24 24 25 21 26 22 27 25 28 26 29 7 30 8 31 9 32
REMARK SMILES IDX 23 33
REMARK H PARENT 23 34
REMARK Flexibility Score: inf
ROOT
ATOM      1  C   UNL     1      10.179 -25.389  23.726  1.00  0.00     0.017 C 
ATOM      2  C   UNL     1       9.129 -24.904  24.790  1.00  0.00     0.014 C 
ATOM      3  C   UNL     1       9.472 -25.495  22.345  1.00  0.00     0.014 C 
ATOM      4  C   UNL     1      10.770 -26.781  24.140  1.00  0.00     0.028 C 
ATOM      5  C   UNL     1       9.397 -25.473  26.193  1.00  0.00     0.007 C 
ATOM      6  C   UNL     1      10.323 -26.173  21.247  1.00  0.00     0.013 C 
ATOM      7  C   UNL     1      11.513 -27.459  22.972  1.00  0.00    -0.064 C 
ATOM      8  C   UNL     1       9.729 -27.665  24.860  1.00  0.00     0.015 C 
ATOM      9  C   UNL     1       9.298 -27.035  26.228  1.00  0.00    -0.035 C 
ATOM     10  C   UNL     1      10.844 -27.615  21.595  1.00  0.00    -0.006 C 
ATOM     11  C   UNL     1      12.841 -27.578  23.129  1.00  0.00    -0.027 C 
ATOM     12  C   UNL     1      10.204 -27.572  27.358  1.00  0.00     0.011 C 
ATOM     13  C   UNL     1       7.845 -27.454  26.544  1.00  0.00     0.011 C 
ATOM     14  C   UNL     1       9.621 -28.580  21.736  1.00  0.00     0.017 C 
ATOM     15  C   UNL     1      11.839 -28.196  20.435  1.00  0.00    -0.020 C 
ATOM     16  C   UNL     1      13.823 -27.800  22.043  1.00  0.00     0.032 C 
ATOM     17  C   UNL     1      13.312 -27.619  20.585  1.00  0.00     0.006 C 
ATOM     18  C   UNL     1      11.961 -29.759  20.480  1.00  0.00     0.008 C 
ATOM     19  C   UNL     1      11.205 -27.810  19.053  1.00  0.00     0.012 C 
ATOM     20  C   UNL     1      14.388 -28.202  19.537  1.00  0.00    -0.025 C 
ATOM     21  C   UNL     1      12.953 -30.365  19.460  1.00  0.00     0.005 C 
ATOM     22  C   UNL     1      14.377 -29.782  19.596  1.00  0.00     0.003 C 
ATOM     23  C   UNL     1      15.843 -27.734  19.897  1.00  0.00     0.010 C 
ATOM     24  C   UNL     1      14.077 -27.627  18.113  1.00  0.00     0.012 C 
ATOM     25  C   UNL     1      15.494 -30.517  18.745  1.00  0.00    -0.006 C 
ATOM     26  C   UNL     1      16.948 -28.398  19.048  1.00  0.00     0.033 C 
ATOM     27  C   UNL     1      16.897 -29.933  19.126  1.00  0.00     0.120 C 
ATOM     28  C   UNL     1      15.504 -32.035  19.078  1.00  0.00     0.014 C 
ATOM     29  C   UNL     1      15.285 -30.416  17.211  1.00  0.00     0.014 C 
ENDROOT
BRANCH   1  30
ATOM     30  C   UNL     1      11.286 -24.338  23.628  1.00  0.00     0.048 C 
ATOM     31  O   UNL     1      11.041 -23.210  23.121  1.00  0.00    -0.550 OA
ATOM     32  O   UNL     1      12.563 -24.577  24.123  1.00  0.00    -0.550 OA
ENDBRANCH   1  30
BRANCH  27  33
ATOM     33  O   UNL     1      17.257 -30.315  20.434  1.00  0.00    -0.393 OA
ATOM     34  H   UNL     1      17.042 -29.557  21.038  1.00  0.00     0.210 HD
ENDBRANCH  27  33
TORSDOF 2
ENDMDL
MODEL 4
REMARK VINA RESULT:    -6.375      2.574      8.108
REMARK INTER + INTRA:          -6.997
REMARK INTER:                  -6.839
REMARK INTRA:                  -0.158
REMARK UNBOUND:                -0.063
REMARK SMILES CC1(C)CC[C@]2(C(=O)[O-])CC[C@]3(C)C(=CC[C@H]4[C@@]5(C)CC[C@@H](O)C(C)(C)[C@@H]5CC[C@]43C)[C@@H]2C1
REMARK SMILES IDX 6 1 5 2 10 3 32 4 4 5 11 6 14 7 33 8 2 9 12 10 15 11 1 12
REMARK SMILES IDX 3 13 13 14 30 15 16 16 17 17 29 18 31 19 18 20 28 21 27 22
REMARK SMILES IDX 20 23 19 24 24 25 21 26 22 27 25 28 26 29 7 30 8 31 9 32
REMARK SMILES IDX 23 33
REMARK H PARENT 23 34
REMARK Flexibility Score: inf
ROOT
ATOM      1  C   UNL     1       9.455 -26.918  24.607  1.00  0.00     0.017 C 
ATOM      2  C   UNL     1       8.323 -26.822  25.692  1.00  0.00     0.014 C 
ATOM      3  C   UNL     1       8.819 -26.694  23.205  1.00  0.00     0.014 C 
ATOM      4  C   UNL     1      10.151 -28.321  24.667  1.00  0.00     0.028 C 
ATOM      5  C   UNL     1       8.582 -27.731  26.904  1.00  0.00     0.007 C 
ATOM      6  C   UNL     1       9.773 -26.981  22.023  1.00  0.00     0.013 C 
ATOM      7  C   UNL     1      10.999 -28.597  23.411  1.00  0.00    -0.064 C 
ATOM      8  C   UNL     1       9.164 -29.444  25.055  1.00  0.00     0.015 C 
ATOM      9  C   UNL     1       8.622 -29.246  26.511  1.00  0.00    -0.035 C 
ATOM     10  C   UNL     1      10.404 -28.420  22.003  1.00  0.00    -0.006 C 
ATOM     11  C   UNL     1      12.325 -28.655  23.614  1.00  0.00    -0.027 C 
ATOM     12  C   UNL     1       9.525 -30.002  27.511  1.00  0.00     0.011 C 
ATOM     13  C   UNL     1       7.200 -29.843  26.608  1.00  0.00     0.011 C 
ATOM     14  C   UNL     1       9.268 -29.475  21.800  1.00  0.00     0.017 C 
ATOM     15  C   UNL     1      11.495 -28.585  20.795  1.00  0.00    -0.020 C 
ATOM     16  C   UNL     1      13.367 -28.497  22.575  1.00  0.00     0.032 C 
ATOM     17  C   UNL     1      12.903 -27.964  21.189  1.00  0.00     0.006 C 
ATOM     18  C   UNL     1      11.754 -30.088  20.426  1.00  0.00     0.008 C 
ATOM     19  C   UNL     1      10.887 -27.885  19.530  1.00  0.00     0.012 C 
ATOM     20  C   UNL     1      14.070 -28.156  20.094  1.00  0.00    -0.025 C 
ATOM     21  C   UNL     1      12.838 -30.316  19.346  1.00  0.00     0.005 C 
ATOM     22  C   UNL     1      14.197 -29.688  19.725  1.00  0.00     0.003 C 
ATOM     23  C   UNL     1      15.461 -27.697  20.660  1.00  0.00     0.010 C 
ATOM     24  C   UNL     1      13.768 -27.238  18.861  1.00  0.00     0.012 C 
ATOM     25  C   UNL     1      15.410 -30.076  18.781  1.00  0.00    -0.006 C 
ATOM     26  C   UNL     1      16.655 -28.019  19.736  1.00  0.00     0.033 C 
ATOM     27  C   UNL     1      16.738 -29.516  19.395  1.00  0.00     0.120 C 
ATOM     28  C   UNL     1      15.541 -31.623  18.693  1.00  0.00     0.014 C 
ATOM     29  C   UNL     1      15.257 -29.575  17.321  1.00  0.00     0.014 C 
ENDROOT
BRANCH   1  30
ATOM     30  C   UNL     1      10.468 -25.800  24.866  1.00  0.00     0.048 C 
ATOM     31  O   UNL     1      11.527 -26.046  25.503  1.00  0.00    -0.550 OA
ATOM     32  O   UNL     1      10.271 -24.513  24.380  1.00  0.00    -0.550 OA
ENDBRANCH   1  30
BRANCH  27  33
ATOM     33  O   UNL     1      17.076 -30.213  20.572  1.00  0.00    -0.393 OA
ATOM     34  H   UNL     1      17.789 -29.697  21.033  1.00  0.00     0.210 HD
ENDBRANCH  27  33
TORSDOF 2
ENDMDL
MODEL 5
REMARK VINA RESULT:    -6.241      4.943      9.398
REMARK INTER + INTRA:          -6.851
REMARK INTER:                  -7.264
REMARK INTRA:                   0.413
REMARK UNBOUND:                -0.063
REMARK SMILES CC1(C)CC[C@]2(C(=O)[O-])CC[C@]3(C)C(=CC[C@H]4[C@@]5(C)CC[C@@H](O)C(C)(C)[C@@H]5CC[C@]43C)[C@@H]2C1
REMARK SMILES IDX 6 1 5 2 10 3 32 4 4 5 11 6 14 7 33 8 2 9 12 10 15 11 1 12
REMARK SMILES IDX 3 13 13 14 30 15 16 16 17 17 29 18 31 19 18 20 28 21 27 22
REMARK SMILES IDX 20 23 19 24 24 25 21 26 22 27 25 28 26 29 7 30 8 31 9 32
REMARK SMILES IDX 23 33
REMARK H PARENT 23 34
REMARK Flexibility Score: inf
ROOT
ATOM      1  C   UNL     1       8.933 -29.210  28.836  1.00  0.00     0.017 C 
ATOM      2  C   UNL     1       8.859 -29.597  30.356  1.00  0.00     0.014 C 
ATOM      3  C   UNL     1      10.213 -29.847  28.224  1.00  0.00     0.014 C 
ATOM      4  C   UNL     1       8.973 -27.651  28.671  1.00  0.00     0.028 C 
ATOM      5  C   UNL     1       8.198 -28.508  31.217  1.00  0.00     0.007 C 
ATOM      6  C   UNL     1      10.535 -29.369  26.789  1.00  0.00     0.013 C 
ATOM      7  C   UNL     1       9.408 -27.234  27.253  1.00  0.00    -0.064 C 
ATOM      8  C   UNL     1       9.737 -26.964  29.824  1.00  0.00     0.015 C 
ATOM      9  C   UNL     1       9.001 -27.164  31.192  1.00  0.00    -0.035 C 
ATOM     10  C   UNL     1      10.684 -27.813  26.617  1.00  0.00    -0.006 C 
ATOM     11  C   UNL     1       8.460 -26.636  26.514  1.00  0.00    -0.027 C 
ATOM     12  C   UNL     1       8.027 -25.990  31.437  1.00  0.00     0.011 C 
ATOM     13  C   UNL     1      10.043 -27.164  32.333  1.00  0.00     0.011 C 
ATOM     14  C   UNL     1      11.923 -27.324  27.437  1.00  0.00     0.017 C 
ATOM     15  C   UNL     1      10.894 -27.396  25.050  1.00  0.00    -0.020 C 
ATOM     16  C   UNL     1       8.466 -26.509  25.039  1.00  0.00     0.032 C 
ATOM     17  C   UNL     1       9.513 -27.359  24.264  1.00  0.00     0.006 C 
ATOM     18  C   UNL     1      11.538 -25.974  24.892  1.00  0.00     0.008 C 
ATOM     19  C   UNL     1      11.886 -28.438  24.426  1.00  0.00     0.012 C 
ATOM     20  C   UNL     1       9.607 -26.872  22.731  1.00  0.00    -0.025 C 
ATOM     21  C   UNL     1      11.687 -25.485  23.432  1.00  0.00     0.005 C 
ATOM     22  C   UNL     1      10.345 -25.476  22.668  1.00  0.00     0.003 C 
ATOM     23  C   UNL     1       8.179 -26.671  22.110  1.00  0.00     0.010 C 
ATOM     24  C   UNL     1      10.306 -27.989  21.884  1.00  0.00     0.012 C 
ATOM     25  C   UNL     1      10.379 -24.772  21.247  1.00  0.00    -0.006 C 
ATOM     26  C   UNL     1       8.186 -26.032  20.705  1.00  0.00     0.033 C 
ATOM     27  C   UNL     1       8.920 -24.682  20.684  1.00  0.00     0.120 C 
ATOM     28  C   UNL     1      10.927 -23.323  21.385  1.00  0.00     0.014 C 
ATOM     29  C   UNL     1      11.295 -25.480  20.216  1.00  0.00     0.014 C 
ENDROOT
BRANCH   1  30
ATOM     30  C   UNL     1       7.710 -29.798  28.129  1.00  0.00     0.048 C 
ATOM     31  O   UNL     1       6.876 -30.484  28.779  1.00  0.00    -0.550 OA
ATOM     32  O   UNL     1       7.465 -29.562  26.780  1.00  0.00    -0.550 OA
ENDBRANCH   1  30
BRANCH  27  33
ATOM     33  O   UNL     1       8.155 -23.759  21.427  1.00  0.00    -0.393 OA
ATOM     34  H   UNL     1       8.771 -23.291  22.049  1.00  0.00     0.210 HD
ENDBRANCH  27  33
TORSDOF 2
ENDMDL
MODEL 6
REMARK VINA RESULT:    -6.218      2.589      8.077
REMARK INTER + INTRA:          -6.826
REMARK INTER:                  -6.625
REMARK INTRA:                  -0.201
REMARK UNBOUND:                -0.063
REMARK SMILES CC1(C)CC[C@]2(C(=O)[O-])CC[C@]3(C)C(=CC[C@H]4[C@@]5(C)CC[C@@H](O)C(C)(C)[C@@H]5CC[C@]43C)[C@@H]2C1
REMARK SMILES IDX 6 1 5 2 10 3 32 4 4 5 11 6 14 7 33 8 2 9 12 10 15 11 1 12
REMARK SMILES IDX 3 13 13 14 30 15 16 16 17 17 29 18 31 19 18 20 28 21 27 22
REMARK SMILES IDX 20 23 19 24 24 25 21 26 22 27 25 28 26 29 7 30 8 31 9 32
REMARK SMILES IDX 23 33
REMARK H PARENT 23 34
REMARK Flexibility Score: inf
ROOT
ATOM      1  C   UNL     1      12.271 -26.243  23.752  1.00  0.00     0.017 C 
ATOM      2  C   UNL     1      11.237 -25.414  24.596  1.00  0.00     0.014 C 
ATOM      3  C   UNL     1      12.651 -25.421  22.487  1.00  0.00     0.014 C 
ATOM      4  C   UNL     1      11.653 -27.622  23.335  1.00  0.00     0.028 C 
ATOM      5  C   UNL     1      10.236 -26.303  25.351  1.00  0.00     0.007 C 
ATOM      6  C   UNL     1      13.489 -26.203  21.451  1.00  0.00     0.013 C 
ATOM      7  C   UNL     1      12.470 -28.304  22.220  1.00  0.00    -0.064 C 
ATOM      8  C   UNL     1      10.135 -27.524  23.073  1.00  0.00     0.015 C 
ATOM      9  C   UNL     1       9.355 -27.160  24.382  1.00  0.00    -0.035 C 
ATOM     10  C   UNL     1      12.844 -27.541  20.937  1.00  0.00    -0.006 C 
ATOM     11  C   UNL     1      13.103 -29.432  22.580  1.00  0.00    -0.027 C 
ATOM     12  C   UNL     1       8.919 -28.453  25.107  1.00  0.00     0.011 C 
ATOM     13  C   UNL     1       8.080 -26.371  24.009  1.00  0.00     0.011 C 
ATOM     14  C   UNL     1      11.535 -27.208  20.149  1.00  0.00     0.017 C 
ATOM     15  C   UNL     1      13.856 -28.361  19.948  1.00  0.00    -0.020 C 
ATOM     16  C   UNL     1      14.245 -30.048  21.868  1.00  0.00     0.032 C 
ATOM     17  C   UNL     1      14.936 -29.188  20.771  1.00  0.00     0.006 C 
ATOM     18  C   UNL     1      13.100 -29.391  19.038  1.00  0.00     0.008 C 
ATOM     19  C   UNL     1      14.533 -27.304  19.007  1.00  0.00     0.012 C 
ATOM     20  C   UNL     1      15.926 -30.099  19.884  1.00  0.00    -0.025 C 
ATOM     21  C   UNL     1      14.011 -30.258  18.138  1.00  0.00     0.005 C 
ATOM     22  C   UNL     1      15.073 -31.039  18.942  1.00  0.00     0.003 C 
ATOM     23  C   UNL     1      16.809 -31.028  20.791  1.00  0.00     0.010 C 
ATOM     24  C   UNL     1      16.917 -29.167  19.107  1.00  0.00     0.012 C 
ATOM     25  C   UNL     1      15.888 -32.120  18.118  1.00  0.00    -0.006 C 
ATOM     26  C   UNL     1      17.651 -32.058  20.009  1.00  0.00     0.033 C 
ATOM     27  C   UNL     1      16.786 -32.946  19.101  1.00  0.00     0.120 C 
ATOM     28  C   UNL     1      14.908 -33.108  17.423  1.00  0.00     0.014 C 
ATOM     29  C   UNL     1      16.764 -31.520  16.988  1.00  0.00     0.014 C 
ENDROOT
BRANCH   1  30
ATOM     30  C   UNL     1      13.530 -26.446  24.597  1.00  0.00     0.048 C 
ATOM     31  O   UNL     1      13.610 -27.430  25.381  1.00  0.00    -0.550 OA
ATOM     32  O   UNL     1      14.620 -25.589  24.498  1.00  0.00    -0.550 OA
ENDBRANCH   1  30
BRANCH  27  33
ATOM     33  O   UNL     1      15.994 -33.772  19.924  1.00  0.00    -0.393 OA
ATOM     34  H   UNL     1      15.602 -33.200  20.634  1.00  0.00     0.210 HD
ENDBRANCH  27  33
TORSDOF 2
ENDMDL
MODEL 7
REMARK VINA RESULT:    -6.161      1.537      8.147
REMARK INTER + INTRA:          -6.764
REMARK INTER:                  -6.556
REMARK INTRA:                  -0.208
REMARK UNBOUND:                -0.063
REMARK SMILES CC1(C)CC[C@]2(C(=O)[O-])CC[C@]3(C)C(=CC[C@H]4[C@@]5(C)CC[C@@H](O)C(C)(C)[C@@H]5CC[C@]43C)[C@@H]2C1
REMARK SMILES IDX 6 1 5 2 10 3 32 4 4 5 11 6 14 7 33 8 2 9 12 10 15 11 1 12
REMARK SMILES IDX 3 13 13 14 30 15 16 16 17 17 29 18 31 19 18 20 28 21 27 22
REMARK SMILES IDX 20 23 19 24 24 25 21 26 22 27 25 28 26 29 7 30 8 31 9 32
REMARK SMILES IDX 23 33
REMARK H PARENT 23 34
REMARK Flexibility Score: inf
ROOT
ATOM      1  C   UNL     1       9.606 -25.696  23.652  1.00  0.00     0.017 C 
ATOM      2  C   UNL     1       8.649 -24.639  24.311  1.00  0.00     0.014 C 
ATOM      3  C   UNL     1      10.766 -26.000  24.643  1.00  0.00     0.014 C 
ATOM      4  C   UNL     1      10.180 -25.146  22.301  1.00  0.00     0.028 C 
ATOM      5  C   UNL     1       7.993 -23.706  23.279  1.00  0.00     0.007 C 
ATOM      6  C   UNL     1      11.905 -26.856  24.043  1.00  0.00     0.013 C 
ATOM      7  C   UNL     1      11.384 -25.972  21.808  1.00  0.00    -0.064 C 
ATOM      8  C   UNL     1      10.402 -23.619  22.342  1.00  0.00     0.015 C 
ATOM      9  C   UNL     1       9.046 -22.851  22.498  1.00  0.00    -0.035 C 
ATOM     10  C   UNL     1      12.569 -26.273  22.743  1.00  0.00    -0.006 C 
ATOM     11  C   UNL     1      11.176 -26.675  20.684  1.00  0.00    -0.027 C 
ATOM     12  C   UNL     1       8.479 -22.505  21.103  1.00  0.00     0.011 C 
ATOM     13  C   UNL     1       9.297 -21.526  23.252  1.00  0.00     0.011 C 
ATOM     14  C   UNL     1      13.288 -24.929  23.094  1.00  0.00     0.017 C 
ATOM     15  C   UNL     1      13.668 -27.306  22.110  1.00  0.00    -0.020 C 
ATOM     16  C   UNL     1      11.979 -27.832  20.226  1.00  0.00     0.032 C 
ATOM     17  C   UNL     1      12.972 -28.448  21.253  1.00  0.00     0.006 C 
ATOM     18  C   UNL     1      14.685 -26.586  21.157  1.00  0.00     0.008 C 
ATOM     19  C   UNL     1      14.483 -27.900  23.311  1.00  0.00     0.012 C 
ATOM     20  C   UNL     1      13.981 -29.466  20.516  1.00  0.00    -0.025 C 
ATOM     21  C   UNL     1      15.702 -27.521  20.461  1.00  0.00     0.005 C 
ATOM     22  C   UNL     1      15.018 -28.644  19.650  1.00  0.00     0.003 C 
ATOM     23  C   UNL     1      13.211 -30.420  19.535  1.00  0.00     0.010 C 
ATOM     24  C   UNL     1      14.654 -30.385  21.591  1.00  0.00     0.012 C 
ATOM     25  C   UNL     1      15.983 -29.497  18.727  1.00  0.00    -0.006 C 
ATOM     26  C   UNL     1      14.128 -31.299  18.659  1.00  0.00     0.033 C 
ATOM     27  C   UNL     1      15.125 -30.463  17.840  1.00  0.00     0.120 C 
ATOM     28  C   UNL     1      16.778 -28.558  17.776  1.00  0.00     0.014 C 
ATOM     29  C   UNL     1      17.045 -30.312  19.510  1.00  0.00     0.014 C 
ENDROOT
BRANCH   1  30
ATOM     30  C   UNL     1       8.814 -26.984  23.420  1.00  0.00     0.048 C 
ATOM     31  O   UNL     1       8.788 -27.877  24.309  1.00  0.00    -0.550 OA
ATOM     32  O   UNL     1       8.079 -27.187  22.257  1.00  0.00    -0.550 OA
ENDBRANCH   1  30
BRANCH  27  33
ATOM     33  O   UNL     1      14.397 -29.738  16.875  1.00  0.00    -0.393 OA
ATOM     34  H   UNL     1      14.996 -29.034  16.514  1.00  0.00     0.210 HD
ENDBRANCH  27  33
TORSDOF 2
ENDMDL
MODEL 8
REMARK VINA RESULT:    -5.661      1.803      2.347
REMARK INTER + INTRA:          -6.219
REMARK INTER:                  -6.026
REMARK INTRA:                  -0.194
REMARK UNBOUND:                -0.063
REMARK SMILES CC1(C)CC[C@]2(C(=O)[O-])CC[C@]3(C)C(=CC[C@H]4[C@@]5(C)CC[C@@H](O)C(C)(C)[C@@H]5CC[C@]43C)[C@@H]2C1
REMARK SMILES IDX 6 1 5 2 10 3 32 4 4 5 11 6 14 7 33 8 2 9 12 10 15 11 1 12
REMARK SMILES IDX 3 13 13 14 30 15 16 16 17 17 29 18 31 19 18 20 28 21 27 22
REMARK SMILES IDX 20 23 19 24 24 25 21 26 22 27 25 28 26 29 7 30 8 31 9 32
REMARK SMILES IDX 23 33
REMARK H PARENT 23 34
REMARK Flexibility Score: inf
ROOT
ATOM      1  C   UNL     1      14.387 -28.277  18.228  1.00  0.00     0.017 C 
ATOM      2  C   UNL     1      15.356 -28.873  17.144  1.00  0.00     0.014 C 
ATOM      3  C   UNL     1      15.140 -27.160  19.005  1.00  0.00     0.014 C 
ATOM      4  C   UNL     1      13.917 -29.400  19.215  1.00  0.00     0.028 C 
ATOM      5  C   UNL     1      15.102 -30.366  16.875  1.00  0.00     0.007 C 
ATOM      6  C   UNL     1      14.388 -26.635  20.249  1.00  0.00     0.013 C 
ATOM      7  C   UNL     1      13.275 -28.815  20.488  1.00  0.00    -0.064 C 
ATOM      8  C   UNL     1      15.015 -30.458  19.459  1.00  0.00     0.015 C 
ATOM      9  C   UNL     1      15.346 -31.246  18.146  1.00  0.00    -0.035 C 
ATOM     10  C   UNL     1      13.995 -27.729  21.308  1.00  0.00    -0.006 C 
ATOM     11  C   UNL     1      11.960 -29.046  20.626  1.00  0.00    -0.027 C 
ATOM     12  C   UNL     1      14.461 -32.510  18.060  1.00  0.00     0.011 C 
ATOM     13  C   UNL     1      16.822 -31.700  18.186  1.00  0.00     0.011 C 
ATOM     14  C   UNL     1      15.299 -28.342  21.918  1.00  0.00     0.017 C 
ATOM     15  C   UNL     1      13.093 -27.103  22.519  1.00  0.00    -0.020 C 
ATOM     16  C   UNL     1      11.034 -28.286  21.497  1.00  0.00     0.032 C 
ATOM     17  C   UNL     1      11.568 -26.953  22.096  1.00  0.00     0.006 C 
ATOM     18  C   UNL     1      13.116 -27.999  23.806  1.00  0.00     0.008 C 
ATOM     19  C   UNL     1      13.727 -25.718  22.894  1.00  0.00     0.012 C 
ATOM     20  C   UNL     1      10.582 -26.424  23.255  1.00  0.00    -0.025 C 
ATOM     21  C   UNL     1      12.215 -27.504  24.962  1.00  0.00     0.005 C 
ATOM     22  C   UNL     1      10.739 -27.337  24.536  1.00  0.00     0.003 C 
ATOM     23  C   UNL     1       9.080 -26.509  22.806  1.00  0.00     0.010 C 
ATOM     24  C   UNL     1      10.879 -24.910  23.526  1.00  0.00     0.012 C 
ATOM     25  C   UNL     1       9.720 -27.057  25.718  1.00  0.00    -0.006 C 
ATOM     26  C   UNL     1       8.067 -26.192  23.926  1.00  0.00     0.033 C 
ATOM     27  C   UNL     1       8.258 -27.095  25.155  1.00  0.00     0.120 C 
ATOM     28  C   UNL     1       9.844 -28.167  26.800  1.00  0.00     0.014 C 
ATOM     29  C   UNL     1       9.963 -25.713  26.453  1.00  0.00     0.014 C 
ENDROOT
BRANCH   1  30
ATOM     30  C   UNL     1      13.190 -27.650  17.511  1.00  0.00     0.048 C 
ATOM     31  O   UNL     1      12.154 -28.335  17.298  1.00  0.00    -0.550 OA
ATOM     32  O   UNL     1      13.194 -26.316  17.117  1.00  0.00    -0.550 OA
ENDBRANCH   1  30
BRANCH  27  33
ATOM     33  O   UNL     1       7.898 -28.409  24.792  1.00  0.00    -0.393 OA
ATOM     34  H   UNL     1       8.283 -28.587  23.894  1.00  0.00     0.210 HD
ENDBRANCH  27  33
TORSDOF 2
ENDMDL
MODEL 9
REMARK VINA RESULT:    -5.643      2.715      8.342
REMARK INTER + INTRA:          -6.200
REMARK INTER:                  -6.001
REMARK INTRA:                  -0.199
REMARK UNBOUND:                -0.063
REMARK SMILES CC1(C)CC[C@]2(C(=O)[O-])CC[C@]3(C)C(=CC[C@H]4[C@@]5(C)CC[C@@H](O)C(C)(C)[C@@H]5CC[C@]43C)[C@@H]2C1
REMARK SMILES IDX 6 1 5 2 10 3 32 4 4 5 11 6 14 7 33 8 2 9 12 10 15 11 1 12
REMARK SMILES IDX 3 13 13 14 30 15 16 16 17 17 29 18 31 19 18 20 28 21 27 22
REMARK SMILES IDX 20 23 19 24 24 25 21 26 22 27 25 28 26 29 7 30 8 31 9 32
REMARK SMILES IDX 23 33
REMARK H PARENT 23 34
REMARK Flexibility Score: inf
ROOT
ATOM      1  C   UNL     1       8.768 -27.448  25.271  1.00  0.00     0.017 C 
ATOM      2  C   UNL     1       7.846 -27.390  26.542  1.00  0.00     0.014 C 
ATOM      3  C   UNL     1       8.214 -28.534  24.306  1.00  0.00     0.014 C 
ATOM      4  C   UNL     1      10.242 -27.791  25.682  1.00  0.00     0.028 C 
ATOM      5  C   UNL     1       8.616 -27.015  27.819  1.00  0.00     0.007 C 
ATOM      6  C   UNL     1       9.144 -28.859  23.115  1.00  0.00     0.013 C 
ATOM      7  C   UNL     1      11.093 -28.214  24.469  1.00  0.00    -0.064 C 
ATOM      8  C   UNL     1      10.301 -28.745  26.894  1.00  0.00     0.015 C 
ATOM      9  C   UNL     1       9.715 -28.069  28.180  1.00  0.00    -0.035 C 
ATOM     10  C   UNL     1      10.601 -29.306  23.503  1.00  0.00    -0.006 C 
ATOM     11  C   UNL     1      12.074 -27.363  24.131  1.00  0.00    -0.027 C 
ATOM     12  C   UNL     1      10.848 -27.367  28.962  1.00  0.00     0.011 C 
ATOM     13  C   UNL     1       9.109 -29.157  29.094  1.00  0.00     0.011 C 
ATOM     14  C   UNL     1      10.530 -30.666  24.274  1.00  0.00     0.017 C 
ATOM     15  C   UNL     1      11.546 -29.501  22.183  1.00  0.00    -0.020 C 
ATOM     16  C   UNL     1      12.753 -27.305  22.817  1.00  0.00     0.032 C 
ATOM     17  C   UNL     1      12.105 -28.110  21.654  1.00  0.00     0.006 C 
ATOM     18  C   UNL     1      12.794 -30.407  22.469  1.00  0.00     0.008 C 
ATOM     19  C   UNL     1      10.674 -30.223  21.098  1.00  0.00     0.012 C 
ATOM     20  C   UNL     1      13.119 -28.208  20.405  1.00  0.00    -0.025 C 
ATOM     21  C   UNL     1      13.773 -30.563  21.282  1.00  0.00     0.005 C 
ATOM     22  C   UNL     1      14.293 -29.207  20.758  1.00  0.00     0.003 C 
ATOM     23  C   UNL     1      13.773 -26.814  20.094  1.00  0.00     0.010 C 
ATOM     24  C   UNL     1      12.314 -28.616  19.125  1.00  0.00     0.012 C 
ATOM     25  C   UNL     1      15.470 -29.295  19.701  1.00  0.00    -0.006 C 
ATOM     26  C   UNL     1      14.890 -26.865  19.031  1.00  0.00     0.033 C 
ATOM     27  C   UNL     1      16.006 -27.852  19.407  1.00  0.00     0.120 C 
ATOM     28  C   UNL     1      16.646 -30.130  20.283  1.00  0.00     0.014 C 
ATOM     29  C   UNL     1      15.071 -29.985  18.371  1.00  0.00     0.014 C 
ENDROOT
BRANCH   1  30
ATOM     30  C   UNL     1       8.704 -26.091  24.567  1.00  0.00     0.048 C 
ATOM     31  O   UNL     1       7.873 -25.903  23.638  1.00  0.00    -0.550 OA
ATOM     32  O   UNL     1       9.518 -25.032  24.952  1.00  0.00    -0.550 OA
ENDBRANCH   1  30
BRANCH  27  33
ATOM     33  O   UNL     1      16.686 -27.335  20.528  1.00  0.00    -0.393 OA
ATOM     34  H   UNL     1      16.634 -28.015  21.250  1.00  0.00     0.210 HD
ENDBRANCH  27  33
TORSDOF 2
ENDMDL
