MODEL 1
REMARK VINA RESULT:    -3.537      0.000      0.000
REMARK INTER + INTRA:         -11.981
REMARK INTER:                  -8.086
REMARK INTRA:                  -3.895
REMARK UNBOUND:                -3.895
REMARK SMILES CCCCCCCCCCCCCCCCCCCCCCCC(=O)[O-]
REMARK SMILES IDX 13 1 14 2 15 3 16 4 17 5 18 6 19 7 20 8 21 9 22 10 23 11
REMARK SMILES IDX 24 12 25 13 26 14 12 15 11 16 10 17 9 18 8 19 7 20 6 21 5 22
REMARK SMILES IDX 4 23 3 24 2 25 1 26
REMARK H PARENT
REMARK Flexibility Score: inf
ROOT
ATOM      1  C   UNL     1      -3.777  37.148  42.893  1.00  0.00     0.000 C 
ENDROOT
BRANCH   1   2
ATOM      2  C   UNL     1      -5.073  37.575  43.604  1.00  0.00     0.000 C 
BRANCH   2   3
ATOM      3  C   UNL     1      -5.553  38.966  43.159  1.00  0.00     0.000 C 
BRANCH   3   4
ATOM      4  C   UNL     1      -6.985  39.268  43.628  1.00  0.00     0.000 C 
BRANCH   4   5
ATOM      5  C   UNL     1      -7.686  37.990  44.105  1.00  0.00     0.000 C 
BRANCH   5   6
ATOM      6  C   UNL     1      -8.401  38.220  45.446  1.00  0.00     0.000 C 
BRANCH   6   7
ATOM      7  C   UNL     1      -7.944  39.523  46.136  1.00  0.00     0.000 C 
BRANCH   7   8
ATOM      8  C   UNL     1      -7.050  39.290  47.369  1.00  0.00     0.000 C 
BRANCH   8   9
ATOM      9  C   UNL     1      -5.584  38.955  47.050  1.00  0.00     0.000 C 
BRANCH   9  10
ATOM     10  C   UNL     1      -5.174  37.554  47.530  1.00  0.00     0.006 C 
BRANCH  10  11
ATOM     11  C   UNL     1      -6.354  36.839  48.199  1.00  0.00     0.053 C 
BRANCH  11  12
ATOM     12  C   UNL     1      -5.999  35.432  48.573  1.00  0.00     0.041 C 
ATOM     13  O   UNL     1      -6.720  34.793  49.385  1.00  0.00    -0.550 OA
ATOM     14  O   UNL     1      -4.841  34.846  48.074  1.00  0.00    -0.550 OA
ENDBRANCH  11  12
ENDBRANCH  10  11
ENDBRANCH   9  10
ENDBRANCH   8   9
ENDBRANCH   7   8
ENDBRANCH   6   7
ENDBRANCH   5   6
ENDBRANCH   4   5
ENDBRANCH   3   4
ENDBRANCH   2   3
ENDBRANCH   1   2
BRANCH   1  15
ATOM     15  C   UNL     1      -3.769  37.518  41.402  1.00  0.00     0.000 C 
BRANCH  15  16
ATOM     16  C   UNL     1      -3.427  36.329  40.492  1.00  0.00     0.000 C 
BRANCH  16  17
ATOM     17  C   UNL     1      -4.198  35.072  40.918  1.00  0.00     0.000 C 
BRANCH  17  18
ATOM     18  C   UNL     1      -3.278  33.926  41.374  1.00  0.00    -0.000 C 
BRANCH  18  19
ATOM     19  C   UNL     1      -3.849  33.099  42.545  1.00  0.00    -0.000 C 
BRANCH  19  20
ATOM     20  C   UNL     1      -5.224  33.618  43.004  1.00  0.00    -0.000 C 
BRANCH  20  21
ATOM     21  C   UNL     1      -5.227  34.056  44.477  1.00  0.00    -0.000 C 
BRANCH  21  22
ATOM     22  C   UNL     1      -6.634  34.422  44.981  1.00  0.00    -0.000 C 
BRANCH  22  23
ATOM     23  C   UNL     1      -7.721  34.239  43.908  1.00  0.00    -0.000 C 
BRANCH  23  24
ATOM     24  C   UNL     1      -8.711  33.092  44.177  1.00  0.00    -0.000 C 
BRANCH  24  25
ATOM     25  C   UNL     1      -9.111  32.331  42.905  1.00  0.00    -0.003 C 
ATOM     26  C   UNL     1      -8.592  33.038  41.655  1.00  0.00     0.004 C 
ENDBRANCH  24  25
ENDBRANCH  23  24
ENDBRANCH  22  23
ENDBRANCH  21  22
ENDBRANCH  20  21
ENDBRANCH  19  20
ENDBRANCH  18  19
ENDBRANCH  17  18
ENDBRANCH  16  17
ENDBRANCH  15  16
ENDBRANCH   1  15
TORSDOF 22
ENDMDL
MODEL 2
REMARK VINA RESULT:    -3.507      2.134      5.890
REMARK INTER + INTRA:         -11.913
REMARK INTER:                  -7.365
REMARK INTRA:                  -4.548
REMARK UNBOUND:                -3.895
REMARK SMILES CCCCCCCCCCCCCCCCCCCCCCCC(=O)[O-]
REMARK SMILES IDX 13 1 14 2 15 3 16 4 17 5 18 6 19 7 20 8 21 9 22 10 23 11
REMARK SMILES IDX 24 12 25 13 26 14 12 15 11 16 10 17 9 18 8 19 7 20 6 21 5 22
REMARK SMILES IDX 4 23 3 24 2 25 1 26
REMARK H PARENT
REMARK Flexibility Score: inf
ROOT
ATOM      1  C   UNL     1      -3.778  38.041  43.246  1.00  0.00     0.000 C 
ENDROOT
BRANCH   1   2
ATOM      2  C   UNL     1      -3.028  37.801  41.923  1.00  0.00     0.000 C 
BRANCH   2   3
ATOM      3  C   UNL     1      -3.984  37.634  40.731  1.00  0.00     0.000 C 
BRANCH   3   4
ATOM      4  C   UNL     1      -3.890  36.237  40.099  1.00  0.00     0.000 C 
BRANCH   4   5
ATOM      5  C   UNL     1      -2.707  35.451  40.679  1.00  0.00     0.000 C 
BRANCH   5   6
ATOM      6  C   UNL     1      -3.174  34.115  41.279  1.00  0.00     0.000 C 
BRANCH   6   7
ATOM      7  C   UNL     1      -4.660  34.147  41.692  1.00  0.00     0.000 C 
BRANCH   7   8
ATOM      8  C   UNL     1      -4.879  34.345  43.204  1.00  0.00     0.000 C 
BRANCH   8   9
ATOM      9  C   UNL     1      -6.325  34.677  43.609  1.00  0.00     0.000 C 
BRANCH   9  10
ATOM     10  C   UNL     1      -6.742  34.006  44.928  1.00  0.00     0.006 C 
BRANCH  10  11
ATOM     11  C   UNL     1      -8.252  33.746  44.955  1.00  0.00     0.053 C 
BRANCH  11  12
ATOM     12  C   UNL     1      -8.619  32.571  44.101  1.00  0.00     0.041 C 
ATOM     13  O   UNL     1      -7.953  31.503  44.176  1.00  0.00    -0.550 OA
ATOM     14  O   UNL     1      -9.655  32.671  43.179  1.00  0.00    -0.550 OA
ENDBRANCH  11  12
ENDBRANCH  10  11
ENDBRANCH   9  10
ENDBRANCH   8   9
ENDBRANCH   7   8
ENDBRANCH   6   7
ENDBRANCH   5   6
ENDBRANCH   4   5
ENDBRANCH   3   4
ENDBRANCH   2   3
ENDBRANCH   1   2
BRANCH   1  15
ATOM     15  C   UNL     1      -5.303  38.096  43.061  1.00  0.00     0.000 C 
BRANCH  15  16
ATOM     16  C   UNL     1      -5.894  39.478  43.377  1.00  0.00     0.000 C 
BRANCH  16  17
ATOM     17  C   UNL     1      -7.300  39.350  43.979  1.00  0.00     0.000 C 
BRANCH  17  18
ATOM     18  C   UNL     1      -7.746  37.890  44.162  1.00  0.00    -0.000 C 
BRANCH  18  19
ATOM     19  C   UNL     1      -8.184  37.550  45.603  1.00  0.00    -0.000 C 
BRANCH  19  20
ATOM     20  C   UNL     1      -7.849  38.682  46.592  1.00  0.00    -0.000 C 
BRANCH  20  21
ATOM     21  C   UNL     1      -6.688  38.319  47.530  1.00  0.00    -0.000 C 
BRANCH  21  22
ATOM     22  C   UNL     1      -5.368  38.998  47.126  1.00  0.00    -0.000 C 
BRANCH  22  23
ATOM     23  C   UNL     1      -4.231  37.993  46.871  1.00  0.00    -0.000 C 
BRANCH  23  24
ATOM     24  C   UNL     1      -4.693  36.581  46.467  1.00  0.00    -0.000 C 
BRANCH  24  25
ATOM     25  C   UNL     1      -3.625  35.505  46.715  1.00  0.00    -0.003 C 
ATOM     26  C   UNL     1      -4.192  34.347  47.533  1.00  0.00     0.004 C 
ENDBRANCH  24  25
ENDBRANCH  23  24
ENDBRANCH  22  23
ENDBRANCH  21  22
ENDBRANCH  20  21
ENDBRANCH  19  20
ENDBRANCH  18  19
ENDBRANCH  17  18
ENDBRANCH  16  17
ENDBRANCH  15  16
ENDBRANCH   1  15
TORSDOF 22
ENDMDL
MODEL 3
REMARK VINA RESULT:    -3.453      4.596      7.773
REMARK INTER + INTRA:         -11.788
REMARK INTER:                  -8.013
REMARK INTRA:                  -3.775
REMARK UNBOUND:                -3.895
REMARK SMILES CCCCCCCCCCCCCCCCCCCCCCCC(=O)[O-]
REMARK SMILES IDX 13 1 14 2 15 3 16 4 17 5 18 6 19 7 20 8 21 9 22 10 23 11
REMARK SMILES IDX 24 12 25 13 26 14 12 15 11 16 10 17 9 18 8 19 7 20 6 21 5 22
REMARK SMILES IDX 4 23 3 24 2 25 1 26
REMARK H PARENT
REMARK Flexibility Score: inf
ROOT
ATOM      1  C   UNL     1      -2.579  31.421  42.796  1.00  0.00     0.000 C 
ENDROOT
BRANCH   1   2
ATOM      2  C   UNL     1      -1.885  32.610  43.483  1.00  0.00     0.000 C 
BRANCH   2   3
ATOM      3  C   UNL     1      -1.082  33.470  42.494  1.00  0.00     0.000 C 
BRANCH   3   4
ATOM      4  C   UNL     1      -1.791  33.617  41.138  1.00  0.00     0.000 C 
BRANCH   4   5
ATOM      5  C   UNL     1      -1.668  35.051  40.608  1.00  0.00     0.000 C 
BRANCH   5   6
ATOM      6  C   UNL     1      -3.051  35.700  40.447  1.00  0.00     0.000 C 
BRANCH   6   7
ATOM      7  C   UNL     1      -4.167  34.872  41.117  1.00  0.00     0.000 C 
BRANCH   7   8
ATOM      8  C   UNL     1      -4.696  35.489  42.426  1.00  0.00     0.000 C 
BRANCH   8   9
ATOM      9  C   UNL     1      -4.968  34.479  43.553  1.00  0.00     0.000 C 
BRANCH   9  10
ATOM     10  C   UNL     1      -5.860  33.311  43.103  1.00  0.00     0.006 C 
BRANCH  10  11
ATOM     11  C   UNL     1      -6.656  32.745  44.284  1.00  0.00     0.053 C 
BRANCH  11  12
ATOM     12  C   UNL     1      -8.050  32.376  43.875  1.00  0.00     0.041 C 
ATOM     13  O   UNL     1      -8.856  33.270  43.502  1.00  0.00    -0.550 OA
ATOM     14  O   UNL     1      -8.480  31.056  43.964  1.00  0.00    -0.550 OA
ENDBRANCH  11  12
ENDBRANCH  10  11
ENDBRANCH   9  10
ENDBRANCH   8   9
ENDBRANCH   7   8
ENDBRANCH   6   7
ENDBRANCH   5   6
ENDBRANCH   4   5
ENDBRANCH   3   4
ENDBRANCH   2   3
ENDBRANCH   1   2
BRANCH   1  15
ATOM     15  C   UNL     1      -2.739  30.209  43.727  1.00  0.00     0.000 C 
BRANCH  15  16
ATOM     16  C   UNL     1      -1.822  29.037  43.346  1.00  0.00     0.000 C 
BRANCH  16  17
ATOM     17  C   UNL     1      -1.087  28.491  44.578  1.00  0.00     0.000 C 
BRANCH  17  18
ATOM     18  C   UNL     1      -0.543  29.600  45.495  1.00  0.00    -0.000 C 
BRANCH  18  19
ATOM     19  C   UNL     1       0.971  29.851  45.335  1.00  0.00    -0.000 C 
BRANCH  19  20
ATOM     20  C   UNL     1       1.267  31.226  44.706  1.00  0.00    -0.000 C 
BRANCH  20  21
ATOM     21  C   UNL     1       1.529  31.138  43.195  1.00  0.00    -0.000 C 
BRANCH  21  22
ATOM     22  C   UNL     1       2.065  29.760  42.768  1.00  0.00    -0.000 C 
BRANCH  22  23
ATOM     23  C   UNL     1       1.939  29.510  41.255  1.00  0.00    -0.000 C 
BRANCH  23  24
ATOM     24  C   UNL     1       0.502  29.578  40.705  1.00  0.00    -0.000 C 
BRANCH  24  25
ATOM     25  C   UNL     1       0.056  28.275  40.026  1.00  0.00    -0.003 C 
ATOM     26  C   UNL     1       0.261  27.076  40.949  1.00  0.00     0.004 C 
ENDBRANCH  24  25
ENDBRANCH  23  24
ENDBRANCH  22  23
ENDBRANCH  21  22
ENDBRANCH  20  21
ENDBRANCH  19  20
ENDBRANCH  18  19
ENDBRANCH  17  18
ENDBRANCH  16  17
ENDBRANCH  15  16
ENDBRANCH   1  15
TORSDOF 22
ENDMDL
MODEL 4
REMARK VINA RESULT:    -3.439      2.649      4.532
REMARK INTER + INTRA:         -11.757
REMARK INTER:                  -7.430
REMARK INTRA:                  -4.328
REMARK UNBOUND:                -3.895
REMARK SMILES CCCCCCCCCCCCCCCCCCCCCCCC(=O)[O-]
REMARK SMILES IDX 13 1 14 2 15 3 16 4 17 5 18 6 19 7 20 8 21 9 22 10 23 11
REMARK SMILES IDX 24 12 25 13 26 14 12 15 11 16 10 17 9 18 8 19 7 20 6 21 5 22
REMARK SMILES IDX 4 23 3 24 2 25 1 26
REMARK H PARENT
REMARK Flexibility Score: inf
ROOT
ATOM      1  C   UNL     1      -2.770  38.008  43.618  1.00  0.00     0.000 C 
ENDROOT
BRANCH   1   2
ATOM      2  C   UNL     1      -4.277  37.822  43.866  1.00  0.00     0.000 C 
BRANCH   2   3
ATOM      3  C   UNL     1      -5.135  38.480  42.773  1.00  0.00     0.000 C 
BRANCH   3   4
ATOM      4  C   UNL     1      -6.360  39.206  43.350  1.00  0.00     0.000 C 
BRANCH   4   5
ATOM      5  C   UNL     1      -6.564  38.848  44.827  1.00  0.00     0.000 C 
BRANCH   5   6
ATOM      6  C   UNL     1      -8.021  38.443  45.101  1.00  0.00     0.000 C 
BRANCH   6   7
ATOM      7  C   UNL     1      -8.162  36.936  45.404  1.00  0.00     0.000 C 
BRANCH   7   8
ATOM      8  C   UNL     1      -6.855  36.274  45.877  1.00  0.00     0.000 C 
BRANCH   8   9
ATOM      9  C   UNL     1      -6.415  35.052  45.055  1.00  0.00     0.000 C 
BRANCH   9  10
ATOM     10  C   UNL     1      -7.366  34.747  43.886  1.00  0.00     0.006 C 
BRANCH  10  11
ATOM     11  C   UNL     1      -7.616  33.240  43.766  1.00  0.00     0.053 C 
BRANCH  11  12
ATOM     12  C   UNL     1      -8.755  32.948  42.837  1.00  0.00     0.041 C 
ATOM     13  O   UNL     1      -9.842  32.501  43.291  1.00  0.00    -0.550 OA
ATOM     14  O   UNL     1      -8.600  33.112  41.465  1.00  0.00    -0.550 OA
ENDBRANCH  11  12
ENDBRANCH  10  11
ENDBRANCH   9  10
ENDBRANCH   8   9
ENDBRANCH   7   8
ENDBRANCH   6   7
ENDBRANCH   5   6
ENDBRANCH   4   5
ENDBRANCH   3   4
ENDBRANCH   2   3
ENDBRANCH   1   2
BRANCH   1  15
ATOM     15  C   UNL     1      -2.473  38.839  42.361  1.00  0.00     0.000 C 
BRANCH  15  16
ATOM     16  C   UNL     1      -1.284  38.299  41.553  1.00  0.00     0.000 C 
BRANCH  16  17
ATOM     17  C   UNL     1      -0.543  37.203  42.332  1.00  0.00     0.000 C 
BRANCH  17  18
ATOM     18  C   UNL     1      -0.262  35.949  41.486  1.00  0.00    -0.000 C 
BRANCH  18  19
ATOM     19  C   UNL     1      -1.026  35.919  40.146  1.00  0.00    -0.000 C 
BRANCH  19  20
ATOM     20  C   UNL     1      -2.215  34.941  40.178  1.00  0.00    -0.000 C 
BRANCH  20  21
ATOM     21  C   UNL     1      -3.562  35.657  40.360  1.00  0.00    -0.000 C 
BRANCH  21  22
ATOM     22  C   UNL     1      -4.400  35.056  41.503  1.00  0.00    -0.000 C 
BRANCH  22  23
ATOM     23  C   UNL     1      -3.540  34.378  42.584  1.00  0.00    -0.000 C 
BRANCH  23  24
ATOM     24  C   UNL     1      -3.850  32.888  42.818  1.00  0.00    -0.000 C 
BRANCH  24  25
ATOM     25  C   UNL     1      -2.642  31.975  42.563  1.00  0.00    -0.003 C 
ATOM     26  C   UNL     1      -1.387  32.520  43.243  1.00  0.00     0.004 C 
ENDBRANCH  24  25
ENDBRANCH  23  24
ENDBRANCH  22  23
ENDBRANCH  21  22
ENDBRANCH  20  21
ENDBRANCH  19  20
ENDBRANCH  18  19
ENDBRANCH  17  18
ENDBRANCH  16  17
ENDBRANCH  15  16
ENDBRANCH   1  15
TORSDOF 22
ENDMDL
MODEL 5
REMARK VINA RESULT:    -3.434     11.777     15.360
REMARK INTER + INTRA:         -11.745
REMARK INTER:                  -9.576
REMARK INTRA:                  -2.169
REMARK UNBOUND:                -3.895
REMARK SMILES CCCCCCCCCCCCCCCCCCCCCCCC(=O)[O-]
REMARK SMILES IDX 13 1 14 2 15 3 16 4 17 5 18 6 19 7 20 8 21 9 22 10 23 11
REMARK SMILES IDX 24 12 25 13 26 14 12 15 11 16 10 17 9 18 8 19 7 20 6 21 5 22
REMARK SMILES IDX 4 23 3 24 2 25 1 26
REMARK H PARENT
REMARK Flexibility Score: inf
ROOT
ATOM      1  C   UNL     1       1.711  28.747  57.202  1.00  0.00     0.000 C 
ENDROOT
BRANCH   1   2
ATOM      2  C   UNL     1       2.774  27.854  57.866  1.00  0.00     0.000 C 
BRANCH   2   3
ATOM      3  C   UNL     1       4.053  27.739  57.020  1.00  0.00     0.000 C 
BRANCH   3   4
ATOM      4  C   UNL     1       5.139  28.731  57.466  1.00  0.00     0.000 C 
BRANCH   4   5
ATOM      5  C   UNL     1       5.950  29.231  56.264  1.00  0.00     0.000 C 
BRANCH   5   6
ATOM      6  C   UNL     1       5.097  29.240  54.987  1.00  0.00     0.000 C 
BRANCH   6   7
ATOM      7  C   UNL     1       5.598  30.274  53.956  1.00  0.00     0.000 C 
BRANCH   7   8
ATOM      8  C   UNL     1       5.571  29.763  52.503  1.00  0.00     0.000 C 
BRANCH   8   9
ATOM      9  C   UNL     1       4.578  28.620  52.238  1.00  0.00     0.000 C 
BRANCH   9  10
ATOM     10  C   UNL     1       4.401  28.319  50.741  1.00  0.00     0.006 C 
BRANCH  10  11
ATOM     11  C   UNL     1       5.289  27.147  50.311  1.00  0.00     0.053 C 
BRANCH  11  12
ATOM     12  C   UNL     1       4.528  26.163  49.475  1.00  0.00     0.041 C 
ATOM     13  O   UNL     1       4.237  25.029  49.942  1.00  0.00    -0.550 OA
ATOM     14  O   UNL     1       4.191  26.472  48.162  1.00  0.00    -0.550 OA
ENDBRANCH  11  12
ENDBRANCH  10  11
ENDBRANCH   9  10
ENDBRANCH   8   9
ENDBRANCH   7   8
ENDBRANCH   6   7
ENDBRANCH   5   6
ENDBRANCH   4   5
ENDBRANCH   3   4
ENDBRANCH   2   3
ENDBRANCH   1   2
BRANCH   1  15
ATOM     15  C   UNL     1       1.562  28.472  55.697  1.00  0.00     0.000 C 
BRANCH  15  16
ATOM     16  C   UNL     1       0.242  29.004  55.120  1.00  0.00     0.000 C 
BRANCH  16  17
ATOM     17  C   UNL     1       0.436  30.392  54.492  1.00  0.00     0.000 C 
BRANCH  17  18
ATOM     18  C   UNL     1       1.857  30.612  53.946  1.00  0.00    -0.000 C 
BRANCH  18  19
ATOM     19  C   UNL     1       1.988  31.857  53.042  1.00  0.00    -0.000 C 
BRANCH  19  20
ATOM     20  C   UNL     1       0.662  32.632  52.928  1.00  0.00    -0.000 C 
BRANCH  20  21
ATOM     21  C   UNL     1       0.742  33.790  51.921  1.00  0.00    -0.000 C 
BRANCH  21  22
ATOM     22  C   UNL     1       0.780  35.167  52.607  1.00  0.00    -0.000 C 
BRANCH  22  23
ATOM     23  C   UNL     1       0.325  36.310  51.683  1.00  0.00    -0.000 C 
BRANCH  23  24
ATOM     24  C   UNL     1      -0.879  35.976  50.784  1.00  0.00    -0.000 C 
BRANCH  24  25
ATOM     25  C   UNL     1      -2.230  36.260  51.457  1.00  0.00    -0.003 C 
ATOM     26  C   UNL     1      -2.980  37.376  50.734  1.00  0.00     0.004 C 
ENDBRANCH  24  25
ENDBRANCH  23  24
ENDBRANCH  22  23
ENDBRANCH  21  22
ENDBRANCH  20  21
ENDBRANCH  19  20
ENDBRANCH  18  19
ENDBRANCH  17  18
ENDBRANCH  16  17
ENDBRANCH  15  16
ENDBRANCH   1  15
TORSDOF 22
ENDMDL
MODEL 6
REMARK VINA RESULT:    -3.406      2.473      5.757
REMARK INTER + INTRA:         -11.680
REMARK INTER:                  -7.388
REMARK INTRA:                  -4.293
REMARK UNBOUND:                -3.895
REMARK SMILES CCCCCCCCCCCCCCCCCCCCCCCC(=O)[O-]
REMARK SMILES IDX 13 1 14 2 15 3 16 4 17 5 18 6 19 7 20 8 21 9 22 10 23 11
REMARK SMILES IDX 24 12 25 13 26 14 12 15 11 16 10 17 9 18 8 19 7 20 6 21 5 22
REMARK SMILES IDX 4 23 3 24 2 25 1 26
REMARK H PARENT
REMARK Flexibility Score: inf
ROOT
ATOM      1  C   UNL     1      -8.437  38.100  45.886  1.00  0.00     0.000 C 
ENDROOT
BRANCH   1   2
ATOM      2  C   UNL     1      -7.367  38.663  46.839  1.00  0.00     0.000 C 
BRANCH   2   3
ATOM      3  C   UNL     1      -6.427  37.571  47.374  1.00  0.00     0.000 C 
BRANCH   3   4
ATOM      4  C   UNL     1      -4.952  37.870  47.068  1.00  0.00     0.000 C 
BRANCH   4   5
ATOM      5  C   UNL     1      -4.348  36.785  46.167  1.00  0.00     0.000 C 
BRANCH   5   6
ATOM      6  C   UNL     1      -5.394  35.715  45.816  1.00  0.00     0.000 C 
BRANCH   6   7
ATOM      7  C   UNL     1      -5.601  35.577  44.293  1.00  0.00     0.000 C 
BRANCH   7   8
ATOM      8  C   UNL     1      -7.013  35.103  43.900  1.00  0.00     0.000 C 
BRANCH   8   9
ATOM      9  C   UNL     1      -7.051  33.834  43.034  1.00  0.00     0.000 C 
BRANCH   9  10
ATOM     10  C   UNL     1      -7.919  32.722  43.644  1.00  0.00     0.006 C 
BRANCH  10  11
ATOM     11  C   UNL     1      -9.257  32.606  42.906  1.00  0.00     0.053 C 
BRANCH  11  12
ATOM     12  C   UNL     1     -10.010  31.382  43.331  1.00  0.00     0.041 C 
ATOM     13  O   UNL     1     -10.947  31.476  44.169  1.00  0.00    -0.550 OA
ATOM     14  O   UNL     1      -9.642  30.130  42.850  1.00  0.00    -0.550 OA
ENDBRANCH  11  12
ENDBRANCH  10  11
ENDBRANCH   9  10
ENDBRANCH   8   9
ENDBRANCH   7   8
ENDBRANCH   6   7
ENDBRANCH   5   6
ENDBRANCH   4   5
ENDBRANCH   3   4
ENDBRANCH   2   3
ENDBRANCH   1   2
BRANCH   1  15
ATOM     15  C   UNL     1      -8.151  38.430  44.413  1.00  0.00     0.000 C 
BRANCH  15  16
ATOM     16  C   UNL     1      -7.036  39.472  44.239  1.00  0.00     0.000 C 
BRANCH  16  17
ATOM     17  C   UNL     1      -6.001  39.003  43.206  1.00  0.00     0.000 C 
BRANCH  17  18
ATOM     18  C   UNL     1      -4.553  39.320  43.618  1.00  0.00    -0.000 C 
BRANCH  18  19
ATOM     19  C   UNL     1      -3.493  38.539  42.812  1.00  0.00    -0.000 C 
BRANCH  19  20
ATOM     20  C   UNL     1      -4.114  37.776  41.627  1.00  0.00    -0.000 C 
BRANCH  20  21
ATOM     21  C   UNL     1      -3.265  36.570  41.194  1.00  0.00    -0.000 C 
BRANCH  21  22
ATOM     22  C   UNL     1      -4.123  35.361  40.785  1.00  0.00    -0.000 C 
BRANCH  22  23
ATOM     23  C   UNL     1      -3.697  34.059  41.486  1.00  0.00    -0.000 C 
BRANCH  23  24
ATOM     24  C   UNL     1      -2.753  34.249  42.687  1.00  0.00    -0.000 C 
BRANCH  24  25
ATOM     25  C   UNL     1      -2.502  32.950  43.467  1.00  0.00    -0.003 C 
ATOM     26  C   UNL     1      -3.813  32.225  43.764  1.00  0.00     0.004 C 
ENDBRANCH  24  25
ENDBRANCH  23  24
ENDBRANCH  22  23
ENDBRANCH  21  22
ENDBRANCH  20  21
ENDBRANCH  19  20
ENDBRANCH  18  19
ENDBRANCH  17  18
ENDBRANCH  16  17
ENDBRANCH  15  16
ENDBRANCH   1  15
TORSDOF 22
ENDMDL
MODEL 7
REMARK VINA RESULT:    -3.373      1.616      4.633
REMARK INTER + INTRA:         -11.606
REMARK INTER:                  -6.494
REMARK INTRA:                  -5.112
REMARK UNBOUND:                -3.895
REMARK SMILES CCCCCCCCCCCCCCCCCCCCCCCC(=O)[O-]
REMARK SMILES IDX 13 1 14 2 15 3 16 4 17 5 18 6 19 7 20 8 21 9 22 10 23 11
REMARK SMILES IDX 24 12 25 13 26 14 12 15 11 16 10 17 9 18 8 19 7 20 6 21 5 22
REMARK SMILES IDX 4 23 3 24 2 25 1 26
REMARK H PARENT
REMARK Flexibility Score: inf
ROOT
ATOM      1  C   UNL     1      -7.898  37.998  44.588  1.00  0.00     0.000 C 
ENDROOT
BRANCH   1   2
ATOM      2  C   UNL     1      -6.786  37.303  43.781  1.00  0.00     0.000 C 
BRANCH   2   3
ATOM      3  C   UNL     1      -5.764  38.301  43.214  1.00  0.00     0.000 C 
BRANCH   3   4
ATOM      4  C   UNL     1      -5.775  39.640  43.967  1.00  0.00     0.000 C 
BRANCH   4   5
ATOM      5  C   UNL     1      -4.474  39.834  44.758  1.00  0.00     0.000 C 
BRANCH   5   6
ATOM      6  C   UNL     1      -4.599  39.255  46.176  1.00  0.00     0.000 C 
BRANCH   6   7
ATOM      7  C   UNL     1      -3.692  38.023  46.386  1.00  0.00     0.000 C 
BRANCH   7   8
ATOM      8  C   UNL     1      -2.621  37.849  45.293  1.00  0.00     0.000 C 
BRANCH   8   9
ATOM      9  C   UNL     1      -2.765  36.574  44.445  1.00  0.00     0.000 C 
BRANCH   9  10
ATOM     10  C   UNL     1      -3.797  35.590  45.019  1.00  0.00     0.006 C 
BRANCH  10  11
ATOM     11  C   UNL     1      -3.115  34.312  45.518  1.00  0.00     0.053 C 
BRANCH  11  12
ATOM     12  C   UNL     1      -3.739  33.822  46.789  1.00  0.00     0.041 C 
ATOM     13  O   UNL     1      -4.159  34.645  47.646  1.00  0.00    -0.550 OA
ATOM     14  O   UNL     1      -3.802  32.459  47.059  1.00  0.00    -0.550 OA
ENDBRANCH  11  12
ENDBRANCH  10  11
ENDBRANCH   9  10
ENDBRANCH   8   9
ENDBRANCH   7   8
ENDBRANCH   6   7
ENDBRANCH   5   6
ENDBRANCH   4   5
ENDBRANCH   3   4
ENDBRANCH   2   3
ENDBRANCH   1   2
BRANCH   1  15
ATOM     15  C   UNL     1      -8.280  37.225  45.860  1.00  0.00     0.000 C 
BRANCH  15  16
ATOM     16  C   UNL     1      -7.155  36.307  46.361  1.00  0.00     0.000 C 
BRANCH  16  17
ATOM     17  C   UNL     1      -7.645  34.857  46.490  1.00  0.00     0.000 C 
BRANCH  17  18
ATOM     18  C   UNL     1      -7.152  33.951  45.350  1.00  0.00    -0.000 C 
BRANCH  18  19
ATOM     19  C   UNL     1      -8.169  33.790  44.200  1.00  0.00    -0.000 C 
BRANCH  19  20
ATOM     20  C   UNL     1      -7.483  33.462  42.861  1.00  0.00    -0.000 C 
BRANCH  20  21
ATOM     21  C   UNL     1      -5.951  33.433  42.976  1.00  0.00    -0.000 C 
BRANCH  21  22
ATOM     22  C   UNL     1      -5.262  34.259  41.875  1.00  0.00    -0.000 C 
BRANCH  22  23
ATOM     23  C   UNL     1      -3.765  33.933  41.731  1.00  0.00    -0.000 C 
BRANCH  23  24
ATOM     24  C   UNL     1      -2.935  35.009  41.008  1.00  0.00    -0.000 C 
BRANCH  24  25
ATOM     25  C   UNL     1      -3.791  36.152  40.444  1.00  0.00    -0.003 C 
ATOM     26  C   UNL     1      -3.176  37.511  40.767  1.00  0.00     0.004 C 
ENDBRANCH  24  25
ENDBRANCH  23  24
ENDBRANCH  22  23
ENDBRANCH  21  22
ENDBRANCH  20  21
ENDBRANCH  19  20
ENDBRANCH  18  19
ENDBRANCH  17  18
ENDBRANCH  16  17
ENDBRANCH  15  16
ENDBRANCH   1  15
TORSDOF 22
ENDMDL
MODEL 8
REMARK VINA RESULT:    -3.363      2.827      5.007
REMARK INTER + INTRA:         -11.583
REMARK INTER:                  -7.704
REMARK INTRA:                  -3.879
REMARK UNBOUND:                -3.895
REMARK SMILES CCCCCCCCCCCCCCCCCCCCCCCC(=O)[O-]
REMARK SMILES IDX 13 1 14 2 15 3 16 4 17 5 18 6 19 7 20 8 21 9 22 10 23 11
REMARK SMILES IDX 24 12 25 13 26 14 12 15 11 16 10 17 9 18 8 19 7 20 6 21 5 22
REMARK SMILES IDX 4 23 3 24 2 25 1 26
REMARK H PARENT
REMARK Flexibility Score: inf
ROOT
ATOM      1  C   UNL     1      -4.412  37.972  43.852  1.00  0.00     0.000 C 
ENDROOT
BRANCH   1   2
ATOM      2  C   UNL     1      -5.267  39.078  43.207  1.00  0.00     0.000 C 
BRANCH   2   3
ATOM      3  C   UNL     1      -6.738  39.012  43.648  1.00  0.00     0.000 C 
BRANCH   3   4
ATOM      4  C   UNL     1      -7.021  39.896  44.872  1.00  0.00     0.000 C 
BRANCH   4   5
ATOM      5  C   UNL     1      -8.082  39.256  45.777  1.00  0.00     0.000 C 
BRANCH   5   6
ATOM      6  C   UNL     1      -8.496  37.873  45.249  1.00  0.00     0.000 C 
BRANCH   6   7
ATOM      7  C   UNL     1      -8.097  36.736  46.213  1.00  0.00     0.000 C 
BRANCH   7   8
ATOM      8  C   UNL     1      -6.757  36.064  45.859  1.00  0.00     0.000 C 
BRANCH   8   9
ATOM      9  C   UNL     1      -6.742  35.325  44.511  1.00  0.00     0.000 C 
BRANCH   9  10
ATOM     10  C   UNL     1      -7.926  34.358  44.348  1.00  0.00     0.006 C 
BRANCH  10  11
ATOM     11  C   UNL     1      -7.583  33.236  43.362  1.00  0.00     0.053 C 
BRANCH  11  12
ATOM     12  C   UNL     1      -8.778  32.841  42.549  1.00  0.00     0.041 C 
ATOM     13  O   UNL     1      -8.793  33.049  41.306  1.00  0.00    -0.550 OA
ATOM     14  O   UNL     1      -9.899  32.300  43.168  1.00  0.00    -0.550 OA
ENDBRANCH  11  12
ENDBRANCH  10  11
ENDBRANCH   9  10
ENDBRANCH   8   9
ENDBRANCH   7   8
ENDBRANCH   6   7
ENDBRANCH   5   6
ENDBRANCH   4   5
ENDBRANCH   3   4
ENDBRANCH   2   3
ENDBRANCH   1   2
BRANCH   1  15
ATOM     15  C   UNL     1      -3.361  37.398  42.890  1.00  0.00     0.000 C 
BRANCH  15  16
ATOM     16  C   UNL     1      -3.978  36.807  41.613  1.00  0.00     0.000 C 
BRANCH  16  17
ATOM     17  C   UNL     1      -4.331  35.326  41.807  1.00  0.00     0.000 C 
BRANCH  17  18
ATOM     18  C   UNL     1      -3.361  34.376  41.085  1.00  0.00    -0.000 C 
BRANCH  18  19
ATOM     19  C   UNL     1      -2.378  35.095  40.138  1.00  0.00    -0.000 C 
BRANCH  19  20
ATOM     20  C   UNL     1      -0.909  34.793  40.490  1.00  0.00    -0.000 C 
BRANCH  20  21
ATOM     21  C   UNL     1      -0.297  35.853  41.419  1.00  0.00    -0.000 C 
BRANCH  21  22
ATOM     22  C   UNL     1       0.060  35.286  42.805  1.00  0.00    -0.000 C 
BRANCH  22  23
ATOM     23  C   UNL     1      -0.178  33.770  42.912  1.00  0.00    -0.000 C 
BRANCH  23  24
ATOM     24  C   UNL     1      -1.254  33.354  43.931  1.00  0.00    -0.000 C 
BRANCH  24  25
ATOM     25  C   UNL     1      -1.668  34.496  44.870  1.00  0.00    -0.003 C 
ATOM     26  C   UNL     1      -3.168  34.460  45.153  1.00  0.00     0.004 C 
ENDBRANCH  24  25
ENDBRANCH  23  24
ENDBRANCH  22  23
ENDBRANCH  21  22
ENDBRANCH  20  21
ENDBRANCH  19  20
ENDBRANCH  18  19
ENDBRANCH  17  18
ENDBRANCH  16  17
ENDBRANCH  15  16
ENDBRANCH   1  15
TORSDOF 22
ENDMDL
MODEL 9
REMARK VINA RESULT:    -3.298      3.265      6.504
REMARK INTER + INTRA:         -11.434
REMARK INTER:                  -8.156
REMARK INTRA:                  -3.278
REMARK UNBOUND:                -3.895
REMARK SMILES CCCCCCCCCCCCCCCCCCCCCCCC(=O)[O-]
REMARK SMILES IDX 13 1 14 2 15 3 16 4 17 5 18 6 19 7 20 8 21 9 22 10 23 11
REMARK SMILES IDX 24 12 25 13 26 14 12 15 11 16 10 17 9 18 8 19 7 20 6 21 5 22
REMARK SMILES IDX 4 23 3 24 2 25 1 26
REMARK H PARENT
REMARK Flexibility Score: inf
ROOT
ATOM      1  C   UNL     1      -3.837  33.886  43.293  1.00  0.00     0.000 C 
ENDROOT
BRANCH   1   2
ATOM      2  C   UNL     1      -3.498  34.992  44.308  1.00  0.00     0.000 C 
BRANCH   2   3
ATOM      3  C   UNL     1      -4.755  35.686  44.857  1.00  0.00     0.000 C 
BRANCH   3   4
ATOM      4  C   UNL     1      -5.991  35.435  43.981  1.00  0.00     0.000 C 
BRANCH   4   5
ATOM      5  C   UNL     1      -7.231  35.168  44.844  1.00  0.00     0.000 C 
BRANCH   5   6
ATOM      6  C   UNL     1      -7.874  33.820  44.486  1.00  0.00     0.000 C 
BRANCH   6   7
ATOM      7  C   UNL     1      -7.656  33.443  43.005  1.00  0.00     0.000 C 
BRANCH   7   8
ATOM      8  C   UNL     1      -8.867  32.744  42.359  1.00  0.00     0.000 C 
BRANCH   8   9
ATOM      9  C   UNL     1      -9.957  32.297  43.347  1.00  0.00     0.000 C 
BRANCH   9  10
ATOM     10  C   UNL     1     -10.081  30.768  43.446  1.00  0.00     0.006 C 
BRANCH  10  11
ATOM     11  C   UNL     1     -11.396  30.369  44.125  1.00  0.00     0.053 C 
BRANCH  11  12
ATOM     12  C   UNL     1     -12.184  29.421  43.273  1.00  0.00     0.041 C 
ATOM     13  O   UNL     1     -13.424  29.288  43.457  1.00  0.00    -0.550 OA
ATOM     14  O   UNL     1     -11.544  28.639  42.318  1.00  0.00    -0.550 OA
ENDBRANCH  11  12
ENDBRANCH  10  11
ENDBRANCH   9  10
ENDBRANCH   8   9
ENDBRANCH   7   8
ENDBRANCH   6   7
ENDBRANCH   5   6
ENDBRANCH   4   5
ENDBRANCH   3   4
ENDBRANCH   2   3
ENDBRANCH   1   2
BRANCH   1  15
ATOM     15  C   UNL     1      -3.274  34.174  41.892  1.00  0.00     0.000 C 
BRANCH  15  16
ATOM     16  C   UNL     1      -4.279  34.895  40.981  1.00  0.00     0.000 C 
BRANCH  16  17
ATOM     17  C   UNL     1      -3.602  36.040  40.214  1.00  0.00     0.000 C 
BRANCH  17  18
ATOM     18  C   UNL     1      -3.952  37.429  40.773  1.00  0.00    -0.000 C 
BRANCH  18  19
ATOM     19  C   UNL     1      -2.973  37.927  41.857  1.00  0.00    -0.000 C 
BRANCH  19  20
ATOM     20  C   UNL     1      -3.682  38.768  42.936  1.00  0.00    -0.000 C 
BRANCH  20  21
ATOM     21  C   UNL     1      -5.213  38.704  42.820  1.00  0.00    -0.000 C 
BRANCH  21  22
ATOM     22  C   UNL     1      -5.922  39.191  44.097  1.00  0.00    -0.000 C 
BRANCH  22  23
ATOM     23  C   UNL     1      -7.416  38.825  44.129  1.00  0.00    -0.000 C 
BRANCH  23  24
ATOM     24  C   UNL     1      -8.053  38.827  45.531  1.00  0.00    -0.000 C 
BRANCH  24  25
ATOM     25  C   UNL     1      -7.065  38.440  46.641  1.00  0.00    -0.003 C 
ATOM     26  C   UNL     1      -6.913  39.568  47.659  1.00  0.00     0.004 C 
ENDBRANCH  24  25
ENDBRANCH  23  24
ENDBRANCH  22  23
ENDBRANCH  21  22
ENDBRANCH  20  21
ENDBRANCH  19  20
ENDBRANCH  18  19
ENDBRANCH  17  18
ENDBRANCH  16  17
ENDBRANCH  15  16
ENDBRANCH   1  15
TORSDOF 22
ENDMDL
