MODEL 1
REMARK VINA RESULT:    -6.631      0.000      0.000
REMARK INTER + INTRA:         -18.188
REMARK INTER:                 -15.159
REMARK INTRA:                  -3.029
REMARK UNBOUND:                -3.029
REMARK SMILES CCCCCCCCCCCCCCCCCCCCCCCC(=O)[O-]
REMARK SMILES IDX 13 1 14 2 15 3 16 4 17 5 18 6 19 7 20 8 21 9 22 10 23 11
REMARK SMILES IDX 24 12 25 13 26 14 12 15 11 16 10 17 9 18 8 19 7 20 6 21 5 22
REMARK SMILES IDX 4 23 3 24 2 25 1 26
REMARK H PARENT
REMARK Flexibility Score: inf
ROOT
ATOM      1  C   UNL     1       3.510  26.118  43.001  1.00  0.00     0.000 C 
ENDROOT
BRANCH   1   2
ATOM      2  C   UNL     1       2.275  25.797  43.861  1.00  0.00     0.000 C 
BRANCH   2   3
ATOM      3  C   UNL     1       1.122  26.791  43.649  1.00  0.00     0.000 C 
BRANCH   3   4
ATOM      4  C   UNL     1       1.482  27.833  42.579  1.00  0.00     0.000 C 
BRANCH   4   5
ATOM      5  C   UNL     1       0.393  27.989  41.506  1.00  0.00     0.000 C 
BRANCH   5   6
ATOM      6  C   UNL     1       0.834  28.878  40.333  1.00  0.00     0.000 C 
BRANCH   6   7
ATOM      7  C   UNL     1      -0.142  30.049  40.134  1.00  0.00     0.000 C 
BRANCH   7   8
ATOM      8  C   UNL     1      -0.481  30.767  41.449  1.00  0.00     0.000 C 
BRANCH   8   9
ATOM      9  C   UNL     1      -1.988  31.000  41.629  1.00  0.00     0.000 C 
BRANCH   9  10
ATOM     10  C   UNL     1      -2.388  30.876  43.107  1.00  0.00     0.006 C 
BRANCH  10  11
ATOM     11  C   UNL     1      -2.552  29.413  43.545  1.00  0.00     0.053 C 
BRANCH  11  12
ATOM     12  C   UNL     1      -1.629  29.061  44.673  1.00  0.00     0.041 C 
ATOM     13  O   UNL     1      -1.797  27.994  45.320  1.00  0.00    -0.550 OA
ATOM     14  O   UNL     1      -0.570  29.900  44.994  1.00  0.00    -0.550 OA
ENDBRANCH  11  12
ENDBRANCH  10  11
ENDBRANCH   9  10
ENDBRANCH   8   9
ENDBRANCH   7   8
ENDBRANCH   6   7
ENDBRANCH   5   6
ENDBRANCH   4   5
ENDBRANCH   3   4
ENDBRANCH   2   3
ENDBRANCH   1   2
BRANCH   1  15
ATOM     15  C   UNL     1       4.495  24.948  42.818  1.00  0.00     0.000 C 
BRANCH  15  16
ATOM     16  C   UNL     1       5.858  25.126  43.516  1.00  0.00     0.000 C 
BRANCH  16  17
ATOM     17  C   UNL     1       6.965  24.169  43.033  1.00  0.00     0.000 C 
BRANCH  17  18
ATOM     18  C   UNL     1       8.239  24.253  43.885  1.00  0.00    -0.000 C 
BRANCH  18  19
ATOM     19  C   UNL     1       8.309  23.090  44.887  1.00  0.00    -0.000 C 
BRANCH  19  20
ATOM     20  C   UNL     1       7.896  23.515  46.312  1.00  0.00    -0.000 C 
BRANCH  20  21
ATOM     21  C   UNL     1       6.419  23.226  46.644  1.00  0.00    -0.000 C 
BRANCH  21  22
ATOM     22  C   UNL     1       5.902  21.859  46.165  1.00  0.00    -0.000 C 
BRANCH  22  23
ATOM     23  C   UNL     1       4.574  21.960  45.398  1.00  0.00    -0.000 C 
BRANCH  23  24
ATOM     24  C   UNL     1       4.722  21.416  43.972  1.00  0.00    -0.000 C 
BRANCH  24  25
ATOM     25  C   UNL     1       5.712  20.246  43.929  1.00  0.00    -0.003 C 
ATOM     26  C   UNL     1       6.741  20.434  42.816  1.00  0.00     0.004 C 
ENDBRANCH  24  25
ENDBRANCH  23  24
ENDBRANCH  22  23
ENDBRANCH  21  22
ENDBRANCH  20  21
ENDBRANCH  19  20
ENDBRANCH  18  19
ENDBRANCH  17  18
ENDBRANCH  16  17
ENDBRANCH  15  16
ENDBRANCH   1  15
TORSDOF 22
ENDMDL
MODEL 2
REMARK VINA RESULT:    -6.599      0.858      2.270
REMARK INTER + INTRA:         -18.115
REMARK INTER:                 -14.990
REMARK INTRA:                  -3.125
REMARK UNBOUND:                -3.029
REMARK SMILES CCCCCCCCCCCCCCCCCCCCCCCC(=O)[O-]
REMARK SMILES IDX 13 1 14 2 15 3 16 4 17 5 18 6 19 7 20 8 21 9 22 10 23 11
REMARK SMILES IDX 24 12 25 13 26 14 12 15 11 16 10 17 9 18 8 19 7 20 6 21 5 22
REMARK SMILES IDX 4 23 3 24 2 25 1 26
REMARK H PARENT
REMARK Flexibility Score: inf
ROOT
ATOM      1  C   UNL     1       3.444  26.149  42.944  1.00  0.00     0.000 C 
ENDROOT
BRANCH   1   2
ATOM      2  C   UNL     1       2.186  25.933  43.803  1.00  0.00     0.000 C 
BRANCH   2   3
ATOM      3  C   UNL     1       1.087  26.971  43.529  1.00  0.00     0.000 C 
BRANCH   3   4
ATOM      4  C   UNL     1       1.689  28.286  43.008  1.00  0.00     0.000 C 
BRANCH   4   5
ATOM      5  C   UNL     1       1.211  28.641  41.592  1.00  0.00     0.000 C 
BRANCH   5   6
ATOM      6  C   UNL     1      -0.132  27.986  41.232  1.00  0.00     0.000 C 
BRANCH   6   7
ATOM      7  C   UNL     1      -1.127  29.030  40.700  1.00  0.00     0.000 C 
BRANCH   7   8
ATOM      8  C   UNL     1      -0.512  30.434  40.593  1.00  0.00     0.000 C 
BRANCH   8   9
ATOM      9  C   UNL     1      -1.245  31.473  41.454  1.00  0.00     0.000 C 
BRANCH   9  10
ATOM     10  C   UNL     1      -2.116  30.786  42.517  1.00  0.00     0.006 C 
BRANCH  10  11
ATOM     11  C   UNL     1      -1.482  30.839  43.914  1.00  0.00     0.053 C 
BRANCH  11  12
ATOM     12  C   UNL     1      -1.601  29.528  44.633  1.00  0.00     0.041 C 
ATOM     13  O   UNL     1      -1.201  29.418  45.821  1.00  0.00    -0.550 OA
ATOM     14  O   UNL     1      -2.175  28.435  43.996  1.00  0.00    -0.550 OA
ENDBRANCH  11  12
ENDBRANCH  10  11
ENDBRANCH   9  10
ENDBRANCH   8   9
ENDBRANCH   7   8
ENDBRANCH   6   7
ENDBRANCH   5   6
ENDBRANCH   4   5
ENDBRANCH   3   4
ENDBRANCH   2   3
ENDBRANCH   1   2
BRANCH   1  15
ATOM     15  C   UNL     1       4.751  25.614  43.560  1.00  0.00     0.000 C 
BRANCH  15  16
ATOM     16  C   UNL     1       5.338  24.368  42.868  1.00  0.00     0.000 C 
BRANCH  16  17
ATOM     17  C   UNL     1       6.873  24.261  42.917  1.00  0.00     0.000 C 
BRANCH  17  18
ATOM     18  C   UNL     1       7.398  22.942  42.333  1.00  0.00    -0.000 C 
BRANCH  18  19
ATOM     19  C   UNL     1       6.256  21.933  42.135  1.00  0.00    -0.000 C 
BRANCH  19  20
ATOM     20  C   UNL     1       6.611  20.530  42.673  1.00  0.00    -0.000 C 
BRANCH  20  21
ATOM     21  C   UNL     1       5.986  20.213  44.045  1.00  0.00    -0.000 C 
BRANCH  21  22
ATOM     22  C   UNL     1       4.644  20.911  44.324  1.00  0.00    -0.000 C 
BRANCH  22  23
ATOM     23  C   UNL     1       4.726  21.921  45.478  1.00  0.00    -0.000 C 
BRANCH  23  24
ATOM     24  C   UNL     1       6.086  21.839  46.182  1.00  0.00    -0.000 C 
BRANCH  24  25
ATOM     25  C   UNL     1       6.532  23.218  46.683  1.00  0.00    -0.003 C 
ATOM     26  C   UNL     1       8.004  23.470  46.370  1.00  0.00     0.004 C 
ENDBRANCH  24  25
ENDBRANCH  23  24
ENDBRANCH  22  23
ENDBRANCH  21  22
ENDBRANCH  20  21
ENDBRANCH  19  20
ENDBRANCH  18  19
ENDBRANCH  17  18
ENDBRANCH  16  17
ENDBRANCH  15  16
ENDBRANCH   1  15
TORSDOF 22
ENDMDL
MODEL 3
REMARK VINA RESULT:    -6.516      0.944      2.879
REMARK INTER + INTRA:         -17.926
REMARK INTER:                 -14.751
REMARK INTRA:                  -3.175
REMARK UNBOUND:                -3.029
REMARK SMILES CCCCCCCCCCCCCCCCCCCCCCCC(=O)[O-]
REMARK SMILES IDX 13 1 14 2 15 3 16 4 17 5 18 6 19 7 20 8 21 9 22 10 23 11
REMARK SMILES IDX 24 12 25 13 26 14 12 15 11 16 10 17 9 18 8 19 7 20 6 21 5 22
REMARK SMILES IDX 4 23 3 24 2 25 1 26
REMARK H PARENT
REMARK Flexibility Score: inf
ROOT
ATOM      1  C   UNL     1       3.128  26.439  42.961  1.00  0.00     0.000 C 
ENDROOT
BRANCH   1   2
ATOM      2  C   UNL     1       1.752  26.303  43.636  1.00  0.00     0.000 C 
BRANCH   2   3
ATOM      3  C   UNL     1       0.721  27.312  43.106  1.00  0.00     0.000 C 
BRANCH   3   4
ATOM      4  C   UNL     1       1.390  28.358  42.200  1.00  0.00     0.000 C 
BRANCH   4   5
ATOM      5  C   UNL     1       0.827  28.357  40.770  1.00  0.00     0.000 C 
BRANCH   5   6
ATOM      6  C   UNL     1       0.279  29.728  40.343  1.00  0.00     0.000 C 
BRANCH   6   7
ATOM      7  C   UNL     1       0.110  30.654  41.558  1.00  0.00     0.000 C 
BRANCH   7   8
ATOM      8  C   UNL     1      -1.323  31.190  41.700  1.00  0.00     0.000 C 
BRANCH   8   9
ATOM      9  C   UNL     1      -2.389  30.116  41.436  1.00  0.00     0.000 C 
BRANCH   9  10
ATOM     10  C   UNL     1      -2.537  29.183  42.647  1.00  0.00     0.006 C 
BRANCH  10  11
ATOM     11  C   UNL     1      -2.633  29.956  43.970  1.00  0.00     0.053 C 
BRANCH  11  12
ATOM     12  C   UNL     1      -1.560  29.548  44.935  1.00  0.00     0.041 C 
ATOM     13  O   UNL     1      -0.594  30.320  45.172  1.00  0.00    -0.550 OA
ATOM     14  O   UNL     1      -1.640  28.325  45.588  1.00  0.00    -0.550 OA
ENDBRANCH  11  12
ENDBRANCH  10  11
ENDBRANCH   9  10
ENDBRANCH   8   9
ENDBRANCH   7   8
ENDBRANCH   6   7
ENDBRANCH   5   6
ENDBRANCH   4   5
ENDBRANCH   3   4
ENDBRANCH   2   3
ENDBRANCH   1   2
BRANCH   1  15
ATOM     15  C   UNL     1       4.138  25.331  43.316  1.00  0.00     0.000 C 
BRANCH  15  16
ATOM     16  C   UNL     1       3.618  24.263  44.299  1.00  0.00     0.000 C 
BRANCH  16  17
ATOM     17  C   UNL     1       4.023  22.817  43.960  1.00  0.00     0.000 C 
BRANCH  17  18
ATOM     18  C   UNL     1       4.468  22.017  45.193  1.00  0.00    -0.000 C 
BRANCH  18  19
ATOM     19  C   UNL     1       5.297  20.790  44.784  1.00  0.00    -0.000 C 
BRANCH  19  20
ATOM     20  C   UNL     1       5.486  20.690  43.255  1.00  0.00    -0.000 C 
BRANCH  20  21
ATOM     21  C   UNL     1       6.918  21.010  42.784  1.00  0.00    -0.000 C 
BRANCH  21  22
ATOM     22  C   UNL     1       7.034  22.215  41.834  1.00  0.00    -0.000 C 
BRANCH  22  23
ATOM     23  C   UNL     1       7.578  23.472  42.530  1.00  0.00    -0.000 C 
BRANCH  23  24
ATOM     24  C   UNL     1       8.167  23.126  43.903  1.00  0.00    -0.000 C 
BRANCH  24  25
ATOM     25  C   UNL     1       7.557  24.005  45.001  1.00  0.00    -0.003 C 
ATOM     26  C   UNL     1       7.783  23.399  46.384  1.00  0.00     0.004 C 
ENDBRANCH  24  25
ENDBRANCH  23  24
ENDBRANCH  22  23
ENDBRANCH  21  22
ENDBRANCH  20  21
ENDBRANCH  19  20
ENDBRANCH  18  19
ENDBRANCH  17  18
ENDBRANCH  16  17
ENDBRANCH  15  16
ENDBRANCH   1  15
TORSDOF 22
ENDMDL
MODEL 4
REMARK VINA RESULT:    -6.496      8.289     14.575
REMARK INTER + INTRA:         -17.879
REMARK INTER:                 -14.625
REMARK INTRA:                  -3.255
REMARK UNBOUND:                -3.029
REMARK SMILES CCCCCCCCCCCCCCCCCCCCCCCC(=O)[O-]
REMARK SMILES IDX 13 1 14 2 15 3 16 4 17 5 18 6 19 7 20 8 21 9 22 10 23 11
REMARK SMILES IDX 24 12 25 13 26 14 12 15 11 16 10 17 9 18 8 19 7 20 6 21 5 22
REMARK SMILES IDX 4 23 3 24 2 25 1 26
REMARK H PARENT
REMARK Flexibility Score: inf
ROOT
ATOM      1  C   UNL     1       9.989  18.617  44.351  1.00  0.00     0.000 C 
ENDROOT
BRANCH   1   2
ATOM      2  C   UNL     1      10.846  18.708  45.626  1.00  0.00     0.000 C 
BRANCH   2   3
ATOM      3  C   UNL     1      12.012  17.707  45.638  1.00  0.00     0.000 C 
BRANCH   3   4
ATOM      4  C   UNL     1      11.565  16.334  45.112  1.00  0.00     0.000 C 
BRANCH   4   5
ATOM      5  C   UNL     1      12.685  15.583  44.376  1.00  0.00     0.000 C 
BRANCH   5   6
ATOM      6  C   UNL     1      13.906  16.470  44.082  1.00  0.00     0.000 C 
BRANCH   6   7
ATOM      7  C   UNL     1      15.104  15.621  43.627  1.00  0.00     0.000 C 
BRANCH   7   8
ATOM      8  C   UNL     1      16.057  15.276  44.782  1.00  0.00     0.000 C 
BRANCH   8   9
ATOM      9  C   UNL     1      15.947  13.810  45.226  1.00  0.00     0.000 C 
BRANCH   9  10
ATOM     10  C   UNL     1      15.346  13.710  46.636  1.00  0.00     0.006 C 
BRANCH  10  11
ATOM     11  C   UNL     1      15.411  15.044  47.394  1.00  0.00     0.053 C 
BRANCH  11  12
ATOM     12  C   UNL     1      14.077  15.432  47.958  1.00  0.00     0.041 C 
ATOM     13  O   UNL     1      13.105  14.634  47.894  1.00  0.00    -0.550 OA
ATOM     14  O   UNL     1      13.914  16.667  48.573  1.00  0.00    -0.550 OA
ENDBRANCH  11  12
ENDBRANCH  10  11
ENDBRANCH   9  10
ENDBRANCH   8   9
ENDBRANCH   7   8
ENDBRANCH   6   7
ENDBRANCH   5   6
ENDBRANCH   4   5
ENDBRANCH   3   4
ENDBRANCH   2   3
ENDBRANCH   1   2
BRANCH   1  15
ATOM     15  C   UNL     1       9.307  19.933  43.932  1.00  0.00     0.000 C 
BRANCH  15  16
ATOM     16  C   UNL     1       9.430  21.086  44.948  1.00  0.00     0.000 C 
BRANCH  16  17
ATOM     17  C   UNL     1       8.112  21.487  45.637  1.00  0.00     0.000 C 
BRANCH  17  18
ATOM     18  C   UNL     1       8.110  22.945  46.118  1.00  0.00    -0.000 C 
BRANCH  18  19
ATOM     19  C   UNL     1       8.454  23.905  44.969  1.00  0.00    -0.000 C 
BRANCH  19  20
ATOM     20  C   UNL     1       7.344  23.961  43.897  1.00  0.00    -0.000 C 
BRANCH  20  21
ATOM     21  C   UNL     1       7.847  23.693  42.466  1.00  0.00    -0.000 C 
BRANCH  21  22
ATOM     22  C   UNL     1       7.423  22.340  41.871  1.00  0.00    -0.000 C 
BRANCH  22  23
ATOM     23  C   UNL     1       5.947  22.008  42.139  1.00  0.00    -0.000 C 
BRANCH  23  24
ATOM     24  C   UNL     1       5.800  20.601  42.731  1.00  0.00    -0.000 C 
BRANCH  24  25
ATOM     25  C   UNL     1       4.954  20.628  44.010  1.00  0.00    -0.003 C 
ATOM     26  C   UNL     1       4.310  21.996  44.218  1.00  0.00     0.004 C 
ENDBRANCH  24  25
ENDBRANCH  23  24
ENDBRANCH  22  23
ENDBRANCH  21  22
ENDBRANCH  20  21
ENDBRANCH  19  20
ENDBRANCH  18  19
ENDBRANCH  17  18
ENDBRANCH  16  17
ENDBRANCH  15  16
ENDBRANCH   1  15
TORSDOF 22
ENDMDL
MODEL 5
REMARK VINA RESULT:    -6.472      1.763      3.272
REMARK INTER + INTRA:         -17.824
REMARK INTER:                 -14.536
REMARK INTRA:                  -3.288
REMARK UNBOUND:                -3.029
REMARK SMILES CCCCCCCCCCCCCCCCCCCCCCCC(=O)[O-]
REMARK SMILES IDX 13 1 14 2 15 3 16 4 17 5 18 6 19 7 20 8 21 9 22 10 23 11
REMARK SMILES IDX 24 12 25 13 26 14 12 15 11 16 10 17 9 18 8 19 7 20 6 21 5 22
REMARK SMILES IDX 4 23 3 24 2 25 1 26
REMARK H PARENT
REMARK Flexibility Score: inf
ROOT
ATOM      1  C   UNL     1       3.404  26.168  42.818  1.00  0.00     0.000 C 
ENDROOT
BRANCH   1   2
ATOM      2  C   UNL     1       2.121  26.118  43.665  1.00  0.00     0.000 C 
BRANCH   2   3
ATOM      3  C   UNL     1       1.340  27.442  43.648  1.00  0.00     0.000 C 
BRANCH   3   4
ATOM      4  C   UNL     1      -0.112  27.220  43.198  1.00  0.00     0.000 C 
BRANCH   4   5
ATOM      5  C   UNL     1      -1.131  27.954  44.084  1.00  0.00     0.000 C 
BRANCH   5   6
ATOM      6  C   UNL     1      -0.499  29.087  44.908  1.00  0.00     0.000 C 
BRANCH   6   7
ATOM      7  C   UNL     1      -0.913  30.462  44.360  1.00  0.00     0.000 C 
BRANCH   7   8
ATOM      8  C   UNL     1      -2.310  30.449  43.723  1.00  0.00     0.000 C 
BRANCH   8   9
ATOM      9  C   UNL     1      -2.328  31.057  42.313  1.00  0.00     0.000 C 
BRANCH   9  10
ATOM     10  C   UNL     1      -0.907  31.138  41.735  1.00  0.00     0.006 C 
BRANCH  10  11
ATOM     11  C   UNL     1      -0.651  30.067  40.665  1.00  0.00     0.053 C 
BRANCH  11  12
ATOM     12  C   UNL     1       0.789  29.648  40.627  1.00  0.00     0.041 C 
ATOM     13  O   UNL     1       1.625  30.181  41.402  1.00  0.00    -0.550 OA
ATOM     14  O   UNL     1       1.200  28.652  39.751  1.00  0.00    -0.550 OA
ENDBRANCH  11  12
ENDBRANCH  10  11
ENDBRANCH   9  10
ENDBRANCH   8   9
ENDBRANCH   7   8
ENDBRANCH   6   7
ENDBRANCH   5   6
ENDBRANCH   4   5
ENDBRANCH   3   4
ENDBRANCH   2   3
ENDBRANCH   1   2
BRANCH   1  15
ATOM     15  C   UNL     1       4.517  25.202  43.269  1.00  0.00     0.000 C 
BRANCH  15  16
ATOM     16  C   UNL     1       4.298  24.550  44.648  1.00  0.00     0.000 C 
BRANCH  16  17
ATOM     17  C   UNL     1       3.981  23.043  44.611  1.00  0.00     0.000 C 
BRANCH  17  18
ATOM     18  C   UNL     1       4.946  22.209  45.464  1.00  0.00    -0.000 C 
BRANCH  18  19
ATOM     19  C   UNL     1       6.139  23.057  45.935  1.00  0.00    -0.000 C 
BRANCH  19  20
ATOM     20  C   UNL     1       7.481  22.305  45.806  1.00  0.00    -0.000 C 
BRANCH  20  21
ATOM     21  C   UNL     1       8.510  23.018  44.908  1.00  0.00    -0.000 C 
BRANCH  21  22
ATOM     22  C   UNL     1       7.947  24.183  44.074  1.00  0.00    -0.000 C 
BRANCH  22  23
ATOM     23  C   UNL     1       8.104  23.962  42.562  1.00  0.00    -0.000 C 
BRANCH  23  24
ATOM     24  C   UNL     1       7.895  22.487  42.198  1.00  0.00    -0.000 C 
BRANCH  24  25
ATOM     25  C   UNL     1       6.418  22.195  41.908  1.00  0.00    -0.003 C 
ATOM     26  C   UNL     1       6.065  20.748  42.242  1.00  0.00     0.004 C 
ENDBRANCH  24  25
ENDBRANCH  23  24
ENDBRANCH  22  23
ENDBRANCH  21  22
ENDBRANCH  20  21
ENDBRANCH  19  20
ENDBRANCH  18  19
ENDBRANCH  17  18
ENDBRANCH  16  17
ENDBRANCH  15  16
ENDBRANCH   1  15
TORSDOF 22
ENDMDL
MODEL 6
REMARK VINA RESULT:    -6.469      1.769      3.023
REMARK INTER + INTRA:         -17.817
REMARK INTER:                 -14.670
REMARK INTRA:                  -3.147
REMARK UNBOUND:                -3.029
REMARK SMILES CCCCCCCCCCCCCCCCCCCCCCCC(=O)[O-]
REMARK SMILES IDX 13 1 14 2 15 3 16 4 17 5 18 6 19 7 20 8 21 9 22 10 23 11
REMARK SMILES IDX 24 12 25 13 26 14 12 15 11 16 10 17 9 18 8 19 7 20 6 21 5 22
REMARK SMILES IDX 4 23 3 24 2 25 1 26
REMARK H PARENT
REMARK Flexibility Score: inf
ROOT
ATOM      1  C   UNL     1       2.244  25.594  43.993  1.00  0.00     0.000 C 
ENDROOT
BRANCH   1   2
ATOM      2  C   UNL     1       2.567  26.706  42.979  1.00  0.00     0.000 C 
BRANCH   2   3
ATOM      3  C   UNL     1       1.553  27.860  43.013  1.00  0.00     0.000 C 
BRANCH   3   4
ATOM      4  C   UNL     1       0.115  27.335  42.877  1.00  0.00     0.000 C 
BRANCH   4   5
ATOM      5  C   UNL     1      -0.791  27.769  44.040  1.00  0.00     0.000 C 
BRANCH   5   6
ATOM      6  C   UNL     1      -0.120  28.790  44.972  1.00  0.00     0.000 C 
BRANCH   6   7
ATOM      7  C   UNL     1      -1.034  30.004  45.205  1.00  0.00     0.000 C 
BRANCH   7   8
ATOM      8  C   UNL     1      -1.062  30.963  44.005  1.00  0.00     0.000 C 
BRANCH   8   9
ATOM      9  C   UNL     1      -2.399  30.933  43.250  1.00  0.00     0.000 C 
BRANCH   9  10
ATOM     10  C   UNL     1      -2.170  30.771  41.740  1.00  0.00     0.006 C 
BRANCH  10  11
ATOM     11  C   UNL     1      -0.708  31.016  41.342  1.00  0.00     0.053 C 
BRANCH  11  12
ATOM     12  C   UNL     1      -0.191  29.946  40.427  1.00  0.00     0.041 C 
ATOM     13  O   UNL     1       1.042  29.859  40.187  1.00  0.00    -0.550 OA
ATOM     14  O   UNL     1      -1.068  29.032  39.859  1.00  0.00    -0.550 OA
ENDBRANCH  11  12
ENDBRANCH  10  11
ENDBRANCH   9  10
ENDBRANCH   8   9
ENDBRANCH   7   8
ENDBRANCH   6   7
ENDBRANCH   5   6
ENDBRANCH   4   5
ENDBRANCH   3   4
ENDBRANCH   2   3
ENDBRANCH   1   2
BRANCH   1  15
ATOM     15  C   UNL     1       3.288  24.463  44.069  1.00  0.00     0.000 C 
BRANCH  15  16
ATOM     16  C   UNL     1       4.201  24.331  42.834  1.00  0.00     0.000 C 
BRANCH  16  17
ATOM     17  C   UNL     1       5.703  24.520  43.114  1.00  0.00     0.000 C 
BRANCH  17  18
ATOM     18  C   UNL     1       6.562  23.377  42.556  1.00  0.00    -0.000 C 
BRANCH  18  19
ATOM     19  C   UNL     1       8.058  23.714  42.654  1.00  0.00    -0.000 C 
BRANCH  19  20
ATOM     20  C   UNL     1       8.443  24.288  44.034  1.00  0.00    -0.000 C 
BRANCH  20  21
ATOM     21  C   UNL     1       8.512  23.230  45.152  1.00  0.00    -0.000 C 
BRANCH  21  22
ATOM     22  C   UNL     1       7.826  23.631  46.469  1.00  0.00    -0.000 C 
BRANCH  22  23
ATOM     23  C   UNL     1       6.369  23.150  46.552  1.00  0.00    -0.000 C 
BRANCH  23  24
ATOM     24  C   UNL     1       6.218  21.751  45.943  1.00  0.00    -0.000 C 
BRANCH  24  25
ATOM     25  C   UNL     1       4.746  21.428  45.661  1.00  0.00    -0.003 C 
ATOM     26  C   UNL     1       4.580  20.741  44.308  1.00  0.00     0.004 C 
ENDBRANCH  24  25
ENDBRANCH  23  24
ENDBRANCH  22  23
ENDBRANCH  21  22
ENDBRANCH  20  21
ENDBRANCH  19  20
ENDBRANCH  18  19
ENDBRANCH  17  18
ENDBRANCH  16  17
ENDBRANCH  15  16
ENDBRANCH   1  15
TORSDOF 22
ENDMDL
MODEL 7
REMARK VINA RESULT:    -6.460      8.203     14.540
REMARK INTER + INTRA:         -17.797
REMARK INTER:                 -14.398
REMARK INTRA:                  -3.400
REMARK UNBOUND:                -3.029
REMARK SMILES CCCCCCCCCCCCCCCCCCCCCCCC(=O)[O-]
REMARK SMILES IDX 13 1 14 2 15 3 16 4 17 5 18 6 19 7 20 8 21 9 22 10 23 11
REMARK SMILES IDX 24 12 25 13 26 14 12 15 11 16 10 17 9 18 8 19 7 20 6 21 5 22
REMARK SMILES IDX 4 23 3 24 2 25 1 26
REMARK H PARENT
REMARK Flexibility Score: inf
ROOT
ATOM      1  C   UNL     1       9.282  19.868  45.594  1.00  0.00     0.000 C 
ENDROOT
BRANCH   1   2
ATOM      2  C   UNL     1      10.656  19.183  45.708  1.00  0.00     0.000 C 
BRANCH   2   3
ATOM      3  C   UNL     1      10.807  17.982  44.761  1.00  0.00     0.000 C 
BRANCH   3   4
ATOM      4  C   UNL     1      11.685  16.891  45.392  1.00  0.00     0.000 C 
BRANCH   4   5
ATOM      5  C   UNL     1      13.188  17.150  45.203  1.00  0.00     0.000 C 
BRANCH   5   6
ATOM      6  C   UNL     1      13.810  16.278  44.100  1.00  0.00     0.000 C 
BRANCH   6   7
ATOM      7  C   UNL     1      13.178  14.877  44.086  1.00  0.00     0.000 C 
BRANCH   7   8
ATOM      8  C   UNL     1      14.189  13.767  44.411  1.00  0.00     0.000 C 
BRANCH   8   9
ATOM      9  C   UNL     1      15.509  14.311  44.978  1.00  0.00     0.000 C 
BRANCH   9  10
ATOM     10  C   UNL     1      15.760  13.768  46.393  1.00  0.00     0.006 C 
BRANCH  10  11
ATOM     11  C   UNL     1      15.769  14.880  47.451  1.00  0.00     0.053 C 
BRANCH  11  12
ATOM     12  C   UNL     1      14.401  15.129  48.013  1.00  0.00     0.041 C 
ATOM     13  O   UNL     1      14.099  16.265  48.465  1.00  0.00    -0.550 OA
ATOM     14  O   UNL     1      13.455  14.113  48.016  1.00  0.00    -0.550 OA
ENDBRANCH  11  12
ENDBRANCH  10  11
ENDBRANCH   9  10
ENDBRANCH   8   9
ENDBRANCH   7   8
ENDBRANCH   6   7
ENDBRANCH   5   6
ENDBRANCH   4   5
ENDBRANCH   3   4
ENDBRANCH   2   3
ENDBRANCH   1   2
BRANCH   1  15
ATOM     15  C   UNL     1       8.344  19.267  44.529  1.00  0.00     0.000 C 
BRANCH  15  16
ATOM     16  C   UNL     1       8.192  20.106  43.245  1.00  0.00     0.000 C 
BRANCH  16  17
ATOM     17  C   UNL     1       6.741  20.462  42.870  1.00  0.00     0.000 C 
BRANCH  17  18
ATOM     18  C   UNL     1       5.739  20.133  43.985  1.00  0.00    -0.000 C 
BRANCH  18  19
ATOM     19  C   UNL     1       4.644  21.206  44.076  1.00  0.00    -0.000 C 
BRANCH  19  20
ATOM     20  C   UNL     1       4.829  22.134  45.296  1.00  0.00    -0.000 C 
BRANCH  20  21
ATOM     21  C   UNL     1       5.980  21.713  46.229  1.00  0.00    -0.000 C 
BRANCH  21  22
ATOM     22  C   UNL     1       6.993  22.824  46.553  1.00  0.00    -0.000 C 
BRANCH  22  23
ATOM     23  C   UNL     1       7.151  23.837  45.409  1.00  0.00    -0.000 C 
BRANCH  23  24
ATOM     24  C   UNL     1       8.364  23.494  44.536  1.00  0.00    -0.000 C 
BRANCH  24  25
ATOM     25  C   UNL     1       8.111  23.867  43.071  1.00  0.00    -0.003 C 
ATOM     26  C   UNL     1       6.647  24.237  42.840  1.00  0.00     0.004 C 
ENDBRANCH  24  25
ENDBRANCH  23  24
ENDBRANCH  22  23
ENDBRANCH  21  22
ENDBRANCH  20  21
ENDBRANCH  19  20
ENDBRANCH  18  19
ENDBRANCH  17  18
ENDBRANCH  16  17
ENDBRANCH  15  16
ENDBRANCH   1  15
TORSDOF 22
ENDMDL
MODEL 8
REMARK VINA RESULT:    -6.433      0.978      2.244
REMARK INTER + INTRA:         -17.736
REMARK INTER:                 -14.259
REMARK INTRA:                  -3.478
REMARK UNBOUND:                -3.029
REMARK SMILES CCCCCCCCCCCCCCCCCCCCCCCC(=O)[O-]
REMARK SMILES IDX 13 1 14 2 15 3 16 4 17 5 18 6 19 7 20 8 21 9 22 10 23 11
REMARK SMILES IDX 24 12 25 13 26 14 12 15 11 16 10 17 9 18 8 19 7 20 6 21 5 22
REMARK SMILES IDX 4 23 3 24 2 25 1 26
REMARK H PARENT
REMARK Flexibility Score: inf
ROOT
ATOM      1  C   UNL     1       4.298  25.370  43.400  1.00  0.00     0.000 C 
ENDROOT
BRANCH   1   2
ATOM      2  C   UNL     1       3.288  26.506  43.161  1.00  0.00     0.000 C 
BRANCH   2   3
ATOM      3  C   UNL     1       1.869  26.157  43.640  1.00  0.00     0.000 C 
BRANCH   3   4
ATOM      4  C   UNL     1       0.854  27.209  43.169  1.00  0.00     0.000 C 
BRANCH   4   5
ATOM      5  C   UNL     1       1.508  28.557  42.824  1.00  0.00     0.000 C 
BRANCH   5   6
ATOM      6  C   UNL     1       0.843  29.254  41.627  1.00  0.00     0.000 C 
BRANCH   6   7
ATOM      7  C   UNL     1      -0.299  28.398  41.058  1.00  0.00     0.000 C 
BRANCH   7   8
ATOM      8  C   UNL     1      -1.635  29.155  40.998  1.00  0.00     0.000 C 
BRANCH   8   9
ATOM      9  C   UNL     1      -1.501  30.631  41.400  1.00  0.00     0.000 C 
BRANCH   9  10
ATOM     10  C   UNL     1      -2.381  30.948  42.618  1.00  0.00     0.006 C 
BRANCH  10  11
ATOM     11  C   UNL     1      -2.750  29.689  43.414  1.00  0.00     0.053 C 
BRANCH  11  12
ATOM     12  C   UNL     1      -1.818  29.464  44.568  1.00  0.00     0.041 C 
ATOM     13  O   UNL     1      -1.831  28.368  45.188  1.00  0.00    -0.550 OA
ATOM     14  O   UNL     1      -0.922  30.456  44.942  1.00  0.00    -0.550 OA
ENDBRANCH  11  12
ENDBRANCH  10  11
ENDBRANCH   9  10
ENDBRANCH   8   9
ENDBRANCH   7   8
ENDBRANCH   6   7
ENDBRANCH   5   6
ENDBRANCH   4   5
ENDBRANCH   3   4
ENDBRANCH   2   3
ENDBRANCH   1   2
BRANCH   1  15
ATOM     15  C   UNL     1       3.839  23.981  42.917  1.00  0.00     0.000 C 
BRANCH  15  16
ATOM     16  C   UNL     1       3.844  22.879  43.995  1.00  0.00     0.000 C 
BRANCH  16  17
ATOM     17  C   UNL     1       4.726  23.175  45.222  1.00  0.00     0.000 C 
BRANCH  17  18
ATOM     18  C   UNL     1       5.283  21.904  45.878  1.00  0.00    -0.000 C 
BRANCH  18  19
ATOM     19  C   UNL     1       6.778  22.060  46.199  1.00  0.00    -0.000 C 
BRANCH  19  20
ATOM     20  C   UNL     1       7.261  23.519  46.057  1.00  0.00    -0.000 C 
BRANCH  20  21
ATOM     21  C   UNL     1       8.517  23.676  45.178  1.00  0.00    -0.000 C 
BRANCH  21  22
ATOM     22  C   UNL     1       8.360  24.637  43.987  1.00  0.00    -0.000 C 
BRANCH  22  23
ATOM     23  C   UNL     1       7.541  24.032  42.837  1.00  0.00    -0.000 C 
BRANCH  23  24
ATOM     24  C   UNL     1       7.968  22.585  42.562  1.00  0.00    -0.000 C 
BRANCH  24  25
ATOM     25  C   UNL     1       6.785  21.747  42.062  1.00  0.00    -0.003 C 
ATOM     26  C   UNL     1       6.717  20.403  42.782  1.00  0.00     0.004 C 
ENDBRANCH  24  25
ENDBRANCH  23  24
ENDBRANCH  22  23
ENDBRANCH  21  22
ENDBRANCH  20  21
ENDBRANCH  19  20
ENDBRANCH  18  19
ENDBRANCH  17  18
ENDBRANCH  16  17
ENDBRANCH  15  16
ENDBRANCH   1  15
TORSDOF 22
ENDMDL
MODEL 9
REMARK VINA RESULT:    -6.425      3.353      9.975
REMARK INTER + INTRA:         -17.718
REMARK INTER:                 -14.586
REMARK INTRA:                  -3.132
REMARK UNBOUND:                -3.029
REMARK SMILES CCCCCCCCCCCCCCCCCCCCCCCC(=O)[O-]
REMARK SMILES IDX 13 1 14 2 15 3 16 4 17 5 18 6 19 7 20 8 21 9 22 10 23 11
REMARK SMILES IDX 24 12 25 13 26 14 12 15 11 16 10 17 9 18 8 19 7 20 6 21 5 22
REMARK SMILES IDX 4 23 3 24 2 25 1 26
REMARK H PARENT
REMARK Flexibility Score: inf
ROOT
ATOM      1  C   UNL     1       2.502  25.407  43.983  1.00  0.00     0.000 C 
ENDROOT
BRANCH   1   2
ATOM      2  C   UNL     1       3.515  24.248  43.988  1.00  0.00     0.000 C 
BRANCH   2   3
ATOM      3  C   UNL     1       4.968  24.723  44.148  1.00  0.00     0.000 C 
BRANCH   3   4
ATOM      4  C   UNL     1       5.861  24.147  43.039  1.00  0.00     0.000 C 
BRANCH   4   5
ATOM      5  C   UNL     1       5.403  22.759  42.564  1.00  0.00     0.000 C 
BRANCH   5   6
ATOM      6  C   UNL     1       6.487  21.682  42.730  1.00  0.00     0.000 C 
BRANCH   6   7
ATOM      7  C   UNL     1       6.027  20.586  43.704  1.00  0.00     0.000 C 
BRANCH   7   8
ATOM      8  C   UNL     1       4.629  20.854  44.280  1.00  0.00     0.000 C 
BRANCH   8   9
ATOM      9  C   UNL     1       4.654  21.172  45.782  1.00  0.00     0.000 C 
BRANCH   9  10
ATOM     10  C   UNL     1       6.090  21.137  46.325  1.00  0.00     0.006 C 
BRANCH  10  11
ATOM     11  C   UNL     1       6.630  22.539  46.639  1.00  0.00     0.053 C 
BRANCH  11  12
ATOM     12  C   UNL     1       7.982  22.768  46.031  1.00  0.00     0.041 C 
ATOM     13  O   UNL     1       8.802  21.817  45.936  1.00  0.00    -0.550 OA
ATOM     14  O   UNL     1       8.325  24.024  45.551  1.00  0.00    -0.550 OA
ENDBRANCH  11  12
ENDBRANCH  10  11
ENDBRANCH   9  10
ENDBRANCH   8   9
ENDBRANCH   7   8
ENDBRANCH   6   7
ENDBRANCH   5   6
ENDBRANCH   4   5
ENDBRANCH   3   4
ENDBRANCH   2   3
ENDBRANCH   1   2
BRANCH   1  15
ATOM     15  C   UNL     1       2.793  26.518  42.956  1.00  0.00     0.000 C 
BRANCH  15  16
ATOM     16  C   UNL     1       1.744  27.647  42.899  1.00  0.00     0.000 C 
BRANCH  16  17
ATOM     17  C   UNL     1       0.737  27.657  44.064  1.00  0.00     0.000 C 
BRANCH  17  18
ATOM     18  C   UNL     1      -0.719  27.779  43.594  1.00  0.00    -0.000 C 
BRANCH  18  19
ATOM     19  C   UNL     1      -1.643  28.170  44.757  1.00  0.00    -0.000 C 
BRANCH  19  20
ATOM     20  C   UNL     1      -1.264  29.532  45.377  1.00  0.00    -0.000 C 
BRANCH  20  21
ATOM     21  C   UNL     1      -1.069  30.655  44.340  1.00  0.00    -0.000 C 
BRANCH  21  22
ATOM     22  C   UNL     1      -2.305  30.965  43.478  1.00  0.00    -0.000 C 
BRANCH  22  23
ATOM     23  C   UNL     1      -2.025  30.852  41.972  1.00  0.00    -0.000 C 
BRANCH  23  24
ATOM     24  C   UNL     1      -0.527  31.005  41.680  1.00  0.00    -0.000 C 
BRANCH  24  25
ATOM     25  C   UNL     1      -0.089  30.069  40.548  1.00  0.00    -0.003 C 
ATOM     26  C   UNL     1      -1.168  29.035  40.237  1.00  0.00     0.004 C 
ENDBRANCH  24  25
ENDBRANCH  23  24
ENDBRANCH  22  23
ENDBRANCH  21  22
ENDBRANCH  20  21
ENDBRANCH  19  20
ENDBRANCH  18  19
ENDBRANCH  17  18
ENDBRANCH  16  17
ENDBRANCH  15  16
ENDBRANCH   1  15
TORSDOF 22
ENDMDL
