MODEL 1
REMARK VINA RESULT:    -2.939      0.000      0.000
REMARK INTER + INTRA:          -8.688
REMARK INTER:                  -7.749
REMARK INTRA:                  -0.940
REMARK UNBOUND:                -0.940
REMARK SMILES CCCCCCCCCCCCCCCCCCCCCCCCCCCCCC(=O)[O-]
REMARK SMILES IDX 16 1 17 2 18 3 19 4 20 5 21 6 22 7 23 8 24 9 25 10 26 11
REMARK SMILES IDX 27 12 28 13 29 14 30 15 31 16 32 17 15 18 14 19 13 20 12 21
REMARK SMILES IDX 11 22 10 23 9 24 8 25 7 26 6 27 5 28 4 29 3 30 2 31 1 32
REMARK H PARENT
REMARK Flexibility Score: inf
ROOT
ATOM      1  C   UNL     1     -42.986  27.667   1.595  1.00  0.00     0.000 C 
ENDROOT
BRANCH   1   2
ATOM      2  C   UNL     1     -44.449  27.649   2.072  1.00  0.00     0.000 C 
BRANCH   2   3
ATOM      3  C   UNL     1     -44.738  28.738   3.118  1.00  0.00     0.000 C 
BRANCH   3   4
ATOM      4  C   UNL     1     -46.165  28.642   3.687  1.00  0.00     0.000 C 
BRANCH   4   5
ATOM      5  C   UNL     1     -46.627  29.955   4.337  1.00  0.00     0.000 C 
BRANCH   5   6
ATOM      6  C   UNL     1     -46.567  29.904   5.873  1.00  0.00     0.000 C 
BRANCH   6   7
ATOM      7  C   UNL     1     -47.125  28.590   6.447  1.00  0.00     0.000 C 
BRANCH   7   8
ATOM      8  C   UNL     1     -46.686  28.279   7.889  1.00  0.00     0.000 C 
BRANCH   8   9
ATOM      9  C   UNL     1     -45.348  27.527   7.956  1.00  0.00     0.000 C 
BRANCH   9  10
ATOM     10  C   UNL     1     -44.887  27.102   6.554  1.00  0.00     0.000 C 
BRANCH  10  11
ATOM     11  C   UNL     1     -43.458  26.535   6.548  1.00  0.00     0.000 C 
BRANCH  11  12
ATOM     12  C   UNL     1     -42.388  27.634   6.429  1.00  0.00     0.000 C 
BRANCH  12  13
ATOM     13  C   UNL     1     -42.981  28.996   6.034  1.00  0.00     0.006 C 
BRANCH  13  14
ATOM     14  C   UNL     1     -42.739  30.075   7.098  1.00  0.00     0.053 C 
BRANCH  14  15
ATOM     15  C   UNL     1     -42.419  29.444   8.416  1.00  0.00     0.041 C 
ATOM     16  O   UNL     1     -41.267  29.561   8.911  1.00  0.00    -0.550 OA
ATOM     17  O   UNL     1     -43.406  28.772   9.124  1.00  0.00    -0.550 OA
ENDBRANCH  14  15
ENDBRANCH  13  14
ENDBRANCH  12  13
ENDBRANCH  11  12
ENDBRANCH  10  11
ENDBRANCH   9  10
ENDBRANCH   8   9
ENDBRANCH   7   8
ENDBRANCH   6   7
ENDBRANCH   5   6
ENDBRANCH   4   5
ENDBRANCH   3   4
ENDBRANCH   2   3
ENDBRANCH   1   2
BRANCH   1  18
ATOM     18  C   UNL     1     -42.871  27.728   0.057  1.00  0.00     0.000 C 
BRANCH  18  19
ATOM     19  C   UNL     1     -44.227  27.689  -0.673  1.00  0.00     0.000 C 
BRANCH  19  20
ATOM     20  C   UNL     1     -44.573  28.954  -1.475  1.00  0.00     0.000 C 
BRANCH  20  21
ATOM     21  C   UNL     1     -45.985  28.902  -2.086  1.00  0.00     0.000 C 
BRANCH  21  22
ATOM     22  C   UNL     1     -46.262  30.078  -3.035  1.00  0.00     0.000 C 
BRANCH  22  23
ATOM     23  C   UNL     1     -46.397  29.637  -4.504  1.00  0.00     0.000 C 
BRANCH  23  24
ATOM     24  C   UNL     1     -45.192  30.055  -5.363  1.00  0.00    -0.000 C 
BRANCH  24  25
ATOM     25  C   UNL     1     -45.295  29.549  -6.812  1.00  0.00    -0.000 C 
BRANCH  25  26
ATOM     26  C   UNL     1     -46.492  28.608  -7.025  1.00  0.00    -0.000 C 
BRANCH  26  27
ATOM     27  C   UNL     1     -46.075  27.222  -7.540  1.00  0.00    -0.000 C 
BRANCH  27  28
ATOM     28  C   UNL     1     -46.817  26.110  -6.785  1.00  0.00    -0.000 C 
BRANCH  28  29
ATOM     29  C   UNL     1     -47.119  26.478  -5.320  1.00  0.00    -0.000 C 
BRANCH  29  30
ATOM     30  C   UNL     1     -46.416  25.598  -4.267  1.00  0.00    -0.000 C 
BRANCH  30  31
ATOM     31  C   UNL     1     -46.231  26.257  -2.889  1.00  0.00    -0.003 C 
ATOM     32  C   UNL     1     -46.991  25.533  -1.778  1.00  0.00     0.004 C 
ENDBRANCH  30  31
ENDBRANCH  29  30
ENDBRANCH  28  29
ENDBRANCH  27  28
ENDBRANCH  26  27
ENDBRANCH  25  26
ENDBRANCH  24  25
ENDBRANCH  23  24
ENDBRANCH  22  23
ENDBRANCH  21  22
ENDBRANCH  20  21
ENDBRANCH  19  20
ENDBRANCH  18  19
ENDBRANCH   1  18
TORSDOF 28
ENDMDL
MODEL 2
REMARK VINA RESULT:    -2.810      1.344      2.374
REMARK INTER + INTRA:          -8.350
REMARK INTER:                  -6.757
REMARK INTRA:                  -1.593
REMARK UNBOUND:                -0.940
REMARK SMILES CCCCCCCCCCCCCCCCCCCCCCCCCCCCCC(=O)[O-]
REMARK SMILES IDX 16 1 17 2 18 3 19 4 20 5 21 6 22 7 23 8 24 9 25 10 26 11
REMARK SMILES IDX 27 12 28 13 29 14 30 15 31 16 32 17 15 18 14 19 13 20 12 21
REMARK SMILES IDX 11 22 10 23 9 24 8 25 7 26 6 27 5 28 4 29 3 30 2 31 1 32
REMARK H PARENT
REMARK Flexibility Score: inf
ROOT
ATOM      1  C   UNL     1     -42.743  28.106   0.718  1.00  0.00     0.000 C 
ENDROOT
BRANCH   1   2
ATOM      2  C   UNL     1     -42.502  29.402   1.511  1.00  0.00     0.000 C 
BRANCH   2   3
ATOM      3  C   UNL     1     -43.166  29.374   2.897  1.00  0.00     0.000 C 
BRANCH   3   4
ATOM      4  C   UNL     1     -44.361  28.406   2.957  1.00  0.00     0.000 C 
BRANCH   4   5
ATOM      5  C   UNL     1     -45.595  28.952   2.221  1.00  0.00     0.000 C 
BRANCH   5   6
ATOM      6  C   UNL     1     -46.784  29.195   3.166  1.00  0.00     0.000 C 
BRANCH   6   7
ATOM      7  C   UNL     1     -46.407  30.047   4.391  1.00  0.00     0.000 C 
BRANCH   7   8
ATOM      8  C   UNL     1     -46.371  29.278   5.724  1.00  0.00     0.000 C 
BRANCH   8   9
ATOM      9  C   UNL     1     -46.852  30.124   6.913  1.00  0.00     0.000 C 
BRANCH   9  10
ATOM     10  C   UNL     1     -46.466  29.467   8.246  1.00  0.00     0.000 C 
BRANCH  10  11
ATOM     11  C   UNL     1     -46.659  27.942   8.230  1.00  0.00     0.000 C 
BRANCH  11  12
ATOM     12  C   UNL     1     -45.630  27.208   9.109  1.00  0.00     0.000 C 
BRANCH  12  13
ATOM     13  C   UNL     1     -44.311  26.931   8.371  1.00  0.00     0.006 C 
BRANCH  13  14
ATOM     14  C   UNL     1     -43.569  28.218   7.988  1.00  0.00     0.053 C 
BRANCH  14  15
ATOM     15  C   UNL     1     -43.117  28.156   6.563  1.00  0.00     0.041 C 
ATOM     16  O   UNL     1     -42.512  29.132   6.047  1.00  0.00    -0.550 OA
ATOM     17  O   UNL     1     -43.317  27.000   5.820  1.00  0.00    -0.550 OA
ENDBRANCH  14  15
ENDBRANCH  13  14
ENDBRANCH  12  13
ENDBRANCH  11  12
ENDBRANCH  10  11
ENDBRANCH   9  10
ENDBRANCH   8   9
ENDBRANCH   7   8
ENDBRANCH   6   7
ENDBRANCH   5   6
ENDBRANCH   4   5
ENDBRANCH   3   4
ENDBRANCH   2   3
ENDBRANCH   1   2
BRANCH   1  18
ATOM     18  C   UNL     1     -43.071  28.377  -0.766  1.00  0.00     0.000 C 
BRANCH  18  19
ATOM     19  C   UNL     1     -43.888  29.663  -1.000  1.00  0.00     0.000 C 
BRANCH  19  20
ATOM     20  C   UNL     1     -45.408  29.513  -0.817  1.00  0.00     0.000 C 
BRANCH  20  21
ATOM     21  C   UNL     1     -46.209  30.124  -1.980  1.00  0.00     0.000 C 
BRANCH  21  22
ATOM     22  C   UNL     1     -45.725  29.633  -3.353  1.00  0.00     0.000 C 
BRANCH  22  23
ATOM     23  C   UNL     1     -46.696  29.998  -4.491  1.00  0.00     0.000 C 
BRANCH  23  24
ATOM     24  C   UNL     1     -47.044  28.795  -5.383  1.00  0.00    -0.000 C 
BRANCH  24  25
ATOM     25  C   UNL     1     -46.111  28.672  -6.600  1.00  0.00    -0.000 C 
BRANCH  25  26
ATOM     26  C   UNL     1     -45.576  27.243  -6.792  1.00  0.00    -0.000 C 
BRANCH  26  27
ATOM     27  C   UNL     1     -46.582  26.169  -6.352  1.00  0.00    -0.000 C 
BRANCH  27  28
ATOM     28  C   UNL     1     -46.896  26.292  -4.853  1.00  0.00    -0.000 C 
BRANCH  28  29
ATOM     29  C   UNL     1     -45.737  25.819  -3.956  1.00  0.00    -0.000 C 
BRANCH  29  30
ATOM     30  C   UNL     1     -45.786  26.330  -2.502  1.00  0.00    -0.000 C 
BRANCH  30  31
ATOM     31  C   UNL     1     -47.125  26.104  -1.779  1.00  0.00    -0.003 C 
ATOM     32  C   UNL     1     -47.081  26.510  -0.306  1.00  0.00     0.004 C 
ENDBRANCH  30  31
ENDBRANCH  29  30
ENDBRANCH  28  29
ENDBRANCH  27  28
ENDBRANCH  26  27
ENDBRANCH  25  26
ENDBRANCH  24  25
ENDBRANCH  23  24
ENDBRANCH  22  23
ENDBRANCH  21  22
ENDBRANCH  20  21
ENDBRANCH  19  20
ENDBRANCH  18  19
ENDBRANCH   1  18
TORSDOF 28
ENDMDL
MODEL 3
REMARK VINA RESULT:    -2.336      4.326     11.076
REMARK INTER + INTRA:          -7.100
REMARK INTER:                  -5.503
REMARK INTRA:                  -1.597
REMARK UNBOUND:                -0.940
REMARK SMILES CCCCCCCCCCCCCCCCCCCCCCCCCCCCCC(=O)[O-]
REMARK SMILES IDX 16 1 17 2 18 3 19 4 20 5 21 6 22 7 23 8 24 9 25 10 26 11
REMARK SMILES IDX 27 12 28 13 29 14 30 15 31 16 32 17 15 18 14 19 13 20 12 21
REMARK SMILES IDX 11 22 10 23 9 24 8 25 7 26 6 27 5 28 4 29 3 30 2 31 1 32
REMARK H PARENT
REMARK Flexibility Score: inf
ROOT
ATOM      1  C   UNL     1     -43.200  26.868   1.738  1.00  0.00     0.000 C 
ENDROOT
BRANCH   1   2
ATOM      2  C   UNL     1     -43.349  27.495   0.341  1.00  0.00     0.000 C 
BRANCH   2   3
ATOM      3  C   UNL     1     -42.029  28.085  -0.182  1.00  0.00     0.000 C 
BRANCH   3   4
ATOM      4  C   UNL     1     -42.228  29.440  -0.882  1.00  0.00     0.000 C 
BRANCH   4   5
ATOM      5  C   UNL     1     -43.703  29.868  -0.926  1.00  0.00     0.000 C 
BRANCH   5   6
ATOM      6  C   UNL     1     -44.646  28.694  -1.240  1.00  0.00     0.000 C 
BRANCH   6   7
ATOM      7  C   UNL     1     -46.092  28.952  -0.779  1.00  0.00     0.000 C 
BRANCH   7   8
ATOM      8  C   UNL     1     -47.067  29.339  -1.905  1.00  0.00     0.000 C 
BRANCH   8   9
ATOM      9  C   UNL     1     -46.358  29.954  -3.121  1.00  0.00     0.000 C 
BRANCH   9  10
ATOM     10  C   UNL     1     -46.702  29.184  -4.405  1.00  0.00     0.000 C 
BRANCH  10  11
ATOM     11  C   UNL     1     -47.093  30.114  -5.565  1.00  0.00     0.000 C 
BRANCH  11  12
ATOM     12  C   UNL     1     -46.042  30.125  -6.690  1.00  0.00     0.000 C 
BRANCH  12  13
ATOM     13  C   UNL     1     -45.375  28.755  -6.891  1.00  0.00     0.006 C 
BRANCH  13  14
ATOM     14  C   UNL     1     -46.192  27.829  -7.801  1.00  0.00     0.053 C 
BRANCH  14  15
ATOM     15  C   UNL     1     -46.016  26.403  -7.387  1.00  0.00     0.041 C 
ATOM     16  O   UNL     1     -45.038  26.068  -6.667  1.00  0.00    -0.550 OA
ATOM     17  O   UNL     1     -46.959  25.451  -7.751  1.00  0.00    -0.550 OA
ENDBRANCH  14  15
ENDBRANCH  13  14
ENDBRANCH  12  13
ENDBRANCH  11  12
ENDBRANCH  10  11
ENDBRANCH   9  10
ENDBRANCH   8   9
ENDBRANCH   7   8
ENDBRANCH   6   7
ENDBRANCH   5   6
ENDBRANCH   4   5
ENDBRANCH   3   4
ENDBRANCH   2   3
ENDBRANCH   1   2
BRANCH   1  18
ATOM     18  C   UNL     1     -43.510  27.871   2.869  1.00  0.00     0.000 C 
BRANCH  18  19
ATOM     19  C   UNL     1     -44.779  28.711   2.628  1.00  0.00     0.000 C 
BRANCH  19  20
ATOM     20  C   UNL     1     -46.053  28.181   3.308  1.00  0.00     0.000 C 
BRANCH  20  21
ATOM     21  C   UNL     1     -46.896  29.299   3.945  1.00  0.00     0.000 C 
BRANCH  21  22
ATOM     22  C   UNL     1     -46.520  29.561   5.411  1.00  0.00     0.000 C 
BRANCH  22  23
ATOM     23  C   UNL     1     -45.084  30.091   5.571  1.00  0.00     0.000 C 
BRANCH  23  24
ATOM     24  C   UNL     1     -44.623  30.125   7.037  1.00  0.00    -0.000 C 
BRANCH  24  25
ATOM     25  C   UNL     1     -43.172  29.643   7.211  1.00  0.00    -0.000 C 
BRANCH  25  26
ATOM     26  C   UNL     1     -42.783  28.562   6.189  1.00  0.00    -0.000 C 
BRANCH  26  27
ATOM     27  C   UNL     1     -42.715  27.157   6.806  1.00  0.00    -0.000 C 
BRANCH  27  28
ATOM     28  C   UNL     1     -43.763  26.229   6.174  1.00  0.00    -0.000 C 
BRANCH  28  29
ATOM     29  C   UNL     1     -45.206  26.724   6.385  1.00  0.00    -0.000 C 
BRANCH  29  30
ATOM     30  C   UNL     1     -45.878  26.242   7.687  1.00  0.00    -0.000 C 
BRANCH  30  31
ATOM     31  C   UNL     1     -45.852  27.254   8.845  1.00  0.00    -0.003 C 
ATOM     32  C   UNL     1     -47.048  28.206   8.829  1.00  0.00     0.004 C 
ENDBRANCH  30  31
ENDBRANCH  29  30
ENDBRANCH  28  29
ENDBRANCH  27  28
ENDBRANCH  26  27
ENDBRANCH  25  26
ENDBRANCH  24  25
ENDBRANCH  23  24
ENDBRANCH  22  23
ENDBRANCH  21  22
ENDBRANCH  20  21
ENDBRANCH  19  20
ENDBRANCH  18  19
ENDBRANCH   1  18
TORSDOF 28
ENDMDL
MODEL 4
REMARK VINA RESULT:    -2.001      1.822      3.603
REMARK INTER + INTRA:          -6.215
REMARK INTER:                  -4.749
REMARK INTRA:                  -1.466
REMARK UNBOUND:                -0.940
REMARK SMILES CCCCCCCCCCCCCCCCCCCCCCCCCCCCCC(=O)[O-]
REMARK SMILES IDX 16 1 17 2 18 3 19 4 20 5 21 6 22 7 23 8 24 9 25 10 26 11
REMARK SMILES IDX 27 12 28 13 29 14 30 15 31 16 32 17 15 18 14 19 13 20 12 21
REMARK SMILES IDX 11 22 10 23 9 24 8 25 7 26 6 27 5 28 4 29 3 30 2 31 1 32
REMARK H PARENT
REMARK Flexibility Score: inf
ROOT
ATOM      1  C   UNL     1     -42.696  29.146   0.266  1.00  0.00     0.000 C 
ENDROOT
BRANCH   1   2
ATOM      2  C   UNL     1     -41.807  30.122   1.058  1.00  0.00     0.000 C 
BRANCH   2   3
ATOM      3  C   UNL     1     -42.094  30.084   2.568  1.00  0.00     0.000 C 
BRANCH   3   4
ATOM      4  C   UNL     1     -43.594  29.946   2.878  1.00  0.00     0.000 C 
BRANCH   4   5
ATOM      5  C   UNL     1     -43.854  29.326   4.260  1.00  0.00     0.000 C 
BRANCH   5   6
ATOM      6  C   UNL     1     -45.201  29.765   4.858  1.00  0.00     0.000 C 
BRANCH   6   7
ATOM      7  C   UNL     1     -46.277  28.667   4.772  1.00  0.00     0.000 C 
BRANCH   7   8
ATOM      8  C   UNL     1     -45.828  27.286   5.280  1.00  0.00     0.000 C 
BRANCH   8   9
ATOM      9  C   UNL     1     -45.722  27.220   6.811  1.00  0.00     0.000 C 
BRANCH   9  10
ATOM     10  C   UNL     1     -46.922  27.911   7.475  1.00  0.00     0.000 C 
BRANCH  10  11
ATOM     11  C   UNL     1     -46.511  28.807   8.654  1.00  0.00     0.000 C 
BRANCH  11  12
ATOM     12  C   UNL     1     -45.460  29.860   8.257  1.00  0.00     0.000 C 
BRANCH  12  13
ATOM     13  C   UNL     1     -44.161  29.735   9.069  1.00  0.00     0.006 C 
BRANCH  13  14
ATOM     14  C   UNL     1     -43.352  28.485   8.696  1.00  0.00     0.053 C 
BRANCH  14  15
ATOM     15  C   UNL     1     -42.350  28.811   7.634  1.00  0.00     0.041 C 
ATOM     16  O   UNL     1     -41.779  29.934   7.625  1.00  0.00    -0.550 OA
ATOM     17  O   UNL     1     -42.006  27.857   6.686  1.00  0.00    -0.550 OA
ENDBRANCH  14  15
ENDBRANCH  13  14
ENDBRANCH  12  13
ENDBRANCH  11  12
ENDBRANCH  10  11
ENDBRANCH   9  10
ENDBRANCH   8   9
ENDBRANCH   7   8
ENDBRANCH   6   7
ENDBRANCH   5   6
ENDBRANCH   4   5
ENDBRANCH   3   4
ENDBRANCH   2   3
ENDBRANCH   1   2
BRANCH   1  18
ATOM     18  C   UNL     1     -43.902  29.851  -0.390  1.00  0.00     0.000 C 
BRANCH  18  19
ATOM     19  C   UNL     1     -45.122  29.997   0.541  1.00  0.00     0.000 C 
BRANCH  19  20
ATOM     20  C   UNL     1     -46.287  29.037   0.245  1.00  0.00     0.000 C 
BRANCH  20  21
ATOM     21  C   UNL     1     -45.848  27.563   0.212  1.00  0.00     0.000 C 
BRANCH  21  22
ATOM     22  C   UNL     1     -47.011  26.606  -0.094  1.00  0.00     0.000 C 
BRANCH  22  23
ATOM     23  C   UNL     1     -46.807  25.824  -1.404  1.00  0.00     0.000 C 
BRANCH  23  24
ATOM     24  C   UNL     1     -47.125  26.663  -2.653  1.00  0.00    -0.000 C 
BRANCH  24  25
ATOM     25  C   UNL     1     -45.910  27.464  -3.151  1.00  0.00    -0.000 C 
BRANCH  25  26
ATOM     26  C   UNL     1     -45.344  26.918  -4.472  1.00  0.00    -0.000 C 
BRANCH  26  27
ATOM     27  C   UNL     1     -46.348  27.007  -5.631  1.00  0.00    -0.000 C 
BRANCH  27  28
ATOM     28  C   UNL     1     -45.627  26.954  -6.986  1.00  0.00    -0.000 C 
BRANCH  28  29
ATOM     29  C   UNL     1     -46.359  27.745  -8.086  1.00  0.00    -0.000 C 
BRANCH  29  30
ATOM     30  C   UNL     1     -46.683  26.943  -9.362  1.00  0.00    -0.000 C 
BRANCH  30  31
ATOM     31  C   UNL     1     -46.808  25.423  -9.160  1.00  0.00    -0.003 C 
ATOM     32  C   UNL     1     -46.938  24.656 -10.476  1.00  0.00     0.004 C 
ENDBRANCH  30  31
ENDBRANCH  29  30
ENDBRANCH  28  29
ENDBRANCH  27  28
ENDBRANCH  26  27
ENDBRANCH  25  26
ENDBRANCH  24  25
ENDBRANCH  23  24
ENDBRANCH  22  23
ENDBRANCH  21  22
ENDBRANCH  20  21
ENDBRANCH  19  20
ENDBRANCH  18  19
ENDBRANCH   1  18
TORSDOF 28
ENDMDL
MODEL 5
REMARK VINA RESULT:    -1.895      1.575      3.484
REMARK INTER + INTRA:          -5.936
REMARK INTER:                  -5.279
REMARK INTRA:                  -0.657
REMARK UNBOUND:                -0.940
REMARK SMILES CCCCCCCCCCCCCCCCCCCCCCCCCCCCCC(=O)[O-]
REMARK SMILES IDX 16 1 17 2 18 3 19 4 20 5 21 6 22 7 23 8 24 9 25 10 26 11
REMARK SMILES IDX 27 12 28 13 29 14 30 15 31 16 32 17 15 18 14 19 13 20 12 21
REMARK SMILES IDX 11 22 10 23 9 24 8 25 7 26 6 27 5 28 4 29 3 30 2 31 1 32
REMARK H PARENT
REMARK Flexibility Score: inf
ROOT
ATOM      1  C   UNL     1     -42.304  27.721   2.444  1.00  0.00     0.000 C 
ENDROOT
BRANCH   1   2
ATOM      2  C   UNL     1     -43.100  26.406   2.372  1.00  0.00     0.000 C 
BRANCH   2   3
ATOM      3  C   UNL     1     -43.487  25.878   3.762  1.00  0.00     0.000 C 
BRANCH   3   4
ATOM      4  C   UNL     1     -44.994  26.013   4.043  1.00  0.00     0.000 C 
BRANCH   4   5
ATOM      5  C   UNL     1     -45.492  27.459   3.888  1.00  0.00     0.000 C 
BRANCH   5   6
ATOM      6  C   UNL     1     -45.119  28.341   5.092  1.00  0.00     0.000 C 
BRANCH   6   7
ATOM      7  C   UNL     1     -45.720  29.755   5.002  1.00  0.00     0.000 C 
BRANCH   7   8
ATOM      8  C   UNL     1     -47.035  29.947   5.779  1.00  0.00     0.000 C 
BRANCH   8   9
ATOM      9  C   UNL     1     -47.066  29.160   7.099  1.00  0.00     0.000 C 
BRANCH   9  10
ATOM     10  C   UNL     1     -47.125  30.112   8.303  1.00  0.00     0.000 C 
BRANCH  10  11
ATOM     11  C   UNL     1     -45.817  30.124   9.110  1.00  0.00     0.000 C 
BRANCH  11  12
ATOM     12  C   UNL     1     -44.614  29.622   8.292  1.00  0.00     0.000 C 
BRANCH  12  13
ATOM     13  C   UNL     1     -43.267  29.966   8.947  1.00  0.00     0.006 C 
BRANCH  13  14
ATOM     14  C   UNL     1     -42.163  28.964   8.585  1.00  0.00     0.053 C 
BRANCH  14  15
ATOM     15  C   UNL     1     -42.559  28.161   7.387  1.00  0.00     0.041 C 
ATOM     16  O   UNL     1     -42.092  28.443   6.252  1.00  0.00    -0.550 OA
ATOM     17  O   UNL     1     -43.403  27.068   7.531  1.00  0.00    -0.550 OA
ENDBRANCH  14  15
ENDBRANCH  13  14
ENDBRANCH  12  13
ENDBRANCH  11  12
ENDBRANCH  10  11
ENDBRANCH   9  10
ENDBRANCH   8   9
ENDBRANCH   7   8
ENDBRANCH   6   7
ENDBRANCH   5   6
ENDBRANCH   4   5
ENDBRANCH   3   4
ENDBRANCH   2   3
ENDBRANCH   1   2
BRANCH   1  18
ATOM     18  C   UNL     1     -43.116  28.929   1.930  1.00  0.00     0.000 C 
BRANCH  18  19
ATOM     19  C   UNL     1     -42.777  29.341   0.485  1.00  0.00     0.000 C 
BRANCH  19  20
ATOM     20  C   UNL     1     -43.978  29.792  -0.364  1.00  0.00     0.000 C 
BRANCH  20  21
ATOM     21  C   UNL     1     -45.217  28.904  -0.159  1.00  0.00     0.000 C 
BRANCH  21  22
ATOM     22  C   UNL     1     -44.864  27.414  -0.038  1.00  0.00     0.000 C 
BRANCH  22  23
ATOM     23  C   UNL     1     -44.760  26.715  -1.406  1.00  0.00     0.000 C 
BRANCH  23  24
ATOM     24  C   UNL     1     -45.954  25.790  -1.693  1.00  0.00    -0.000 C 
BRANCH  24  25
ATOM     25  C   UNL     1     -46.981  26.428  -2.645  1.00  0.00    -0.000 C 
BRANCH  25  26
ATOM     26  C   UNL     1     -46.451  27.709  -3.311  1.00  0.00    -0.000 C 
BRANCH  26  27
ATOM     27  C   UNL     1     -46.654  27.715  -4.834  1.00  0.00    -0.000 C 
BRANCH  27  28
ATOM     28  C   UNL     1     -46.245  26.367  -5.447  1.00  0.00    -0.000 C 
BRANCH  28  29
ATOM     29  C   UNL     1     -46.502  26.296  -6.964  1.00  0.00    -0.000 C 
BRANCH  29  30
ATOM     30  C   UNL     1     -45.674  27.281  -7.813  1.00  0.00    -0.000 C 
BRANCH  30  31
ATOM     31  C   UNL     1     -45.537  28.694  -7.219  1.00  0.00    -0.003 C 
ATOM     32  C   UNL     1     -45.935  29.794  -8.203  1.00  0.00     0.004 C 
ENDBRANCH  30  31
ENDBRANCH  29  30
ENDBRANCH  28  29
ENDBRANCH  27  28
ENDBRANCH  26  27
ENDBRANCH  25  26
ENDBRANCH  24  25
ENDBRANCH  23  24
ENDBRANCH  22  23
ENDBRANCH  21  22
ENDBRANCH  20  21
ENDBRANCH  19  20
ENDBRANCH  18  19
ENDBRANCH   1  18
TORSDOF 28
ENDMDL
MODEL 6
REMARK VINA RESULT:    -1.706      5.113     11.614
REMARK INTER + INTRA:          -5.439
REMARK INTER:                  -6.510
REMARK INTRA:                   1.071
REMARK UNBOUND:                -0.940
REMARK SMILES CCCCCCCCCCCCCCCCCCCCCCCCCCCCCC(=O)[O-]
REMARK SMILES IDX 16 1 17 2 18 3 19 4 20 5 21 6 22 7 23 8 24 9 25 10 26 11
REMARK SMILES IDX 27 12 28 13 29 14 30 15 31 16 32 17 15 18 14 19 13 20 12 21
REMARK SMILES IDX 11 22 10 23 9 24 8 25 7 26 6 27 5 28 4 29 3 30 2 31 1 32
REMARK H PARENT
REMARK Flexibility Score: inf
ROOT
ATOM      1  C   UNL     1     -42.135  27.631   0.790  1.00  0.00     0.000 C 
ENDROOT
BRANCH   1   2
ATOM      2  C   UNL     1     -41.521  28.933   0.245  1.00  0.00     0.000 C 
BRANCH   2   3
ATOM      3  C   UNL     1     -42.572  29.854  -0.394  1.00  0.00     0.000 C 
BRANCH   3   4
ATOM      4  C   UNL     1     -43.898  29.863   0.386  1.00  0.00     0.000 C 
BRANCH   4   5
ATOM      5  C   UNL     1     -45.113  30.103  -0.525  1.00  0.00     0.000 C 
BRANCH   5   6
ATOM      6  C   UNL     1     -46.033  28.873  -0.614  1.00  0.00     0.000 C 
BRANCH   6   7
ATOM      7  C   UNL     1     -47.123  29.023  -1.690  1.00  0.00     0.000 C 
BRANCH   7   8
ATOM      8  C   UNL     1     -46.868  28.222  -2.980  1.00  0.00     0.000 C 
BRANCH   8   9
ATOM      9  C   UNL     1     -46.921  26.703  -2.759  1.00  0.00     0.000 C 
BRANCH   9  10
ATOM     10  C   UNL     1     -46.542  25.948  -4.042  1.00  0.00     0.000 C 
BRANCH  10  11
ATOM     11  C   UNL     1     -46.218  26.894  -5.210  1.00  0.00     0.000 C 
BRANCH  11  12
ATOM     12  C   UNL     1     -45.714  26.142  -6.454  1.00  0.00     0.000 C 
BRANCH  12  13
ATOM     13  C   UNL     1     -45.769  27.001  -7.727  1.00  0.00     0.006 C 
BRANCH  13  14
ATOM     14  C   UNL     1     -47.090  26.839  -8.491  1.00  0.00     0.053 C 
BRANCH  14  15
ATOM     15  C   UNL     1     -46.986  25.725  -9.484  1.00  0.00     0.041 C 
ATOM     16  O   UNL     1     -46.820  24.540  -9.091  1.00  0.00    -0.550 OA
ATOM     17  O   UNL     1     -47.124  25.986 -10.840  1.00  0.00    -0.550 OA
ENDBRANCH  14  15
ENDBRANCH  13  14
ENDBRANCH  12  13
ENDBRANCH  11  12
ENDBRANCH  10  11
ENDBRANCH   9  10
ENDBRANCH   8   9
ENDBRANCH   7   8
ENDBRANCH   6   7
ENDBRANCH   5   6
ENDBRANCH   4   5
ENDBRANCH   3   4
ENDBRANCH   2   3
ENDBRANCH   1   2
BRANCH   1  18
ATOM     18  C   UNL     1     -42.954  27.861   2.078  1.00  0.00     0.000 C 
BRANCH  18  19
ATOM     19  C   UNL     1     -44.398  27.330   2.003  1.00  0.00     0.000 C 
BRANCH  19  20
ATOM     20  C   UNL     1     -45.401  28.030   2.935  1.00  0.00     0.000 C 
BRANCH  20  21
ATOM     21  C   UNL     1     -44.995  29.478   3.263  1.00  0.00     0.000 C 
BRANCH  21  22
ATOM     22  C   UNL     1     -44.937  29.749   4.774  1.00  0.00     0.000 C 
BRANCH  22  23
ATOM     23  C   UNL     1     -43.539  29.502   5.368  1.00  0.00     0.000 C 
BRANCH  23  24
ATOM     24  C   UNL     1     -43.413  29.998   6.818  1.00  0.00    -0.000 C 
BRANCH  24  25
ATOM     25  C   UNL     1     -42.296  29.279   7.594  1.00  0.00    -0.000 C 
BRANCH  25  26
ATOM     26  C   UNL     1     -42.682  27.843   7.988  1.00  0.00    -0.000 C 
BRANCH  26  27
ATOM     27  C   UNL     1     -44.144  27.509   7.657  1.00  0.00    -0.000 C 
BRANCH  27  28
ATOM     28  C   UNL     1     -44.911  27.095   8.922  1.00  0.00    -0.000 C 
BRANCH  28  29
ATOM     29  C   UNL     1     -46.370  27.589   8.928  1.00  0.00    -0.000 C 
BRANCH  29  30
ATOM     30  C   UNL     1     -46.837  28.260   7.621  1.00  0.00    -0.000 C 
BRANCH  30  31
ATOM     31  C   UNL     1     -46.241  27.664   6.335  1.00  0.00    -0.003 C 
ATOM     32  C   UNL     1     -47.125  26.581   5.715  1.00  0.00     0.004 C 
ENDBRANCH  30  31
ENDBRANCH  29  30
ENDBRANCH  28  29
ENDBRANCH  27  28
ENDBRANCH  26  27
ENDBRANCH  25  26
ENDBRANCH  24  25
ENDBRANCH  23  24
ENDBRANCH  22  23
ENDBRANCH  21  22
ENDBRANCH  20  21
ENDBRANCH  19  20
ENDBRANCH  18  19
ENDBRANCH   1  18
TORSDOF 28
ENDMDL
