MODEL 1
REMARK VINA RESULT:    -3.713      0.000      0.000
REMARK INTER + INTRA:          -7.951
REMARK INTER:                  -6.317
REMARK INTRA:                  -1.633
REMARK UNBOUND:                -1.633
REMARK SMILES CCCCCCCCCCCCCC(=O)[O-]
REMARK SMILES IDX 8 1 9 2 10 3 11 4 12 5 13 6 14 7 15 8 16 9 7 10 6 11 5 12
REMARK SMILES IDX 4 13 3 14 2 15 1 16
REMARK H PARENT
REMARK Flexibility Score: inf
ROOT
ATOM      1  C   UNL     1      -8.437  -6.015  -5.316  1.00  0.00     0.000 C 
ENDROOT
BRANCH   1   2
ATOM      2  C   UNL     1      -9.773  -6.715  -5.603  1.00  0.00     0.000 C 
BRANCH   2   3
ATOM      3  C   UNL     1     -10.967  -5.998  -4.947  1.00  0.00     0.000 C 
BRANCH   3   4
ATOM      4  C   UNL     1     -10.987  -4.491  -5.246  1.00  0.00     0.000 C 
BRANCH   4   5
ATOM      5  C   UNL     1     -11.111  -3.639  -3.970  1.00  0.00     0.006 C 
BRANCH   5   6
ATOM      6  C   UNL     1     -10.658  -4.401  -2.718  1.00  0.00     0.053 C 
BRANCH   6   7
ATOM      7  C   UNL     1      -9.275  -4.006  -2.296  1.00  0.00     0.041 C 
ATOM      8  O   UNL     1      -8.634  -4.719  -1.483  1.00  0.00    -0.550 OA
ATOM      9  O   UNL     1      -8.684  -2.868  -2.830  1.00  0.00    -0.550 OA
ENDBRANCH   6   7
ENDBRANCH   5   6
ENDBRANCH   4   5
ENDBRANCH   3   4
ENDBRANCH   2   3
ENDBRANCH   1   2
BRANCH   1  10
ATOM     10  C   UNL     1      -7.297  -6.524  -6.217  1.00  0.00     0.000 C 
BRANCH  10  11
ATOM     11  C   UNL     1      -6.746  -5.414  -7.137  1.00  0.00    -0.000 C 
BRANCH  11  12
ATOM     12  C   UNL     1      -7.120  -5.599  -8.618  1.00  0.00    -0.000 C 
BRANCH  12  13
ATOM     13  C   UNL     1      -8.418  -4.868  -9.003  1.00  0.00    -0.000 C 
BRANCH  13  14
ATOM     14  C   UNL     1      -9.618  -5.821  -9.120  1.00  0.00    -0.000 C 
BRANCH  14  15
ATOM     15  C   UNL     1     -10.965  -5.096  -8.980  1.00  0.00    -0.003 C 
ATOM     16  C   UNL     1     -10.761  -3.611  -8.695  1.00  0.00     0.004 C 
ENDBRANCH  14  15
ENDBRANCH  13  14
ENDBRANCH  12  13
ENDBRANCH  11  12
ENDBRANCH  10  11
ENDBRANCH   1  10
TORSDOF 12
ENDMDL
MODEL 2
REMARK VINA RESULT:    -3.508      1.021      2.993
REMARK INTER + INTRA:          -7.603
REMARK INTER:                  -6.249
REMARK INTRA:                  -1.354
REMARK UNBOUND:                -1.633
REMARK SMILES CCCCCCCCCCCCCC(=O)[O-]
REMARK SMILES IDX 8 1 9 2 10 3 11 4 12 5 13 6 14 7 15 8 16 9 7 10 6 11 5 12
REMARK SMILES IDX 4 13 3 14 2 15 1 16
REMARK H PARENT
REMARK Flexibility Score: inf
ROOT
ATOM      1  C   UNL     1     -10.890  -6.800  -6.701  1.00  0.00     0.000 C 
ENDROOT
BRANCH   1   2
ATOM      2  C   UNL     1     -11.005  -5.953  -5.425  1.00  0.00     0.000 C 
BRANCH   2   3
ATOM      3  C   UNL     1     -10.782  -4.453  -5.690  1.00  0.00     0.000 C 
BRANCH   3   4
ATOM      4  C   UNL     1     -10.861  -3.609  -4.408  1.00  0.00     0.000 C 
BRANCH   4   5
ATOM      5  C   UNL     1     -11.105  -4.465  -3.153  1.00  0.00     0.006 C 
BRANCH   5   6
ATOM      6  C   UNL     1     -10.620  -3.769  -1.874  1.00  0.00     0.053 C 
BRANCH   6   7
ATOM      7  C   UNL     1      -9.125  -3.688  -1.818  1.00  0.00     0.041 C 
ATOM      8  O   UNL     1      -8.546  -2.578  -1.946  1.00  0.00    -0.550 OA
ATOM      9  O   UNL     1      -8.375  -4.835  -1.590  1.00  0.00    -0.550 OA
ENDBRANCH   6   7
ENDBRANCH   5   6
ENDBRANCH   4   5
ENDBRANCH   3   4
ENDBRANCH   2   3
ENDBRANCH   1   2
BRANCH   1  10
ATOM     10  C   UNL     1     -11.124  -5.976  -7.980  1.00  0.00     0.000 C 
BRANCH  10  11
ATOM     11  C   UNL     1      -9.998  -6.182  -9.017  1.00  0.00    -0.000 C 
BRANCH  11  12
ATOM     12  C   UNL     1      -8.764  -5.297  -8.771  1.00  0.00    -0.000 C 
BRANCH  12  13
ATOM     13  C   UNL     1      -7.561  -6.087  -8.229  1.00  0.00    -0.000 C 
BRANCH  13  14
ATOM     14  C   UNL     1      -6.761  -5.297  -7.180  1.00  0.00    -0.000 C 
BRANCH  14  15
ATOM     15  C   UNL     1      -6.319  -6.168  -5.994  1.00  0.00    -0.003 C 
ATOM     16  C   UNL     1      -7.469  -7.038  -5.494  1.00  0.00     0.004 C 
ENDBRANCH  14  15
ENDBRANCH  13  14
ENDBRANCH  12  13
ENDBRANCH  11  12
ENDBRANCH  10  11
ENDBRANCH   1  10
TORSDOF 12
ENDMDL
MODEL 3
REMARK VINA RESULT:    -3.425      2.012      5.684
REMARK INTER + INTRA:          -7.460
REMARK INTER:                  -6.440
REMARK INTRA:                  -1.021
REMARK UNBOUND:                -1.633
REMARK SMILES CCCCCCCCCCCCCC(=O)[O-]
REMARK SMILES IDX 8 1 9 2 10 3 11 4 12 5 13 6 14 7 15 8 16 9 7 10 6 11 5 12
REMARK SMILES IDX 4 13 3 14 2 15 1 16
REMARK H PARENT
REMARK Flexibility Score: inf
ROOT
ATOM      1  C   UNL     1     -10.713  -4.382  -6.418  1.00  0.00     0.000 C 
ENDROOT
BRANCH   1   2
ATOM      2  C   UNL     1     -11.125  -4.520  -7.891  1.00  0.00     0.000 C 
BRANCH   2   3
ATOM      3  C   UNL     1     -10.190  -5.455  -8.680  1.00  0.00     0.000 C 
BRANCH   3   4
ATOM      4  C   UNL     1      -8.750  -4.922  -8.756  1.00  0.00     0.000 C 
BRANCH   4   5
ATOM      5  C   UNL     1      -7.709  -5.970  -8.326  1.00  0.00     0.006 C 
BRANCH   5   6
ATOM      6  C   UNL     1      -8.145  -6.736  -7.069  1.00  0.00     0.053 C 
BRANCH   6   7
ATOM      7  C   UNL     1      -7.282  -6.405  -5.889  1.00  0.00     0.041 C 
ATOM      8  O   UNL     1      -7.612  -6.788  -4.737  1.00  0.00    -0.550 OA
ATOM      9  O   UNL     1      -6.096  -5.705  -6.070  1.00  0.00    -0.550 OA
ENDBRANCH   6   7
ENDBRANCH   5   6
ENDBRANCH   4   5
ENDBRANCH   3   4
ENDBRANCH   2   3
ENDBRANCH   1   2
BRANCH   1  10
ATOM     10  C   UNL     1     -11.107  -5.609  -5.576  1.00  0.00     0.000 C 
BRANCH  10  11
ATOM     11  C   UNL     1     -11.087  -5.303  -4.063  1.00  0.00    -0.000 C 
BRANCH  11  12
ATOM     12  C   UNL     1     -10.675  -3.858  -3.731  1.00  0.00    -0.000 C 
BRANCH  12  13
ATOM     13  C   UNL     1      -9.289  -3.769  -3.069  1.00  0.00    -0.000 C 
BRANCH  13  14
ATOM     14  C   UNL     1      -9.350  -3.961  -1.545  1.00  0.00    -0.000 C 
BRANCH  14  15
ATOM     15  C   UNL     1     -10.625  -3.368  -0.926  1.00  0.00    -0.003 C 
ATOM     16  C   UNL     1     -10.920  -3.999   0.432  1.00  0.00     0.004 C 
ENDBRANCH  14  15
ENDBRANCH  13  14
ENDBRANCH  12  13
ENDBRANCH  11  12
ENDBRANCH  10  11
ENDBRANCH   1  10
TORSDOF 12
ENDMDL
MODEL 4
REMARK VINA RESULT:    -3.398      1.029      2.488
REMARK INTER + INTRA:          -7.415
REMARK INTER:                  -6.351
REMARK INTRA:                  -1.064
REMARK UNBOUND:                -1.633
REMARK SMILES CCCCCCCCCCCCCC(=O)[O-]
REMARK SMILES IDX 8 1 9 2 10 3 11 4 12 5 13 6 14 7 15 8 16 9 7 10 6 11 5 12
REMARK SMILES IDX 4 13 3 14 2 15 1 16
REMARK H PARENT
REMARK Flexibility Score: inf
ROOT
ATOM      1  C   UNL     1      -9.811  -6.572  -6.451  1.00  0.00     0.000 C 
ENDROOT
BRANCH   1   2
ATOM      2  C   UNL     1     -10.635  -7.035  -5.240  1.00  0.00     0.000 C 
BRANCH   2   3
ATOM      3  C   UNL     1     -10.948  -5.885  -4.265  1.00  0.00     0.000 C 
BRANCH   3   4
ATOM      4  C   UNL     1     -10.621  -4.505  -4.856  1.00  0.00     0.000 C 
BRANCH   4   5
ATOM      5  C   UNL     1     -10.724  -3.377  -3.815  1.00  0.00     0.006 C 
BRANCH   5   6
ATOM      6  C   UNL     1     -10.611  -3.903  -2.377  1.00  0.00     0.053 C 
BRANCH   6   7
ATOM      7  C   UNL     1      -9.232  -3.711  -1.822  1.00  0.00     0.041 C 
ATOM      8  O   UNL     1      -8.511  -4.708  -1.560  1.00  0.00    -0.550 OA
ATOM      9  O   UNL     1      -8.733  -2.430  -1.629  1.00  0.00    -0.550 OA
ENDBRANCH   6   7
ENDBRANCH   5   6
ENDBRANCH   4   5
ENDBRANCH   3   4
ENDBRANCH   2   3
ENDBRANCH   1   2
BRANCH   1  10
ATOM     10  C   UNL     1     -10.566  -6.747  -7.781  1.00  0.00     0.000 C 
BRANCH  10  11
ATOM     11  C   UNL     1     -11.124  -5.409  -8.311  1.00  0.00    -0.000 C 
BRANCH  11  12
ATOM     12  C   UNL     1     -10.743  -5.118  -9.773  1.00  0.00    -0.000 C 
BRANCH  12  13
ATOM     13  C   UNL     1      -9.319  -5.584 -10.124  1.00  0.00    -0.000 C 
BRANCH  13  14
ATOM     14  C   UNL     1      -8.237  -4.766  -9.399  1.00  0.00    -0.000 C 
BRANCH  14  15
ATOM     15  C   UNL     1      -7.031  -5.621  -8.982  1.00  0.00    -0.003 C 
ATOM     16  C   UNL     1      -6.617  -5.320  -7.544  1.00  0.00     0.004 C 
ENDBRANCH  14  15
ENDBRANCH  13  14
ENDBRANCH  12  13
ENDBRANCH  11  12
ENDBRANCH  10  11
ENDBRANCH   1  10
TORSDOF 12
ENDMDL
MODEL 5
REMARK VINA RESULT:    -3.268      2.449      5.980
REMARK INTER + INTRA:          -7.194
REMARK INTER:                  -6.330
REMARK INTRA:                  -0.864
REMARK UNBOUND:                -1.633
REMARK SMILES CCCCCCCCCCCCCC(=O)[O-]
REMARK SMILES IDX 8 1 9 2 10 3 11 4 12 5 13 6 14 7 15 8 16 9 7 10 6 11 5 12
REMARK SMILES IDX 4 13 3 14 2 15 1 16
REMARK H PARENT
REMARK Flexibility Score: inf
ROOT
ATOM      1  C   UNL     1     -10.564  -5.665  -6.608  1.00  0.00     0.000 C 
ENDROOT
BRANCH   1   2
ATOM      2  C   UNL     1     -11.007  -6.520  -7.805  1.00  0.00     0.000 C 
BRANCH   2   3
ATOM      3  C   UNL     1     -10.426  -6.013  -9.138  1.00  0.00     0.000 C 
BRANCH   3   4
ATOM      4  C   UNL     1      -9.922  -4.564  -9.049  1.00  0.00     0.000 C 
BRANCH   4   5
ATOM      5  C   UNL     1      -8.495  -4.401  -9.600  1.00  0.00     0.006 C 
BRANCH   5   6
ATOM      6  C   UNL     1      -7.667  -5.685  -9.454  1.00  0.00     0.053 C 
BRANCH   6   7
ATOM      7  C   UNL     1      -7.066  -5.805  -8.087  1.00  0.00     0.041 C 
ATOM      8  O   UNL     1      -6.188  -4.988  -7.707  1.00  0.00    -0.550 OA
ATOM      9  O   UNL     1      -7.503  -6.800  -7.220  1.00  0.00    -0.550 OA
ENDBRANCH   6   7
ENDBRANCH   5   6
ENDBRANCH   4   5
ENDBRANCH   3   4
ENDBRANCH   2   3
ENDBRANCH   1   2
BRANCH   1  10
ATOM     10  C   UNL     1     -10.255  -6.511  -5.360  1.00  0.00     0.000 C 
BRANCH  10  11
ATOM     11  C   UNL     1     -11.125  -6.100  -4.152  1.00  0.00    -0.000 C 
BRANCH  11  12
ATOM     12  C   UNL     1     -10.935  -4.634  -3.726  1.00  0.00    -0.000 C 
BRANCH  12  13
ATOM     13  C   UNL     1      -9.486  -4.313  -3.322  1.00  0.00    -0.000 C 
BRANCH  13  14
ATOM     14  C   UNL     1      -9.373  -3.832  -1.866  1.00  0.00    -0.000 C 
BRANCH  14  15
ATOM     15  C   UNL     1     -10.722  -3.379  -1.287  1.00  0.00    -0.003 C 
ATOM     16  C   UNL     1     -10.892  -3.861   0.151  1.00  0.00     0.004 C 
ENDBRANCH  14  15
ENDBRANCH  13  14
ENDBRANCH  12  13
ENDBRANCH  11  12
ENDBRANCH  10  11
ENDBRANCH   1  10
TORSDOF 12
ENDMDL
MODEL 6
REMARK VINA RESULT:    -3.234      1.986      3.830
REMARK INTER + INTRA:          -7.136
REMARK INTER:                  -6.262
REMARK INTRA:                  -0.874
REMARK UNBOUND:                -1.633
REMARK SMILES CCCCCCCCCCCCCC(=O)[O-]
REMARK SMILES IDX 8 1 9 2 10 3 11 4 12 5 13 6 14 7 15 8 16 9 7 10 6 11 5 12
REMARK SMILES IDX 4 13 3 14 2 15 1 16
REMARK H PARENT
REMARK Flexibility Score: inf
ROOT
ATOM      1  C   UNL     1      -8.484  -6.092  -5.193  1.00  0.00     0.000 C 
ENDROOT
BRANCH   1   2
ATOM      2  C   UNL     1      -9.985  -5.967  -4.892  1.00  0.00     0.000 C 
BRANCH   2   3
ATOM      3  C   UNL     1     -10.612  -4.714  -5.530  1.00  0.00     0.000 C 
BRANCH   3   4
ATOM      4  C   UNL     1     -11.053  -3.677  -4.485  1.00  0.00     0.000 C 
BRANCH   4   5
ATOM      5  C   UNL     1     -11.045  -4.243  -3.054  1.00  0.00     0.006 C 
BRANCH   5   6
ATOM      6  C   UNL     1     -10.439  -3.258  -2.045  1.00  0.00     0.053 C 
BRANCH   6   7
ATOM      7  C   UNL     1      -8.963  -3.462  -1.886  1.00  0.00     0.041 C 
ATOM      8  O   UNL     1      -8.177  -2.482  -1.953  1.00  0.00    -0.550 OA
ATOM      9  O   UNL     1      -8.461  -4.732  -1.630  1.00  0.00    -0.550 OA
ENDBRANCH   6   7
ENDBRANCH   5   6
ENDBRANCH   4   5
ENDBRANCH   3   4
ENDBRANCH   2   3
ENDBRANCH   1   2
BRANCH   1  10
ATOM     10  C   UNL     1      -8.203  -6.437  -6.666  1.00  0.00     0.000 C 
BRANCH  10  11
ATOM     11  C   UNL     1      -7.292  -5.389  -7.343  1.00  0.00    -0.000 C 
BRANCH  11  12
ATOM     12  C   UNL     1      -5.792  -5.714  -7.234  1.00  0.00    -0.000 C 
BRANCH  12  13
ATOM     13  C   UNL     1      -5.122  -5.041  -6.024  1.00  0.00    -0.000 C 
BRANCH  13  14
ATOM     14  C   UNL     1      -3.631  -5.396  -5.903  1.00  0.00    -0.000 C 
BRANCH  14  15
ATOM     15  C   UNL     1      -2.802  -4.263  -5.280  1.00  0.00    -0.003 C 
ATOM     16  C   UNL     1      -3.437  -2.903  -5.555  1.00  0.00     0.004 C 
ENDBRANCH  14  15
ENDBRANCH  13  14
ENDBRANCH  12  13
ENDBRANCH  11  12
ENDBRANCH  10  11
ENDBRANCH   1  10
TORSDOF 12
ENDMDL
MODEL 7
REMARK VINA RESULT:    -3.185      3.010      6.105
REMARK INTER + INTRA:          -7.052
REMARK INTER:                  -5.680
REMARK INTRA:                  -1.372
REMARK UNBOUND:                -1.633
REMARK SMILES CCCCCCCCCCCCCC(=O)[O-]
REMARK SMILES IDX 8 1 9 2 10 3 11 4 12 5 13 6 14 7 15 8 16 9 7 10 6 11 5 12
REMARK SMILES IDX 4 13 3 14 2 15 1 16
REMARK H PARENT
REMARK Flexibility Score: inf
ROOT
ATOM      1  C   UNL     1      -9.123  -7.086  -5.389  1.00  0.00     0.000 C 
ENDROOT
BRANCH   1   2
ATOM      2  C   UNL     1      -7.959  -6.099  -5.221  1.00  0.00     0.000 C 
BRANCH   2   3
ATOM      3  C   UNL     1      -6.796  -6.389  -6.188  1.00  0.00     0.000 C 
BRANCH   3   4
ATOM      4  C   UNL     1      -6.549  -5.237  -7.176  1.00  0.00     0.000 C 
BRANCH   4   5
ATOM      5  C   UNL     1      -6.818  -5.644  -8.635  1.00  0.00     0.006 C 
BRANCH   5   6
ATOM      6  C   UNL     1      -8.300  -5.507  -9.011  1.00  0.00     0.053 C 
BRANCH   6   7
ATOM      7  C   UNL     1      -8.978  -6.840  -9.096  1.00  0.00     0.041 C 
ATOM      8  O   UNL     1      -8.296  -7.889  -9.228  1.00  0.00    -0.550 OA
ATOM      9  O   UNL     1     -10.361  -6.925  -8.995  1.00  0.00    -0.550 OA
ENDBRANCH   6   7
ENDBRANCH   5   6
ENDBRANCH   4   5
ENDBRANCH   3   4
ENDBRANCH   2   3
ENDBRANCH   1   2
BRANCH   1  10
ATOM     10  C   UNL     1     -10.488  -6.380  -5.479  1.00  0.00     0.000 C 
BRANCH  10  11
ATOM     11  C   UNL     1     -10.362  -4.942  -6.028  1.00  0.00    -0.000 C 
BRANCH  11  12
ATOM     12  C   UNL     1     -10.931  -3.869  -5.084  1.00  0.00    -0.000 C 
BRANCH  12  13
ATOM     13  C   UNL     1     -11.058  -4.359  -3.631  1.00  0.00    -0.000 C 
BRANCH  13  14
ATOM     14  C   UNL     1     -10.784  -3.245  -2.608  1.00  0.00    -0.000 C 
BRANCH  14  15
ATOM     15  C   UNL     1     -10.041  -3.754  -1.364  1.00  0.00    -0.003 C 
ATOM     16  C   UNL     1     -10.973  -3.821  -0.157  1.00  0.00     0.004 C 
ENDBRANCH  14  15
ENDBRANCH  13  14
ENDBRANCH  12  13
ENDBRANCH  11  12
ENDBRANCH  10  11
ENDBRANCH   1  10
TORSDOF 12
ENDMDL
MODEL 8
REMARK VINA RESULT:    -2.358      2.828      5.977
REMARK INTER + INTRA:          -5.646
REMARK INTER:                  -4.401
REMARK INTRA:                  -1.245
REMARK UNBOUND:                -1.633
REMARK SMILES CCCCCCCCCCCCCC(=O)[O-]
REMARK SMILES IDX 8 1 9 2 10 3 11 4 12 5 13 6 14 7 15 8 16 9 7 10 6 11 5 12
REMARK SMILES IDX 4 13 3 14 2 15 1 16
REMARK H PARENT
REMARK Flexibility Score: inf
ROOT
ATOM      1  C   UNL     1      -9.501  -6.385  -6.383  1.00  0.00     0.000 C 
ENDROOT
BRANCH   1   2
ATOM      2  C   UNL     1     -10.801  -6.750  -7.114  1.00  0.00     0.000 C 
BRANCH   2   3
ATOM      3  C   UNL     1     -11.011  -5.920  -8.394  1.00  0.00     0.000 C 
BRANCH   3   4
ATOM      4  C   UNL     1     -10.499  -4.478  -8.252  1.00  0.00     0.000 C 
BRANCH   4   5
ATOM      5  C   UNL     1      -9.568  -4.066  -9.406  1.00  0.00     0.006 C 
BRANCH   5   6
ATOM      6  C   UNL     1      -8.965  -5.280 -10.125  1.00  0.00     0.053 C 
BRANCH   6   7
ATOM      7  C   UNL     1      -7.623  -5.647  -9.568  1.00  0.00     0.041 C 
ATOM      8  O   UNL     1      -7.044  -4.879  -8.756  1.00  0.00    -0.550 OA
ATOM      9  O   UNL     1      -7.030  -6.853  -9.918  1.00  0.00    -0.550 OA
ENDBRANCH   6   7
ENDBRANCH   5   6
ENDBRANCH   4   5
ENDBRANCH   3   4
ENDBRANCH   2   3
ENDBRANCH   1   2
BRANCH   1  10
ATOM     10  C   UNL     1      -9.725  -6.098  -4.887  1.00  0.00     0.000 C 
BRANCH  10  11
ATOM     11  C   UNL     1     -11.004  -5.268  -4.642  1.00  0.00    -0.000 C 
BRANCH  11  12
ATOM     12  C   UNL     1     -10.776  -3.748  -4.714  1.00  0.00    -0.000 C 
BRANCH  12  13
ATOM     13  C   UNL     1     -10.849  -3.067  -3.337  1.00  0.00    -0.000 C 
BRANCH  13  14
ATOM     14  C   UNL     1     -10.876  -4.079  -2.180  1.00  0.00    -0.000 C 
BRANCH  14  15
ATOM     15  C   UNL     1      -9.607  -4.024  -1.316  1.00  0.00    -0.003 C 
ATOM     16  C   UNL     1      -8.596  -3.035  -1.889  1.00  0.00     0.004 C 
ENDBRANCH  14  15
ENDBRANCH  13  14
ENDBRANCH  12  13
ENDBRANCH  11  12
ENDBRANCH  10  11
ENDBRANCH   1  10
TORSDOF 12
ENDMDL
