MODEL 1
REMARK VINA RESULT:    -6.240      0.000      0.000
REMARK INTER + INTRA:          -7.598
REMARK INTER:                  -7.334
REMARK INTRA:                  -0.264
REMARK UNBOUND:                -0.264
REMARK SMILES O=c1cc(-c2ccc(O)c(O)c2)oc2cc(O)cc(O)c12
REMARK SMILES IDX 4 1 3 2 2 3 1 4 21 5 19 6 18 7 16 8 15 9 14 10 13 11 5 12
REMARK SMILES IDX 6 13 7 14 8 15 12 16 10 17 9 18 11 20 20 22 17 24
REMARK H PARENT 9 19 11 21 20 23 17 25
REMARK Flexibility Score: inf
ROOT
ATOM      1  C   UNL     1      28.896  58.132   6.992  1.00  0.00     0.138 A 
ATOM      2  C   UNL     1      30.225  57.768   7.248  1.00  0.00     0.100 A 
ATOM      3  C   UNL     1      31.163  57.809   6.216  1.00  0.00     0.197 A 
ATOM      4  O   UNL     1      32.333  57.417   6.461  1.00  0.00    -0.289 OA
ATOM      5  C   UNL     1      30.773  58.247   4.927  1.00  0.00     0.107 A 
ATOM      6  C   UNL     1      31.651  58.367   3.810  1.00  0.00     0.134 A 
ATOM      7  C   UNL     1      31.128  58.699   2.554  1.00  0.00     0.093 A 
ATOM      8  C   UNL     1      29.771  58.973   2.387  1.00  0.00     0.123 A 
ATOM      9  C   UNL     1      28.912  58.911   3.486  1.00  0.00     0.094 A 
ATOM     10  C   UNL     1      29.397  58.548   4.745  1.00  0.00     0.146 A 
ATOM     11  O   UNL     1      28.544  58.487   5.761  1.00  0.00    -0.456 OA
ENDROOT
BRANCH   1  12
ATOM     12  C   UNL     1      27.858  58.108   8.054  1.00  0.00     0.021 A 
ATOM     13  C   UNL     1      26.851  57.126   8.082  1.00  0.00     0.016 A 
ATOM     14  C   UNL     1      25.893  57.121   9.100  1.00  0.00     0.051 A 
ATOM     15  C   UNL     1      25.928  58.092  10.109  1.00  0.00     0.157 A 
ATOM     16  C   UNL     1      27.894  59.071   9.079  1.00  0.00     0.062 A 
ATOM     17  C   UNL     1      26.935  59.069  10.099  1.00  0.00     0.158 A 
BRANCH  15  18
ATOM     18  O   UNL     1      24.969  58.085  11.122  1.00  0.00    -0.504 OA
ATOM     19  H   UNL     1      24.435  58.914  11.351  1.00  0.00     0.293 HD
ENDBRANCH  15  18
BRANCH  17  20
ATOM     20  O   UNL     1      27.000  60.047  11.091  1.00  0.00    -0.504 OA
ATOM     21  H   UNL     1      26.176  60.373  11.581  1.00  0.00     0.293 HD
ENDBRANCH  17  20
ENDBRANCH   1  12
BRANCH   6  22
ATOM     22  O   UNL     1      33.037  58.198   3.883  1.00  0.00    -0.507 OA
ATOM     23  H   UNL     1      33.717  58.872   3.566  1.00  0.00     0.293 HD
ENDBRANCH   6  22
BRANCH   8  24
ATOM     24  O   UNL     1      29.288  59.315   1.126  1.00  0.00    -0.508 OA
ATOM     25  H   UNL     1      28.509  58.823   0.706  1.00  0.00     0.293 HD
ENDBRANCH   8  24
TORSDOF 5
ENDMDL
MODEL 2
REMARK VINA RESULT:    -6.153      3.777      6.888
REMARK INTER + INTRA:          -7.496
REMARK INTER:                  -7.232
REMARK INTRA:                  -0.264
REMARK UNBOUND:                -0.264
REMARK SMILES O=c1cc(-c2ccc(O)c(O)c2)oc2cc(O)cc(O)c12
REMARK SMILES IDX 4 1 3 2 2 3 1 4 21 5 19 6 18 7 16 8 15 9 14 10 13 11 5 12
REMARK SMILES IDX 6 13 7 14 8 15 12 16 10 17 9 18 11 20 20 22 17 24
REMARK H PARENT 9 19 11 21 20 23 17 25
REMARK Flexibility Score: inf
ROOT
ATOM      1  C   UNL     1      29.646  59.315   1.488  1.00  0.00     0.138 A 
ATOM      2  C   UNL     1      28.851  60.468   1.542  1.00  0.00     0.100 A 
ATOM      3  C   UNL     1      28.239  60.940   0.380  1.00  0.00     0.197 A 
ATOM      4  O   UNL     1      27.582  62.011   0.449  1.00  0.00    -0.289 OA
ATOM      5  C   UNL     1      28.400  60.235  -0.836  1.00  0.00     0.107 A 
ATOM      6  C   UNL     1      27.792  60.600  -2.073  1.00  0.00     0.134 A 
ATOM      7  C   UNL     1      28.118  59.893  -3.238  1.00  0.00     0.093 A 
ATOM      8  C   UNL     1      28.982  58.800  -3.199  1.00  0.00     0.123 A 
ATOM      9  C   UNL     1      29.541  58.401  -1.984  1.00  0.00     0.094 A 
ATOM     10  C   UNL     1      29.263  59.107  -0.811  1.00  0.00     0.146 A 
ATOM     11  O   UNL     1      29.826  58.704   0.322  1.00  0.00    -0.456 OA
ENDROOT
BRANCH   1  12
ATOM     12  C   UNL     1      30.319  58.769   2.694  1.00  0.00     0.021 A 
ATOM     13  C   UNL     1      31.717  58.820   2.848  1.00  0.00     0.016 A 
ATOM     14  C   UNL     1      32.323  58.309   3.999  1.00  0.00     0.051 A 
ATOM     15  C   UNL     1      31.544  57.743   5.017  1.00  0.00     0.157 A 
ATOM     16  C   UNL     1      29.543  58.213   3.727  1.00  0.00     0.062 A 
ATOM     17  C   UNL     1      30.147  57.698   4.880  1.00  0.00     0.158 A 
BRANCH  15  18
ATOM     18  O   UNL     1      32.152  57.232   6.162  1.00  0.00    -0.504 OA
ATOM     19  H   UNL     1      31.743  57.357   7.081  1.00  0.00     0.293 HD
ENDBRANCH  15  18
BRANCH  17  20
ATOM     20  O   UNL     1      29.344  57.146   5.876  1.00  0.00    -0.504 OA
ATOM     21  H   UNL     1      28.400  57.470   6.049  1.00  0.00     0.293 HD
ENDBRANCH  17  20
ENDBRANCH   1  12
BRANCH   6  22
ATOM     22  O   UNL     1      26.849  61.623  -2.209  1.00  0.00    -0.507 OA
ATOM     23  H   UNL     1      27.067  62.582  -2.436  1.00  0.00     0.293 HD
ENDBRANCH   6  22
BRANCH   8  24
ATOM     24  O   UNL     1      29.272  58.111  -4.375  1.00  0.00    -0.508 OA
ATOM     25  H   UNL     1      30.225  57.989  -4.696  1.00  0.00     0.293 HD
ENDBRANCH   8  24
TORSDOF 5
ENDMDL
MODEL 3
REMARK VINA RESULT:    -6.035      2.602      7.859
REMARK INTER + INTRA:          -7.357
REMARK INTER:                  -7.085
REMARK INTRA:                  -0.273
REMARK UNBOUND:                -0.264
REMARK SMILES O=c1cc(-c2ccc(O)c(O)c2)oc2cc(O)cc(O)c12
REMARK SMILES IDX 4 1 3 2 2 3 1 4 21 5 19 6 18 7 16 8 15 9 14 10 13 11 5 12
REMARK SMILES IDX 6 13 7 14 8 15 12 16 10 17 9 18 11 20 20 22 17 24
REMARK H PARENT 9 19 11 21 20 23 17 25
REMARK Flexibility Score: inf
ROOT
ATOM      1  C   UNL     1      29.747  58.825   1.731  1.00  0.00     0.138 A 
ATOM      2  C   UNL     1      31.109  58.707   2.043  1.00  0.00     0.100 A 
ATOM      3  C   UNL     1      31.493  58.374   3.342  1.00  0.00     0.197 A 
ATOM      4  O   UNL     1      32.723  58.337   3.606  1.00  0.00    -0.289 OA
ATOM      5  C   UNL     1      30.507  58.127   4.327  1.00  0.00     0.107 A 
ATOM      6  C   UNL     1      30.781  57.741   5.672  1.00  0.00     0.134 A 
ATOM      7  C   UNL     1      29.727  57.638   6.589  1.00  0.00     0.093 A 
ATOM      8  C   UNL     1      28.406  57.848   6.195  1.00  0.00     0.123 A 
ATOM      9  C   UNL     1      28.122  58.173   4.867  1.00  0.00     0.094 A 
ATOM     10  C   UNL     1      29.154  58.318   3.937  1.00  0.00     0.146 A 
ATOM     11  O   UNL     1      28.843  58.642   2.687  1.00  0.00    -0.456 OA
ENDROOT
BRANCH   1  12
ATOM     12  C   UNL     1      29.283  59.176   0.366  1.00  0.00     0.021 A 
ATOM     13  C   UNL     1      28.367  60.221   0.141  1.00  0.00     0.016 A 
ATOM     14  C   UNL     1      27.956  60.536  -1.157  1.00  0.00     0.051 A 
ATOM     15  C   UNL     1      28.456  59.820  -2.252  1.00  0.00     0.157 A 
ATOM     16  C   UNL     1      29.791  58.471  -0.741  1.00  0.00     0.062 A 
ATOM     17  C   UNL     1      29.379  58.784  -2.042  1.00  0.00     0.158 A 
BRANCH  15  18
ATOM     18  O   UNL     1      28.041  60.136  -3.545  1.00  0.00    -0.504 OA
ATOM     19  H   UNL     1      27.707  61.063  -3.783  1.00  0.00     0.293 HD
ENDBRANCH  15  18
BRANCH  17  20
ATOM     20  O   UNL     1      29.898  58.054  -3.110  1.00  0.00    -0.504 OA
ATOM     21  H   UNL     1      29.591  58.202  -4.064  1.00  0.00     0.293 HD
ENDBRANCH  17  20
ENDBRANCH   1  12
BRANCH   6  22
ATOM     22  O   UNL     1      32.056  57.426   6.151  1.00  0.00    -0.507 OA
ATOM     23  H   UNL     1      32.251  57.054   7.068  1.00  0.00     0.293 HD
ENDBRANCH   6  22
BRANCH   8  24
ATOM     24  O   UNL     1      27.381  57.722   7.130  1.00  0.00    -0.508 OA
ATOM     25  H   UNL     1      27.086  56.815   7.473  1.00  0.00     0.293 HD
ENDBRANCH   8  24
TORSDOF 5
ENDMDL
MODEL 4
REMARK VINA RESULT:    -6.012      3.748      8.315
REMARK INTER + INTRA:          -7.330
REMARK INTER:                  -7.038
REMARK INTRA:                  -0.292
REMARK UNBOUND:                -0.264
REMARK SMILES O=c1cc(-c2ccc(O)c(O)c2)oc2cc(O)cc(O)c12
REMARK SMILES IDX 4 1 3 2 2 3 1 4 21 5 19 6 18 7 16 8 15 9 14 10 13 11 5 12
REMARK SMILES IDX 6 13 7 14 8 15 12 16 10 17 9 18 11 20 20 22 17 24
REMARK H PARENT 9 19 11 21 20 23 17 25
REMARK Flexibility Score: inf
ROOT
ATOM      1  C   UNL     1      29.340  59.785   1.301  1.00  0.00     0.138 A 
ATOM      2  C   UNL     1      28.751  60.870   1.965  1.00  0.00     0.100 A 
ATOM      3  C   UNL     1      28.959  61.037   3.335  1.00  0.00     0.197 A 
ATOM      4  O   UNL     1      28.367  61.984   3.914  1.00  0.00    -0.289 OA
ATOM      5  C   UNL     1      29.787  60.129   4.037  1.00  0.00     0.107 A 
ATOM      6  C   UNL     1      30.102  60.223   5.425  1.00  0.00     0.134 A 
ATOM      7  C   UNL     1      30.837  59.200   6.036  1.00  0.00     0.093 A 
ATOM      8  C   UNL     1      31.320  58.119   5.300  1.00  0.00     0.123 A 
ATOM      9  C   UNL     1      31.063  58.044   3.930  1.00  0.00     0.094 A 
ATOM     10  C   UNL     1      30.302  59.031   3.297  1.00  0.00     0.146 A 
ATOM     11  O   UNL     1      30.068  58.916   1.995  1.00  0.00    -0.456 OA
ENDROOT
BRANCH   1  12
ATOM     12  C   UNL     1      29.154  59.561  -0.154  1.00  0.00     0.021 A 
ATOM     13  C   UNL     1      29.983  58.686  -0.881  1.00  0.00     0.016 A 
ATOM     14  C   UNL     1      29.777  58.485  -2.248  1.00  0.00     0.051 A 
ATOM     15  C   UNL     1      28.738  59.149  -2.912  1.00  0.00     0.157 A 
ATOM     16  C   UNL     1      28.104  60.213  -0.826  1.00  0.00     0.062 A 
ATOM     17  C   UNL     1      27.896  60.015  -2.196  1.00  0.00     0.158 A 
BRANCH  15  18
ATOM     18  O   UNL     1      28.537  58.948  -4.278  1.00  0.00    -0.504 OA
ATOM     19  H   UNL     1      28.877  59.610  -4.966  1.00  0.00     0.293 HD
ENDBRANCH  15  18
BRANCH  17  20
ATOM     20  O   UNL     1      26.851  60.688  -2.827  1.00  0.00    -0.504 OA
ATOM     21  H   UNL     1      26.277  60.248  -3.536  1.00  0.00     0.293 HD
ENDBRANCH  17  20
ENDBRANCH   1  12
BRANCH   6  22
ATOM     22  O   UNL     1      29.742  61.303   6.237  1.00  0.00    -0.507 OA
ATOM     23  H   UNL     1      29.903  61.355   7.231  1.00  0.00     0.293 HD
ENDBRANCH   6  22
BRANCH   8  24
ATOM     24  O   UNL     1      32.061  57.128   5.939  1.00  0.00    -0.508 OA
ATOM     25  H   UNL     1      31.870  56.144   5.789  1.00  0.00     0.293 HD
ENDBRANCH   8  24
TORSDOF 5
ENDMDL
MODEL 5
REMARK VINA RESULT:    -5.902      4.193      7.106
REMARK INTER + INTRA:          -7.201
REMARK INTER:                  -6.931
REMARK INTRA:                  -0.269
REMARK UNBOUND:                -0.264
REMARK SMILES O=c1cc(-c2ccc(O)c(O)c2)oc2cc(O)cc(O)c12
REMARK SMILES IDX 4 1 3 2 2 3 1 4 21 5 19 6 18 7 16 8 15 9 14 10 13 11 5 12
REMARK SMILES IDX 6 13 7 14 8 15 12 16 10 17 9 18 11 20 20 22 17 24
REMARK H PARENT 9 19 11 21 20 23 17 25
REMARK Flexibility Score: inf
ROOT
ATOM      1  C   UNL     1      31.222  59.461   3.621  1.00  0.00     0.138 A 
ATOM      2  C   UNL     1      31.724  60.694   4.059  1.00  0.00     0.100 A 
ATOM      3  C   UNL     1      32.314  60.790   5.320  1.00  0.00     0.197 A 
ATOM      4  O   UNL     1      32.699  61.924   5.710  1.00  0.00    -0.289 OA
ATOM      5  C   UNL     1      32.429  59.638   6.133  1.00  0.00     0.107 A 
ATOM      6  C   UNL     1      33.047  59.609   7.419  1.00  0.00     0.134 A 
ATOM      7  C   UNL     1      32.998  58.435   8.181  1.00  0.00     0.093 A 
ATOM      8  C   UNL     1      32.408  57.275   7.682  1.00  0.00     0.123 A 
ATOM      9  C   UNL     1      31.848  57.278   6.404  1.00  0.00     0.094 A 
ATOM     10  C   UNL     1      31.850  58.442   5.632  1.00  0.00     0.146 A 
ATOM     11  O   UNL     1      31.294  58.407   4.426  1.00  0.00    -0.456 OA
ENDROOT
BRANCH   1  12
ATOM     12  C   UNL     1      30.587  59.302   2.289  1.00  0.00     0.021 A 
ATOM     13  C   UNL     1      31.347  59.274   1.105  1.00  0.00     0.016 A 
ATOM     14  C   UNL     1      30.723  59.112  -0.135  1.00  0.00     0.051 A 
ATOM     15  C   UNL     1      29.332  58.970  -0.214  1.00  0.00     0.157 A 
ATOM     16  C   UNL     1      29.191  59.145   2.201  1.00  0.00     0.062 A 
ATOM     17  C   UNL     1      28.563  58.983   0.961  1.00  0.00     0.158 A 
BRANCH  15  18
ATOM     18  O   UNL     1      28.713  58.810  -1.453  1.00  0.00    -0.504 OA
ATOM     19  H   UNL     1      27.827  59.256  -1.665  1.00  0.00     0.293 HD
ENDBRANCH  15  18
BRANCH  17  20
ATOM     20  O   UNL     1      27.178  58.841   0.917  1.00  0.00    -0.504 OA
ATOM     21  H   UNL     1      26.599  58.944   1.742  1.00  0.00     0.293 HD
ENDBRANCH  17  20
ENDBRANCH   1  12
BRANCH   6  22
ATOM     22  O   UNL     1      33.739  60.688   7.978  1.00  0.00    -0.507 OA
ATOM     23  H   UNL     1      33.340  61.358   8.618  1.00  0.00     0.293 HD
ENDBRANCH   6  22
BRANCH   8  24
ATOM     24  O   UNL     1      32.391  56.122   8.463  1.00  0.00    -0.508 OA
ATOM     25  H   UNL     1      31.522  55.678   8.734  1.00  0.00     0.293 HD
ENDBRANCH   8  24
TORSDOF 5
ENDMDL
MODEL 6
REMARK VINA RESULT:    -5.844     12.192     13.200
REMARK INTER + INTRA:          -7.133
REMARK INTER:                  -6.828
REMARK INTRA:                  -0.305
REMARK UNBOUND:                -0.264
REMARK SMILES O=c1cc(-c2ccc(O)c(O)c2)oc2cc(O)cc(O)c12
REMARK SMILES IDX 4 1 3 2 2 3 1 4 21 5 19 6 18 7 16 8 15 9 14 10 13 11 5 12
REMARK SMILES IDX 6 13 7 14 8 15 12 16 10 17 9 18 11 20 20 22 17 24
REMARK H PARENT 9 19 11 21 20 23 17 25
REMARK Flexibility Score: inf
ROOT
ATOM      1  C   UNL     1      34.223  69.291   9.076  1.00  0.00     0.138 A 
ATOM      2  C   UNL     1      33.291  68.621   9.880  1.00  0.00     0.100 A 
ATOM      3  C   UNL     1      32.262  67.892   9.284  1.00  0.00     0.197 A 
ATOM      4  O   UNL     1      31.405  67.353  10.032  1.00  0.00    -0.289 OA
ATOM      5  C   UNL     1      32.185  67.808   7.873  1.00  0.00     0.107 A 
ATOM      6  C   UNL     1      31.203  67.061   7.157  1.00  0.00     0.134 A 
ATOM      7  C   UNL     1      31.156  67.147   5.759  1.00  0.00     0.093 A 
ATOM      8  C   UNL     1      32.088  67.904   5.051  1.00  0.00     0.123 A 
ATOM      9  C   UNL     1      33.086  68.596   5.740  1.00  0.00     0.094 A 
ATOM     10  C   UNL     1      33.139  68.558   7.136  1.00  0.00     0.146 A 
ATOM     11  O   UNL     1      34.095  69.241   7.754  1.00  0.00    -0.456 OA
ENDROOT
BRANCH   1  12
ATOM     12  C   UNL     1      35.338  70.080   9.658  1.00  0.00     0.021 A 
ATOM     13  C   UNL     1      35.948  69.714  10.872  1.00  0.00     0.016 A 
ATOM     14  C   UNL     1      37.003  70.469  11.392  1.00  0.00     0.051 A 
ATOM     15  C   UNL     1      37.471  71.596  10.706  1.00  0.00     0.157 A 
ATOM     16  C   UNL     1      35.824  71.206   8.968  1.00  0.00     0.062 A 
ATOM     17  C   UNL     1      36.880  71.964   9.487  1.00  0.00     0.158 A 
BRANCH  15  18
ATOM     18  O   UNL     1      38.523  72.348  11.228  1.00  0.00    -0.504 OA
ATOM     19  H   UNL     1      38.903  72.160  12.148  1.00  0.00     0.293 HD
ENDBRANCH  15  18
BRANCH  17  20
ATOM     20  O   UNL     1      37.324  73.079   8.778  1.00  0.00    -0.504 OA
ATOM     21  H   UNL     1      37.120  73.209   7.794  1.00  0.00     0.293 HD
ENDBRANCH  17  20
ENDBRANCH   1  12
BRANCH   6  22
ATOM     22  O   UNL     1      30.276  66.206   7.760  1.00  0.00    -0.507 OA
ATOM     23  H   UNL     1      30.508  65.341   8.224  1.00  0.00     0.293 HD
ENDBRANCH   6  22
BRANCH   8  24
ATOM     24  O   UNL     1      32.019  67.954   3.661  1.00  0.00    -0.508 OA
ATOM     25  H   UNL     1      32.352  68.759   3.143  1.00  0.00     0.293 HD
ENDBRANCH   8  24
TORSDOF 5
ENDMDL
MODEL 7
REMARK VINA RESULT:    -5.836      4.702      8.455
REMARK INTER + INTRA:          -7.123
REMARK INTER:                  -6.835
REMARK INTRA:                  -0.287
REMARK UNBOUND:                -0.264
REMARK SMILES O=c1cc(-c2ccc(O)c(O)c2)oc2cc(O)cc(O)c12
REMARK SMILES IDX 4 1 3 2 2 3 1 4 21 5 19 6 18 7 16 8 15 9 14 10 13 11 5 12
REMARK SMILES IDX 6 13 7 14 8 15 12 16 10 17 9 18 11 20 20 22 17 24
REMARK H PARENT 9 19 11 21 20 23 17 25
REMARK Flexibility Score: inf
ROOT
ATOM      1  C   UNL     1      30.295  60.191   0.976  1.00  0.00     0.138 A 
ATOM      2  C   UNL     1      30.656  61.472   1.415  1.00  0.00     0.100 A 
ATOM      3  C   UNL     1      31.271  61.628   2.658  1.00  0.00     0.197 A 
ATOM      4  O   UNL     1      31.526  62.796   3.051  1.00  0.00    -0.289 OA
ATOM      5  C   UNL     1      31.552  60.491   3.452  1.00  0.00     0.107 A 
ATOM      6  C   UNL     1      32.211  60.526   4.717  1.00  0.00     0.134 A 
ATOM      7  C   UNL     1      32.331  59.348   5.465  1.00  0.00     0.093 A 
ATOM      8  C   UNL     1      31.872  58.129   4.968  1.00  0.00     0.123 A 
ATOM      9  C   UNL     1      31.274  58.074   3.708  1.00  0.00     0.094 A 
ATOM     10  C   UNL     1      31.108  59.238   2.953  1.00  0.00     0.146 A 
ATOM     11  O   UNL     1      30.521  59.146   1.765  1.00  0.00    -0.456 OA
ENDROOT
BRANCH   1  12
ATOM     12  C   UNL     1      29.640  59.968  -0.337  1.00  0.00     0.021 A 
ATOM     13  C   UNL     1      28.527  60.726  -0.748  1.00  0.00     0.016 A 
ATOM     14  C   UNL     1      27.938  60.502  -1.995  1.00  0.00     0.051 A 
ATOM     15  C   UNL     1      28.451  59.523  -2.855  1.00  0.00     0.157 A 
ATOM     16  C   UNL     1      30.158  58.996  -1.213  1.00  0.00     0.062 A 
ATOM     17  C   UNL     1      29.568  58.769  -2.462  1.00  0.00     0.158 A 
BRANCH  15  18
ATOM     18  O   UNL     1      27.859  59.301  -4.098  1.00  0.00    -0.504 OA
ATOM     19  H   UNL     1      26.852  59.276  -4.208  1.00  0.00     0.293 HD
ENDBRANCH  15  18
BRANCH  17  20
ATOM     20  O   UNL     1      30.106  57.790  -3.296  1.00  0.00    -0.504 OA
ATOM     21  H   UNL     1      31.092  57.761  -3.528  1.00  0.00     0.293 HD
ENDBRANCH  17  20
ENDBRANCH   1  12
BRANCH   6  22
ATOM     22  O   UNL     1      32.783  61.676   5.269  1.00  0.00    -0.507 OA
ATOM     23  H   UNL     1      32.428  62.612   5.146  1.00  0.00     0.293 HD
ENDBRANCH   6  22
BRANCH   8  24
ATOM     24  O   UNL     1      32.022  56.974   5.734  1.00  0.00    -0.508 OA
ATOM     25  H   UNL     1      32.883  56.776   6.229  1.00  0.00     0.293 HD
ENDBRANCH   8  24
TORSDOF 5
ENDMDL
MODEL 8
REMARK VINA RESULT:    -5.770     12.906     13.991
REMARK INTER + INTRA:          -7.045
REMARK INTER:                  -6.744
REMARK INTRA:                  -0.301
REMARK UNBOUND:                -0.264
REMARK SMILES O=c1cc(-c2ccc(O)c(O)c2)oc2cc(O)cc(O)c12
REMARK SMILES IDX 4 1 3 2 2 3 1 4 21 5 19 6 18 7 16 8 15 9 14 10 13 11 5 12
REMARK SMILES IDX 6 13 7 14 8 15 12 16 10 17 9 18 11 20 20 22 17 24
REMARK H PARENT 9 19 11 21 20 23 17 25
REMARK Flexibility Score: inf
ROOT
ATOM      1  C   UNL     1      35.437  70.017   8.636  1.00  0.00     0.138 A 
ATOM      2  C   UNL     1      35.680  69.947   7.258  1.00  0.00     0.100 A 
ATOM      3  C   UNL     1      34.726  69.373   6.417  1.00  0.00     0.197 A 
ATOM      4  O   UNL     1      35.000  69.268   5.193  1.00  0.00    -0.289 OA
ATOM      5  C   UNL     1      33.509  68.894   6.957  1.00  0.00     0.107 A 
ATOM      6  C   UNL     1      32.448  68.326   6.190  1.00  0.00     0.134 A 
ATOM      7  C   UNL     1      31.338  67.780   6.848  1.00  0.00     0.093 A 
ATOM      8  C   UNL     1      31.223  67.835   8.236  1.00  0.00     0.123 A 
ATOM      9  C   UNL     1      32.231  68.436   8.991  1.00  0.00     0.094 A 
ATOM     10  C   UNL     1      33.366  68.959   8.368  1.00  0.00     0.146 A 
ATOM     11  O   UNL     1      34.309  69.511   9.124  1.00  0.00    -0.456 OA
ENDROOT
BRANCH   1  12
ATOM     12  C   UNL     1      36.416  70.619   9.575  1.00  0.00     0.021 A 
ATOM     13  C   UNL     1      37.171  71.756   9.229  1.00  0.00     0.016 A 
ATOM     14  C   UNL     1      38.078  72.308  10.138  1.00  0.00     0.051 A 
ATOM     15  C   UNL     1      38.243  71.740  11.408  1.00  0.00     0.157 A 
ATOM     16  C   UNL     1      36.577  70.064  10.858  1.00  0.00     0.062 A 
ATOM     17  C   UNL     1      37.486  70.614  11.769  1.00  0.00     0.158 A 
BRANCH  15  18
ATOM     18  O   UNL     1      39.150  72.293  12.310  1.00  0.00    -0.504 OA
ATOM     19  H   UNL     1      40.050  72.648  12.008  1.00  0.00     0.293 HD
ENDBRANCH  15  18
BRANCH  17  20
ATOM     20  O   UNL     1      37.623  70.028  13.026  1.00  0.00    -0.504 OA
ATOM     21  H   UNL     1      38.105  70.491  13.787  1.00  0.00     0.293 HD
ENDBRANCH  17  20
ENDBRANCH   1  12
BRANCH   6  22
ATOM     22  O   UNL     1      32.422  68.296   4.793  1.00  0.00    -0.507 OA
ATOM     23  H   UNL     1      33.031  67.734   4.217  1.00  0.00     0.293 HD
ENDBRANCH   6  22
BRANCH   8  24
ATOM     24  O   UNL     1      30.098  67.294   8.854  1.00  0.00    -0.508 OA
ATOM     25  H   UNL     1      29.428  67.880   9.340  1.00  0.00     0.293 HD
ENDBRANCH   8  24
TORSDOF 5
ENDMDL
MODEL 9
REMARK VINA RESULT:    -5.714      2.578      7.226
REMARK INTER + INTRA:          -6.980
REMARK INTER:                  -6.665
REMARK INTRA:                  -0.315
REMARK UNBOUND:                -0.264
REMARK SMILES O=c1cc(-c2ccc(O)c(O)c2)oc2cc(O)cc(O)c12
REMARK SMILES IDX 4 1 3 2 2 3 1 4 21 5 19 6 18 7 16 8 15 9 14 10 13 11 5 12
REMARK SMILES IDX 6 13 7 14 8 15 12 16 10 17 9 18 11 20 20 22 17 24
REMARK H PARENT 9 19 11 21 20 23 17 25
REMARK Flexibility Score: inf
ROOT
ATOM      1  C   UNL     1      29.878  58.577   4.092  1.00  0.00     0.138 A 
ATOM      2  C   UNL     1      28.675  58.342   4.772  1.00  0.00     0.100 A 
ATOM      3  C   UNL     1      28.703  57.992   6.123  1.00  0.00     0.197 A 
ATOM      4  O   UNL     1      27.611  57.727   6.689  1.00  0.00    -0.289 OA
ATOM      5  C   UNL     1      29.941  57.906   6.803  1.00  0.00     0.107 A 
ATOM      6  C   UNL     1      30.088  57.597   8.187  1.00  0.00     0.134 A 
ATOM      7  C   UNL     1      31.370  57.425   8.724  1.00  0.00     0.093 A 
ATOM      8  C   UNL     1      32.509  57.611   7.942  1.00  0.00     0.123 A 
ATOM      9  C   UNL     1      32.378  57.966   6.599  1.00  0.00     0.094 A 
ATOM     10  C   UNL     1      31.112  58.111   6.025  1.00  0.00     0.146 A 
ATOM     11  O   UNL     1      31.030  58.436   4.740  1.00  0.00    -0.456 OA
ENDROOT
BRANCH   1  12
ATOM     12  C   UNL     1      29.907  58.953   2.657  1.00  0.00     0.021 A 
ATOM     13  C   UNL     1      28.774  58.815   1.833  1.00  0.00     0.016 A 
ATOM     14  C   UNL     1      28.826  59.188   0.487  1.00  0.00     0.051 A 
ATOM     15  C   UNL     1      30.006  59.711  -0.058  1.00  0.00     0.157 A 
ATOM     16  C   UNL     1      31.083  59.492   2.105  1.00  0.00     0.062 A 
ATOM     17  C   UNL     1      31.139  59.865   0.757  1.00  0.00     0.158 A 
BRANCH  15  18
ATOM     18  O   UNL     1      30.054  60.080  -1.401  1.00  0.00    -0.504 OA
ATOM     19  H   UNL     1      29.299  59.858  -2.040  1.00  0.00     0.293 HD
ENDBRANCH  15  18
BRANCH  17  20
ATOM     20  O   UNL     1      32.327  60.386   0.247  1.00  0.00    -0.504 OA
ATOM     21  H   UNL     1      33.152  60.508   0.821  1.00  0.00     0.293 HD
ENDBRANCH  17  20
ENDBRANCH   1  12
BRANCH   6  22
ATOM     22  O   UNL     1      29.017  57.473   9.079  1.00  0.00    -0.507 OA
ATOM     23  H   UNL     1      28.602  56.599   9.362  1.00  0.00     0.293 HD
ENDBRANCH   6  22
BRANCH   8  24
ATOM     24  O   UNL     1      33.769  57.447   8.514  1.00  0.00    -0.508 OA
ATOM     25  H   UNL     1      34.566  57.150   7.963  1.00  0.00     0.293 HD
ENDBRANCH   8  24
TORSDOF 5
ENDMDL
