MODEL 1
REMARK VINA RESULT:    -6.286      0.000      0.000
REMARK INTER + INTRA:          -7.902
REMARK INTER:                  -7.572
REMARK INTRA:                  -0.330
REMARK UNBOUND:                -0.330
REMARK SMILES O=c1c(O)c(-c2ccc(O)c(O)c2)oc2cc(O)cc(O)c12
REMARK SMILES IDX 5 1 3 2 2 3 1 4 22 5 20 6 19 7 17 8 16 9 15 10 14 11 6 12
REMARK SMILES IDX 7 13 8 14 9 15 13 16 11 17 10 18 12 20 4 22 21 24 18 26
REMARK H PARENT 10 19 12 21 4 23 21 25 18 27
REMARK Flexibility Score: inf
ROOT
ATOM      1  C   UNL     1      -9.365   8.638   6.222  1.00  0.00     0.180 A 
ATOM      2  C   UNL     1     -10.627   9.237   6.075  1.00  0.00     0.208 A 
ATOM      3  C   UNL     1     -11.776   8.433   6.165  1.00  0.00     0.238 A 
ATOM      4  O   UNL     1     -12.901   8.966   5.978  1.00  0.00    -0.285 OA
ATOM      5  C   UNL     1     -11.648   7.046   6.417  1.00  0.00     0.111 A 
ATOM      6  C   UNL     1     -12.745   6.145   6.569  1.00  0.00     0.134 A 
ATOM      7  C   UNL     1     -12.498   4.772   6.685  1.00  0.00     0.093 A 
ATOM      8  C   UNL     1     -11.193   4.274   6.722  1.00  0.00     0.123 A 
ATOM      9  C   UNL     1     -10.116   5.152   6.635  1.00  0.00     0.094 A 
ATOM     10  C   UNL     1     -10.329   6.524   6.482  1.00  0.00     0.146 A 
ATOM     11  O   UNL     1      -9.274   7.324   6.392  1.00  0.00    -0.452 OA
ENDROOT
BRANCH   1  12
ATOM     12  C   UNL     1      -8.110   9.422   6.164  1.00  0.00     0.025 A 
ATOM     13  C   UNL     1      -7.446   9.577   4.936  1.00  0.00     0.016 A 
ATOM     14  C   UNL     1      -6.250  10.295   4.863  1.00  0.00     0.051 A 
ATOM     15  C   UNL     1      -5.691  10.856   6.016  1.00  0.00     0.157 A 
ATOM     16  C   UNL     1      -7.535   9.969   7.326  1.00  0.00     0.062 A 
ATOM     17  C   UNL     1      -6.333  10.689   7.254  1.00  0.00     0.158 A 
BRANCH  15  18
ATOM     18  O   UNL     1      -4.497  11.569   5.912  1.00  0.00    -0.504 OA
ATOM     19  H   UNL     1      -3.605  11.167   6.171  1.00  0.00     0.293 HD
ENDBRANCH  15  18
BRANCH  17  20
ATOM     20  O   UNL     1      -5.773  11.234   8.409  1.00  0.00    -0.504 OA
ATOM     21  H   UNL     1      -6.038  10.909   9.332  1.00  0.00     0.293 HD
ENDBRANCH  17  20
ENDBRANCH   1  12
BRANCH   2  22
ATOM     22  O   UNL     1     -10.731  10.603   5.805  1.00  0.00    -0.502 OA
ATOM     23  H   UNL     1     -10.056  11.097   5.233  1.00  0.00     0.293 HD
ENDBRANCH   2  22
BRANCH   6  24
ATOM     24  O   UNL     1     -14.081   6.548   6.637  1.00  0.00    -0.507 OA
ATOM     25  H   UNL     1     -14.474   7.328   6.131  1.00  0.00     0.293 HD
ENDBRANCH   6  24
BRANCH   8  26
ATOM     26  O   UNL     1     -10.958   2.907   6.854  1.00  0.00    -0.508 OA
ATOM     27  H   UNL     1     -11.707   2.257   7.060  1.00  0.00     0.293 HD
ENDBRANCH   8  26
TORSDOF 6
ENDMDL
MODEL 2
REMARK VINA RESULT:    -5.963      1.384      6.700
REMARK INTER + INTRA:          -7.513
REMARK INTER:                  -7.218
REMARK INTRA:                  -0.296
REMARK UNBOUND:                -0.330
REMARK SMILES O=c1c(O)c(-c2ccc(O)c(O)c2)oc2cc(O)cc(O)c12
REMARK SMILES IDX 5 1 3 2 2 3 1 4 22 5 20 6 19 7 17 8 16 9 15 10 14 11 6 12
REMARK SMILES IDX 7 13 8 14 9 15 13 16 11 17 10 18 12 20 4 22 21 24 18 26
REMARK H PARENT 10 19 12 21 4 23 21 25 18 27
REMARK Flexibility Score: inf
ROOT
ATOM      1  C   UNL     1     -10.153   7.628   6.593  1.00  0.00     0.180 A 
ATOM      2  C   UNL     1     -10.917   8.702   6.107  1.00  0.00     0.208 A 
ATOM      3  C   UNL     1     -10.259   9.860   5.662  1.00  0.00     0.238 A 
ATOM      4  O   UNL     1     -10.951  10.840   5.280  1.00  0.00    -0.285 OA
ATOM      5  C   UNL     1      -8.845   9.922   5.691  1.00  0.00     0.111 A 
ATOM      6  C   UNL     1      -8.072  11.029   5.227  1.00  0.00     0.134 A 
ATOM      7  C   UNL     1      -6.686  11.034   5.425  1.00  0.00     0.093 A 
ATOM      8  C   UNL     1      -6.037   9.944   6.012  1.00  0.00     0.123 A 
ATOM      9  C   UNL     1      -6.776   8.834   6.414  1.00  0.00     0.094 A 
ATOM     10  C   UNL     1      -8.165   8.814   6.263  1.00  0.00     0.146 A 
ATOM     11  O   UNL     1      -8.832   7.741   6.669  1.00  0.00    -0.452 OA
ENDROOT
BRANCH   1  12
ATOM     12  C   UNL     1     -10.773   6.366   7.057  1.00  0.00     0.025 A 
ATOM     13  C   UNL     1     -11.298   6.289   8.357  1.00  0.00     0.016 A 
ATOM     14  C   UNL     1     -11.868   5.102   8.822  1.00  0.00     0.051 A 
ATOM     15  C   UNL     1     -11.910   3.969   8.002  1.00  0.00     0.157 A 
ATOM     16  C   UNL     1     -10.797   5.220   6.241  1.00  0.00     0.062 A 
ATOM     17  C   UNL     1     -11.369   4.026   6.707  1.00  0.00     0.158 A 
BRANCH  15  18
ATOM     18  O   UNL     1     -12.488   2.799   8.492  1.00  0.00    -0.504 OA
ATOM     19  H   UNL     1     -11.932   2.007   8.788  1.00  0.00     0.293 HD
ENDBRANCH  15  18
BRANCH  17  20
ATOM     20  O   UNL     1     -11.394   2.897   5.890  1.00  0.00    -0.504 OA
ATOM     21  H   UNL     1     -11.516   1.967   6.273  1.00  0.00     0.293 HD
ENDBRANCH  17  20
ENDBRANCH   1  12
BRANCH   2  22
ATOM     22  O   UNL     1     -12.313   8.629   6.108  1.00  0.00    -0.502 OA
ATOM     23  H   UNL     1     -12.823   7.976   5.526  1.00  0.00     0.293 HD
ENDBRANCH   2  22
BRANCH   6  24
ATOM     24  O   UNL     1      -8.610  12.125   4.546  1.00  0.00    -0.507 OA
ATOM     25  H   UNL     1      -8.084  12.933   4.251  1.00  0.00     0.293 HD
ENDBRANCH   6  24
BRANCH   8  26
ATOM     26  O   UNL     1      -4.655   9.952   6.191  1.00  0.00    -0.508 OA
ATOM     27  H   UNL     1      -4.019   9.927   5.403  1.00  0.00     0.293 HD
ENDBRANCH   8  26
TORSDOF 6
ENDMDL
MODEL 3
REMARK VINA RESULT:    -5.386      2.518      6.722
REMARK INTER + INTRA:          -6.819
REMARK INTER:                  -6.496
REMARK INTRA:                  -0.322
REMARK UNBOUND:                -0.330
REMARK SMILES O=c1c(O)c(-c2ccc(O)c(O)c2)oc2cc(O)cc(O)c12
REMARK SMILES IDX 5 1 3 2 2 3 1 4 22 5 20 6 19 7 17 8 16 9 15 10 14 11 6 12
REMARK SMILES IDX 7 13 8 14 9 15 13 16 11 17 10 18 12 20 4 22 21 24 18 26
REMARK H PARENT 10 19 12 21 4 23 21 25 18 27
REMARK Flexibility Score: inf
ROOT
ATOM      1  C   UNL     1     -12.159   7.603   6.586  1.00  0.00     0.180 A 
ATOM      2  C   UNL     1     -13.429   8.147   6.330  1.00  0.00     0.208 A 
ATOM      3  C   UNL     1     -13.520   9.420   5.744  1.00  0.00     0.238 A 
ATOM      4  O   UNL     1     -14.659   9.924   5.568  1.00  0.00    -0.285 OA
ATOM      5  C   UNL     1     -12.340  10.125   5.404  1.00  0.00     0.111 A 
ATOM      6  C   UNL     1     -12.313  11.403   4.769  1.00  0.00     0.134 A 
ATOM      7  C   UNL     1     -11.091  12.064   4.599  1.00  0.00     0.093 A 
ATOM      8  C   UNL     1      -9.888  11.465   4.983  1.00  0.00     0.123 A 
ATOM      9  C   UNL     1      -9.899  10.193   5.548  1.00  0.00     0.094 A 
ATOM     10  C   UNL     1     -11.105   9.523   5.764  1.00  0.00     0.146 A 
ATOM     11  O   UNL     1     -11.071   8.315   6.316  1.00  0.00    -0.452 OA
ENDROOT
BRANCH   1  12
ATOM     12  C   UNL     1     -11.982   6.258   7.179  1.00  0.00     0.025 A 
ATOM     13  C   UNL     1     -11.703   6.137   8.549  1.00  0.00     0.016 A 
ATOM     14  C   UNL     1     -11.512   4.879   9.125  1.00  0.00     0.051 A 
ATOM     15  C   UNL     1     -11.582   3.724   8.339  1.00  0.00     0.157 A 
ATOM     16  C   UNL     1     -12.031   5.097   6.386  1.00  0.00     0.062 A 
ATOM     17  C   UNL     1     -11.838   3.832   6.963  1.00  0.00     0.158 A 
BRANCH  15  18
ATOM     18  O   UNL     1     -11.390   2.481   8.942  1.00  0.00    -0.504 OA
ATOM     19  H   UNL     1     -10.933   2.383   9.841  1.00  0.00     0.293 HD
ENDBRANCH  15  18
BRANCH  17  20
ATOM     20  O   UNL     1     -11.895   2.686   6.171  1.00  0.00    -0.504 OA
ATOM     21  H   UNL     1     -12.512   1.914   6.396  1.00  0.00     0.293 HD
ENDBRANCH  17  20
ENDBRANCH   1  12
BRANCH   2  22
ATOM     22  O   UNL     1     -14.581   7.444   6.693  1.00  0.00    -0.502 OA
ATOM     23  H   UNL     1     -14.952   6.684   6.136  1.00  0.00     0.293 HD
ENDBRANCH   2  22
BRANCH   6  24
ATOM     24  O   UNL     1     -13.448  12.047   4.266  1.00  0.00    -0.507 OA
ATOM     25  H   UNL     1     -14.013  12.703   4.784  1.00  0.00     0.293 HD
ENDBRANCH   6  24
BRANCH   8  26
ATOM     26  O   UNL     1      -8.675  12.124   4.795  1.00  0.00    -0.508 OA
ATOM     27  H   UNL     1      -8.358  12.400   3.873  1.00  0.00     0.293 HD
ENDBRANCH   8  26
TORSDOF 6
ENDMDL
MODEL 4
REMARK VINA RESULT:    -5.107      2.479      3.279
REMARK INTER + INTRA:          -6.482
REMARK INTER:                  -6.167
REMARK INTRA:                  -0.315
REMARK UNBOUND:                -0.330
REMARK SMILES O=c1c(O)c(-c2ccc(O)c(O)c2)oc2cc(O)cc(O)c12
REMARK SMILES IDX 5 1 3 2 2 3 1 4 22 5 20 6 19 7 17 8 16 9 15 10 14 11 6 12
REMARK SMILES IDX 7 13 8 14 9 15 13 16 11 17 10 18 12 20 4 22 21 24 18 26
REMARK H PARENT 10 19 12 21 4 23 21 25 18 27
REMARK Flexibility Score: inf
ROOT
ATOM      1  C   UNL     1     -10.176  10.256   5.775  1.00  0.00     0.180 A 
ATOM      2  C   UNL     1     -10.714  11.224   4.911  1.00  0.00     0.208 A 
ATOM      3  C   UNL     1     -12.101  11.244   4.690  1.00  0.00     0.238 A 
ATOM      4  O   UNL     1     -12.570  12.078   3.873  1.00  0.00    -0.285 OA
ATOM      5  C   UNL     1     -12.933  10.308   5.349  1.00  0.00     0.111 A 
ATOM      6  C   UNL     1     -14.355  10.262   5.231  1.00  0.00     0.134 A 
ATOM      7  C   UNL     1     -15.064   9.211   5.825  1.00  0.00     0.093 A 
ATOM      8  C   UNL     1     -14.409   8.240   6.587  1.00  0.00     0.123 A 
ATOM      9  C   UNL     1     -13.028   8.310   6.758  1.00  0.00     0.094 A 
ATOM     10  C   UNL     1     -12.289   9.326   6.148  1.00  0.00     0.146 A 
ATOM     11  O   UNL     1     -10.974   9.349   6.327  1.00  0.00    -0.452 OA
ENDROOT
BRANCH   1  12
ATOM     12  C   UNL     1      -8.728  10.186   6.077  1.00  0.00     0.025 A 
ATOM     13  C   UNL     1      -7.877   9.464   5.224  1.00  0.00     0.016 A 
ATOM     14  C   UNL     1      -6.511   9.368   5.502  1.00  0.00     0.051 A 
ATOM     15  C   UNL     1      -5.977   9.979   6.641  1.00  0.00     0.157 A 
ATOM     16  C   UNL     1      -8.192  10.781   7.234  1.00  0.00     0.062 A 
ATOM     17  C   UNL     1      -6.821  10.685   7.514  1.00  0.00     0.158 A 
BRANCH  15  18
ATOM     18  O   UNL     1      -4.609   9.868   6.891  1.00  0.00    -0.504 OA
ATOM     19  H   UNL     1      -3.949   9.614   6.167  1.00  0.00     0.293 HD
ENDBRANCH  15  18
BRANCH  17  20
ATOM     20  O   UNL     1      -6.297  11.284   8.659  1.00  0.00    -0.504 OA
ATOM     21  H   UNL     1      -6.878  11.493   9.462  1.00  0.00     0.293 HD
ENDBRANCH  17  20
ENDBRANCH   1  12
BRANCH   2  22
ATOM     22  O   UNL     1      -9.872  12.125   4.253  1.00  0.00    -0.502 OA
ATOM     23  H   UNL     1     -10.108  12.536   3.358  1.00  0.00     0.293 HD
ENDBRANCH   2  22
BRANCH   6  24
ATOM     24  O   UNL     1     -15.114  11.233   4.570  1.00  0.00    -0.507 OA
ATOM     25  H   UNL     1     -14.999  12.228   4.684  1.00  0.00     0.293 HD
ENDBRANCH   6  24
BRANCH   8  26
ATOM     26  O   UNL     1     -15.125   7.207   7.188  1.00  0.00    -0.508 OA
ATOM     27  H   UNL     1     -15.118   7.070   8.192  1.00  0.00     0.293 HD
ENDBRANCH   8  26
TORSDOF 6
ENDMDL
MODEL 5
REMARK VINA RESULT:    -5.085      1.216      2.981
REMARK INTER + INTRA:          -6.456
REMARK INTER:                  -6.138
REMARK INTRA:                  -0.318
REMARK UNBOUND:                -0.330
REMARK SMILES O=c1c(O)c(-c2ccc(O)c(O)c2)oc2cc(O)cc(O)c12
REMARK SMILES IDX 5 1 3 2 2 3 1 4 22 5 20 6 19 7 17 8 16 9 15 10 14 11 6 12
REMARK SMILES IDX 7 13 8 14 9 15 13 16 11 17 10 18 12 20 4 22 21 24 18 26
REMARK H PARENT 10 19 12 21 4 23 21 25 18 27
REMARK Flexibility Score: inf
ROOT
ATOM      1  C   UNL     1      -9.243   8.625   6.253  1.00  0.00     0.180 A 
ATOM      2  C   UNL     1      -9.207   7.249   6.536  1.00  0.00     0.208 A 
ATOM      3  C   UNL     1     -10.405   6.517   6.511  1.00  0.00     0.238 A 
ATOM      4  O   UNL     1     -10.374   5.297   6.819  1.00  0.00    -0.285 OA
ATOM      5  C   UNL     1     -11.620   7.165   6.184  1.00  0.00     0.111 A 
ATOM      6  C   UNL     1     -12.887   6.513   6.088  1.00  0.00     0.134 A 
ATOM      7  C   UNL     1     -14.042   7.277   5.887  1.00  0.00     0.093 A 
ATOM      8  C   UNL     1     -13.971   8.662   5.713  1.00  0.00     0.123 A 
ATOM      9  C   UNL     1     -12.733   9.299   5.745  1.00  0.00     0.094 A 
ATOM     10  C   UNL     1     -11.565   8.569   5.980  1.00  0.00     0.146 A 
ATOM     11  O   UNL     1     -10.407   9.218   6.014  1.00  0.00    -0.452 OA
ENDROOT
BRANCH   1  12
ATOM     12  C   UNL     1      -8.020   9.459   6.236  1.00  0.00     0.025 A 
ATOM     13  C   UNL     1      -7.317   9.634   5.034  1.00  0.00     0.016 A 
ATOM     14  C   UNL     1      -6.149  10.399   5.001  1.00  0.00     0.051 A 
ATOM     15  C   UNL     1      -5.657  10.990   6.169  1.00  0.00     0.157 A 
ATOM     16  C   UNL     1      -7.512  10.036   7.415  1.00  0.00     0.062 A 
ATOM     17  C   UNL     1      -6.339  10.804   7.383  1.00  0.00     0.158 A 
BRANCH  15  18
ATOM     18  O   UNL     1      -4.491  11.751   6.105  1.00  0.00    -0.504 OA
ATOM     19  H   UNL     1      -3.839  11.673   5.335  1.00  0.00     0.293 HD
ENDBRANCH  15  18
BRANCH  17  20
ATOM     20  O   UNL     1      -5.847  11.378   8.555  1.00  0.00    -0.504 OA
ATOM     21  H   UNL     1      -4.926  11.150   8.912  1.00  0.00     0.293 HD
ENDBRANCH  17  20
ENDBRANCH   1  12
BRANCH   2  22
ATOM     22  O   UNL     1      -8.000   6.633   6.878  1.00  0.00    -0.502 OA
ATOM     23  H   UNL     1      -7.926   5.637   7.044  1.00  0.00     0.293 HD
ENDBRANCH   2  22
BRANCH   6  24
ATOM     24  O   UNL     1     -13.057   5.128   6.155  1.00  0.00    -0.507 OA
ATOM     25  H   UNL     1     -13.126   4.517   5.355  1.00  0.00     0.293 HD
ENDBRANCH   6  24
BRANCH   8  26
ATOM     26  O   UNL     1     -15.125   9.412   5.497  1.00  0.00    -0.508 OA
ATOM     27  H   UNL     1     -15.731   9.685   6.262  1.00  0.00     0.293 HD
ENDBRANCH   8  26
TORSDOF 6
ENDMDL
MODEL 6
REMARK VINA RESULT:    -5.002      2.400      6.914
REMARK INTER + INTRA:          -6.355
REMARK INTER:                  -6.066
REMARK INTRA:                  -0.289
REMARK UNBOUND:                -0.330
REMARK SMILES O=c1c(O)c(-c2ccc(O)c(O)c2)oc2cc(O)cc(O)c12
REMARK SMILES IDX 5 1 3 2 2 3 1 4 22 5 20 6 19 7 17 8 16 9 15 10 14 11 6 12
REMARK SMILES IDX 7 13 8 14 9 15 13 16 11 17 10 18 12 20 4 22 21 24 18 26
REMARK H PARENT 10 19 12 21 4 23 21 25 18 27
REMARK Flexibility Score: inf
ROOT
ATOM      1  C   UNL     1     -11.218   7.646   6.451  1.00  0.00     0.180 A 
ATOM      2  C   UNL     1      -9.899   8.090   6.262  1.00  0.00     0.208 A 
ATOM      3  C   UNL     1      -9.680   9.333   5.646  1.00  0.00     0.238 A 
ATOM      4  O   UNL     1      -8.496   9.700   5.430  1.00  0.00    -0.285 OA
ATOM      5  C   UNL     1     -10.783  10.123   5.242  1.00  0.00     0.111 A 
ATOM      6  C   UNL     1     -10.680  11.416   4.646  1.00  0.00     0.134 A 
ATOM      7  C   UNL     1     -11.832  12.049   4.167  1.00  0.00     0.093 A 
ATOM      8  C   UNL     1     -13.093  11.467   4.322  1.00  0.00     0.123 A 
ATOM      9  C   UNL     1     -13.210  10.233   4.957  1.00  0.00     0.094 A 
ATOM     10  C   UNL     1     -12.075   9.559   5.413  1.00  0.00     0.146 A 
ATOM     11  O   UNL     1     -12.231   8.379   6.003  1.00  0.00    -0.452 OA
ENDROOT
BRANCH   1  12
ATOM     12  C   UNL     1     -11.530   6.359   7.114  1.00  0.00     0.025 A 
ATOM     13  C   UNL     1     -11.883   6.349   8.473  1.00  0.00     0.016 A 
ATOM     14  C   UNL     1     -12.160   5.144   9.124  1.00  0.00     0.051 A 
ATOM     15  C   UNL     1     -12.076   3.931   8.432  1.00  0.00     0.157 A 
ATOM     16  C   UNL     1     -11.425   5.137   6.425  1.00  0.00     0.062 A 
ATOM     17  C   UNL     1     -11.703   3.926   7.078  1.00  0.00     0.158 A 
BRANCH  15  18
ATOM     18  O   UNL     1     -12.362   2.745   9.106  1.00  0.00    -0.504 OA
ATOM     19  H   UNL     1     -11.654   2.231   9.616  1.00  0.00     0.293 HD
ENDBRANCH  15  18
BRANCH  17  20
ATOM     20  O   UNL     1     -11.603   2.720   6.386  1.00  0.00    -0.504 OA
ATOM     21  H   UNL     1     -11.808   1.833   6.831  1.00  0.00     0.293 HD
ENDBRANCH  17  20
ENDBRANCH   1  12
BRANCH   2  22
ATOM     22  O   UNL     1      -8.824   7.285   6.648  1.00  0.00    -0.502 OA
ATOM     23  H   UNL     1      -8.795   6.808   7.541  1.00  0.00     0.293 HD
ENDBRANCH   2  22
BRANCH   6  24
ATOM     24  O   UNL     1      -9.481  12.125   4.526  1.00  0.00    -0.507 OA
ATOM     25  H   UNL     1      -9.401  13.130   4.558  1.00  0.00     0.293 HD
ENDBRANCH   6  24
BRANCH   8  26
ATOM     26  O   UNL     1     -14.236  12.112   3.857  1.00  0.00    -0.508 OA
ATOM     27  H   UNL     1     -14.313  12.429   2.897  1.00  0.00     0.293 HD
ENDBRANCH   8  26
TORSDOF 6
ENDMDL
MODEL 7
REMARK VINA RESULT:    -4.777      4.910      7.005
REMARK INTER + INTRA:          -6.085
REMARK INTER:                  -6.504
REMARK INTRA:                   0.419
REMARK UNBOUND:                -0.330
REMARK SMILES O=c1c(O)c(-c2ccc(O)c(O)c2)oc2cc(O)cc(O)c12
REMARK SMILES IDX 5 1 3 2 2 3 1 4 22 5 20 6 19 7 17 8 16 9 15 10 14 11 6 12
REMARK SMILES IDX 7 13 8 14 9 15 13 16 11 17 10 18 12 20 4 22 21 24 18 26
REMARK H PARENT 10 19 12 21 4 23 21 25 18 27
REMARK Flexibility Score: inf
ROOT
ATOM      1  C   UNL     1     -13.138   7.432   6.589  1.00  0.00     0.180 A 
ATOM      2  C   UNL     1     -13.323   8.074   7.825  1.00  0.00     0.208 A 
ATOM      3  C   UNL     1     -13.802   9.394   7.841  1.00  0.00     0.238 A 
ATOM      4  O   UNL     1     -13.913   9.983   8.948  1.00  0.00    -0.285 OA
ATOM      5  C   UNL     1     -14.106  10.049   6.624  1.00  0.00     0.111 A 
ATOM      6  C   UNL     1     -14.636  11.371   6.524  1.00  0.00     0.134 A 
ATOM      7  C   UNL     1     -14.776  11.965   5.264  1.00  0.00     0.093 A 
ATOM      8  C   UNL     1     -14.466  11.262   4.097  1.00  0.00     0.123 A 
ATOM      9  C   UNL     1     -14.006   9.950   4.181  1.00  0.00     0.094 A 
ATOM     10  C   UNL     1     -13.821   9.342   5.425  1.00  0.00     0.146 A 
ATOM     11  O   UNL     1     -13.370   8.094   5.461  1.00  0.00    -0.452 OA
ENDROOT
BRANCH   1  12
ATOM     12  C   UNL     1     -12.660   6.034   6.491  1.00  0.00     0.025 A 
ATOM     13  C   UNL     1     -12.282   5.518   5.241  1.00  0.00     0.016 A 
ATOM     14  C   UNL     1     -11.848   4.195   5.122  1.00  0.00     0.051 A 
ATOM     15  C   UNL     1     -11.798   3.364   6.246  1.00  0.00     0.157 A 
ATOM     16  C   UNL     1     -12.629   5.190   7.617  1.00  0.00     0.062 A 
ATOM     17  C   UNL     1     -12.194   3.862   7.498  1.00  0.00     0.158 A 
BRANCH  15  18
ATOM     18  O   UNL     1     -11.358   2.050   6.098  1.00  0.00    -0.504 OA
ATOM     19  H   UNL     1     -10.902   1.726   5.254  1.00  0.00     0.293 HD
ENDBRANCH  15  18
BRANCH  17  20
ATOM     20  O   UNL     1     -12.161   3.035   8.621  1.00  0.00    -0.504 OA
ATOM     21  H   UNL     1     -11.549   2.229   8.668  1.00  0.00     0.293 HD
ENDBRANCH  17  20
ENDBRANCH   1  12
BRANCH   2  22
ATOM     22  O   UNL     1     -12.995   7.418   9.014  1.00  0.00    -0.502 OA
ATOM     23  H   UNL     1     -13.491   7.584   9.882  1.00  0.00     0.293 HD
ENDBRANCH   2  22
BRANCH   6  24
ATOM     24  O   UNL     1     -15.062  12.125   7.621  1.00  0.00    -0.507 OA
ATOM     25  H   UNL     1     -14.505  12.311   8.441  1.00  0.00     0.293 HD
ENDBRANCH   6  24
BRANCH   8  26
ATOM     26  O   UNL     1     -14.624  11.856   2.846  1.00  0.00    -0.508 OA
ATOM     27  H   UNL     1     -15.512  12.244   2.551  1.00  0.00     0.293 HD
ENDBRANCH   8  26
TORSDOF 6
ENDMDL
MODEL 8
REMARK VINA RESULT:    -4.741      2.316      6.657
REMARK INTER + INTRA:          -6.041
REMARK INTER:                  -5.875
REMARK INTRA:                  -0.167
REMARK UNBOUND:                -0.330
REMARK SMILES O=c1c(O)c(-c2ccc(O)c(O)c2)oc2cc(O)cc(O)c12
REMARK SMILES IDX 5 1 3 2 2 3 1 4 22 5 20 6 19 7 17 8 16 9 15 10 14 11 6 12
REMARK SMILES IDX 7 13 8 14 9 15 13 16 11 17 10 18 12 20 4 22 21 24 18 26
REMARK H PARENT 10 19 12 21 4 23 21 25 18 27
REMARK Flexibility Score: inf
ROOT
ATOM      1  C   UNL     1     -11.846   7.155   6.255  1.00  0.00     0.180 A 
ATOM      2  C   UNL     1     -13.104   7.717   6.530  1.00  0.00     0.208 A 
ATOM      3  C   UNL     1     -13.230   9.116   6.577  1.00  0.00     0.238 A 
ATOM      4  O   UNL     1     -14.347   9.611   6.877  1.00  0.00    -0.285 OA
ATOM      5  C   UNL     1     -12.101   9.933   6.332  1.00  0.00     0.111 A 
ATOM      6  C   UNL     1     -12.122  11.361   6.314  1.00  0.00     0.134 A 
ATOM      7  C   UNL     1     -10.920  12.067   6.191  1.00  0.00     0.093 A 
ATOM      8  C   UNL     1      -9.704  11.399   6.020  1.00  0.00     0.123 A 
ATOM      9  C   UNL     1      -9.681  10.007   5.976  1.00  0.00     0.094 A 
ATOM     10  C   UNL     1     -10.860   9.273   6.132  1.00  0.00     0.146 A 
ATOM     11  O   UNL     1     -10.792   7.947   6.095  1.00  0.00    -0.452 OA
ENDROOT
BRANCH   1  12
ATOM     12  C   UNL     1     -11.639   5.692   6.165  1.00  0.00     0.025 A 
ATOM     13  C   UNL     1     -11.769   4.902   7.318  1.00  0.00     0.016 A 
ATOM     14  C   UNL     1     -11.557   3.523   7.259  1.00  0.00     0.051 A 
ATOM     15  C   UNL     1     -11.199   2.913   6.053  1.00  0.00     0.157 A 
ATOM     16  C   UNL     1     -11.257   5.081   4.956  1.00  0.00     0.062 A 
ATOM     17  C   UNL     1     -11.043   3.695   4.897  1.00  0.00     0.158 A 
BRANCH  15  18
ATOM     18  O   UNL     1     -10.997   1.534   6.024  1.00  0.00    -0.504 OA
ATOM     19  H   UNL     1     -11.209   0.942   6.817  1.00  0.00     0.293 HD
ENDBRANCH  15  18
BRANCH  17  20
ATOM     20  O   UNL     1     -10.672   3.097   3.693  1.00  0.00    -0.504 OA
ATOM     21  H   UNL     1     -10.215   2.193   3.668  1.00  0.00     0.293 HD
ENDBRANCH  17  20
ENDBRANCH   1  12
BRANCH   2  22
ATOM     22  O   UNL     1     -14.201   6.892   6.790  1.00  0.00    -0.502 OA
ATOM     23  H   UNL     1     -14.116   5.886   6.879  1.00  0.00     0.293 HD
ENDBRANCH   2  22
BRANCH   6  24
ATOM     24  O   UNL     1     -13.291  12.124   6.386  1.00  0.00    -0.507 OA
ATOM     25  H   UNL     1     -14.210  11.794   6.132  1.00  0.00     0.293 HD
ENDBRANCH   6  24
BRANCH   8  26
ATOM     26  O   UNL     1      -8.515  12.111   5.883  1.00  0.00    -0.508 OA
ATOM     27  H   UNL     1      -7.704  11.905   6.455  1.00  0.00     0.293 HD
ENDBRANCH   8  26
TORSDOF 6
ENDMDL
MODEL 9
REMARK VINA RESULT:    -4.490     17.860     19.843
REMARK INTER + INTRA:          -5.739
REMARK INTER:                  -5.942
REMARK INTRA:                   0.203
REMARK UNBOUND:                -0.330
REMARK SMILES O=c1c(O)c(-c2ccc(O)c(O)c2)oc2cc(O)cc(O)c12
REMARK SMILES IDX 5 1 3 2 2 3 1 4 22 5 20 6 19 7 17 8 16 9 15 10 14 11 6 12
REMARK SMILES IDX 7 13 8 14 9 15 13 16 11 17 10 18 12 20 4 22 21 24 18 26
REMARK H PARENT 10 19 12 21 4 23 21 25 18 27
REMARK Flexibility Score: inf
ROOT
ATOM      1  C   UNL     1     -11.998  -2.155  -9.625  1.00  0.00     0.180 A 
ATOM      2  C   UNL     1     -10.629  -2.200  -9.939  1.00  0.00     0.208 A 
ATOM      3  C   UNL     1      -9.940  -3.416  -9.806  1.00  0.00     0.238 A 
ATOM      4  O   UNL     1      -8.703  -3.438 -10.036  1.00  0.00    -0.285 OA
ATOM      5  C   UNL     1     -10.631  -4.575  -9.378  1.00  0.00     0.111 A 
ATOM      6  C   UNL     1     -10.043  -5.869  -9.248  1.00  0.00     0.134 A 
ATOM      7  C   UNL     1     -10.789  -6.914  -8.691  1.00  0.00     0.093 A 
ATOM      8  C   UNL     1     -12.124  -6.729  -8.320  1.00  0.00     0.123 A 
ATOM      9  C   UNL     1     -12.726  -5.486  -8.500  1.00  0.00     0.094 A 
ATOM     10  C   UNL     1     -11.996  -4.414  -9.019  1.00  0.00     0.146 A 
ATOM     11  O   UNL     1     -12.604  -3.242  -9.164  1.00  0.00    -0.452 OA
ENDROOT
BRANCH   1  12
ATOM     12  C   UNL     1     -12.798  -0.916  -9.763  1.00  0.00     0.025 A 
ATOM     13  C   UNL     1     -14.110  -0.991 -10.255  1.00  0.00     0.016 A 
ATOM     14  C   UNL     1     -14.875   0.167 -10.413  1.00  0.00     0.051 A 
ATOM     15  C   UNL     1     -14.337   1.418 -10.095  1.00  0.00     0.157 A 
ATOM     16  C   UNL     1     -12.251   0.345  -9.464  1.00  0.00     0.062 A 
ATOM     17  C   UNL     1     -13.018   1.509  -9.623  1.00  0.00     0.158 A 
BRANCH  15  18
ATOM     18  O   UNL     1     -15.125   2.557 -10.260  1.00  0.00    -0.504 OA
ATOM     19  H   UNL     1     -15.228   3.015 -11.157  1.00  0.00     0.293 HD
ENDBRANCH  15  18
BRANCH  17  20
ATOM     20  O   UNL     1     -12.470   2.755  -9.318  1.00  0.00    -0.504 OA
ATOM     21  H   UNL     1     -12.467   3.116  -8.372  1.00  0.00     0.293 HD
ENDBRANCH  17  20
ENDBRANCH   1  12
BRANCH   2  22
ATOM     22  O   UNL     1      -9.961  -1.040 -10.338  1.00  0.00    -0.502 OA
ATOM     23  H   UNL     1     -10.348  -0.114 -10.199  1.00  0.00     0.293 HD
ENDBRANCH   2  22
BRANCH   6  24
ATOM     24  O   UNL     1      -8.748  -6.183  -9.671  1.00  0.00    -0.507 OA
ATOM     25  H   UNL     1      -8.133  -5.549 -10.160  1.00  0.00     0.293 HD
ENDBRANCH   6  24
BRANCH   8  26
ATOM     26  O   UNL     1     -12.864  -7.780  -7.782  1.00  0.00    -0.508 OA
ATOM     27  H   UNL     1     -12.502  -8.352  -7.029  1.00  0.00     0.293 HD
ENDBRANCH   8  26
TORSDOF 6
ENDMDL
