MODEL 1
REMARK VINA RESULT:    -3.392      0.000      0.000
REMARK INTER + INTRA:          -7.610
REMARK INTER:                  -5.772
REMARK INTRA:                  -1.838
REMARK UNBOUND:                -1.838
REMARK SMILES CCCCCCCCCCCCCC(=O)[O-]
REMARK SMILES IDX 8 1 9 2 10 3 11 4 12 5 13 6 14 7 15 8 16 9 7 10 6 11 5 12
REMARK SMILES IDX 4 13 3 14 2 15 1 16
REMARK H PARENT
REMARK Flexibility Score: inf
ROOT
ATOM      1  C   UNL     1     -96.059 145.395 241.318  1.00  0.00     0.000 C 
ENDROOT
BRANCH   1   2
ATOM      2  C   UNL     1     -95.849 146.816 241.856  1.00  0.00     0.000 C 
BRANCH   2   3
ATOM      3  C   UNL     1     -96.701 147.830 241.079  1.00  0.00     0.000 C 
BRANCH   3   4
ATOM      4  C   UNL     1     -96.282 149.284 241.343  1.00  0.00     0.000 C 
BRANCH   4   5
ATOM      5  C   UNL     1     -97.473 150.182 241.725  1.00  0.00     0.006 C 
BRANCH   5   6
ATOM      6  C   UNL     1     -98.579 149.400 242.445  1.00  0.00     0.053 C 
BRANCH   6   7
ATOM      7  C   UNL     1     -98.323 149.296 243.917  1.00  0.00     0.041 C 
ATOM      8  O   UNL     1     -98.011 148.189 244.430  1.00  0.00    -0.550 OA
ATOM      9  O   UNL     1     -98.396 150.428 244.720  1.00  0.00    -0.550 OA
ENDBRANCH   6   7
ENDBRANCH   5   6
ENDBRANCH   4   5
ENDBRANCH   3   4
ENDBRANCH   2   3
ENDBRANCH   1   2
BRANCH   1  10
ATOM     10  C   UNL     1     -95.143 145.116 240.121  1.00  0.00     0.000 C 
BRANCH  10  11
ATOM     11  C   UNL     1     -93.725 145.645 240.379  1.00  0.00    -0.000 C 
BRANCH  11  12
ATOM     12  C   UNL     1     -93.169 146.465 239.201  1.00  0.00    -0.000 C 
BRANCH  12  13
ATOM     13  C   UNL     1     -93.405 147.986 239.293  1.00  0.00    -0.000 C 
BRANCH  13  14
ATOM     14  C   UNL     1     -94.411 148.554 238.276  1.00  0.00    -0.000 C 
BRANCH  14  15
ATOM     15  C   UNL     1     -94.917 147.496 237.285  1.00  0.00    -0.003 C 
ATOM     16  C   UNL     1     -96.428 147.318 237.396  1.00  0.00     0.004 C 
ENDBRANCH  14  15
ENDBRANCH  13  14
ENDBRANCH  12  13
ENDBRANCH  11  12
ENDBRANCH  10  11
ENDBRANCH   1  10
TORSDOF 12
ENDMDL
MODEL 2
REMARK VINA RESULT:    -3.388      3.909      5.007
REMARK INTER + INTRA:          -7.602
REMARK INTER:                  -6.359
REMARK INTRA:                  -1.243
REMARK UNBOUND:                -1.838
REMARK SMILES CCCCCCCCCCCCCC(=O)[O-]
REMARK SMILES IDX 8 1 9 2 10 3 11 4 12 5 13 6 14 7 15 8 16 9 7 10 6 11 5 12
REMARK SMILES IDX 4 13 3 14 2 15 1 16
REMARK H PARENT
REMARK Flexibility Score: inf
ROOT
ATOM      1  C   UNL     1     -93.651 145.845 240.082  1.00  0.00     0.000 C 
ENDROOT
BRANCH   1   2
ATOM      2  C   UNL     1     -94.550 146.743 240.941  1.00  0.00     0.000 C 
BRANCH   2   3
ATOM      3  C   UNL     1     -94.299 148.226 240.636  1.00  0.00     0.000 C 
BRANCH   3   4
ATOM      4  C   UNL     1     -95.563 148.956 240.154  1.00  0.00     0.000 C 
BRANCH   4   5
ATOM      5  C   UNL     1     -96.003 148.508 238.748  1.00  0.00     0.006 C 
BRANCH   5   6
ATOM      6  C   UNL     1     -95.034 148.987 237.659  1.00  0.00     0.053 C 
BRANCH   6   7
ATOM      7  C   UNL     1     -95.750 149.356 236.396  1.00  0.00     0.041 C 
ATOM      8  O   UNL     1     -96.672 148.621 235.952  1.00  0.00    -0.550 OA
ATOM      9  O   UNL     1     -95.423 150.528 235.725  1.00  0.00    -0.550 OA
ENDBRANCH   6   7
ENDBRANCH   5   6
ENDBRANCH   4   5
ENDBRANCH   3   4
ENDBRANCH   2   3
ENDBRANCH   1   2
BRANCH   1  10
ATOM     10  C   UNL     1     -92.754 146.681 239.163  1.00  0.00     0.000 C 
BRANCH  10  11
ATOM     11  C   UNL     1     -91.684 145.806 238.493  1.00  0.00    -0.000 C 
BRANCH  11  12
ATOM     12  C   UNL     1     -91.902 145.652 236.977  1.00  0.00    -0.000 C 
BRANCH  12  13
ATOM     13  C   UNL     1     -93.317 146.011 236.479  1.00  0.00    -0.000 C 
BRANCH  13  14
ATOM     14  C   UNL     1     -93.365 146.775 235.144  1.00  0.00    -0.000 C 
BRANCH  14  15
ATOM     15  C   UNL     1     -92.288 146.311 234.153  1.00  0.00    -0.003 C 
ATOM     16  C   UNL     1     -91.622 147.502 233.469  1.00  0.00     0.004 C 
ENDBRANCH  14  15
ENDBRANCH  13  14
ENDBRANCH  12  13
ENDBRANCH  11  12
ENDBRANCH  10  11
ENDBRANCH   1  10
TORSDOF 12
ENDMDL
MODEL 3
REMARK VINA RESULT:    -3.361      1.516      2.646
REMARK INTER + INTRA:          -7.556
REMARK INTER:                  -6.172
REMARK INTRA:                  -1.384
REMARK UNBOUND:                -1.838
REMARK SMILES CCCCCCCCCCCCCC(=O)[O-]
REMARK SMILES IDX 8 1 9 2 10 3 11 4 12 5 13 6 14 7 15 8 16 9 7 10 6 11 5 12
REMARK SMILES IDX 4 13 3 14 2 15 1 16
REMARK H PARENT
REMARK Flexibility Score: inf
ROOT
ATOM      1  C   UNL     1     -93.082 146.923 239.111  1.00  0.00     0.000 C 
ENDROOT
BRANCH   1   2
ATOM      2  C   UNL     1     -93.819 146.140 240.204  1.00  0.00     0.000 C 
BRANCH   2   3
ATOM      3  C   UNL     1     -94.579 147.088 241.143  1.00  0.00     0.000 C 
BRANCH   3   4
ATOM      4  C   UNL     1     -94.458 148.562 240.725  1.00  0.00     0.000 C 
BRANCH   4   5
ATOM      5  C   UNL     1     -95.713 149.382 241.079  1.00  0.00     0.006 C 
BRANCH   5   6
ATOM      6  C   UNL     1     -96.907 148.486 241.436  1.00  0.00     0.053 C 
BRANCH   6   7
ATOM      7  C   UNL     1     -97.706 149.045 242.572  1.00  0.00     0.041 C 
ATOM      8  O   UNL     1     -97.676 148.490 243.702  1.00  0.00    -0.550 OA
ATOM      9  O   UNL     1     -98.459 150.199 242.394  1.00  0.00    -0.550 OA
ENDBRANCH   6   7
ENDBRANCH   5   6
ENDBRANCH   4   5
ENDBRANCH   3   4
ENDBRANCH   2   3
ENDBRANCH   1   2
BRANCH   1  10
ATOM     10  C   UNL     1     -92.187 145.999 238.278  1.00  0.00     0.000 C 
BRANCH  10  11
ATOM     11  C   UNL     1     -92.652 145.954 236.815  1.00  0.00    -0.000 C 
BRANCH  11  12
ATOM     12  C   UNL     1     -94.103 146.435 236.634  1.00  0.00    -0.000 C 
BRANCH  12  13
ATOM     13  C   UNL     1     -94.342 147.348 235.414  1.00  0.00    -0.000 C 
BRANCH  13  14
ATOM     14  C   UNL     1     -95.118 148.644 235.710  1.00  0.00    -0.000 C 
BRANCH  14  15
ATOM     15  C   UNL     1     -95.375 148.855 237.209  1.00  0.00    -0.003 C 
ATOM     16  C   UNL     1     -96.862 148.748 237.531  1.00  0.00     0.004 C 
ENDBRANCH  14  15
ENDBRANCH  13  14
ENDBRANCH  12  13
ENDBRANCH  11  12
ENDBRANCH  10  11
ENDBRANCH   1  10
TORSDOF 12
ENDMDL
MODEL 4
REMARK VINA RESULT:    -3.270      2.376      3.347
REMARK INTER + INTRA:          -7.402
REMARK INTER:                  -6.560
REMARK INTRA:                  -0.842
REMARK UNBOUND:                -1.838
REMARK SMILES CCCCCCCCCCCCCC(=O)[O-]
REMARK SMILES IDX 8 1 9 2 10 3 11 4 12 5 13 6 14 7 15 8 16 9 7 10 6 11 5 12
REMARK SMILES IDX 4 13 3 14 2 15 1 16
REMARK H PARENT
REMARK Flexibility Score: inf
ROOT
ATOM      1  C   UNL     1     -94.646 148.473 238.187  1.00  0.00     0.000 C 
ENDROOT
BRANCH   1   2
ATOM      2  C   UNL     1     -93.673 148.221 239.345  1.00  0.00     0.000 C 
BRANCH   2   3
ATOM      3  C   UNL     1     -94.422 148.123 240.681  1.00  0.00     0.000 C 
BRANCH   3   4
ATOM      4  C   UNL     1     -95.517 149.192 240.829  1.00  0.00     0.000 C 
BRANCH   4   5
ATOM      5  C   UNL     1     -96.752 148.672 241.587  1.00  0.00     0.006 C 
BRANCH   5   6
ATOM      6  C   UNL     1     -97.536 149.806 242.261  1.00  0.00     0.053 C 
BRANCH   6   7
ATOM      7  C   UNL     1     -97.968 149.440 243.648  1.00  0.00     0.041 C 
ATOM      8  O   UNL     1     -97.811 148.264 244.071  1.00  0.00    -0.550 OA
ATOM      9  O   UNL     1     -98.516 150.404 244.485  1.00  0.00    -0.550 OA
ENDBRANCH   6   7
ENDBRANCH   5   6
ENDBRANCH   4   5
ENDBRANCH   3   4
ENDBRANCH   2   3
ENDBRANCH   1   2
BRANCH   1  10
ATOM     10  C   UNL     1     -94.392 147.500 237.030  1.00  0.00     0.000 C 
BRANCH  10  11
ATOM     11  C   UNL     1     -93.530 146.314 237.488  1.00  0.00    -0.000 C 
BRANCH  11  12
ATOM     12  C   UNL     1     -92.419 145.959 236.483  1.00  0.00    -0.000 C 
BRANCH  12  13
ATOM     13  C   UNL     1     -92.915 145.491 235.099  1.00  0.00    -0.000 C 
BRANCH  13  14
ATOM     14  C   UNL     1     -92.052 145.945 233.909  1.00  0.00    -0.000 C 
BRANCH  14  15
ATOM     15  C   UNL     1     -92.131 147.458 233.659  1.00  0.00    -0.003 C 
ATOM     16  C   UNL     1     -93.564 147.891 233.360  1.00  0.00     0.004 C 
ENDBRANCH  14  15
ENDBRANCH  13  14
ENDBRANCH  12  13
ENDBRANCH  11  12
ENDBRANCH  10  11
ENDBRANCH   1  10
TORSDOF 12
ENDMDL
MODEL 5
REMARK VINA RESULT:    -3.265      4.804      6.938
REMARK INTER + INTRA:          -7.392
REMARK INTER:                  -5.826
REMARK INTRA:                  -1.566
REMARK UNBOUND:                -1.838
REMARK SMILES CCCCCCCCCCCCCC(=O)[O-]
REMARK SMILES IDX 8 1 9 2 10 3 11 4 12 5 13 6 14 7 15 8 16 9 7 10 6 11 5 12
REMARK SMILES IDX 4 13 3 14 2 15 1 16
REMARK H PARENT
REMARK Flexibility Score: inf
ROOT
ATOM      1  C   UNL     1     -93.602 145.665 240.065  1.00  0.00     0.000 C 
ENDROOT
BRANCH   1   2
ATOM      2  C   UNL     1     -92.542 146.553 239.403  1.00  0.00     0.000 C 
BRANCH   2   3
ATOM      3  C   UNL     1     -92.045 145.931 238.090  1.00  0.00     0.000 C 
BRANCH   3   4
ATOM      4  C   UNL     1     -93.070 146.051 236.951  1.00  0.00     0.000 C 
BRANCH   4   5
ATOM      5  C   UNL     1     -92.422 145.939 235.558  1.00  0.00     0.006 C 
BRANCH   5   6
ATOM      6  C   UNL     1     -93.403 146.298 234.434  1.00  0.00     0.053 C 
BRANCH   6   7
ATOM      7  C   UNL     1     -92.986 147.537 233.703  1.00  0.00     0.041 C 
ATOM      8  O   UNL     1     -93.855 148.329 233.252  1.00  0.00    -0.550 OA
ATOM      9  O   UNL     1     -91.638 147.835 233.547  1.00  0.00    -0.550 OA
ENDBRANCH   6   7
ENDBRANCH   5   6
ENDBRANCH   4   5
ENDBRANCH   3   4
ENDBRANCH   2   3
ENDBRANCH   1   2
BRANCH   1  10
ATOM     10  C   UNL     1     -94.590 146.503 240.885  1.00  0.00     0.000 C 
BRANCH  10  11
ATOM     11  C   UNL     1     -94.253 147.999 240.791  1.00  0.00    -0.000 C 
BRANCH  11  12
ATOM     12  C   UNL     1     -95.394 148.831 240.179  1.00  0.00    -0.000 C 
BRANCH  12  13
ATOM     13  C   UNL     1     -95.790 148.441 238.740  1.00  0.00    -0.000 C 
BRANCH  13  14
ATOM     14  C   UNL     1     -94.880 149.005 237.636  1.00  0.00    -0.000 C 
BRANCH  14  15
ATOM     15  C   UNL     1     -95.582 149.097 236.274  1.00  0.00    -0.003 C 
ATOM     16  C   UNL     1     -96.377 147.828 235.979  1.00  0.00     0.004 C 
ENDBRANCH  14  15
ENDBRANCH  13  14
ENDBRANCH  12  13
ENDBRANCH  11  12
ENDBRANCH  10  11
ENDBRANCH   1  10
TORSDOF 12
ENDMDL
MODEL 6
REMARK VINA RESULT:    -3.250      1.993      3.265
REMARK INTER + INTRA:          -7.368
REMARK INTER:                  -6.066
REMARK INTRA:                  -1.303
REMARK UNBOUND:                -1.838
REMARK SMILES CCCCCCCCCCCCCC(=O)[O-]
REMARK SMILES IDX 8 1 9 2 10 3 11 4 12 5 13 6 14 7 15 8 16 9 7 10 6 11 5 12
REMARK SMILES IDX 4 13 3 14 2 15 1 16
REMARK H PARENT
REMARK Flexibility Score: inf
ROOT
ATOM      1  C   UNL     1     -93.013 146.925 239.145  1.00  0.00     0.000 C 
ENDROOT
BRANCH   1   2
ATOM      2  C   UNL     1     -93.867 146.068 240.087  1.00  0.00     0.000 C 
BRANCH   2   3
ATOM      3  C   UNL     1     -94.568 146.939 241.140  1.00  0.00     0.000 C 
BRANCH   3   4
ATOM      4  C   UNL     1     -94.729 148.400 240.690  1.00  0.00     0.000 C 
BRANCH   4   5
ATOM      5  C   UNL     1     -96.204 148.806 240.518  1.00  0.00     0.006 C 
BRANCH   5   6
ATOM      6  C   UNL     1     -96.621 149.903 241.508  1.00  0.00     0.053 C 
BRANCH   6   7
ATOM      7  C   UNL     1     -97.527 149.376 242.578  1.00  0.00     0.041 C 
ATOM      8  O   UNL     1     -98.416 150.116 243.076  1.00  0.00    -0.550 OA
ATOM      9  O   UNL     1     -97.412 148.058 243.003  1.00  0.00    -0.550 OA
ENDBRANCH   6   7
ENDBRANCH   5   6
ENDBRANCH   4   5
ENDBRANCH   3   4
ENDBRANCH   2   3
ENDBRANCH   1   2
BRANCH   1  10
ATOM     10  C   UNL     1     -92.978 146.327 237.734  1.00  0.00     0.000 C 
BRANCH  10  11
ATOM     11  C   UNL     1     -94.361 146.401 237.070  1.00  0.00    -0.000 C 
BRANCH  11  12
ATOM     12  C   UNL     1     -94.925 147.833 237.022  1.00  0.00    -0.000 C 
BRANCH  12  13
ATOM     13  C   UNL     1     -94.926 148.489 235.626  1.00  0.00    -0.000 C 
BRANCH  13  14
ATOM     14  C   UNL     1     -94.655 147.530 234.454  1.00  0.00    -0.000 C 
BRANCH  14  15
ATOM     15  C   UNL     1     -93.406 147.914 233.647  1.00  0.00    -0.003 C 
ATOM     16  C   UNL     1     -92.210 147.052 234.043  1.00  0.00     0.004 C 
ENDBRANCH  14  15
ENDBRANCH  13  14
ENDBRANCH  12  13
ENDBRANCH  11  12
ENDBRANCH  10  11
ENDBRANCH   1  10
TORSDOF 12
ENDMDL
MODEL 7
REMARK VINA RESULT:    -3.239      3.515      5.661
REMARK INTER + INTRA:          -7.349
REMARK INTER:                  -5.578
REMARK INTRA:                  -1.771
REMARK UNBOUND:                -1.838
REMARK SMILES CCCCCCCCCCCCCC(=O)[O-]
REMARK SMILES IDX 8 1 9 2 10 3 11 4 12 5 13 6 14 7 15 8 16 9 7 10 6 11 5 12
REMARK SMILES IDX 4 13 3 14 2 15 1 16
REMARK H PARENT
REMARK Flexibility Score: inf
ROOT
ATOM      1  C   UNL     1     -97.177 147.493 241.827  1.00  0.00     0.000 C 
ENDROOT
BRANCH   1   2
ATOM      2  C   UNL     1     -96.016 146.550 242.166  1.00  0.00     0.000 C 
BRANCH   2   3
ATOM      3  C   UNL     1     -94.907 146.641 241.108  1.00  0.00     0.000 C 
BRANCH   3   4
ATOM      4  C   UNL     1     -94.581 148.090 240.713  1.00  0.00     0.000 C 
BRANCH   4   5
ATOM      5  C   UNL     1     -93.891 148.187 239.340  1.00  0.00     0.006 C 
BRANCH   5   6
ATOM      6  C   UNL     1     -94.025 146.889 238.533  1.00  0.00     0.053 C 
BRANCH   6   7
ATOM      7  C   UNL     1     -92.692 146.278 238.229  1.00  0.00     0.041 C 
ATOM      8  O   UNL     1     -91.869 146.060 239.157  1.00  0.00    -0.550 OA
ATOM      9  O   UNL     1     -92.369 145.918 236.927  1.00  0.00    -0.550 OA
ENDBRANCH   6   7
ENDBRANCH   5   6
ENDBRANCH   4   5
ENDBRANCH   3   4
ENDBRANCH   2   3
ENDBRANCH   1   2
BRANCH   1  10
ATOM     10  C   UNL     1     -97.559 148.354 243.036  1.00  0.00     0.000 C 
BRANCH  10  11
ATOM     11  C   UNL     1     -97.998 149.758 242.594  1.00  0.00    -0.000 C 
BRANCH  11  12
ATOM     12  C   UNL     1     -97.647 150.061 241.126  1.00  0.00    -0.000 C 
BRANCH  12  13
ATOM     13  C   UNL     1     -98.851 150.389 240.220  1.00  0.00    -0.000 C 
BRANCH  13  14
ATOM     14  C   UNL     1     -98.802 149.762 238.816  1.00  0.00    -0.000 C 
BRANCH  14  15
ATOM     15  C   UNL     1     -97.486 149.021 238.540  1.00  0.00    -0.003 C 
ATOM     16  C   UNL     1     -97.739 147.550 238.224  1.00  0.00     0.004 C 
ENDBRANCH  14  15
ENDBRANCH  13  14
ENDBRANCH  12  13
ENDBRANCH  11  12
ENDBRANCH  10  11
ENDBRANCH   1  10
TORSDOF 12
ENDMDL
MODEL 8
REMARK VINA RESULT:    -3.225      1.215      2.141
REMARK INTER + INTRA:          -7.325
REMARK INTER:                  -5.475
REMARK INTRA:                  -1.850
REMARK UNBOUND:                -1.838
REMARK SMILES CCCCCCCCCCCCCC(=O)[O-]
REMARK SMILES IDX 8 1 9 2 10 3 11 4 12 5 13 6 14 7 15 8 16 9 7 10 6 11 5 12
REMARK SMILES IDX 4 13 3 14 2 15 1 16
REMARK H PARENT
REMARK Flexibility Score: inf
ROOT
ATOM      1  C   UNL     1     -94.961 147.283 241.016  1.00  0.00     0.000 C 
ENDROOT
BRANCH   1   2
ATOM      2  C   UNL     1     -96.215 148.003 241.525  1.00  0.00     0.000 C 
BRANCH   2   3
ATOM      3  C   UNL     1     -96.128 149.513 241.262  1.00  0.00     0.000 C 
BRANCH   3   4
ATOM      4  C   UNL     1     -97.505 150.194 241.243  1.00  0.00     0.000 C 
BRANCH   4   5
ATOM      5  C   UNL     1     -98.634 149.257 241.711  1.00  0.00     0.006 C 
BRANCH   5   6
ATOM      6  C   UNL     1     -99.358 149.799 242.951  1.00  0.00     0.053 C 
BRANCH   6   7
ATOM      7  C   UNL     1     -98.548 149.617 244.197  1.00  0.00     0.041 C 
ATOM      8  O   UNL     1     -98.427 150.563 245.019  1.00  0.00    -0.550 OA
ATOM      9  O   UNL     1     -97.952 148.391 244.468  1.00  0.00    -0.550 OA
ENDBRANCH   6   7
ENDBRANCH   5   6
ENDBRANCH   4   5
ENDBRANCH   3   4
ENDBRANCH   2   3
ENDBRANCH   1   2
BRANCH   1  10
ATOM     10  C   UNL     1     -94.033 148.250 240.273  1.00  0.00     0.000 C 
BRANCH  10  11
ATOM     11  C   UNL     1     -93.548 147.641 238.949  1.00  0.00    -0.000 C 
BRANCH  11  12
ATOM     12  C   UNL     1     -94.670 147.516 237.902  1.00  0.00    -0.000 C 
BRANCH  12  13
ATOM     13  C   UNL     1     -95.331 148.847 237.491  1.00  0.00    -0.000 C 
BRANCH  13  14
ATOM     14  C   UNL     1     -96.863 148.888 237.637  1.00  0.00    -0.000 C 
BRANCH  14  15
ATOM     15  C   UNL     1     -97.447 147.564 238.149  1.00  0.00    -0.003 C 
ATOM     16  C   UNL     1     -98.277 146.875 237.069  1.00  0.00     0.004 C 
ENDBRANCH  14  15
ENDBRANCH  13  14
ENDBRANCH  12  13
ENDBRANCH  11  12
ENDBRANCH  10  11
ENDBRANCH   1  10
TORSDOF 12
ENDMDL
MODEL 9
REMARK VINA RESULT:    -3.201      4.644      7.169
REMARK INTER + INTRA:          -7.285
REMARK INTER:                  -5.741
REMARK INTRA:                  -1.544
REMARK UNBOUND:                -1.838
REMARK SMILES CCCCCCCCCCCCCC(=O)[O-]
REMARK SMILES IDX 8 1 9 2 10 3 11 4 12 5 13 6 14 7 15 8 16 9 7 10 6 11 5 12
REMARK SMILES IDX 4 13 3 14 2 15 1 16
REMARK H PARENT
REMARK Flexibility Score: inf
ROOT
ATOM      1  C   UNL     1     -93.454 146.466 238.976  1.00  0.00     0.000 C 
ENDROOT
BRANCH   1   2
ATOM      2  C   UNL     1     -92.034 146.011 238.618  1.00  0.00     0.000 C 
BRANCH   2   3
ATOM      3  C   UNL     1     -91.938 145.622 237.135  1.00  0.00     0.000 C 
BRANCH   3   4
ATOM      4  C   UNL     1     -93.264 145.819 236.383  1.00  0.00     0.000 C 
BRANCH   4   5
ATOM      5  C   UNL     1     -93.124 146.767 235.177  1.00  0.00     0.006 C 
BRANCH   5   6
ATOM      6  C   UNL     1     -94.450 147.456 234.828  1.00  0.00     0.053 C 
BRANCH   6   7
ATOM      7  C   UNL     1     -94.360 148.226 233.547  1.00  0.00     0.041 C 
ATOM      8  O   UNL     1     -95.007 149.297 233.404  1.00  0.00    -0.550 OA
ATOM      9  O   UNL     1     -93.535 147.780 232.522  1.00  0.00    -0.550 OA
ENDBRANCH   6   7
ENDBRANCH   5   6
ENDBRANCH   4   5
ENDBRANCH   3   4
ENDBRANCH   2   3
ENDBRANCH   1   2
BRANCH   1  10
ATOM     10  C   UNL     1     -93.490 147.966 239.290  1.00  0.00     0.000 C 
BRANCH  10  11
ATOM     11  C   UNL     1     -94.578 148.674 238.469  1.00  0.00    -0.000 C 
BRANCH  11  12
ATOM     12  C   UNL     1     -95.844 147.818 238.290  1.00  0.00    -0.000 C 
BRANCH  12  13
ATOM     13  C   UNL     1     -97.056 148.257 239.137  1.00  0.00    -0.000 C 
BRANCH  13  14
ATOM     14  C   UNL     1     -97.176 147.572 240.510  1.00  0.00    -0.000 C 
BRANCH  14  15
ATOM     15  C   UNL     1     -96.450 148.339 241.624  1.00  0.00    -0.003 C 
ATOM     16  C   UNL     1     -96.569 149.847 241.419  1.00  0.00     0.004 C 
ENDBRANCH  14  15
ENDBRANCH  13  14
ENDBRANCH  12  13
ENDBRANCH  11  12
ENDBRANCH  10  11
ENDBRANCH   1  10
TORSDOF 12
ENDMDL
