MODEL 1
REMARK VINA RESULT:    -5.320      0.000      0.000
REMARK INTER + INTRA:         -12.179
REMARK INTER:                  -9.674
REMARK INTRA:                  -2.505
REMARK UNBOUND:                -2.505
REMARK SMILES CCCCCCCCCCCCCCCC(=O)[O-]
REMARK SMILES IDX 9 1 10 2 11 3 12 4 13 5 14 6 15 7 16 8 17 9 18 10 8 11 7 12
REMARK SMILES IDX 6 13 5 14 4 15 3 16 2 17 1 18
REMARK H PARENT
REMARK Flexibility Score: inf
ROOT
ATOM      1  C   UNL     1      21.490  -2.965 -36.505  1.00  0.00     0.000 C 
ENDROOT
BRANCH   1   2
ATOM      2  C   UNL     1      21.685  -4.483 -36.345  1.00  0.00     0.000 C 
BRANCH   2   3
ATOM      3  C   UNL     1      23.167  -4.859 -36.137  1.00  0.00     0.000 C 
BRANCH   3   4
ATOM      4  C   UNL     1      23.479  -6.332 -36.450  1.00  0.00     0.000 C 
BRANCH   4   5
ATOM      5  C   UNL     1      22.340  -7.038 -37.203  1.00  0.00     0.000 C 
BRANCH   5   6
ATOM      6  C   UNL     1      22.728  -8.461 -37.658  1.00  0.00     0.006 C 
BRANCH   6   7
ATOM      7  C   UNL     1      23.366  -8.504 -39.056  1.00  0.00     0.053 C 
BRANCH   7   8
ATOM      8  C   UNL     1      24.822  -8.843 -39.006  1.00  0.00     0.041 C 
ATOM      9  O   UNL     1      25.647  -8.024 -38.523  1.00  0.00    -0.550 OA
ATOM     10  O   UNL     1      25.266 -10.075 -39.470  1.00  0.00    -0.550 OA
ENDBRANCH   7   8
ENDBRANCH   6   7
ENDBRANCH   5   6
ENDBRANCH   4   5
ENDBRANCH   3   4
ENDBRANCH   2   3
ENDBRANCH   1   2
BRANCH   1  11
ATOM     11  C   UNL     1      20.920  -2.582 -37.880  1.00  0.00     0.000 C 
BRANCH  11  12
ATOM     12  C   UNL     1      20.520  -3.806 -38.717  1.00  0.00    -0.000 C 
BRANCH  12  13
ATOM     13  C   UNL     1      21.369  -3.897 -39.994  1.00  0.00    -0.000 C 
BRANCH  13  14
ATOM     14  C   UNL     1      22.347  -5.085 -39.979  1.00  0.00    -0.000 C 
BRANCH  14  15
ATOM     15  C   UNL     1      23.838  -4.703 -39.881  1.00  0.00    -0.000 C 
BRANCH  15  16
ATOM     16  C   UNL     1      24.113  -3.232 -39.528  1.00  0.00    -0.000 C 
BRANCH  16  17
ATOM     17  C   UNL     1      25.436  -3.036 -38.773  1.00  0.00    -0.003 C 
ATOM     18  C   UNL     1      26.028  -4.375 -38.345  1.00  0.00     0.004 C 
ENDBRANCH  16  17
ENDBRANCH  15  16
ENDBRANCH  14  15
ENDBRANCH  13  14
ENDBRANCH  12  13
ENDBRANCH  11  12
ENDBRANCH   1  11
TORSDOF 14
ENDMDL
MODEL 2
REMARK VINA RESULT:    -5.183      1.645      4.487
REMARK INTER + INTRA:         -11.930
REMARK INTER:                  -9.388
REMARK INTRA:                  -2.541
REMARK UNBOUND:                -2.505
REMARK SMILES CCCCCCCCCCCCCCCC(=O)[O-]
REMARK SMILES IDX 9 1 10 2 11 3 12 4 13 5 14 6 15 7 16 8 17 9 18 10 8 11 7 12
REMARK SMILES IDX 6 13 5 14 4 15 3 16 2 17 1 18
REMARK H PARENT
REMARK Flexibility Score: inf
ROOT
ATOM      1  C   UNL     1      20.671  -4.030 -38.578  1.00  0.00     0.000 C 
ENDROOT
BRANCH   1   2
ATOM      2  C   UNL     1      21.542  -3.815 -39.829  1.00  0.00     0.000 C 
BRANCH   2   3
ATOM      3  C   UNL     1      22.410  -5.050 -40.151  1.00  0.00     0.000 C 
BRANCH   3   4
ATOM      4  C   UNL     1      23.906  -4.844 -39.862  1.00  0.00     0.000 C 
BRANCH   4   5
ATOM      5  C   UNL     1      24.251  -3.391 -39.496  1.00  0.00     0.000 C 
BRANCH   5   6
ATOM      6  C   UNL     1      25.602  -3.273 -38.761  1.00  0.00     0.006 C 
BRANCH   6   7
ATOM      7  C   UNL     1      26.100  -4.605 -38.175  1.00  0.00     0.053 C 
BRANCH   7   8
ATOM      8  C   UNL     1      27.581  -4.616 -37.964  1.00  0.00     0.041 C 
ATOM      9  O   UNL     1      28.157  -5.662 -37.568  1.00  0.00    -0.550 OA
ATOM     10  O   UNL     1      28.329  -3.475 -38.229  1.00  0.00    -0.550 OA
ENDBRANCH   7   8
ENDBRANCH   6   7
ENDBRANCH   5   6
ENDBRANCH   4   5
ENDBRANCH   3   4
ENDBRANCH   2   3
ENDBRANCH   1   2
BRANCH   1  11
ATOM     11  C   UNL     1      21.321  -3.474 -37.301  1.00  0.00     0.000 C 
BRANCH  11  12
ATOM     12  C   UNL     1      21.619  -4.567 -36.264  1.00  0.00    -0.000 C 
BRANCH  12  13
ATOM     13  C   UNL     1      23.132  -4.807 -36.141  1.00  0.00    -0.000 C 
BRANCH  13  14
ATOM     14  C   UNL     1      23.530  -6.266 -36.426  1.00  0.00    -0.000 C 
BRANCH  14  15
ATOM     15  C   UNL     1      22.442  -7.120 -37.109  1.00  0.00    -0.000 C 
BRANCH  15  16
ATOM     16  C   UNL     1      22.958  -8.111 -38.166  1.00  0.00    -0.000 C 
BRANCH  16  17
ATOM     17  C   UNL     1      24.489  -8.231 -38.174  1.00  0.00    -0.003 C 
ATOM     18  C   UNL     1      24.979  -8.926 -39.441  1.00  0.00     0.004 C 
ENDBRANCH  16  17
ENDBRANCH  15  16
ENDBRANCH  14  15
ENDBRANCH  13  14
ENDBRANCH  12  13
ENDBRANCH  11  12
ENDBRANCH   1  11
TORSDOF 14
ENDMDL
MODEL 3
REMARK VINA RESULT:    -5.152      1.370      3.357
REMARK INTER + INTRA:         -11.874
REMARK INTER:                  -9.332
REMARK INTRA:                  -2.543
REMARK UNBOUND:                -2.505
REMARK SMILES CCCCCCCCCCCCCCCC(=O)[O-]
REMARK SMILES IDX 9 1 10 2 11 3 12 4 13 5 14 6 15 7 16 8 17 9 18 10 8 11 7 12
REMARK SMILES IDX 6 13 5 14 4 15 3 16 2 17 1 18
REMARK H PARENT
REMARK Flexibility Score: inf
ROOT
ATOM      1  C   UNL     1      25.567  -3.099 -38.776  1.00  0.00     0.000 C 
ENDROOT
BRANCH   1   2
ATOM      2  C   UNL     1      25.767  -4.198 -37.717  1.00  0.00     0.000 C 
BRANCH   2   3
ATOM      3  C   UNL     1      27.067  -4.997 -37.948  1.00  0.00     0.000 C 
BRANCH   3   4
ATOM      4  C   UNL     1      26.941  -6.492 -37.608  1.00  0.00     0.000 C 
BRANCH   4   5
ATOM      5  C   UNL     1      25.608  -6.840 -36.926  1.00  0.00     0.000 C 
BRANCH   5   6
ATOM      6  C   UNL     1      24.710  -7.731 -37.809  1.00  0.00     0.006 C 
BRANCH   6   7
ATOM      7  C   UNL     1      25.369  -8.141 -39.136  1.00  0.00     0.053 C 
BRANCH   7   8
ATOM      8  C   UNL     1      24.765  -9.384 -39.711  1.00  0.00     0.041 C 
ATOM      9  O   UNL     1      23.644  -9.339 -40.280  1.00  0.00    -0.550 OA
ATOM     10  O   UNL     1      25.454 -10.588 -39.639  1.00  0.00    -0.550 OA
ENDBRANCH   7   8
ENDBRANCH   6   7
ENDBRANCH   5   6
ENDBRANCH   4   5
ENDBRANCH   3   4
ENDBRANCH   2   3
ENDBRANCH   1   2
BRANCH   1  11
ATOM     11  C   UNL     1      24.265  -3.276 -39.574  1.00  0.00     0.000 C 
BRANCH  11  12
ATOM     12  C   UNL     1      23.945  -4.749 -39.866  1.00  0.00    -0.000 C 
BRANCH  12  13
ATOM     13  C   UNL     1      22.435  -4.954 -40.060  1.00  0.00    -0.000 C 
BRANCH  13  14
ATOM     14  C   UNL     1      21.839  -5.978 -39.079  1.00  0.00    -0.000 C 
BRANCH  14  15
ATOM     15  C   UNL     1      21.239  -5.378 -37.790  1.00  0.00    -0.000 C 
BRANCH  15  16
ATOM     16  C   UNL     1      22.258  -5.066 -36.681  1.00  0.00    -0.000 C 
BRANCH  16  17
ATOM     17  C   UNL     1      22.299  -3.576 -36.309  1.00  0.00    -0.003 C 
ATOM     18  C   UNL     1      21.346  -2.766 -37.183  1.00  0.00     0.004 C 
ENDBRANCH  16  17
ENDBRANCH  15  16
ENDBRANCH  14  15
ENDBRANCH  13  14
ENDBRANCH  12  13
ENDBRANCH  11  12
ENDBRANCH   1  11
TORSDOF 14
ENDMDL
MODEL 4
REMARK VINA RESULT:    -5.140      1.406      2.908
REMARK INTER + INTRA:         -11.852
REMARK INTER:                  -9.499
REMARK INTRA:                  -2.353
REMARK UNBOUND:                -2.505
REMARK SMILES CCCCCCCCCCCCCCCC(=O)[O-]
REMARK SMILES IDX 9 1 10 2 11 3 12 4 13 5 14 6 15 7 16 8 17 9 18 10 8 11 7 12
REMARK SMILES IDX 6 13 5 14 4 15 3 16 2 17 1 18
REMARK H PARENT
REMARK Flexibility Score: inf
ROOT
ATOM      1  C   UNL     1      23.252  -4.844 -36.242  1.00  0.00     0.000 C 
ENDROOT
BRANCH   1   2
ATOM      2  C   UNL     1      23.452  -6.366 -36.349  1.00  0.00     0.000 C 
BRANCH   2   3
ATOM      3  C   UNL     1      22.378  -7.033 -37.233  1.00  0.00     0.000 C 
BRANCH   3   4
ATOM      4  C   UNL     1      22.782  -8.424 -37.750  1.00  0.00     0.000 C 
BRANCH   4   5
ATOM      5  C   UNL     1      23.759  -8.363 -38.935  1.00  0.00     0.000 C 
BRANCH   5   6
ATOM      6  C   UNL     1      25.234  -8.404 -38.484  1.00  0.00     0.006 C 
BRANCH   6   7
ATOM      7  C   UNL     1      26.080  -7.250 -39.047  1.00  0.00     0.053 C 
BRANCH   7   8
ATOM      8  C   UNL     1      26.772  -6.475 -37.971  1.00  0.00     0.041 C 
ATOM      9  O   UNL     1      27.660  -7.022 -37.267  1.00  0.00    -0.550 OA
ATOM     10  O   UNL     1      26.452  -5.139 -37.762  1.00  0.00    -0.550 OA
ENDBRANCH   7   8
ENDBRANCH   6   7
ENDBRANCH   5   6
ENDBRANCH   4   5
ENDBRANCH   3   4
ENDBRANCH   2   3
ENDBRANCH   1   2
BRANCH   1  11
ATOM     11  C   UNL     1      21.769  -4.440 -36.242  1.00  0.00     0.000 C 
BRANCH  11  12
ATOM     12  C   UNL     1      21.568  -2.921 -36.337  1.00  0.00    -0.000 C 
BRANCH  12  13
ATOM     13  C   UNL     1      20.904  -2.538 -37.668  1.00  0.00    -0.000 C 
BRANCH  13  14
ATOM     14  C   UNL     1      20.586  -3.759 -38.550  1.00  0.00    -0.000 C 
BRANCH  14  15
ATOM     15  C   UNL     1      21.362  -3.823 -39.882  1.00  0.00    -0.000 C 
BRANCH  15  16
ATOM     16  C   UNL     1      22.218  -5.086 -40.078  1.00  0.00    -0.000 C 
BRANCH  16  17
ATOM     17  C   UNL     1      23.725  -4.807 -39.982  1.00  0.00    -0.003 C 
ATOM     18  C   UNL     1      23.992  -3.358 -39.582  1.00  0.00     0.004 C 
ENDBRANCH  16  17
ENDBRANCH  15  16
ENDBRANCH  14  15
ENDBRANCH  13  14
ENDBRANCH  12  13
ENDBRANCH  11  12
ENDBRANCH   1  11
TORSDOF 14
ENDMDL
MODEL 5
REMARK VINA RESULT:    -5.071      1.001      2.260
REMARK INTER + INTRA:         -11.726
REMARK INTER:                  -9.537
REMARK INTRA:                  -2.189
REMARK UNBOUND:                -2.505
REMARK SMILES CCCCCCCCCCCCCCCC(=O)[O-]
REMARK SMILES IDX 9 1 10 2 11 3 12 4 13 5 14 6 15 7 16 8 17 9 18 10 8 11 7 12
REMARK SMILES IDX 6 13 5 14 4 15 3 16 2 17 1 18
REMARK H PARENT
REMARK Flexibility Score: inf
ROOT
ATOM      1  C   UNL     1      20.802  -4.035 -38.621  1.00  0.00     0.000 C 
ENDROOT
BRANCH   1   2
ATOM      2  C   UNL     1      21.365  -3.415 -37.330  1.00  0.00     0.000 C 
BRANCH   2   3
ATOM      3  C   UNL     1      21.681  -4.482 -36.262  1.00  0.00     0.000 C 
BRANCH   3   4
ATOM      4  C   UNL     1      23.173  -4.841 -36.170  1.00  0.00     0.000 C 
BRANCH   4   5
ATOM      5  C   UNL     1      23.445  -6.335 -36.412  1.00  0.00     0.000 C 
BRANCH   5   6
ATOM      6  C   UNL     1      22.314  -7.018 -37.208  1.00  0.00     0.006 C 
BRANCH   6   7
ATOM      7  C   UNL     1      22.628  -8.473 -37.593  1.00  0.00     0.053 C 
BRANCH   7   8
ATOM      8  C   UNL     1      23.677  -8.566 -38.655  1.00  0.00     0.041 C 
ATOM      9  O   UNL     1      23.348  -8.693 -39.863  1.00  0.00    -0.550 OA
ATOM     10  O   UNL     1      25.022  -8.488 -38.312  1.00  0.00    -0.550 OA
ENDBRANCH   7   8
ENDBRANCH   6   7
ENDBRANCH   5   6
ENDBRANCH   4   5
ENDBRANCH   3   4
ENDBRANCH   2   3
ENDBRANCH   1   2
BRANCH   1  11
ATOM     11  C   UNL     1      21.742  -3.856 -39.824  1.00  0.00     0.000 C 
BRANCH  11  12
ATOM     12  C   UNL     1      22.526  -5.133 -40.158  1.00  0.00    -0.000 C 
BRANCH  12  13
ATOM     13  C   UNL     1      24.006  -4.984 -39.773  1.00  0.00    -0.000 C 
BRANCH  13  14
ATOM     14  C   UNL     1      24.463  -3.516 -39.713  1.00  0.00    -0.000 C 
BRANCH  14  15
ATOM     15  C   UNL     1      25.605  -3.227 -38.716  1.00  0.00    -0.000 C 
BRANCH  15  16
ATOM     16  C   UNL     1      26.165  -4.462 -37.990  1.00  0.00    -0.000 C 
BRANCH  16  17
ATOM     17  C   UNL     1      27.691  -4.587 -38.117  1.00  0.00    -0.003 C 
ATOM     18  C   UNL     1      28.334  -3.229 -38.379  1.00  0.00     0.004 C 
ENDBRANCH  16  17
ENDBRANCH  15  16
ENDBRANCH  14  15
ENDBRANCH  13  14
ENDBRANCH  12  13
ENDBRANCH  11  12
ENDBRANCH   1  11
TORSDOF 14
ENDMDL
MODEL 6
REMARK VINA RESULT:    -4.979      2.712      5.557
REMARK INTER + INTRA:         -11.560
REMARK INTER:                  -9.181
REMARK INTRA:                  -2.378
REMARK UNBOUND:                -2.505
REMARK SMILES CCCCCCCCCCCCCCCC(=O)[O-]
REMARK SMILES IDX 9 1 10 2 11 3 12 4 13 5 14 6 15 7 16 8 17 9 18 10 8 11 7 12
REMARK SMILES IDX 6 13 5 14 4 15 3 16 2 17 1 18
REMARK H PARENT
REMARK Flexibility Score: inf
ROOT
ATOM      1  C   UNL     1      25.511  -4.546 -37.857  1.00  0.00     0.000 C 
ENDROOT
BRANCH   1   2
ATOM      2  C   UNL     1      25.549  -3.244 -38.676  1.00  0.00     0.000 C 
BRANCH   2   3
ATOM      3  C   UNL     1      24.319  -3.101 -39.597  1.00  0.00     0.000 C 
BRANCH   3   4
ATOM      4  C   UNL     1      23.615  -4.434 -39.897  1.00  0.00     0.000 C 
BRANCH   4   5
ATOM      5  C   UNL     1      22.107  -4.396 -39.596  1.00  0.00     0.000 C 
BRANCH   5   6
ATOM      6  C   UNL     1      21.704  -3.161 -38.764  1.00  0.00     0.006 C 
BRANCH   6   7
ATOM      7  C   UNL     1      21.112  -3.515 -37.390  1.00  0.00     0.053 C 
BRANCH   7   8
ATOM      8  C   UNL     1      22.012  -3.117 -36.263  1.00  0.00     0.041 C 
ATOM      9  O   UNL     1      22.939  -2.287 -36.454  1.00  0.00    -0.550 OA
ATOM     10  O   UNL     1      21.811  -3.645 -34.993  1.00  0.00    -0.550 OA
ENDBRANCH   7   8
ENDBRANCH   6   7
ENDBRANCH   5   6
ENDBRANCH   4   5
ENDBRANCH   3   4
ENDBRANCH   2   3
ENDBRANCH   1   2
BRANCH   1  11
ATOM     11  C   UNL     1      26.816  -5.352 -37.965  1.00  0.00     0.000 C 
BRANCH  11  12
ATOM     12  C   UNL     1      26.576  -6.869 -37.979  1.00  0.00    -0.000 C 
BRANCH  12  13
ATOM     13  C   UNL     1      25.776  -7.286 -39.222  1.00  0.00    -0.000 C 
BRANCH  13  14
ATOM     14  C   UNL     1      25.354  -8.765 -39.194  1.00  0.00    -0.000 C 
BRANCH  14  15
ATOM     15  C   UNL     1      23.887  -9.035 -39.591  1.00  0.00    -0.000 C 
BRANCH  15  16
ATOM     16  C   UNL     1      22.893  -7.925 -39.208  1.00  0.00    -0.000 C 
BRANCH  16  17
ATOM     17  C   UNL     1      22.394  -8.044 -37.761  1.00  0.00    -0.003 C 
ATOM     18  C   UNL     1      22.906  -6.888 -36.906  1.00  0.00     0.004 C 
ENDBRANCH  16  17
ENDBRANCH  15  16
ENDBRANCH  14  15
ENDBRANCH  13  14
ENDBRANCH  12  13
ENDBRANCH  11  12
ENDBRANCH   1  11
TORSDOF 14
ENDMDL
MODEL 7
REMARK VINA RESULT:    -4.972      3.176      5.497
REMARK INTER + INTRA:         -11.547
REMARK INTER:                  -9.707
REMARK INTRA:                  -1.840
REMARK UNBOUND:                -2.505
REMARK SMILES CCCCCCCCCCCCCCCC(=O)[O-]
REMARK SMILES IDX 9 1 10 2 11 3 12 4 13 5 14 6 15 7 16 8 17 9 18 10 8 11 7 12
REMARK SMILES IDX 6 13 5 14 4 15 3 16 2 17 1 18
REMARK H PARENT
REMARK Flexibility Score: inf
ROOT
ATOM      1  C   UNL     1      22.355  -7.857 -38.994  1.00  0.00     0.000 C 
ENDROOT
BRANCH   1   2
ATOM      2  C   UNL     1      22.337  -7.763 -37.458  1.00  0.00     0.000 C 
BRANCH   2   3
ATOM      3  C   UNL     1      22.548  -6.317 -36.961  1.00  0.00     0.000 C 
BRANCH   3   4
ATOM      4  C   UNL     1      21.345  -5.395 -37.218  1.00  0.00     0.000 C 
BRANCH   4   5
ATOM      5  C   UNL     1      21.598  -3.944 -36.778  1.00  0.00     0.000 C 
BRANCH   5   6
ATOM      6  C   UNL     1      20.747  -2.931 -37.573  1.00  0.00     0.006 C 
BRANCH   6   7
ATOM      7  C   UNL     1      20.770  -3.169 -39.091  1.00  0.00     0.053 C 
BRANCH   7   8
ATOM      8  C   UNL     1      19.486  -2.773 -39.748  1.00  0.00     0.041 C 
ATOM      9  O   UNL     1      18.571  -2.230 -39.076  1.00  0.00    -0.550 OA
ATOM     10  O   UNL     1      19.310  -2.981 -41.111  1.00  0.00    -0.550 OA
ENDBRANCH   7   8
ENDBRANCH   6   7
ENDBRANCH   5   6
ENDBRANCH   4   5
ENDBRANCH   3   4
ENDBRANCH   2   3
ENDBRANCH   1   2
BRANCH   1  11
ATOM     11  C   UNL     1      23.580  -8.616 -39.526  1.00  0.00     0.000 C 
BRANCH  11  12
ATOM     12  C   UNL     1      24.726  -8.684 -38.505  1.00  0.00    -0.000 C 
BRANCH  12  13
ATOM     13  C   UNL     1      25.835  -7.681 -38.859  1.00  0.00    -0.000 C 
BRANCH  13  14
ATOM     14  C   UNL     1      26.300  -6.852 -37.650  1.00  0.00    -0.000 C 
BRANCH  14  15
ATOM     15  C   UNL     1      26.513  -5.350 -37.929  1.00  0.00    -0.000 C 
BRANCH  15  16
ATOM     16  C   UNL     1      25.253  -4.477 -37.798  1.00  0.00    -0.000 C 
BRANCH  16  17
ATOM     17  C   UNL     1      24.576  -4.200 -39.149  1.00  0.00    -0.003 C 
ATOM     18  C   UNL     1      24.573  -2.707 -39.465  1.00  0.00     0.004 C 
ENDBRANCH  16  17
ENDBRANCH  15  16
ENDBRANCH  14  15
ENDBRANCH  13  14
ENDBRANCH  12  13
ENDBRANCH  11  12
ENDBRANCH   1  11
TORSDOF 14
ENDMDL
MODEL 8
REMARK VINA RESULT:    -4.929      1.092      3.847
REMARK INTER + INTRA:         -11.468
REMARK INTER:                  -9.129
REMARK INTRA:                  -2.339
REMARK UNBOUND:                -2.505
REMARK SMILES CCCCCCCCCCCCCCCC(=O)[O-]
REMARK SMILES IDX 9 1 10 2 11 3 12 4 13 5 14 6 15 7 16 8 17 9 18 10 8 11 7 12
REMARK SMILES IDX 6 13 5 14 4 15 3 16 2 17 1 18
REMARK H PARENT
REMARK Flexibility Score: inf
ROOT
ATOM      1  C   UNL     1      24.943  -4.077 -39.043  1.00  0.00     0.000 C 
ENDROOT
BRANCH   1   2
ATOM      2  C   UNL     1      23.513  -3.913 -39.586  1.00  0.00     0.000 C 
BRANCH   2   3
ATOM      3  C   UNL     1      22.995  -5.202 -40.258  1.00  0.00     0.000 C 
BRANCH   3   4
ATOM      4  C   UNL     1      22.001  -5.994 -39.392  1.00  0.00     0.000 C 
BRANCH   4   5
ATOM      5  C   UNL     1      22.198  -7.515 -39.494  1.00  0.00     0.000 C 
BRANCH   5   6
ATOM      6  C   UNL     1      22.701  -8.134 -38.173  1.00  0.00     0.006 C 
BRANCH   6   7
ATOM      7  C   UNL     1      24.222  -8.012 -37.980  1.00  0.00     0.053 C 
BRANCH   7   8
ATOM      8  C   UNL     1      24.983  -8.366 -39.219  1.00  0.00     0.041 C 
ATOM      9  O   UNL     1      25.651  -7.489 -39.825  1.00  0.00    -0.550 OA
ATOM     10  O   UNL     1      24.973  -9.674 -39.690  1.00  0.00    -0.550 OA
ENDBRANCH   7   8
ENDBRANCH   6   7
ENDBRANCH   5   6
ENDBRANCH   4   5
ENDBRANCH   3   4
ENDBRANCH   2   3
ENDBRANCH   1   2
BRANCH   1  11
ATOM     11  C   UNL     1      24.973  -4.644 -37.615  1.00  0.00     0.000 C 
BRANCH  11  12
ATOM     12  C   UNL     1      24.008  -3.916 -36.668  1.00  0.00    -0.000 C 
BRANCH  12  13
ATOM     13  C   UNL     1      22.894  -4.860 -36.189  1.00  0.00    -0.000 C 
BRANCH  13  14
ATOM     14  C   UNL     1      21.508  -4.192 -36.179  1.00  0.00    -0.000 C 
BRANCH  14  15
ATOM     15  C   UNL     1      21.524  -2.650 -36.217  1.00  0.00    -0.000 C 
BRANCH  15  16
ATOM     16  C   UNL     1      20.480  -2.009 -37.147  1.00  0.00    -0.000 C 
BRANCH  16  17
ATOM     17  C   UNL     1      20.353  -2.736 -38.493  1.00  0.00    -0.003 C 
ATOM     18  C   UNL     1      18.952  -2.578 -39.075  1.00  0.00     0.004 C 
ENDBRANCH  16  17
ENDBRANCH  15  16
ENDBRANCH  14  15
ENDBRANCH  13  14
ENDBRANCH  12  13
ENDBRANCH  11  12
ENDBRANCH   1  11
TORSDOF 14
ENDMDL
MODEL 9
REMARK VINA RESULT:    -4.889      1.377      3.811
REMARK INTER + INTRA:         -11.395
REMARK INTER:                  -9.371
REMARK INTRA:                  -2.024
REMARK UNBOUND:                -2.505
REMARK SMILES CCCCCCCCCCCCCCCC(=O)[O-]
REMARK SMILES IDX 9 1 10 2 11 3 12 4 13 5 14 6 15 7 16 8 17 9 18 10 8 11 7 12
REMARK SMILES IDX 6 13 5 14 4 15 3 16 2 17 1 18
REMARK H PARENT
REMARK Flexibility Score: inf
ROOT
ATOM      1  C   UNL     1      24.079  -3.417 -39.706  1.00  0.00     0.000 C 
ENDROOT
BRANCH   1   2
ATOM      2  C   UNL     1      25.256  -3.210 -38.736  1.00  0.00     0.000 C 
BRANCH   2   3
ATOM      3  C   UNL     1      25.560  -4.479 -37.912  1.00  0.00     0.000 C 
BRANCH   3   4
ATOM      4  C   UNL     1      27.050  -4.859 -37.892  1.00  0.00     0.000 C 
BRANCH   4   5
ATOM      5  C   UNL     1      27.283  -6.374 -38.006  1.00  0.00     0.000 C 
BRANCH   5   6
ATOM      6  C   UNL     1      25.963  -7.168 -38.098  1.00  0.00     0.006 C 
BRANCH   6   7
ATOM      7  C   UNL     1      25.713  -7.784 -39.483  1.00  0.00     0.053 C 
BRANCH   7   8
ATOM      8  C   UNL     1      24.819  -8.982 -39.420  1.00  0.00     0.041 C 
ATOM      9  O   UNL     1      25.306 -10.141 -39.483  1.00  0.00    -0.550 OA
ATOM     10  O   UNL     1      23.448  -8.818 -39.266  1.00  0.00    -0.550 OA
ENDBRANCH   7   8
ENDBRANCH   6   7
ENDBRANCH   5   6
ENDBRANCH   4   5
ENDBRANCH   3   4
ENDBRANCH   2   3
ENDBRANCH   1   2
BRANCH   1  11
ATOM     11  C   UNL     1      23.703  -4.898 -39.874  1.00  0.00     0.000 C 
BRANCH  11  12
ATOM     12  C   UNL     1      22.270  -5.201 -39.415  1.00  0.00    -0.000 C 
BRANCH  12  13
ATOM     13  C   UNL     1      22.261  -5.770 -37.987  1.00  0.00    -0.000 C 
BRANCH  13  14
ATOM     14  C   UNL     1      21.325  -4.997 -37.041  1.00  0.00    -0.000 C 
BRANCH  14  15
ATOM     15  C   UNL     1      21.946  -3.746 -36.386  1.00  0.00    -0.000 C 
BRANCH  15  16
ATOM     16  C   UNL     1      21.726  -2.431 -37.154  1.00  0.00    -0.000 C 
BRANCH  16  17
ATOM     17  C   UNL     1      20.242  -2.056 -37.283  1.00  0.00    -0.003 C 
ATOM     18  C   UNL     1      19.742  -2.276 -38.708  1.00  0.00     0.004 C 
ENDBRANCH  16  17
ENDBRANCH  15  16
ENDBRANCH  14  15
ENDBRANCH  13  14
ENDBRANCH  12  13
ENDBRANCH  11  12
ENDBRANCH   1  11
TORSDOF 14
ENDMDL
