MODEL 1
REMARK VINA RESULT:    -4.361      0.000      0.000
REMARK INTER + INTRA:          -8.626
REMARK INTER:                  -7.930
REMARK INTRA:                  -0.697
REMARK UNBOUND:                -0.697
REMARK SMILES CCCCCCCCCCCCCCCC(=O)[O-]
REMARK SMILES IDX 9 1 10 2 11 3 12 4 13 5 14 6 15 7 16 8 17 9 18 10 8 11 7 12
REMARK SMILES IDX 6 13 5 14 4 15 3 16 2 17 1 18
REMARK H PARENT
REMARK Flexibility Score: inf
ROOT
ATOM      1  C   UNL     1      21.668 -20.240 -17.201  1.00  0.00     0.000 C 
ENDROOT
BRANCH   1   2
ATOM      2  C   UNL     1      22.641 -19.069 -16.979  1.00  0.00     0.000 C 
BRANCH   2   3
ATOM      3  C   UNL     1      22.272 -17.836 -17.831  1.00  0.00     0.000 C 
BRANCH   3   4
ATOM      4  C   UNL     1      21.637 -16.693 -17.019  1.00  0.00     0.000 C 
BRANCH   4   5
ATOM      5  C   UNL     1      20.181 -16.982 -16.618  1.00  0.00     0.000 C 
BRANCH   5   6
ATOM      6  C   UNL     1      19.504 -15.767 -15.949  1.00  0.00     0.006 C 
BRANCH   6   7
ATOM      7  C   UNL     1      18.117 -16.081 -15.368  1.00  0.00     0.053 C 
BRANCH   7   8
ATOM      8  C   UNL     1      17.086 -15.077 -15.778  1.00  0.00     0.041 C 
ATOM      9  O   UNL     1      16.886 -14.052 -15.076  1.00  0.00    -0.550 OA
ATOM     10  O   UNL     1      16.364 -15.260 -16.952  1.00  0.00    -0.550 OA
ENDBRANCH   7   8
ENDBRANCH   6   7
ENDBRANCH   5   6
ENDBRANCH   4   5
ENDBRANCH   3   4
ENDBRANCH   2   3
ENDBRANCH   1   2
BRANCH   1  11
ATOM     11  C   UNL     1      21.014 -20.224 -18.594  1.00  0.00     0.000 C 
BRANCH  11  12
ATOM     12  C   UNL     1      20.455 -21.577 -19.069  1.00  0.00    -0.000 C 
BRANCH  12  13
ATOM     13  C   UNL     1      19.350 -21.430 -20.129  1.00  0.00    -0.000 C 
BRANCH  13  14
ATOM     14  C   UNL     1      18.466 -22.685 -20.251  1.00  0.00    -0.000 C 
BRANCH  14  15
ATOM     15  C   UNL     1      18.120 -23.382 -18.919  1.00  0.00    -0.000 C 
BRANCH  15  16
ATOM     16  C   UNL     1      16.675 -23.901 -18.810  1.00  0.00    -0.000 C 
BRANCH  16  17
ATOM     17  C   UNL     1      15.727 -22.888 -18.153  1.00  0.00    -0.003 C 
ATOM     18  C   UNL     1      14.994 -23.509 -16.968  1.00  0.00     0.004 C 
ENDBRANCH  16  17
ENDBRANCH  15  16
ENDBRANCH  14  15
ENDBRANCH  13  14
ENDBRANCH  12  13
ENDBRANCH  11  12
ENDBRANCH   1  11
TORSDOF 14
ENDMDL
MODEL 2
REMARK VINA RESULT:    -4.301      3.021      7.389
REMARK INTER + INTRA:          -8.519
REMARK INTER:                  -7.831
REMARK INTRA:                  -0.687
REMARK UNBOUND:                -0.697
REMARK SMILES CCCCCCCCCCCCCCCC(=O)[O-]
REMARK SMILES IDX 9 1 10 2 11 3 12 4 13 5 14 6 15 7 16 8 17 9 18 10 8 11 7 12
REMARK SMILES IDX 6 13 5 14 4 15 3 16 2 17 1 18
REMARK H PARENT
REMARK Flexibility Score: inf
ROOT
ATOM      1  C   UNL     1      20.544 -20.725 -19.251  1.00  0.00     0.000 C 
ENDROOT
BRANCH   1   2
ATOM      2  C   UNL     1      20.230 -22.231 -19.212  1.00  0.00     0.000 C 
BRANCH   2   3
ATOM      3  C   UNL     1      18.713 -22.511 -19.240  1.00  0.00     0.000 C 
BRANCH   3   4
ATOM      4  C   UNL     1      18.357 -23.929 -19.720  1.00  0.00     0.000 C 
BRANCH   4   5
ATOM      5  C   UNL     1      17.056 -24.461 -19.097  1.00  0.00     0.000 C 
BRANCH   5   6
ATOM      6  C   UNL     1      16.607 -23.633 -17.875  1.00  0.00     0.006 C 
BRANCH   6   7
ATOM      7  C   UNL     1      15.099 -23.715 -17.598  1.00  0.00     0.053 C 
BRANCH   7   8
ATOM      8  C   UNL     1      14.279 -23.437 -18.819  1.00  0.00     0.041 C 
ATOM      9  O   UNL     1      13.540 -24.334 -19.302  1.00  0.00    -0.550 OA
ATOM     10  O   UNL     1      14.311 -22.179 -19.407  1.00  0.00    -0.550 OA
ENDBRANCH   7   8
ENDBRANCH   6   7
ENDBRANCH   5   6
ENDBRANCH   4   5
ENDBRANCH   3   4
ENDBRANCH   2   3
ENDBRANCH   1   2
BRANCH   1  11
ATOM     11  C   UNL     1      21.865 -20.368 -18.546  1.00  0.00     0.000 C 
BRANCH  11  12
ATOM     12  C   UNL     1      21.711 -19.712 -17.162  1.00  0.00    -0.000 C 
BRANCH  12  13
ATOM     13  C   UNL     1      22.575 -18.450 -16.998  1.00  0.00    -0.000 C 
BRANCH  13  14
ATOM     14  C   UNL     1      21.753 -17.150 -17.062  1.00  0.00    -0.000 C 
BRANCH  14  15
ATOM     15  C   UNL     1      20.280 -17.276 -16.622  1.00  0.00    -0.000 C 
BRANCH  15  16
ATOM     16  C   UNL     1      19.616 -15.961 -16.175  1.00  0.00    -0.000 C 
BRANCH  16  17
ATOM     17  C   UNL     1      18.495 -16.178 -15.150  1.00  0.00    -0.003 C 
ATOM     18  C   UNL     1      17.256 -15.365 -15.511  1.00  0.00     0.004 C 
ENDBRANCH  16  17
ENDBRANCH  15  16
ENDBRANCH  14  15
ENDBRANCH  13  14
ENDBRANCH  12  13
ENDBRANCH  11  12
ENDBRANCH   1  11
TORSDOF 14
ENDMDL
MODEL 3
REMARK VINA RESULT:    -4.106      3.512      6.014
REMARK INTER + INTRA:          -8.163
REMARK INTER:                  -6.224
REMARK INTRA:                  -1.938
REMARK UNBOUND:                -0.697
REMARK SMILES CCCCCCCCCCCCCCCC(=O)[O-]
REMARK SMILES IDX 9 1 10 2 11 3 12 4 13 5 14 6 15 7 16 8 17 9 18 10 8 11 7 12
REMARK SMILES IDX 6 13 5 14 4 15 3 16 2 17 1 18
REMARK H PARENT
REMARK Flexibility Score: inf
ROOT
ATOM      1  C   UNL     1      14.896 -21.267 -20.000  1.00  0.00     0.000 C 
ENDROOT
BRANCH   1   2
ATOM      2  C   UNL     1      16.023 -20.603 -20.810  1.00  0.00     0.000 C 
BRANCH   2   3
ATOM      3  C   UNL     1      17.200 -21.567 -21.069  1.00  0.00     0.000 C 
BRANCH   3   4
ATOM      4  C   UNL     1      18.557 -21.026 -20.585  1.00  0.00     0.000 C 
BRANCH   4   5
ATOM      5  C   UNL     1      19.489 -22.132 -20.062  1.00  0.00     0.000 C 
BRANCH   5   6
ATOM      6  C   UNL     1      20.395 -21.643 -18.912  1.00  0.00     0.006 C 
BRANCH   6   7
ATOM      7  C   UNL     1      20.617 -20.123 -18.911  1.00  0.00     0.053 C 
BRANCH   7   8
ATOM      8  C   UNL     1      21.592 -19.690 -17.861  1.00  0.00     0.041 C 
ATOM      9  O   UNL     1      21.179 -19.190 -16.782  1.00  0.00    -0.550 OA
ATOM     10  O   UNL     1      22.955 -19.865 -18.062  1.00  0.00    -0.550 OA
ENDBRANCH   7   8
ENDBRANCH   6   7
ENDBRANCH   5   6
ENDBRANCH   4   5
ENDBRANCH   3   4
ENDBRANCH   2   3
ENDBRANCH   1   2
BRANCH   1  11
ATOM     11  C   UNL     1      13.880 -22.013 -20.884  1.00  0.00     0.000 C 
BRANCH  11  12
ATOM     12  C   UNL     1      13.587 -23.464 -20.460  1.00  0.00    -0.000 C 
BRANCH  12  13
ATOM     13  C   UNL     1      14.703 -24.443 -20.867  1.00  0.00    -0.000 C 
BRANCH  13  14
ATOM     14  C   UNL     1      15.382 -25.111 -19.658  1.00  0.00    -0.000 C 
BRANCH  14  15
ATOM     15  C   UNL     1      16.667 -24.421 -19.156  1.00  0.00    -0.000 C 
BRANCH  15  16
ATOM     16  C   UNL     1      16.550 -23.744 -17.779  1.00  0.00    -0.000 C 
BRANCH  16  17
ATOM     17  C   UNL     1      15.142 -23.858 -17.177  1.00  0.00    -0.003 C 
ATOM     18  C   UNL     1      14.730 -22.558 -16.492  1.00  0.00     0.004 C 
ENDBRANCH  16  17
ENDBRANCH  15  16
ENDBRANCH  14  15
ENDBRANCH  13  14
ENDBRANCH  12  13
ENDBRANCH  11  12
ENDBRANCH   1  11
TORSDOF 14
ENDMDL
MODEL 4
REMARK VINA RESULT:    -4.096      2.723      4.842
REMARK INTER + INTRA:          -8.145
REMARK INTER:                  -6.601
REMARK INTRA:                  -1.544
REMARK UNBOUND:                -0.697
REMARK SMILES CCCCCCCCCCCCCCCC(=O)[O-]
REMARK SMILES IDX 9 1 10 2 11 3 12 4 13 5 14 6 15 7 16 8 17 9 18 10 8 11 7 12
REMARK SMILES IDX 6 13 5 14 4 15 3 16 2 17 1 18
REMARK H PARENT
REMARK Flexibility Score: inf
ROOT
ATOM      1  C   UNL     1      17.640 -21.942 -20.351  1.00  0.00     0.000 C 
ENDROOT
BRANCH   1   2
ATOM      2  C   UNL     1      18.944 -21.249 -20.782  1.00  0.00     0.000 C 
BRANCH   2   3
ATOM      3  C   UNL     1      20.195 -21.966 -20.232  1.00  0.00     0.000 C 
BRANCH   3   4
ATOM      4  C   UNL     1      20.533 -21.588 -18.780  1.00  0.00     0.000 C 
BRANCH   4   5
ATOM      5  C   UNL     1      21.356 -20.294 -18.675  1.00  0.00     0.000 C 
BRANCH   5   6
ATOM      6  C   UNL     1      21.329 -19.692 -17.254  1.00  0.00     0.006 C 
BRANCH   6   7
ATOM      7  C   UNL     1      20.966 -18.200 -17.227  1.00  0.00     0.053 C 
BRANCH   7   8
ATOM      8  C   UNL     1      22.175 -17.320 -17.182  1.00  0.00     0.041 C 
ATOM      9  O   UNL     1      22.051 -16.084 -16.979  1.00  0.00    -0.550 OA
ATOM     10  O   UNL     1      23.442 -17.869 -17.335  1.00  0.00    -0.550 OA
ENDBRANCH   7   8
ENDBRANCH   6   7
ENDBRANCH   5   6
ENDBRANCH   4   5
ENDBRANCH   3   4
ENDBRANCH   2   3
ENDBRANCH   1   2
BRANCH   1  11
ATOM     11  C   UNL     1      17.656 -23.461 -20.597  1.00  0.00     0.000 C 
BRANCH  11  12
ATOM     12  C   UNL     1      17.407 -24.328 -19.350  1.00  0.00    -0.000 C 
BRANCH  12  13
ATOM     13  C   UNL     1      17.098 -23.495 -18.094  1.00  0.00    -0.000 C 
BRANCH  13  14
ATOM     14  C   UNL     1      15.747 -23.860 -17.451  1.00  0.00    -0.000 C 
BRANCH  14  15
ATOM     15  C   UNL     1      14.527 -23.790 -18.391  1.00  0.00    -0.000 C 
BRANCH  15  16
ATOM     16  C   UNL     1      14.194 -22.386 -18.927  1.00  0.00    -0.000 C 
BRANCH  16  17
ATOM     17  C   UNL     1      13.875 -22.382 -20.428  1.00  0.00    -0.003 C 
ATOM     18  C   UNL     1      14.086 -20.996 -21.031  1.00  0.00     0.004 C 
ENDBRANCH  16  17
ENDBRANCH  15  16
ENDBRANCH  14  15
ENDBRANCH  13  14
ENDBRANCH  12  13
ENDBRANCH  11  12
ENDBRANCH   1  11
TORSDOF 14
ENDMDL
MODEL 5
REMARK VINA RESULT:    -4.075      2.848      6.880
REMARK INTER + INTRA:          -8.107
REMARK INTER:                  -6.905
REMARK INTRA:                  -1.202
REMARK UNBOUND:                -0.697
REMARK SMILES CCCCCCCCCCCCCCCC(=O)[O-]
REMARK SMILES IDX 9 1 10 2 11 3 12 4 13 5 14 6 15 7 16 8 17 9 18 10 8 11 7 12
REMARK SMILES IDX 6 13 5 14 4 15 3 16 2 17 1 18
REMARK H PARENT
REMARK Flexibility Score: inf
ROOT
ATOM      1  C   UNL     1      18.178 -22.911 -19.117  1.00  0.00     0.000 C 
ENDROOT
BRANCH   1   2
ATOM      2  C   UNL     1      17.228 -24.072 -18.776  1.00  0.00     0.000 C 
BRANCH   2   3
ATOM      3  C   UNL     1      16.296 -23.735 -17.593  1.00  0.00     0.000 C 
BRANCH   3   4
ATOM      4  C   UNL     1      15.166 -22.757 -17.958  1.00  0.00     0.000 C 
BRANCH   4   5
ATOM      5  C   UNL     1      14.211 -23.319 -19.025  1.00  0.00     0.000 C 
BRANCH   5   6
ATOM      6  C   UNL     1      14.138 -22.423 -20.279  1.00  0.00     0.006 C 
BRANCH   6   7
ATOM      7  C   UNL     1      15.175 -21.290 -20.285  1.00  0.00     0.053 C 
BRANCH   7   8
ATOM      8  C   UNL     1      14.544 -19.939 -20.405  1.00  0.00     0.041 C 
ATOM      9  O   UNL     1      15.263 -18.914 -20.537  1.00  0.00    -0.550 OA
ATOM     10  O   UNL     1      13.160 -19.814 -20.399  1.00  0.00    -0.550 OA
ENDBRANCH   7   8
ENDBRANCH   6   7
ENDBRANCH   5   6
ENDBRANCH   4   5
ENDBRANCH   3   4
ENDBRANCH   2   3
ENDBRANCH   1   2
BRANCH   1  11
ATOM     11  C   UNL     1      19.450 -23.371 -19.851  1.00  0.00     0.000 C 
BRANCH  11  12
ATOM     12  C   UNL     1      20.499 -22.270 -20.093  1.00  0.00    -0.000 C 
BRANCH  12  13
ATOM     13  C   UNL     1      19.884 -20.861 -20.156  1.00  0.00    -0.000 C 
BRANCH  13  14
ATOM     14  C   UNL     1      20.546 -19.875 -19.177  1.00  0.00    -0.000 C 
BRANCH  14  15
ATOM     15  C   UNL     1      21.222 -20.516 -17.948  1.00  0.00    -0.000 C 
BRANCH  15  16
ATOM     16  C   UNL     1      21.533 -19.547 -16.793  1.00  0.00    -0.000 C 
BRANCH  16  17
ATOM     17  C   UNL     1      20.977 -18.137 -17.033  1.00  0.00    -0.003 C 
ATOM     18  C   UNL     1      22.103 -17.137 -17.276  1.00  0.00     0.004 C 
ENDBRANCH  16  17
ENDBRANCH  15  16
ENDBRANCH  14  15
ENDBRANCH  13  14
ENDBRANCH  12  13
ENDBRANCH  11  12
ENDBRANCH   1  11
TORSDOF 14
ENDMDL
MODEL 6
REMARK VINA RESULT:    -4.059      2.820      7.009
REMARK INTER + INTRA:          -8.078
REMARK INTER:                  -7.326
REMARK INTRA:                  -0.752
REMARK UNBOUND:                -0.697
REMARK SMILES CCCCCCCCCCCCCCCC(=O)[O-]
REMARK SMILES IDX 9 1 10 2 11 3 12 4 13 5 14 6 15 7 16 8 17 9 18 10 8 11 7 12
REMARK SMILES IDX 6 13 5 14 4 15 3 16 2 17 1 18
REMARK H PARENT
REMARK Flexibility Score: inf
ROOT
ATOM      1  C   UNL     1      21.525 -19.810 -17.420  1.00  0.00     0.000 C 
ENDROOT
BRANCH   1   2
ATOM      2  C   UNL     1      20.993 -20.961 -18.291  1.00  0.00     0.000 C 
BRANCH   2   3
ATOM      3  C   UNL     1      20.171 -20.452 -19.493  1.00  0.00     0.000 C 
BRANCH   3   4
ATOM      4  C   UNL     1      19.233 -21.514 -20.093  1.00  0.00     0.000 C 
BRANCH   4   5
ATOM      5  C   UNL     1      19.103 -22.765 -19.208  1.00  0.00     0.000 C 
BRANCH   5   6
ATOM      6  C   UNL     1      17.719 -23.435 -19.337  1.00  0.00     0.006 C 
BRANCH   6   7
ATOM      7  C   UNL     1      17.001 -23.622 -17.992  1.00  0.00     0.053 C 
BRANCH   7   8
ATOM      8  C   UNL     1      15.654 -22.971 -17.969  1.00  0.00     0.041 C 
ATOM      9  O   UNL     1      14.839 -23.235 -17.047  1.00  0.00    -0.550 OA
ATOM     10  O   UNL     1      15.309 -22.051 -18.951  1.00  0.00    -0.550 OA
ENDBRANCH   7   8
ENDBRANCH   6   7
ENDBRANCH   5   6
ENDBRANCH   4   5
ENDBRANCH   3   4
ENDBRANCH   2   3
ENDBRANCH   1   2
BRANCH   1  11
ATOM     11  C   UNL     1      21.335 -18.428 -18.070  1.00  0.00     0.000 C 
BRANCH  11  12
ATOM     12  C   UNL     1      22.275 -17.326 -17.548  1.00  0.00    -0.000 C 
BRANCH  12  13
ATOM     13  C   UNL     1      21.555 -16.294 -16.664  1.00  0.00    -0.000 C 
BRANCH  13  14
ATOM     14  C   UNL     1      20.138 -16.737 -16.259  1.00  0.00    -0.000 C 
BRANCH  14  15
ATOM     15  C   UNL     1      19.076 -15.619 -16.236  1.00  0.00    -0.000 C 
BRANCH  15  16
ATOM     16  C   UNL     1      18.043 -15.721 -15.099  1.00  0.00    -0.000 C 
BRANCH  16  17
ATOM     17  C   UNL     1      16.886 -14.724 -15.254  1.00  0.00    -0.003 C 
ATOM     18  C   UNL     1      16.344 -14.730 -16.680  1.00  0.00     0.004 C 
ENDBRANCH  16  17
ENDBRANCH  15  16
ENDBRANCH  14  15
ENDBRANCH  13  14
ENDBRANCH  12  13
ENDBRANCH  11  12
ENDBRANCH   1  11
TORSDOF 14
ENDMDL
MODEL 7
REMARK VINA RESULT:    -3.940      2.881      3.863
REMARK INTER + INTRA:          -7.861
REMARK INTER:                  -6.991
REMARK INTRA:                  -0.870
REMARK UNBOUND:                -0.697
REMARK SMILES CCCCCCCCCCCCCCCC(=O)[O-]
REMARK SMILES IDX 9 1 10 2 11 3 12 4 13 5 14 6 15 7 16 8 17 9 18 10 8 11 7 12
REMARK SMILES IDX 6 13 5 14 4 15 3 16 2 17 1 18
REMARK H PARENT
REMARK Flexibility Score: inf
ROOT
ATOM      1  C   UNL     1      19.873 -20.566 -20.292  1.00  0.00     0.000 C 
ENDROOT
BRANCH   1   2
ATOM      2  C   UNL     1      20.867 -20.488 -19.120  1.00  0.00     0.000 C 
BRANCH   2   3
ATOM      3  C   UNL     1      20.801 -19.131 -18.388  1.00  0.00     0.000 C 
BRANCH   3   4
ATOM      4  C   UNL     1      21.395 -19.166 -16.969  1.00  0.00     0.000 C 
BRANCH   4   5
ATOM      5  C   UNL     1      22.925 -19.315 -16.965  1.00  0.00     0.000 C 
BRANCH   5   6
ATOM      6  C   UNL     1      23.636 -18.092 -17.583  1.00  0.00     0.006 C 
BRANCH   6   7
ATOM      7  C   UNL     1      23.874 -16.951 -16.584  1.00  0.00     0.053 C 
BRANCH   7   8
ATOM      8  C   UNL     1      23.066 -15.733 -16.905  1.00  0.00     0.041 C 
ATOM      9  O   UNL     1      23.621 -14.717 -17.397  1.00  0.00    -0.550 OA
ATOM     10  O   UNL     1      21.694 -15.731 -16.687  1.00  0.00    -0.550 OA
ENDBRANCH   7   8
ENDBRANCH   6   7
ENDBRANCH   5   6
ENDBRANCH   4   5
ENDBRANCH   3   4
ENDBRANCH   2   3
ENDBRANCH   1   2
BRANCH   1  11
ATOM     11  C   UNL     1      18.838 -21.693 -20.128  1.00  0.00     0.000 C 
BRANCH  11  12
ATOM     12  C   UNL     1      19.274 -22.854 -19.217  1.00  0.00    -0.000 C 
BRANCH  12  13
ATOM     13  C   UNL     1      18.525 -24.164 -19.517  1.00  0.00    -0.000 C 
BRANCH  13  14
ATOM     14  C   UNL     1      17.014 -24.067 -19.235  1.00  0.00    -0.000 C 
BRANCH  14  15
ATOM     15  C   UNL     1      16.631 -23.805 -17.764  1.00  0.00    -0.000 C 
BRANCH  15  16
ATOM     16  C   UNL     1      15.124 -23.634 -17.503  1.00  0.00    -0.000 C 
BRANCH  16  17
ATOM     17  C   UNL     1      14.290 -23.646 -18.792  1.00  0.00    -0.003 C 
ATOM     18  C   UNL     1      13.916 -22.229 -19.217  1.00  0.00     0.004 C 
ENDBRANCH  16  17
ENDBRANCH  15  16
ENDBRANCH  14  15
ENDBRANCH  13  14
ENDBRANCH  12  13
ENDBRANCH  11  12
ENDBRANCH   1  11
TORSDOF 14
ENDMDL
MODEL 8
REMARK VINA RESULT:    -3.897     18.787     20.762
REMARK INTER + INTRA:          -7.784
REMARK INTER:                  -6.688
REMARK INTRA:                  -1.096
REMARK UNBOUND:                -0.697
REMARK SMILES CCCCCCCCCCCCCCCC(=O)[O-]
REMARK SMILES IDX 9 1 10 2 11 3 12 4 13 5 14 6 15 7 16 8 17 9 18 10 8 11 7 12
REMARK SMILES IDX 6 13 5 14 4 15 3 16 2 17 1 18
REMARK H PARENT
REMARK Flexibility Score: inf
ROOT
ATOM      1  C   UNL     1       7.651  -5.461  -6.371  1.00  0.00     0.000 C 
ENDROOT
BRANCH   1   2
ATOM      2  C   UNL     1       8.717  -6.500  -6.760  1.00  0.00     0.000 C 
BRANCH   2   3
ATOM      3  C   UNL     1       9.744  -6.733  -5.631  1.00  0.00     0.000 C 
BRANCH   3   4
ATOM      4  C   UNL     1      10.058  -5.468  -4.814  1.00  0.00     0.000 C 
BRANCH   4   5
ATOM      5  C   UNL     1      10.854  -5.767  -3.533  1.00  0.00     0.000 C 
BRANCH   5   6
ATOM      6  C   UNL     1      10.302  -6.989  -2.769  1.00  0.00     0.006 C 
BRANCH   6   7
ATOM      7  C   UNL     1       9.244  -6.628  -1.717  1.00  0.00     0.053 C 
BRANCH   7   8
ATOM      8  C   UNL     1       7.884  -7.137  -2.076  1.00  0.00     0.041 C 
ATOM      9  O   UNL     1       7.388  -8.113  -1.455  1.00  0.00    -0.550 OA
ATOM     10  O   UNL     1       7.151  -6.516  -3.080  1.00  0.00    -0.550 OA
ENDBRANCH   7   8
ENDBRANCH   6   7
ENDBRANCH   5   6
ENDBRANCH   4   5
ENDBRANCH   3   4
ENDBRANCH   2   3
ENDBRANCH   1   2
BRANCH   1  11
ATOM     11  C   UNL     1       6.213  -5.987  -6.530  1.00  0.00     0.000 C 
BRANCH  11  12
ATOM     12  C   UNL     1       5.380  -5.292  -7.622  1.00  0.00    -0.000 C 
BRANCH  12  13
ATOM     13  C   UNL     1       5.244  -6.138  -8.900  1.00  0.00    -0.000 C 
BRANCH  13  14
ATOM     14  C   UNL     1       5.693  -7.597  -8.703  1.00  0.00    -0.000 C 
BRANCH  14  15
ATOM     15  C   UNL     1       5.610  -8.490  -9.958  1.00  0.00    -0.000 C 
BRANCH  15  16
ATOM     16  C   UNL     1       5.426  -7.735 -11.286  1.00  0.00    -0.000 C 
BRANCH  16  17
ATOM     17  C   UNL     1       5.523  -8.654 -12.512  1.00  0.00    -0.003 C 
ATOM     18  C   UNL     1       5.654  -7.842 -13.798  1.00  0.00     0.004 C 
ENDBRANCH  16  17
ENDBRANCH  15  16
ENDBRANCH  14  15
ENDBRANCH  13  14
ENDBRANCH  12  13
ENDBRANCH  11  12
ENDBRANCH   1  11
TORSDOF 14
ENDMDL
MODEL 9
REMARK VINA RESULT:    -3.889      2.777      3.519
REMARK INTER + INTRA:          -7.768
REMARK INTER:                  -6.919
REMARK INTRA:                  -0.849
REMARK UNBOUND:                -0.697
REMARK SMILES CCCCCCCCCCCCCCCC(=O)[O-]
REMARK SMILES IDX 9 1 10 2 11 3 12 4 13 5 14 6 15 7 16 8 17 9 18 10 8 11 7 12
REMARK SMILES IDX 6 13 5 14 4 15 3 16 2 17 1 18
REMARK H PARENT
REMARK Flexibility Score: inf
ROOT
ATOM      1  C   UNL     1      21.164 -20.770 -19.057  1.00  0.00     0.000 C 
ENDROOT
BRANCH   1   2
ATOM      2  C   UNL     1      20.951 -19.736 -17.938  1.00  0.00     0.000 C 
BRANCH   2   3
ATOM      3  C   UNL     1      22.246 -19.458 -17.146  1.00  0.00     0.000 C 
BRANCH   3   4
ATOM      4  C   UNL     1      23.499 -19.351 -18.032  1.00  0.00     0.000 C 
BRANCH   4   5
ATOM      5  C   UNL     1      24.570 -18.419 -17.442  1.00  0.00     0.000 C 
BRANCH   5   6
ATOM      6  C   UNL     1      23.968 -17.345 -16.511  1.00  0.00     0.006 C 
BRANCH   6   7
ATOM      7  C   UNL     1      23.848 -15.962 -17.167  1.00  0.00     0.053 C 
BRANCH   7   8
ATOM      8  C   UNL     1      22.523 -15.318 -16.904  1.00  0.00     0.041 C 
ATOM      9  O   UNL     1      22.438 -14.067 -16.792  1.00  0.00    -0.550 OA
ATOM     10  O   UNL     1      21.377 -16.098 -16.810  1.00  0.00    -0.550 OA
ENDBRANCH   7   8
ENDBRANCH   6   7
ENDBRANCH   5   6
ENDBRANCH   4   5
ENDBRANCH   3   4
ENDBRANCH   2   3
ENDBRANCH   1   2
BRANCH   1  11
ATOM     11  C   UNL     1      20.409 -22.088 -18.809  1.00  0.00     0.000 C 
BRANCH  11  12
ATOM     12  C   UNL     1      19.921 -22.810 -20.078  1.00  0.00    -0.000 C 
BRANCH  12  13
ATOM     13  C   UNL     1      18.624 -23.607 -19.853  1.00  0.00    -0.000 C 
BRANCH  13  14
ATOM     14  C   UNL     1      17.723 -22.988 -18.769  1.00  0.00    -0.000 C 
BRANCH  14  15
ATOM     15  C   UNL     1      16.858 -23.990 -17.977  1.00  0.00    -0.000 C 
BRANCH  15  16
ATOM     16  C   UNL     1      15.605 -23.390 -17.313  1.00  0.00    -0.000 C 
BRANCH  16  17
ATOM     17  C   UNL     1      14.553 -22.931 -18.333  1.00  0.00    -0.003 C 
ATOM     18  C   UNL     1      13.949 -24.122 -19.072  1.00  0.00     0.004 C 
ENDBRANCH  16  17
ENDBRANCH  15  16
ENDBRANCH  14  15
ENDBRANCH  13  14
ENDBRANCH  12  13
ENDBRANCH  11  12
ENDBRANCH   1  11
TORSDOF 14
ENDMDL
