MODEL 1
REMARK VINA RESULT:    -3.278      0.000      0.000
REMARK INTER + INTRA:          -8.585
REMARK INTER:                  -6.153
REMARK INTRA:                  -2.432
REMARK UNBOUND:                -2.432
REMARK SMILES CCCCCCCCC=CCCCCCCCC(=O)[O-]
REMARK SMILES IDX 10 1 9 2 11 3 12 4 13 5 14 6 15 7 16 8 17 9 18 10 19 11
REMARK SMILES IDX 20 12 8 13 7 14 6 15 5 16 4 17 3 18 2 19 1 20
REMARK H PARENT
REMARK Flexibility Score: inf
ROOT
ATOM      1  C   UNL     1     -15.560 -14.927  26.881  1.00  0.00    -0.031 C 
ATOM      2  C   UNL     1     -16.597 -14.444  27.582  1.00  0.00    -0.031 C 
ENDROOT
BRANCH   1   3
ATOM      3  C   UNL     1     -15.131 -16.365  26.989  1.00  0.00     0.027 C 
BRANCH   3   4
ATOM      4  C   UNL     1     -15.832 -17.075  28.154  1.00  0.00     0.004 C 
BRANCH   4   5
ATOM      5  C   UNL     1     -14.829 -17.664  29.158  1.00  0.00     0.000 C 
BRANCH   5   6
ATOM      6  C   UNL     1     -13.973 -16.591  29.849  1.00  0.00     0.000 C 
BRANCH   6   7
ATOM      7  C   UNL     1     -12.453 -16.821  29.699  1.00  0.00     0.000 C 
BRANCH   7   8
ATOM      8  C   UNL     1     -11.740 -15.601  29.098  1.00  0.00     0.006 C 
BRANCH   8   9
ATOM      9  C   UNL     1     -12.701 -14.415  28.961  1.00  0.00     0.053 C 
BRANCH   9  10
ATOM     10  C   UNL     1     -12.046 -13.154  29.428  1.00  0.00     0.041 C 
ATOM     11  O   UNL     1     -12.420 -12.603  30.496  1.00  0.00    -0.550 OA
ATOM     12  O   UNL     1     -10.990 -12.612  28.707  1.00  0.00    -0.550 OA
ENDBRANCH   9  10
ENDBRANCH   8   9
ENDBRANCH   7   8
ENDBRANCH   6   7
ENDBRANCH   5   6
ENDBRANCH   4   5
ENDBRANCH   3   4
ENDBRANCH   1   3
BRANCH   2  13
ATOM     13  C   UNL     1     -16.987 -12.994  27.508  1.00  0.00     0.027 C 
BRANCH  13  14
ATOM     14  C   UNL     1     -18.182 -12.792  26.563  1.00  0.00     0.004 C 
BRANCH  14  15
ATOM     15  C   UNL     1     -17.833 -11.922  25.343  1.00  0.00     0.000 C 
BRANCH  15  16
ATOM     16  C   UNL     1     -18.321 -12.540  24.021  1.00  0.00     0.000 C 
BRANCH  16  17
ATOM     17  C   UNL     1     -17.420 -13.689  23.539  1.00  0.00    -0.000 C 
BRANCH  17  18
ATOM     18  C   UNL     1     -18.197 -14.998  23.315  1.00  0.00    -0.000 C 
BRANCH  18  19
ATOM     19  C   UNL     1     -17.799 -16.095  24.314  1.00  0.00    -0.003 C 
ATOM     20  C   UNL     1     -18.886 -16.372  25.351  1.00  0.00     0.004 C 
ENDBRANCH  18  19
ENDBRANCH  17  18
ENDBRANCH  16  17
ENDBRANCH  15  16
ENDBRANCH  14  15
ENDBRANCH  13  14
ENDBRANCH   2  13
TORSDOF 15
ENDMDL
MODEL 2
REMARK VINA RESULT:    -3.238      9.004     10.986
REMARK INTER + INTRA:          -8.510
REMARK INTER:                  -5.401
REMARK INTRA:                  -3.108
REMARK UNBOUND:                -2.432
REMARK SMILES CCCCCCCCC=CCCCCCCCC(=O)[O-]
REMARK SMILES IDX 10 1 9 2 11 3 12 4 13 5 14 6 15 7 16 8 17 9 18 10 19 11
REMARK SMILES IDX 20 12 8 13 7 14 6 15 5 16 4 17 3 18 2 19 1 20
REMARK H PARENT
REMARK Flexibility Score: inf
ROOT
ATOM      1  C   UNL     1     -12.978 -24.434  20.823  1.00  0.00    -0.031 C 
ATOM      2  C   UNL     1     -13.870 -23.504  20.448  1.00  0.00    -0.031 C 
ENDROOT
BRANCH   1   3
ATOM      3  C   UNL     1     -11.583 -24.466  20.261  1.00  0.00     0.027 C 
BRANCH   3   4
ATOM      4  C   UNL     1     -10.817 -23.177  20.581  1.00  0.00     0.004 C 
BRANCH   4   5
ATOM      5  C   UNL     1     -10.391 -22.426  19.309  1.00  0.00     0.000 C 
BRANCH   5   6
ATOM      6  C   UNL     1     -11.147 -21.101  19.115  1.00  0.00     0.000 C 
BRANCH   6   7
ATOM      7  C   UNL     1     -11.102 -20.177  20.351  1.00  0.00     0.000 C 
BRANCH   7   8
ATOM      8  C   UNL     1     -12.009 -18.949  20.186  1.00  0.00     0.006 C 
BRANCH   8   9
ATOM      9  C   UNL     1     -12.961 -19.123  18.999  1.00  0.00     0.053 C 
BRANCH   9  10
ATOM     10  C   UNL     1     -12.924 -17.915  18.116  1.00  0.00     0.041 C 
ATOM     11  O   UNL     1     -13.895 -17.113  18.098  1.00  0.00    -0.550 OA
ATOM     12  O   UNL     1     -11.798 -17.650  17.349  1.00  0.00    -0.550 OA
ENDBRANCH   9  10
ENDBRANCH   8   9
ENDBRANCH   7   8
ENDBRANCH   6   7
ENDBRANCH   5   6
ENDBRANCH   4   5
ENDBRANCH   3   4
ENDBRANCH   1   3
BRANCH   2  13
ATOM     13  C   UNL     1     -15.278 -23.510  20.976  1.00  0.00     0.027 C 
BRANCH  13  14
ATOM     14  C   UNL     1     -15.712 -22.098  21.401  1.00  0.00     0.004 C 
BRANCH  14  15
ATOM     15  C   UNL     1     -14.519 -21.157  21.639  1.00  0.00     0.000 C 
BRANCH  15  16
ATOM     16  C   UNL     1     -14.117 -21.081  23.122  1.00  0.00     0.000 C 
BRANCH  16  17
ATOM     17  C   UNL     1     -12.632 -21.407  23.348  1.00  0.00    -0.000 C 
BRANCH  17  18
ATOM     18  C   UNL     1     -12.419 -22.783  24.004  1.00  0.00    -0.000 C 
BRANCH  18  19
ATOM     19  C   UNL     1     -13.691 -23.312  24.684  1.00  0.00    -0.003 C 
ATOM     20  C   UNL     1     -14.009 -24.756  24.298  1.00  0.00     0.004 C 
ENDBRANCH  18  19
ENDBRANCH  17  18
ENDBRANCH  16  17
ENDBRANCH  15  16
ENDBRANCH  14  15
ENDBRANCH  13  14
ENDBRANCH   2  13
TORSDOF 15
ENDMDL
MODEL 3
REMARK VINA RESULT:    -3.192      9.464     11.394
REMARK INTER + INTRA:          -8.423
REMARK INTER:                  -5.168
REMARK INTRA:                  -3.255
REMARK UNBOUND:                -2.432
REMARK SMILES CCCCCCCCC=CCCCCCCCC(=O)[O-]
REMARK SMILES IDX 10 1 9 2 11 3 12 4 13 5 14 6 15 7 16 8 17 9 18 10 19 11
REMARK SMILES IDX 20 12 8 13 7 14 6 15 5 16 4 17 3 18 2 19 1 20
REMARK H PARENT
REMARK Flexibility Score: inf
ROOT
ATOM      1  C   UNL     1     -11.737 -22.613  21.806  1.00  0.00    -0.031 C 
ATOM      2  C   UNL     1     -11.240 -23.421  20.857  1.00  0.00    -0.031 C 
ENDROOT
BRANCH   1   3
ATOM      3  C   UNL     1     -11.911 -23.073  23.228  1.00  0.00     0.027 C 
BRANCH   3   4
ATOM      4  C   UNL     1     -12.900 -22.182  23.990  1.00  0.00     0.004 C 
BRANCH   4   5
ATOM      5  C   UNL     1     -13.400 -21.008  23.133  1.00  0.00     0.000 C 
BRANCH   5   6
ATOM      6  C   UNL     1     -14.903 -21.093  22.821  1.00  0.00     0.000 C 
BRANCH   6   7
ATOM      7  C   UNL     1     -15.215 -21.704  21.438  1.00  0.00     0.000 C 
BRANCH   7   8
ATOM      8  C   UNL     1     -15.896 -23.075  21.553  1.00  0.00     0.006 C 
BRANCH   8   9
ATOM      9  C   UNL     1     -14.945 -24.199  21.129  1.00  0.00     0.053 C 
BRANCH   9  10
ATOM     10  C   UNL     1     -14.776 -25.188  22.239  1.00  0.00     0.041 C 
ATOM     11  O   UNL     1     -14.277 -26.321  22.009  1.00  0.00    -0.550 OA
ATOM     12  O   UNL     1     -15.128 -24.842  23.537  1.00  0.00    -0.550 OA
ENDBRANCH   9  10
ENDBRANCH   8   9
ENDBRANCH   7   8
ENDBRANCH   6   7
ENDBRANCH   5   6
ENDBRANCH   4   5
ENDBRANCH   3   4
ENDBRANCH   1   3
BRANCH   2  13
ATOM     13  C   UNL     1     -11.116 -22.970  19.428  1.00  0.00     0.027 C 
BRANCH  13  14
ATOM     14  C   UNL     1     -12.475 -22.508  18.877  1.00  0.00     0.004 C 
BRANCH  14  15
ATOM     15  C   UNL     1     -12.413 -21.109  18.243  1.00  0.00     0.000 C 
BRANCH  15  16
ATOM     16  C   UNL     1     -12.963 -20.015  19.176  1.00  0.00     0.000 C 
BRANCH  16  17
ATOM     17  C   UNL     1     -11.899 -18.974  19.556  1.00  0.00    -0.000 C 
BRANCH  17  18
ATOM     18  C   UNL     1     -11.032 -19.419  20.748  1.00  0.00    -0.000 C 
BRANCH  18  19
ATOM     19  C   UNL     1      -9.571 -19.674  20.348  1.00  0.00    -0.003 C 
ATOM     20  C   UNL     1      -9.273 -19.260  18.908  1.00  0.00     0.004 C 
ENDBRANCH  18  19
ENDBRANCH  17  18
ENDBRANCH  16  17
ENDBRANCH  15  16
ENDBRANCH  14  15
ENDBRANCH  13  14
ENDBRANCH   2  13
TORSDOF 15
ENDMDL
MODEL 4
REMARK VINA RESULT:    -3.184      3.629      8.013
REMARK INTER + INTRA:          -8.409
REMARK INTER:                  -6.411
REMARK INTRA:                  -1.998
REMARK UNBOUND:                -2.432
REMARK SMILES CCCCCCCCC=CCCCCCCCC(=O)[O-]
REMARK SMILES IDX 10 1 9 2 11 3 12 4 13 5 14 6 15 7 16 8 17 9 18 10 19 11
REMARK SMILES IDX 20 12 8 13 7 14 6 15 5 16 4 17 3 18 2 19 1 20
REMARK H PARENT
REMARK Flexibility Score: inf
ROOT
ATOM      1  C   UNL     1     -13.074 -16.349  28.734  1.00  0.00    -0.031 C 
ATOM      2  C   UNL     1     -12.694 -17.159  29.735  1.00  0.00    -0.031 C 
ENDROOT
BRANCH   1   3
ATOM      3  C   UNL     1     -14.517 -16.214  28.329  1.00  0.00     0.027 C 
BRANCH   3   4
ATOM      4  C   UNL     1     -14.921 -14.743  28.170  1.00  0.00     0.004 C 
BRANCH   4   5
ATOM      5  C   UNL     1     -15.768 -14.510  26.909  1.00  0.00     0.000 C 
BRANCH   5   6
ATOM      6  C   UNL     1     -16.163 -15.817  26.202  1.00  0.00     0.000 C 
BRANCH   6   7
ATOM      7  C   UNL     1     -17.141 -15.613  25.026  1.00  0.00     0.000 C 
BRANCH   7   8
ATOM      8  C   UNL     1     -17.613 -14.156  24.912  1.00  0.00     0.006 C 
BRANCH   8   9
ATOM      9  C   UNL     1     -17.272 -13.573  23.537  1.00  0.00     0.053 C 
BRANCH   9  10
ATOM     10  C   UNL     1     -18.511 -13.413  22.714  1.00  0.00     0.041 C 
ATOM     11  O   UNL     1     -18.462 -13.541  21.462  1.00  0.00    -0.550 OA
ATOM     12  O   UNL     1     -19.730 -13.171  23.333  1.00  0.00    -0.550 OA
ENDBRANCH   9  10
ENDBRANCH   8   9
ENDBRANCH   7   8
ENDBRANCH   6   7
ENDBRANCH   5   6
ENDBRANCH   4   5
ENDBRANCH   3   4
ENDBRANCH   1   3
BRANCH   2  13
ATOM     13  C   UNL     1     -11.245 -17.327  30.099  1.00  0.00     0.027 C 
BRANCH  13  14
ATOM     14  C   UNL     1     -10.956 -16.745  31.492  1.00  0.00     0.004 C 
BRANCH  14  15
ATOM     15  C   UNL     1      -9.631 -15.967  31.546  1.00  0.00     0.000 C 
BRANCH  15  16
ATOM     16  C   UNL     1      -9.431 -15.060  30.317  1.00  0.00     0.000 C 
BRANCH  16  17
ATOM     17  C   UNL     1     -10.081 -13.679  30.492  1.00  0.00    -0.000 C 
BRANCH  17  18
ATOM     18  C   UNL     1     -11.138 -13.380  29.413  1.00  0.00    -0.000 C 
BRANCH  18  19
ATOM     19  C   UNL     1     -12.444 -12.833  30.007  1.00  0.00    -0.003 C 
ATOM     20  C   UNL     1     -12.871 -13.572  31.275  1.00  0.00     0.004 C 
ENDBRANCH  18  19
ENDBRANCH  17  18
ENDBRANCH  16  17
ENDBRANCH  15  16
ENDBRANCH  14  15
ENDBRANCH  13  14
ENDBRANCH   2  13
TORSDOF 15
ENDMDL
MODEL 5
REMARK VINA RESULT:    -3.178      9.188     11.052
REMARK INTER + INTRA:          -8.397
REMARK INTER:                  -5.460
REMARK INTRA:                  -2.937
REMARK UNBOUND:                -2.432
REMARK SMILES CCCCCCCCC=CCCCCCCCC(=O)[O-]
REMARK SMILES IDX 10 1 9 2 11 3 12 4 13 5 14 6 15 7 16 8 17 9 18 10 19 11
REMARK SMILES IDX 20 12 8 13 7 14 6 15 5 16 4 17 3 18 2 19 1 20
REMARK H PARENT
REMARK Flexibility Score: inf
ROOT
ATOM      1  C   UNL     1     -11.540 -23.862  20.458  1.00  0.00    -0.031 C 
ATOM      2  C   UNL     1     -11.534 -23.116  21.574  1.00  0.00    -0.031 C 
ENDROOT
BRANCH   1   3
ATOM      3  C   UNL     1     -11.156 -23.291  19.120  1.00  0.00     0.027 C 
BRANCH   3   4
ATOM      4  C   UNL     1      -9.834 -22.516  19.198  1.00  0.00     0.004 C 
BRANCH   4   5
ATOM      5  C   UNL     1     -10.018 -21.025  18.874  1.00  0.00     0.000 C 
BRANCH   5   6
ATOM      6  C   UNL     1      -9.883 -20.123  20.111  1.00  0.00     0.000 C 
BRANCH   6   7
ATOM      7  C   UNL     1     -11.185 -19.380  20.480  1.00  0.00     0.000 C 
BRANCH   7   8
ATOM      8  C   UNL     1     -12.189 -19.362  19.318  1.00  0.00     0.006 C 
BRANCH   8   9
ATOM      9  C   UNL     1     -12.850 -17.986  19.184  1.00  0.00     0.053 C 
BRANCH   9  10
ATOM     10  C   UNL     1     -13.717 -17.938  17.965  1.00  0.00     0.041 C 
ATOM     11  O   UNL     1     -14.603 -18.814  17.782  1.00  0.00    -0.550 OA
ATOM     12  O   UNL     1     -13.578 -16.900  17.054  1.00  0.00    -0.550 OA
ENDBRANCH   9  10
ENDBRANCH   8   9
ENDBRANCH   7   8
ENDBRANCH   6   7
ENDBRANCH   5   6
ENDBRANCH   4   5
ENDBRANCH   3   4
ENDBRANCH   1   3
BRANCH   2  13
ATOM     13  C   UNL     1     -11.968 -23.681  22.898  1.00  0.00     0.027 C 
BRANCH  13  14
ATOM     14  C   UNL     1     -12.389 -22.561  23.863  1.00  0.00     0.004 C 
BRANCH  14  15
ATOM     15  C   UNL     1     -12.492 -21.191  23.172  1.00  0.00     0.000 C 
BRANCH  15  16
ATOM     16  C   UNL     1     -13.950 -20.725  23.004  1.00  0.00     0.000 C 
BRANCH  16  17
ATOM     17  C   UNL     1     -14.511 -21.038  21.608  1.00  0.00    -0.000 C 
BRANCH  17  18
ATOM     18  C   UNL     1     -15.273 -22.375  21.560  1.00  0.00    -0.000 C 
BRANCH  18  19
ATOM     19  C   UNL     1     -15.150 -23.072  20.198  1.00  0.00    -0.003 C 
ATOM     20  C   UNL     1     -14.653 -22.135  19.098  1.00  0.00     0.004 C 
ENDBRANCH  18  19
ENDBRANCH  17  18
ENDBRANCH  16  17
ENDBRANCH  15  16
ENDBRANCH  14  15
ENDBRANCH  13  14
ENDBRANCH   2  13
TORSDOF 15
ENDMDL
MODEL 6
REMARK VINA RESULT:    -3.165      3.250      6.717
REMARK INTER + INTRA:          -8.372
REMARK INTER:                  -5.800
REMARK INTRA:                  -2.572
REMARK UNBOUND:                -2.432
REMARK SMILES CCCCCCCCC=CCCCCCCCC(=O)[O-]
REMARK SMILES IDX 10 1 9 2 11 3 12 4 13 5 14 6 15 7 16 8 17 9 18 10 19 11
REMARK SMILES IDX 20 12 8 13 7 14 6 15 5 16 4 17 3 18 2 19 1 20
REMARK H PARENT
REMARK Flexibility Score: inf
ROOT
ATOM      1  C   UNL     1     -14.538 -17.057  28.626  1.00  0.00    -0.031 C 
ATOM      2  C   UNL     1     -13.820 -17.141  29.756  1.00  0.00    -0.031 C 
ENDROOT
BRANCH   1   3
ATOM      3  C   UNL     1     -16.004 -17.393  28.592  1.00  0.00     0.027 C 
BRANCH   3   4
ATOM      4  C   UNL     1     -16.787 -16.409  27.713  1.00  0.00     0.004 C 
BRANCH   4   5
ATOM      5  C   UNL     1     -16.037 -16.070  26.415  1.00  0.00     0.000 C 
BRANCH   5   6
ATOM      6  C   UNL     1     -16.036 -14.565  26.100  1.00  0.00     0.000 C 
BRANCH   6   7
ATOM      7  C   UNL     1     -16.839 -13.721  27.113  1.00  0.00     0.000 C 
BRANCH   7   8
ATOM      8  C   UNL     1     -17.805 -12.750  26.419  1.00  0.00     0.006 C 
BRANCH   8   9
ATOM      9  C   UNL     1     -18.569 -13.449  25.290  1.00  0.00     0.053 C 
BRANCH   9  10
ATOM     10  C   UNL     1     -18.579 -12.598  24.059  1.00  0.00     0.041 C 
ATOM     11  O   UNL     1     -17.902 -12.932  23.052  1.00  0.00    -0.550 OA
ATOM     12  O   UNL     1     -19.372 -11.459  24.008  1.00  0.00    -0.550 OA
ENDBRANCH   9  10
ENDBRANCH   8   9
ENDBRANCH   7   8
ENDBRANCH   6   7
ENDBRANCH   5   6
ENDBRANCH   4   5
ENDBRANCH   3   4
ENDBRANCH   1   3
BRANCH   2  13
ATOM     13  C   UNL     1     -12.344 -16.853  29.771  1.00  0.00     0.027 C 
BRANCH  13  14
ATOM     14  C   UNL     1     -12.008 -15.652  28.872  1.00  0.00     0.004 C 
BRANCH  14  15
ATOM     15  C   UNL     1     -11.306 -14.517  29.636  1.00  0.00     0.000 C 
BRANCH  15  16
ATOM     16  C   UNL     1     -12.196 -13.270  29.784  1.00  0.00     0.000 C 
BRANCH  16  17
ATOM     17  C   UNL     1     -13.620 -13.494  29.250  1.00  0.00    -0.000 C 
BRANCH  17  18
ATOM     18  C   UNL     1     -14.704 -13.006  30.228  1.00  0.00    -0.000 C 
BRANCH  18  19
ATOM     19  C   UNL     1     -15.760 -14.082  30.518  1.00  0.00    -0.003 C 
ATOM     20  C   UNL     1     -15.613 -14.693  31.911  1.00  0.00     0.004 C 
ENDBRANCH  18  19
ENDBRANCH  17  18
ENDBRANCH  16  17
ENDBRANCH  15  16
ENDBRANCH  14  15
ENDBRANCH  13  14
ENDBRANCH   2  13
TORSDOF 15
ENDMDL
MODEL 7
REMARK VINA RESULT:    -3.130      9.269     11.513
REMARK INTER + INTRA:          -8.307
REMARK INTER:                  -5.529
REMARK INTRA:                  -2.777
REMARK UNBOUND:                -2.432
REMARK SMILES CCCCCCCCC=CCCCCCCCC(=O)[O-]
REMARK SMILES IDX 10 1 9 2 11 3 12 4 13 5 14 6 15 7 16 8 17 9 18 10 19 11
REMARK SMILES IDX 20 12 8 13 7 14 6 15 5 16 4 17 3 18 2 19 1 20
REMARK H PARENT
REMARK Flexibility Score: inf
ROOT
ATOM      1  C   UNL     1     -10.990 -22.188  20.444  1.00  0.00    -0.031 C 
ATOM      2  C   UNL     1     -11.652 -23.181  19.831  1.00  0.00    -0.031 C 
ENDROOT
BRANCH   1   3
ATOM      3  C   UNL     1     -10.203 -21.164  19.671  1.00  0.00     0.027 C 
BRANCH   3   4
ATOM      4  C   UNL     1     -10.305 -19.775  20.313  1.00  0.00     0.004 C 
BRANCH   4   5
ATOM      5  C   UNL     1     -11.719 -19.483  20.838  1.00  0.00     0.000 C 
BRANCH   5   6
ATOM      6  C   UNL     1     -12.488 -18.480  19.961  1.00  0.00     0.000 C 
BRANCH   6   7
ATOM      7  C   UNL     1     -13.233 -19.137  18.779  1.00  0.00     0.000 C 
BRANCH   7   8
ATOM      8  C   UNL     1     -12.861 -18.496  17.434  1.00  0.00     0.006 C 
BRANCH   8   9
ATOM      9  C   UNL     1     -11.632 -19.175  16.822  1.00  0.00     0.053 C 
BRANCH   9  10
ATOM     10  C   UNL     1     -10.461 -18.244  16.831  1.00  0.00     0.041 C 
ATOM     11  O   UNL     1     -10.634 -17.005  16.684  1.00  0.00    -0.550 OA
ATOM     12  O   UNL     1      -9.181 -18.738  17.047  1.00  0.00    -0.550 OA
ENDBRANCH   9  10
ENDBRANCH   8   9
ENDBRANCH   7   8
ENDBRANCH   6   7
ENDBRANCH   5   6
ENDBRANCH   4   5
ENDBRANCH   3   4
ENDBRANCH   1   3
BRANCH   2  13
ATOM     13  C   UNL     1     -12.394 -24.230  20.613  1.00  0.00     0.027 C 
BRANCH  13  14
ATOM     14  C   UNL     1     -11.692 -24.519  21.949  1.00  0.00     0.004 C 
BRANCH  14  15
ATOM     15  C   UNL     1     -12.561 -24.155  23.165  1.00  0.00     0.000 C 
BRANCH  15  16
ATOM     16  C   UNL     1     -12.078 -22.875  23.871  1.00  0.00     0.000 C 
BRANCH  16  17
ATOM     17  C   UNL     1     -12.981 -21.666  23.581  1.00  0.00    -0.000 C 
BRANCH  17  18
ATOM     18  C   UNL     1     -14.471 -22.043  23.502  1.00  0.00    -0.000 C 
BRANCH  18  19
ATOM     19  C   UNL     1     -15.225 -21.237  22.434  1.00  0.00    -0.003 C 
ATOM     20  C   UNL     1     -14.793 -21.592  21.012  1.00  0.00     0.004 C 
ENDBRANCH  18  19
ENDBRANCH  17  18
ENDBRANCH  16  17
ENDBRANCH  15  16
ENDBRANCH  14  15
ENDBRANCH  13  14
ENDBRANCH   2  13
TORSDOF 15
ENDMDL
MODEL 8
REMARK VINA RESULT:    -3.130      1.221      2.173
REMARK INTER + INTRA:          -8.307
REMARK INTER:                  -5.841
REMARK INTRA:                  -2.466
REMARK UNBOUND:                -2.432
REMARK SMILES CCCCCCCCC=CCCCCCCCC(=O)[O-]
REMARK SMILES IDX 10 1 9 2 11 3 12 4 13 5 14 6 15 7 16 8 17 9 18 10 19 11
REMARK SMILES IDX 20 12 8 13 7 14 6 15 5 16 4 17 3 18 2 19 1 20
REMARK H PARENT
REMARK Flexibility Score: inf
ROOT
ATOM      1  C   UNL     1     -16.630 -14.423  26.371  1.00  0.00    -0.031 C 
ATOM      2  C   UNL     1     -16.692 -13.590  25.320  1.00  0.00    -0.031 C 
ENDROOT
BRANCH   1   3
ATOM      3  C   UNL     1     -15.622 -15.538  26.439  1.00  0.00     0.027 C 
BRANCH   3   4
ATOM      4  C   UNL     1     -16.122 -16.695  27.313  1.00  0.00     0.004 C 
BRANCH   4   5
ATOM      5  C   UNL     1     -16.616 -16.211  28.685  1.00  0.00     0.000 C 
BRANCH   5   6
ATOM      6  C   UNL     1     -15.815 -16.808  29.854  1.00  0.00     0.000 C 
BRANCH   6   7
ATOM      7  C   UNL     1     -14.479 -17.450  29.424  1.00  0.00     0.000 C 
BRANCH   7   8
ATOM      8  C   UNL     1     -13.266 -16.653  29.928  1.00  0.00     0.006 C 
BRANCH   8   9
ATOM      9  C   UNL     1     -12.576 -15.915  28.776  1.00  0.00     0.053 C 
BRANCH   9  10
ATOM     10  C   UNL     1     -12.717 -14.435  28.943  1.00  0.00     0.041 C 
ATOM     11  O   UNL     1     -11.700 -13.693  28.912  1.00  0.00    -0.550 OA
ATOM     12  O   UNL     1     -13.977 -13.868  29.086  1.00  0.00    -0.550 OA
ENDBRANCH   9  10
ENDBRANCH   8   9
ENDBRANCH   7   8
ENDBRANCH   6   7
ENDBRANCH   5   6
ENDBRANCH   4   5
ENDBRANCH   3   4
ENDBRANCH   1   3
BRANCH   2  13
ATOM     13  C   UNL     1     -17.736 -12.510  25.236  1.00  0.00     0.027 C 
BRANCH  13  14
ATOM     14  C   UNL     1     -18.467 -12.554  23.884  1.00  0.00     0.004 C 
BRANCH  14  15
ATOM     15  C   UNL     1     -17.761 -13.457  22.859  1.00  0.00     0.000 C 
BRANCH  15  16
ATOM     16  C   UNL     1     -18.672 -14.585  22.343  1.00  0.00     0.000 C 
BRANCH  16  17
ATOM     17  C   UNL     1     -18.626 -15.836  23.235  1.00  0.00    -0.000 C 
BRANCH  17  18
ATOM     18  C   UNL     1     -19.954 -16.089  23.971  1.00  0.00    -0.000 C 
BRANCH  18  19
ATOM     19  C   UNL     1     -19.911 -15.631  25.436  1.00  0.00    -0.003 C 
ATOM     20  C   UNL     1     -19.677 -16.787  26.409  1.00  0.00     0.004 C 
ENDBRANCH  18  19
ENDBRANCH  17  18
ENDBRANCH  16  17
ENDBRANCH  15  16
ENDBRANCH  14  15
ENDBRANCH  13  14
ENDBRANCH   2  13
TORSDOF 15
ENDMDL
MODEL 9
REMARK VINA RESULT:    -3.076      2.722      3.842
REMARK INTER + INTRA:          -8.205
REMARK INTER:                  -6.820
REMARK INTRA:                  -1.385
REMARK UNBOUND:                -2.432
REMARK SMILES CCCCCCCCC=CCCCCCCCC(=O)[O-]
REMARK SMILES IDX 10 1 9 2 11 3 12 4 13 5 14 6 15 7 16 8 17 9 18 10 19 11
REMARK SMILES IDX 20 12 8 13 7 14 6 15 5 16 4 17 3 18 2 19 1 20
REMARK H PARENT
REMARK Flexibility Score: inf
ROOT
ATOM      1  C   UNL     1     -15.766 -15.870  26.370  1.00  0.00    -0.031 C 
ATOM      2  C   UNL     1     -16.905 -16.573  26.273  1.00  0.00    -0.031 C 
ENDROOT
BRANCH   1   3
ATOM      3  C   UNL     1     -15.193 -15.469  27.702  1.00  0.00     0.027 C 
BRANCH   3   4
ATOM      4  C   UNL     1     -14.337 -16.589  28.306  1.00  0.00     0.004 C 
BRANCH   4   5
ATOM      5  C   UNL     1     -12.982 -16.072  28.813  1.00  0.00     0.000 C 
BRANCH   5   6
ATOM      6  C   UNL     1     -12.529 -16.754  30.114  1.00  0.00     0.000 C 
BRANCH   6   7
ATOM      7  C   UNL     1     -11.051 -17.200  30.098  1.00  0.00     0.000 C 
BRANCH   7   8
ATOM      8  C   UNL     1     -10.188 -16.375  31.064  1.00  0.00     0.006 C 
BRANCH   8   9
ATOM      9  C   UNL     1      -8.799 -16.112  30.473  1.00  0.00     0.053 C 
BRANCH   9  10
ATOM     10  C   UNL     1      -7.834 -17.166  30.915  1.00  0.00     0.041 C 
ATOM     11  O   UNL     1      -6.951 -17.591  30.123  1.00  0.00    -0.550 OA
ATOM     12  O   UNL     1      -7.878 -17.647  32.217  1.00  0.00    -0.550 OA
ENDBRANCH   9  10
ENDBRANCH   8   9
ENDBRANCH   7   8
ENDBRANCH   6   7
ENDBRANCH   5   6
ENDBRANCH   4   5
ENDBRANCH   3   4
ENDBRANCH   1   3
BRANCH   2  13
ATOM     13  C   UNL     1     -17.499 -16.926  24.938  1.00  0.00     0.027 C 
BRANCH  13  14
ATOM     14  C   UNL     1     -19.015 -16.671  24.924  1.00  0.00     0.004 C 
BRANCH  14  15
ATOM     15  C   UNL     1     -19.419 -15.551  23.952  1.00  0.00     0.000 C 
BRANCH  15  16
ATOM     16  C   UNL     1     -18.286 -15.181  22.977  1.00  0.00     0.000 C 
BRANCH  16  17
ATOM     17  C   UNL     1     -17.940 -13.684  23.016  1.00  0.00    -0.000 C 
BRANCH  17  18
ATOM     18  C   UNL     1     -17.122 -13.297  24.262  1.00  0.00    -0.000 C 
BRANCH  18  19
ATOM     19  C   UNL     1     -17.966 -12.564  25.314  1.00  0.00    -0.003 C 
ATOM     20  C   UNL     1     -17.150 -12.136  26.533  1.00  0.00     0.004 C 
ENDBRANCH  18  19
ENDBRANCH  17  18
ENDBRANCH  16  17
ENDBRANCH  15  16
ENDBRANCH  14  15
ENDBRANCH  13  14
ENDBRANCH   2  13
TORSDOF 15
ENDMDL
