MODEL 1
REMARK VINA RESULT:    -5.241      0.000      0.000
REMARK INTER + INTRA:         -14.020
REMARK INTER:                 -11.368
REMARK INTRA:                  -2.652
REMARK UNBOUND:                -2.652
REMARK SMILES CCCCCCCCCCCCCCCCCCCCCC(=O)[O-]
REMARK SMILES IDX 12 1 11 2 10 3 9 4 8 5 7 6 6 7 5 8 4 9 3 10 2 11 1 12 13 13
REMARK SMILES IDX 14 14 15 15 16 16 17 17 18 18 19 19 20 20 21 21 22 22 23 23
REMARK SMILES IDX 24 24
REMARK H PARENT
REMARK Flexibility Score: inf
ROOT
ATOM      1  C   UNL     1     -21.100  42.697  88.869  1.00  0.00     0.000 C 
ENDROOT
BRANCH   1   2
ATOM      2  C   UNL     1     -21.367  41.496  87.945  1.00  0.00     0.000 C 
BRANCH   2   3
ATOM      3  C   UNL     1     -20.538  41.549  86.650  1.00  0.00     0.000 C 
BRANCH   3   4
ATOM      4  C   UNL     1     -19.771  42.869  86.427  1.00  0.00    -0.000 C 
BRANCH   4   5
ATOM      5  C   UNL     1     -20.447  43.864  85.458  1.00  0.00    -0.000 C 
BRANCH   5   6
ATOM      6  C   UNL     1     -20.686  45.275  86.029  1.00  0.00    -0.000 C 
BRANCH   6   7
ATOM      7  C   UNL     1     -21.672  46.099  85.184  1.00  0.00    -0.000 C 
BRANCH   7   8
ATOM      8  C   UNL     1     -20.965  47.106  84.262  1.00  0.00    -0.000 C 
BRANCH   8   9
ATOM      9  C   UNL     1     -20.555  46.497  82.909  1.00  0.00    -0.000 C 
BRANCH   9  10
ATOM     10  C   UNL     1     -19.022  46.434  82.738  1.00  0.00    -0.000 C 
BRANCH  10  11
ATOM     11  C   UNL     1     -18.247  46.918  83.976  1.00  0.00    -0.003 C 
ATOM     12  C   UNL     1     -17.339  45.843  84.572  1.00  0.00     0.004 C 
ENDBRANCH  10  11
ENDBRANCH   9  10
ENDBRANCH   8   9
ENDBRANCH   7   8
ENDBRANCH   6   7
ENDBRANCH   5   6
ENDBRANCH   4   5
ENDBRANCH   3   4
ENDBRANCH   2   3
ENDBRANCH   1   2
BRANCH   1  13
ATOM     13  C   UNL     1     -22.396  43.392  89.319  1.00  0.00     0.000 C 
BRANCH  13  14
ATOM     14  C   UNL     1     -23.287  43.794  88.131  1.00  0.00     0.000 C 
BRANCH  14  15
ATOM     15  C   UNL     1     -23.596  45.306  88.103  1.00  0.00     0.000 C 
BRANCH  15  16
ATOM     16  C   UNL     1     -24.777  45.695  87.191  1.00  0.00     0.000 C 
BRANCH  16  17
ATOM     17  C   UNL     1     -26.130  45.884  87.901  1.00  0.00     0.000 C 
BRANCH  17  18
ATOM     18  C   UNL     1     -26.076  46.717  89.195  1.00  0.00     0.000 C 
BRANCH  18  19
ATOM     19  C   UNL     1     -26.532  45.926  90.431  1.00  0.00     0.000 C 
BRANCH  19  20
ATOM     20  C   UNL     1     -26.162  44.434  90.344  1.00  0.00     0.006 C 
BRANCH  20  21
ATOM     21  C   UNL     1     -26.986  43.532  91.280  1.00  0.00     0.053 C 
BRANCH  21  22
ATOM     22  C   UNL     1     -28.156  42.912  90.579  1.00  0.00     0.041 C 
ATOM     23  O   UNL     1     -28.029  42.463  89.409  1.00  0.00    -0.550 OA
ATOM     24  O   UNL     1     -29.382  42.815  91.223  1.00  0.00    -0.550 OA
ENDBRANCH  21  22
ENDBRANCH  20  21
ENDBRANCH  19  20
ENDBRANCH  18  19
ENDBRANCH  17  18
ENDBRANCH  16  17
ENDBRANCH  15  16
ENDBRANCH  14  15
ENDBRANCH  13  14
ENDBRANCH   1  13
TORSDOF 20
ENDMDL
MODEL 2
REMARK VINA RESULT:    -5.132      5.806      8.599
REMARK INTER + INTRA:         -13.785
REMARK INTER:                 -11.606
REMARK INTRA:                  -2.179
REMARK UNBOUND:                -2.652
REMARK SMILES CCCCCCCCCCCCCCCCCCCCCC(=O)[O-]
REMARK SMILES IDX 12 1 11 2 10 3 9 4 8 5 7 6 6 7 5 8 4 9 3 10 2 11 1 12 13 13
REMARK SMILES IDX 14 14 15 15 16 16 17 17 18 18 19 19 20 20 21 21 22 22 23 23
REMARK SMILES IDX 24 24
REMARK H PARENT
REMARK Flexibility Score: inf
ROOT
ATOM      1  C   UNL     1     -19.480  37.415  88.464  1.00  0.00     0.000 C 
ENDROOT
BRANCH   1   2
ATOM      2  C   UNL     1     -20.222  38.706  88.078  1.00  0.00     0.000 C 
BRANCH   2   3
ATOM      3  C   UNL     1     -19.866  39.193  86.662  1.00  0.00     0.000 C 
BRANCH   3   4
ATOM      4  C   UNL     1     -20.176  38.185  85.536  1.00  0.00    -0.000 C 
BRANCH   4   5
ATOM      5  C   UNL     1     -18.950  37.423  84.984  1.00  0.00    -0.000 C 
BRANCH   5   6
ATOM      6  C   UNL     1     -18.713  37.572  83.469  1.00  0.00    -0.000 C 
BRANCH   6   7
ATOM      7  C   UNL     1     -17.222  37.553  83.095  1.00  0.00    -0.000 C 
BRANCH   7   8
ATOM      8  C   UNL     1     -16.625  36.136  83.107  1.00  0.00    -0.000 C 
BRANCH   8   9
ATOM      9  C   UNL     1     -16.468  35.539  81.697  1.00  0.00    -0.000 C 
BRANCH   9  10
ATOM     10  C   UNL     1     -17.748  34.820  81.223  1.00  0.00    -0.000 C 
BRANCH  10  11
ATOM     11  C   UNL     1     -18.184  35.216  79.802  1.00  0.00    -0.003 C 
ATOM     12  C   UNL     1     -18.605  36.681  79.690  1.00  0.00     0.004 C 
ENDBRANCH  10  11
ENDBRANCH   9  10
ENDBRANCH   8   9
ENDBRANCH   7   8
ENDBRANCH   6   7
ENDBRANCH   5   6
ENDBRANCH   4   5
ENDBRANCH   3   4
ENDBRANCH   2   3
ENDBRANCH   1   2
BRANCH   1  13
ATOM     13  C   UNL     1     -19.088  37.385  89.951  1.00  0.00     0.000 C 
BRANCH  13  14
ATOM     14  C   UNL     1     -18.075  38.486  90.311  1.00  0.00     0.000 C 
BRANCH  14  15
ATOM     15  C   UNL     1     -18.517  39.328  91.528  1.00  0.00     0.000 C 
BRANCH  15  16
ATOM     16  C   UNL     1     -19.949  39.034  92.016  1.00  0.00     0.000 C 
BRANCH  16  17
ATOM     17  C   UNL     1     -21.038  39.987  91.490  1.00  0.00     0.000 C 
BRANCH  17  18
ATOM     18  C   UNL     1     -20.513  41.283  90.843  1.00  0.00     0.000 C 
BRANCH  18  19
ATOM     19  C   UNL     1     -21.369  41.742  89.652  1.00  0.00     0.000 C 
BRANCH  19  20
ATOM     20  C   UNL     1     -20.527  42.389  88.537  1.00  0.00     0.006 C 
BRANCH  20  21
ATOM     21  C   UNL     1     -21.336  42.760  87.282  1.00  0.00     0.053 C 
BRANCH  21  22
ATOM     22  C   UNL     1     -20.472  43.352  86.210  1.00  0.00     0.041 C 
ATOM     23  O   UNL     1     -19.412  42.773  85.857  1.00  0.00    -0.550 OA
ATOM     24  O   UNL     1     -20.847  44.537  85.589  1.00  0.00    -0.550 OA
ENDBRANCH  21  22
ENDBRANCH  20  21
ENDBRANCH  19  20
ENDBRANCH  18  19
ENDBRANCH  17  18
ENDBRANCH  16  17
ENDBRANCH  15  16
ENDBRANCH  14  15
ENDBRANCH  13  14
ENDBRANCH   1  13
TORSDOF 20
ENDMDL
MODEL 3
REMARK VINA RESULT:    -5.115      2.805      6.067
REMARK INTER + INTRA:         -13.747
REMARK INTER:                 -11.521
REMARK INTRA:                  -2.226
REMARK UNBOUND:                -2.652
REMARK SMILES CCCCCCCCCCCCCCCCCCCCCC(=O)[O-]
REMARK SMILES IDX 12 1 11 2 10 3 9 4 8 5 7 6 6 7 5 8 4 9 3 10 2 11 1 12 13 13
REMARK SMILES IDX 14 14 15 15 16 16 17 17 18 18 19 19 20 20 21 21 22 22 23 23
REMARK SMILES IDX 24 24
REMARK H PARENT
REMARK Flexibility Score: inf
ROOT
ATOM      1  C   UNL     1     -19.428  43.175  85.590  1.00  0.00     0.000 C 
ENDROOT
BRANCH   1   2
ATOM      2  C   UNL     1     -19.504  41.960  86.532  1.00  0.00     0.000 C 
BRANCH   2   3
ATOM      3  C   UNL     1     -20.947  41.619  86.943  1.00  0.00     0.000 C 
BRANCH   3   4
ATOM      4  C   UNL     1     -21.072  40.817  88.255  1.00  0.00    -0.000 C 
BRANCH   4   5
ATOM      5  C   UNL     1     -20.362  41.443  89.476  1.00  0.00    -0.000 C 
BRANCH   5   6
ATOM      6  C   UNL     1     -21.060  41.211  90.830  1.00  0.00    -0.000 C 
BRANCH   6   7
ATOM      7  C   UNL     1     -20.097  40.709  91.918  1.00  0.00    -0.000 C 
BRANCH   7   8
ATOM      8  C   UNL     1     -19.749  39.220  91.761  1.00  0.00    -0.000 C 
BRANCH   8   9
ATOM      9  C   UNL     1     -18.250  38.977  91.503  1.00  0.00    -0.000 C 
BRANCH   9  10
ATOM     10  C   UNL     1     -17.987  38.404  90.095  1.00  0.00    -0.000 C 
BRANCH  10  11
ATOM     11  C   UNL     1     -18.775  37.116  89.800  1.00  0.00    -0.003 C 
ATOM     12  C   UNL     1     -17.929  36.037  89.125  1.00  0.00     0.004 C 
ENDBRANCH  10  11
ENDBRANCH   9  10
ENDBRANCH   8   9
ENDBRANCH   7   8
ENDBRANCH   6   7
ENDBRANCH   5   6
ENDBRANCH   4   5
ENDBRANCH   3   4
ENDBRANCH   2   3
ENDBRANCH   1   2
BRANCH   1  13
ATOM     13  C   UNL     1     -19.759  44.495  86.306  1.00  0.00     0.000 C 
BRANCH  13  14
ATOM     14  C   UNL     1     -21.092  45.099  85.833  1.00  0.00     0.000 C 
BRANCH  14  15
ATOM     15  C   UNL     1     -22.039  45.445  87.002  1.00  0.00     0.000 C 
BRANCH  15  16
ATOM     16  C   UNL     1     -21.495  45.062  88.393  1.00  0.00     0.000 C 
BRANCH  16  17
ATOM     17  C   UNL     1     -22.469  44.284  89.295  1.00  0.00     0.000 C 
BRANCH  17  18
ATOM     18  C   UNL     1     -23.930  44.252  88.804  1.00  0.00     0.000 C 
BRANCH  18  19
ATOM     19  C   UNL     1     -24.921  43.857  89.910  1.00  0.00     0.000 C 
BRANCH  19  20
ATOM     20  C   UNL     1     -26.346  44.371  89.635  1.00  0.00     0.006 C 
BRANCH  20  21
ATOM     21  C   UNL     1     -27.339  44.096  90.777  1.00  0.00     0.053 C 
BRANCH  21  22
ATOM     22  C   UNL     1     -28.330  43.031  90.418  1.00  0.00     0.041 C 
ATOM     23  O   UNL     1     -29.256  42.730  91.217  1.00  0.00    -0.550 OA
ATOM     24  O   UNL     1     -28.240  42.381  89.194  1.00  0.00    -0.550 OA
ENDBRANCH  21  22
ENDBRANCH  20  21
ENDBRANCH  19  20
ENDBRANCH  18  19
ENDBRANCH  17  18
ENDBRANCH  16  17
ENDBRANCH  15  16
ENDBRANCH  14  15
ENDBRANCH  13  14
ENDBRANCH   1  13
TORSDOF 20
ENDMDL
MODEL 4
REMARK VINA RESULT:    -5.114      1.174      2.692
REMARK INTER + INTRA:         -13.745
REMARK INTER:                 -10.953
REMARK INTRA:                  -2.792
REMARK UNBOUND:                -2.652
REMARK SMILES CCCCCCCCCCCCCCCCCCCCCC(=O)[O-]
REMARK SMILES IDX 12 1 11 2 10 3 9 4 8 5 7 6 6 7 5 8 4 9 3 10 2 11 1 12 13 13
REMARK SMILES IDX 14 14 15 15 16 16 17 17 18 18 19 19 20 20 21 21 22 22 23 23
REMARK SMILES IDX 24 24
REMARK H PARENT
REMARK Flexibility Score: inf
ROOT
ATOM      1  C   UNL     1     -19.653  41.428  86.718  1.00  0.00     0.000 C 
ENDROOT
BRANCH   1   2
ATOM      2  C   UNL     1     -19.601  42.774  85.974  1.00  0.00     0.000 C 
BRANCH   2   3
ATOM      3  C   UNL     1     -20.809  43.673  86.290  1.00  0.00     0.000 C 
BRANCH   3   4
ATOM      4  C   UNL     1     -20.486  44.908  87.156  1.00  0.00    -0.000 C 
BRANCH   4   5
ATOM      5  C   UNL     1     -21.228  46.202  86.755  1.00  0.00    -0.000 C 
BRANCH   5   6
ATOM      6  C   UNL     1     -22.072  46.101  85.469  1.00  0.00    -0.000 C 
BRANCH   6   7
ATOM      7  C   UNL     1     -21.393  46.761  84.258  1.00  0.00    -0.000 C 
BRANCH   7   8
ATOM      8  C   UNL     1     -20.830  45.735  83.261  1.00  0.00    -0.000 C 
BRANCH   8   9
ATOM      9  C   UNL     1     -19.310  45.868  83.057  1.00  0.00    -0.000 C 
BRANCH   9  10
ATOM     10  C   UNL     1     -18.737  47.125  83.743  1.00  0.00    -0.000 C 
BRANCH  10  11
ATOM     11  C   UNL     1     -17.535  46.831  84.658  1.00  0.00    -0.003 C 
ATOM     12  C   UNL     1     -17.278  45.336  84.848  1.00  0.00     0.004 C 
ENDBRANCH  10  11
ENDBRANCH   9  10
ENDBRANCH   8   9
ENDBRANCH   7   8
ENDBRANCH   6   7
ENDBRANCH   5   6
ENDBRANCH   4   5
ENDBRANCH   3   4
ENDBRANCH   2   3
ENDBRANCH   1   2
BRANCH   1  13
ATOM     13  C   UNL     1     -20.904  41.294  87.603  1.00  0.00     0.000 C 
BRANCH  13  14
ATOM     14  C   UNL     1     -20.586  40.677  88.976  1.00  0.00     0.000 C 
BRANCH  14  15
ATOM     15  C   UNL     1     -21.248  41.443  90.141  1.00  0.00     0.000 C 
BRANCH  15  16
ATOM     16  C   UNL     1     -21.689  42.878  89.788  1.00  0.00     0.000 C 
BRANCH  16  17
ATOM     17  C   UNL     1     -23.171  43.200  90.049  1.00  0.00     0.000 C 
BRANCH  17  18
ATOM     18  C   UNL     1     -23.941  43.757  88.837  1.00  0.00     0.000 C 
BRANCH  18  19
ATOM     19  C   UNL     1     -25.156  44.606  89.243  1.00  0.00     0.000 C 
BRANCH  19  20
ATOM     20  C   UNL     1     -25.877  44.046  90.484  1.00  0.00     0.006 C 
BRANCH  20  21
ATOM     21  C   UNL     1     -27.391  44.320  90.501  1.00  0.00     0.053 C 
BRANCH  21  22
ATOM     22  C   UNL     1     -28.192  43.066  90.320  1.00  0.00     0.041 C 
ATOM     23  O   UNL     1     -28.908  42.629  91.259  1.00  0.00    -0.550 OA
ATOM     24  O   UNL     1     -28.161  42.389  89.107  1.00  0.00    -0.550 OA
ENDBRANCH  21  22
ENDBRANCH  20  21
ENDBRANCH  19  20
ENDBRANCH  18  19
ENDBRANCH  17  18
ENDBRANCH  16  17
ENDBRANCH  15  16
ENDBRANCH  14  15
ENDBRANCH  13  14
ENDBRANCH   1  13
TORSDOF 20
ENDMDL
MODEL 5
REMARK VINA RESULT:    -5.111      2.472      5.751
REMARK INTER + INTRA:         -13.740
REMARK INTER:                 -11.245
REMARK INTRA:                  -2.495
REMARK UNBOUND:                -2.652
REMARK SMILES CCCCCCCCCCCCCCCCCCCCCC(=O)[O-]
REMARK SMILES IDX 12 1 11 2 10 3 9 4 8 5 7 6 6 7 5 8 4 9 3 10 2 11 1 12 13 13
REMARK SMILES IDX 14 14 15 15 16 16 17 17 18 18 19 19 20 20 21 21 22 22 23 23
REMARK SMILES IDX 24 24
REMARK H PARENT
REMARK Flexibility Score: inf
ROOT
ATOM      1  C   UNL     1     -19.601  42.956  85.902  1.00  0.00     0.000 C 
ENDROOT
BRANCH   1   2
ATOM      2  C   UNL     1     -20.301  42.085  86.959  1.00  0.00     0.000 C 
BRANCH   2   3
ATOM      3  C   UNL     1     -19.887  40.605  86.877  1.00  0.00     0.000 C 
BRANCH   3   4
ATOM      4  C   UNL     1     -21.025  39.600  87.151  1.00  0.00    -0.000 C 
BRANCH   4   5
ATOM      5  C   UNL     1     -20.762  38.612  88.309  1.00  0.00    -0.000 C 
BRANCH   5   6
ATOM      6  C   UNL     1     -19.494  37.749  88.159  1.00  0.00    -0.000 C 
BRANCH   6   7
ATOM      7  C   UNL     1     -18.967  37.227  89.506  1.00  0.00    -0.000 C 
BRANCH   7   8
ATOM      8  C   UNL     1     -19.002  38.295  90.611  1.00  0.00    -0.000 C 
BRANCH   8   9
ATOM      9  C   UNL     1     -18.016  39.451  90.361  1.00  0.00    -0.000 C 
BRANCH   9  10
ATOM     10  C   UNL     1     -18.599  40.815  90.786  1.00  0.00    -0.000 C 
BRANCH  10  11
ATOM     11  C   UNL     1     -20.025  40.722  91.356  1.00  0.00    -0.003 C 
ATOM     12  C   UNL     1     -21.057  41.474  90.515  1.00  0.00     0.004 C 
ENDBRANCH  10  11
ENDBRANCH   9  10
ENDBRANCH   8   9
ENDBRANCH   7   8
ENDBRANCH   6   7
ENDBRANCH   5   6
ENDBRANCH   4   5
ENDBRANCH   3   4
ENDBRANCH   2   3
ENDBRANCH   1   2
BRANCH   1  13
ATOM     13  C   UNL     1     -19.917  44.451  86.069  1.00  0.00     0.000 C 
BRANCH  13  14
ATOM     14  C   UNL     1     -21.369  44.696  86.514  1.00  0.00     0.000 C 
BRANCH  14  15
ATOM     15  C   UNL     1     -21.463  45.476  87.842  1.00  0.00     0.000 C 
BRANCH  15  16
ATOM     16  C   UNL     1     -22.151  44.703  88.985  1.00  0.00     0.000 C 
BRANCH  16  17
ATOM     17  C   UNL     1     -23.310  43.784  88.560  1.00  0.00     0.000 C 
BRANCH  17  18
ATOM     18  C   UNL     1     -24.515  43.768  89.520  1.00  0.00     0.000 C 
BRANCH  18  19
ATOM     19  C   UNL     1     -25.321  45.076  89.486  1.00  0.00     0.000 C 
BRANCH  19  20
ATOM     20  C   UNL     1     -26.480  45.080  90.499  1.00  0.00     0.006 C 
BRANCH  20  21
ATOM     21  C   UNL     1     -26.769  43.703  91.121  1.00  0.00     0.053 C 
BRANCH  21  22
ATOM     22  C   UNL     1     -27.954  43.037  90.489  1.00  0.00     0.041 C 
ATOM     23  O   UNL     1     -27.814  42.351  89.443  1.00  0.00    -0.550 OA
ATOM     24  O   UNL     1     -29.212  43.161  91.066  1.00  0.00    -0.550 OA
ENDBRANCH  21  22
ENDBRANCH  20  21
ENDBRANCH  19  20
ENDBRANCH  18  19
ENDBRANCH  17  18
ENDBRANCH  16  17
ENDBRANCH  15  16
ENDBRANCH  14  15
ENDBRANCH  13  14
ENDBRANCH   1  13
TORSDOF 20
ENDMDL
MODEL 6
REMARK VINA RESULT:    -5.075      6.116      8.914
REMARK INTER + INTRA:         -13.661
REMARK INTER:                 -12.041
REMARK INTRA:                  -1.619
REMARK UNBOUND:                -2.652
REMARK SMILES CCCCCCCCCCCCCCCCCCCCCC(=O)[O-]
REMARK SMILES IDX 12 1 11 2 10 3 9 4 8 5 7 6 6 7 5 8 4 9 3 10 2 11 1 12 13 13
REMARK SMILES IDX 14 14 15 15 16 16 17 17 18 18 19 19 20 20 21 21 22 22 23 23
REMARK SMILES IDX 24 24
REMARK H PARENT
REMARK Flexibility Score: inf
ROOT
ATOM      1  C   UNL     1     -20.655  38.849  86.560  1.00  0.00     0.000 C 
ENDROOT
BRANCH   1   2
ATOM      2  C   UNL     1     -19.499  38.221  85.761  1.00  0.00     0.000 C 
BRANCH   2   3
ATOM      3  C   UNL     1     -19.944  37.701  84.384  1.00  0.00     0.000 C 
BRANCH   3   4
ATOM      4  C   UNL     1     -18.866  36.912  83.612  1.00  0.00    -0.000 C 
BRANCH   4   5
ATOM      5  C   UNL     1     -17.537  37.667  83.388  1.00  0.00    -0.000 C 
BRANCH   5   6
ATOM      6  C   UNL     1     -16.318  36.773  83.089  1.00  0.00    -0.000 C 
BRANCH   6   7
ATOM      7  C   UNL     1     -16.617  35.277  83.276  1.00  0.00    -0.000 C 
BRANCH   7   8
ATOM      8  C   UNL     1     -17.308  34.652  82.054  1.00  0.00    -0.000 C 
BRANCH   8   9
ATOM      9  C   UNL     1     -16.988  35.389  80.740  1.00  0.00    -0.000 C 
BRANCH   9  10
ATOM     10  C   UNL     1     -18.222  35.503  79.821  1.00  0.00    -0.000 C 
BRANCH  10  11
ATOM     11  C   UNL     1     -18.712  36.948  79.629  1.00  0.00    -0.003 C 
ATOM     12  C   UNL     1     -18.668  37.408  78.172  1.00  0.00     0.004 C 
ENDBRANCH  10  11
ENDBRANCH   9  10
ENDBRANCH   8   9
ENDBRANCH   7   8
ENDBRANCH   6   7
ENDBRANCH   5   6
ENDBRANCH   4   5
ENDBRANCH   3   4
ENDBRANCH   2   3
ENDBRANCH   1   2
BRANCH   1  13
ATOM     13  C   UNL     1     -20.910  38.124  87.892  1.00  0.00     0.000 C 
BRANCH  13  14
ATOM     14  C   UNL     1     -19.604  37.694  88.583  1.00  0.00     0.000 C 
BRANCH  14  15
ATOM     15  C   UNL     1     -19.437  38.319  89.984  1.00  0.00     0.000 C 
BRANCH  15  16
ATOM     16  C   UNL     1     -20.618  39.203  90.429  1.00  0.00     0.000 C 
BRANCH  16  17
ATOM     17  C   UNL     1     -20.324  40.712  90.513  1.00  0.00     0.000 C 
BRANCH  17  18
ATOM     18  C   UNL     1     -19.922  41.373  89.180  1.00  0.00     0.000 C 
BRANCH  18  19
ATOM     19  C   UNL     1     -21.133  41.848  88.363  1.00  0.00     0.000 C 
BRANCH  19  20
ATOM     20  C   UNL     1     -20.850  43.155  87.597  1.00  0.00     0.006 C 
BRANCH  20  21
ATOM     21  C   UNL     1     -20.193  42.941  86.222  1.00  0.00     0.053 C 
BRANCH  21  22
ATOM     22  C   UNL     1     -20.154  44.203  85.415  1.00  0.00     0.041 C 
ATOM     23  O   UNL     1     -21.199  44.886  85.253  1.00  0.00    -0.550 OA
ATOM     24  O   UNL     1     -18.957  44.633  84.855  1.00  0.00    -0.550 OA
ENDBRANCH  21  22
ENDBRANCH  20  21
ENDBRANCH  19  20
ENDBRANCH  18  19
ENDBRANCH  17  18
ENDBRANCH  16  17
ENDBRANCH  15  16
ENDBRANCH  14  15
ENDBRANCH  13  14
ENDBRANCH   1  13
TORSDOF 20
ENDMDL
MODEL 7
REMARK VINA RESULT:    -4.969      2.545      5.977
REMARK INTER + INTRA:         -13.430
REMARK INTER:                 -10.031
REMARK INTRA:                  -3.400
REMARK UNBOUND:                -2.652
REMARK SMILES CCCCCCCCCCCCCCCCCCCCCC(=O)[O-]
REMARK SMILES IDX 12 1 11 2 10 3 9 4 8 5 7 6 6 7 5 8 4 9 3 10 2 11 1 12 13 13
REMARK SMILES IDX 14 14 15 15 16 16 17 17 18 18 19 19 20 20 21 21 22 22 23 23
REMARK SMILES IDX 24 24
REMARK H PARENT
REMARK Flexibility Score: inf
ROOT
ATOM      1  C   UNL     1     -19.836  42.518  86.901  1.00  0.00     0.000 C 
ENDROOT
BRANCH   1   2
ATOM      2  C   UNL     1     -21.281  41.991  86.870  1.00  0.00     0.000 C 
BRANCH   2   3
ATOM      3  C   UNL     1     -21.799  41.596  88.264  1.00  0.00     0.000 C 
BRANCH   3   4
ATOM      4  C   UNL     1     -20.823  41.892  89.422  1.00  0.00    -0.000 C 
BRANCH   4   5
ATOM      5  C   UNL     1     -21.014  41.014  90.679  1.00  0.00    -0.000 C 
BRANCH   5   6
ATOM      6  C   UNL     1     -19.713  40.486  91.313  1.00  0.00    -0.000 C 
BRANCH   6   7
ATOM      7  C   UNL     1     -18.502  40.605  90.373  1.00  0.00    -0.000 C 
BRANCH   7   8
ATOM      8  C   UNL     1     -17.831  39.250  90.095  1.00  0.00    -0.000 C 
BRANCH   8   9
ATOM      9  C   UNL     1     -18.753  38.052  90.390  1.00  0.00    -0.000 C 
BRANCH   9  10
ATOM     10  C   UNL     1     -19.210  37.338  89.101  1.00  0.00    -0.000 C 
BRANCH  10  11
ATOM     11  C   UNL     1     -20.337  38.076  88.358  1.00  0.00    -0.003 C 
ATOM     12  C   UNL     1     -19.912  38.590  86.983  1.00  0.00     0.004 C 
ENDBRANCH  10  11
ENDBRANCH   9  10
ENDBRANCH   8   9
ENDBRANCH   7   8
ENDBRANCH   6   7
ENDBRANCH   5   6
ENDBRANCH   4   5
ENDBRANCH   3   4
ENDBRANCH   2   3
ENDBRANCH   1   2
BRANCH   1  13
ATOM     13  C   UNL     1     -19.473  43.315  85.637  1.00  0.00     0.000 C 
BRANCH  13  14
ATOM     14  C   UNL     1     -19.650  44.830  85.830  1.00  0.00     0.000 C 
BRANCH  14  15
ATOM     15  C   UNL     1     -20.956  45.364  85.204  1.00  0.00     0.000 C 
BRANCH  15  16
ATOM     16  C   UNL     1     -22.068  45.673  86.226  1.00  0.00     0.000 C 
BRANCH  16  17
ATOM     17  C   UNL     1     -21.631  45.682  87.701  1.00  0.00     0.000 C 
BRANCH  17  18
ATOM     18  C   UNL     1     -22.696  45.192  88.701  1.00  0.00     0.000 C 
BRANCH  18  19
ATOM     19  C   UNL     1     -23.920  44.571  88.009  1.00  0.00     0.000 C 
BRANCH  19  20
ATOM     20  C   UNL     1     -25.222  45.332  88.320  1.00  0.00     0.006 C 
BRANCH  20  21
ATOM     21  C   UNL     1     -25.586  45.358  89.815  1.00  0.00     0.053 C 
BRANCH  21  22
ATOM     22  C   UNL     1     -25.923  43.994  90.335  1.00  0.00     0.041 C 
ATOM     23  O   UNL     1     -26.910  43.364  89.872  1.00  0.00    -0.550 OA
ATOM     24  O   UNL     1     -25.138  43.411  91.322  1.00  0.00    -0.550 OA
ENDBRANCH  21  22
ENDBRANCH  20  21
ENDBRANCH  19  20
ENDBRANCH  18  19
ENDBRANCH  17  18
ENDBRANCH  16  17
ENDBRANCH  15  16
ENDBRANCH  14  15
ENDBRANCH  13  14
ENDBRANCH   1  13
TORSDOF 20
ENDMDL
MODEL 8
REMARK VINA RESULT:    -4.953      1.734      5.036
REMARK INTER + INTRA:         -13.397
REMARK INTER:                 -10.922
REMARK INTRA:                  -2.475
REMARK UNBOUND:                -2.652
REMARK SMILES CCCCCCCCCCCCCCCCCCCCCC(=O)[O-]
REMARK SMILES IDX 12 1 11 2 10 3 9 4 8 5 7 6 6 7 5 8 4 9 3 10 2 11 1 12 13 13
REMARK SMILES IDX 14 14 15 15 16 16 17 17 18 18 19 19 20 20 21 21 22 22 23 23
REMARK SMILES IDX 24 24
REMARK H PARENT
REMARK Flexibility Score: inf
ROOT
ATOM      1  C   UNL     1     -20.088  46.056  85.380  1.00  0.00     0.000 C 
ENDROOT
BRANCH   1   2
ATOM      2  C   UNL     1     -19.381  44.920  84.620  1.00  0.00     0.000 C 
BRANCH   2   3
ATOM      3  C   UNL     1     -19.090  43.702  85.514  1.00  0.00     0.000 C 
BRANCH   3   4
ATOM      4  C   UNL     1     -20.121  43.462  86.636  1.00  0.00    -0.000 C 
BRANCH   4   5
ATOM      5  C   UNL     1     -20.638  42.011  86.752  1.00  0.00    -0.000 C 
BRANCH   5   6
ATOM      6  C   UNL     1     -21.670  41.771  87.870  1.00  0.00    -0.000 C 
BRANCH   6   7
ATOM      7  C   UNL     1     -21.169  42.224  89.251  1.00  0.00    -0.000 C 
BRANCH   7   8
ATOM      8  C   UNL     1     -20.855  41.045  90.185  1.00  0.00    -0.000 C 
BRANCH   8   9
ATOM      9  C   UNL     1     -19.346  40.767  90.317  1.00  0.00    -0.000 C 
BRANCH   9  10
ATOM     10  C   UNL     1     -18.817  39.868  89.180  1.00  0.00    -0.000 C 
BRANCH  10  11
ATOM     11  C   UNL     1     -19.388  38.440  89.213  1.00  0.00    -0.003 C 
ATOM     12  C   UNL     1     -20.362  38.157  88.070  1.00  0.00     0.004 C 
ENDBRANCH  10  11
ENDBRANCH   9  10
ENDBRANCH   8   9
ENDBRANCH   7   8
ENDBRANCH   6   7
ENDBRANCH   5   6
ENDBRANCH   4   5
ENDBRANCH   3   4
ENDBRANCH   2   3
ENDBRANCH   1   2
BRANCH   1  13
ATOM     13  C   UNL     1     -21.487  46.359  84.816  1.00  0.00     0.000 C 
BRANCH  13  14
ATOM     14  C   UNL     1     -22.571  46.355  85.907  1.00  0.00     0.000 C 
BRANCH  14  15
ATOM     15  C   UNL     1     -21.984  46.452  87.331  1.00  0.00     0.000 C 
BRANCH  15  16
ATOM     16  C   UNL     1     -22.917  45.921  88.438  1.00  0.00     0.000 C 
BRANCH  16  17
ATOM     17  C   UNL     1     -23.785  44.711  88.051  1.00  0.00     0.000 C 
BRANCH  17  18
ATOM     18  C   UNL     1     -24.855  44.316  89.087  1.00  0.00     0.000 C 
BRANCH  18  19
ATOM     19  C   UNL     1     -25.663  45.520  89.595  1.00  0.00     0.000 C 
BRANCH  19  20
ATOM     20  C   UNL     1     -26.771  45.111  90.584  1.00  0.00     0.006 C 
BRANCH  20  21
ATOM     21  C   UNL     1     -26.764  43.614  90.942  1.00  0.00     0.053 C 
BRANCH  21  22
ATOM     22  C   UNL     1     -28.003  42.917  90.470  1.00  0.00     0.041 C 
ATOM     23  O   UNL     1     -28.105  42.544  89.272  1.00  0.00    -0.550 OA
ATOM     24  O   UNL     1     -29.041  42.664  91.359  1.00  0.00    -0.550 OA
ENDBRANCH  21  22
ENDBRANCH  20  21
ENDBRANCH  19  20
ENDBRANCH  18  19
ENDBRANCH  17  18
ENDBRANCH  16  17
ENDBRANCH  15  16
ENDBRANCH  14  15
ENDBRANCH  13  14
ENDBRANCH   1  13
TORSDOF 20
ENDMDL
MODEL 9
REMARK VINA RESULT:    -4.897      2.191      5.277
REMARK INTER + INTRA:         -13.275
REMARK INTER:                 -10.857
REMARK INTRA:                  -2.419
REMARK UNBOUND:                -2.652
REMARK SMILES CCCCCCCCCCCCCCCCCCCCCC(=O)[O-]
REMARK SMILES IDX 12 1 11 2 10 3 9 4 8 5 7 6 6 7 5 8 4 9 3 10 2 11 1 12 13 13
REMARK SMILES IDX 14 14 15 15 16 16 17 17 18 18 19 19 20 20 21 21 22 22 23 23
REMARK SMILES IDX 24 24
REMARK H PARENT
REMARK Flexibility Score: inf
ROOT
ATOM      1  C   UNL     1     -22.058  43.560  87.643  1.00  0.00     0.000 C 
ENDROOT
BRANCH   1   2
ATOM      2  C   UNL     1     -21.055  43.161  88.739  1.00  0.00     0.000 C 
BRANCH   2   3
ATOM      3  C   UNL     1     -21.731  42.477  89.940  1.00  0.00     0.000 C 
BRANCH   3   4
ATOM      4  C   UNL     1     -21.120  41.117  90.337  1.00  0.00    -0.000 C 
BRANCH   4   5
ATOM      5  C   UNL     1     -19.583  41.110  90.495  1.00  0.00    -0.000 C 
BRANCH   5   6
ATOM      6  C   UNL     1     -19.000  39.859  91.179  1.00  0.00    -0.000 C 
BRANCH   6   7
ATOM      7  C   UNL     1     -18.430  38.843  90.175  1.00  0.00    -0.000 C 
BRANCH   7   8
ATOM      8  C   UNL     1     -19.496  37.869  89.646  1.00  0.00    -0.000 C 
BRANCH   8   9
ATOM      9  C   UNL     1     -19.653  37.924  88.115  1.00  0.00    -0.000 C 
BRANCH   9  10
ATOM     10  C   UNL     1     -21.031  38.472  87.691  1.00  0.00    -0.000 C 
BRANCH  10  11
ATOM     11  C   UNL     1     -20.957  39.831  86.974  1.00  0.00    -0.003 C 
ATOM     12  C   UNL     1     -19.532  40.375  86.866  1.00  0.00     0.004 C 
ENDBRANCH  10  11
ENDBRANCH   9  10
ENDBRANCH   8   9
ENDBRANCH   7   8
ENDBRANCH   6   7
ENDBRANCH   5   6
ENDBRANCH   4   5
ENDBRANCH   3   4
ENDBRANCH   2   3
ENDBRANCH   1   2
BRANCH   1  13
ATOM     13  C   UNL     1     -21.420  44.439  86.554  1.00  0.00     0.000 C 
BRANCH  13  14
ATOM     14  C   UNL     1     -22.126  45.798  86.410  1.00  0.00     0.000 C 
BRANCH  14  15
ATOM     15  C   UNL     1     -23.243  46.004  87.456  1.00  0.00     0.000 C 
BRANCH  15  16
ATOM     16  C   UNL     1     -24.605  46.408  86.858  1.00  0.00     0.000 C 
BRANCH  16  17
ATOM     17  C   UNL     1     -25.838  45.784  87.535  1.00  0.00     0.000 C 
BRANCH  17  18
ATOM     18  C   UNL     1     -26.377  46.560  88.752  1.00  0.00     0.000 C 
BRANCH  18  19
ATOM     19  C   UNL     1     -25.887  45.982  90.089  1.00  0.00     0.000 C 
BRANCH  19  20
ATOM     20  C   UNL     1     -25.942  44.444  90.122  1.00  0.00     0.006 C 
BRANCH  20  21
ATOM     21  C   UNL     1     -26.905  43.877  91.180  1.00  0.00     0.053 C 
BRANCH  21  22
ATOM     22  C   UNL     1     -28.003  43.065  90.564  1.00  0.00     0.041 C 
ATOM     23  O   UNL     1     -29.171  43.120  91.029  1.00  0.00    -0.550 OA
ATOM     24  O   UNL     1     -27.739  42.257  89.464  1.00  0.00    -0.550 OA
ENDBRANCH  21  22
ENDBRANCH  20  21
ENDBRANCH  19  20
ENDBRANCH  18  19
ENDBRANCH  17  18
ENDBRANCH  16  17
ENDBRANCH  15  16
ENDBRANCH  14  15
ENDBRANCH  13  14
ENDBRANCH   1  13
TORSDOF 20
ENDMDL
