MODEL 1
REMARK VINA RESULT:    -4.609      0.000      0.000
REMARK INTER + INTRA:          -8.478
REMARK INTER:                  -7.304
REMARK INTRA:                  -1.174
REMARK UNBOUND:                -1.174
REMARK SMILES CCCCCCCCCCCC(=O)[O-]
REMARK SMILES IDX 7 1 8 2 9 3 10 4 11 5 12 6 13 7 14 8 6 9 5 10 4 11 3 12 2 13
REMARK SMILES IDX 1 14
REMARK H PARENT
REMARK Flexibility Score: inf
ROOT
ATOM      1  C   UNL     1      13.396  12.673  33.333  1.00  0.00     0.000 C 
ENDROOT
BRANCH   1   2
ATOM      2  C   UNL     1      13.543  11.161  33.580  1.00  0.00     0.000 C 
BRANCH   2   3
ATOM      3  C   UNL     1      14.993  10.668  33.749  1.00  0.00     0.000 C 
BRANCH   3   4
ATOM      4  C   UNL     1      16.031  11.787  33.559  1.00  0.00     0.006 C 
BRANCH   4   5
ATOM      5  C   UNL     1      16.683  12.204  34.884  1.00  0.00     0.053 C 
BRANCH   5   6
ATOM      6  C   UNL     1      17.083  13.648  34.873  1.00  0.00     0.041 C 
ATOM      7  O   UNL     1      16.589  14.436  34.026  1.00  0.00    -0.550 OA
ATOM      8  O   UNL     1      18.027  14.114  35.779  1.00  0.00    -0.550 OA
ENDBRANCH   5   6
ENDBRANCH   4   5
ENDBRANCH   3   4
ENDBRANCH   2   3
ENDBRANCH   1   2
BRANCH   1   9
ATOM      9  C   UNL     1      12.519  13.371  34.383  1.00  0.00     0.000 C 
BRANCH   9  10
ATOM     10  C   UNL     1      13.371  13.928  35.530  1.00  0.00    -0.000 C 
BRANCH  10  11
ATOM     11  C   UNL     1      13.426  12.940  36.703  1.00  0.00    -0.000 C 
BRANCH  11  12
ATOM     12  C   UNL     1      12.129  12.126  36.863  1.00  0.00    -0.000 C 
BRANCH  12  13
ATOM     13  C   UNL     1      11.553  12.102  38.290  1.00  0.00    -0.003 C 
ATOM     14  C   UNL     1      10.052  12.389  38.335  1.00  0.00     0.004 C 
ENDBRANCH  12  13
ENDBRANCH  11  12
ENDBRANCH  10  11
ENDBRANCH   9  10
ENDBRANCH   1   9
TORSDOF 10
ENDMDL
MODEL 2
REMARK VINA RESULT:    -4.535      1.169      1.727
REMARK INTER + INTRA:          -8.360
REMARK INTER:                  -7.098
REMARK INTRA:                  -1.262
REMARK UNBOUND:                -1.174
REMARK SMILES CCCCCCCCCCCC(=O)[O-]
REMARK SMILES IDX 7 1 8 2 9 3 10 4 11 5 12 6 13 7 14 8 6 9 5 10 4 11 3 12 2 13
REMARK SMILES IDX 1 14
REMARK H PARENT
REMARK Flexibility Score: inf
ROOT
ATOM      1  C   UNL     1      13.512  11.477  33.052  1.00  0.00     0.000 C 
ENDROOT
BRANCH   1   2
ATOM      2  C   UNL     1      14.942  10.909  33.114  1.00  0.00     0.000 C 
BRANCH   2   3
ATOM      3  C   UNL     1      15.777  11.385  34.317  1.00  0.00     0.000 C 
BRANCH   3   4
ATOM      4  C   UNL     1      16.959  12.281  33.909  1.00  0.00     0.006 C 
BRANCH   4   5
ATOM      5  C   UNL     1      16.804  13.716  34.430  1.00  0.00     0.053 C 
BRANCH   5   6
ATOM      6  C   UNL     1      17.698  13.979  35.602  1.00  0.00     0.041 C 
ATOM      7  O   UNL     1      17.506  13.383  36.693  1.00  0.00    -0.550 OA
ATOM      8  O   UNL     1      18.726  14.908  35.497  1.00  0.00    -0.550 OA
ENDBRANCH   5   6
ENDBRANCH   4   5
ENDBRANCH   3   4
ENDBRANCH   2   3
ENDBRANCH   1   2
BRANCH   1   9
ATOM      9  C   UNL     1      13.461  12.999  33.251  1.00  0.00     0.000 C 
BRANCH   9  10
ATOM     10  C   UNL     1      12.447  13.379  34.337  1.00  0.00    -0.000 C 
BRANCH  10  11
ATOM     11  C   UNL     1      13.146  14.031  35.537  1.00  0.00    -0.000 C 
BRANCH  11  12
ATOM     12  C   UNL     1      13.437  13.035  36.675  1.00  0.00    -0.000 C 
BRANCH  12  13
ATOM     13  C   UNL     1      12.210  12.256  37.182  1.00  0.00    -0.003 C 
ATOM     14  C   UNL     1      12.233  10.779  36.787  1.00  0.00     0.004 C 
ENDBRANCH  12  13
ENDBRANCH  11  12
ENDBRANCH  10  11
ENDBRANCH   9  10
ENDBRANCH   1   9
TORSDOF 10
ENDMDL
MODEL 3
REMARK VINA RESULT:    -4.523      1.451      2.742
REMARK INTER + INTRA:          -8.342
REMARK INTER:                  -6.786
REMARK INTRA:                  -1.556
REMARK UNBOUND:                -1.174
REMARK SMILES CCCCCCCCCCCC(=O)[O-]
REMARK SMILES IDX 7 1 8 2 9 3 10 4 11 5 12 6 13 7 14 8 6 9 5 10 4 11 3 12 2 13
REMARK SMILES IDX 1 14
REMARK H PARENT
REMARK Flexibility Score: inf
ROOT
ATOM      1  C   UNL     1      14.880  10.300  34.651  1.00  0.00     0.000 C 
ENDROOT
BRANCH   1   2
ATOM      2  C   UNL     1      15.879  10.919  35.645  1.00  0.00     0.000 C 
BRANCH   2   3
ATOM      3  C   UNL     1      16.994  11.766  35.002  1.00  0.00     0.000 C 
BRANCH   3   4
ATOM      4  C   UNL     1      17.003  13.221  35.501  1.00  0.00     0.006 C 
BRANCH   4   5
ATOM      5  C   UNL     1      17.101  14.228  34.347  1.00  0.00     0.053 C 
BRANCH   5   6
ATOM      6  C   UNL     1      18.460  14.853  34.274  1.00  0.00     0.041 C 
ATOM      7  O   UNL     1      18.584  16.106  34.275  1.00  0.00    -0.550 OA
ATOM      8  O   UNL     1      19.590  14.050  34.170  1.00  0.00    -0.550 OA
ENDBRANCH   5   6
ENDBRANCH   4   5
ENDBRANCH   3   4
ENDBRANCH   2   3
ENDBRANCH   1   2
BRANCH   1   9
ATOM      9  C   UNL     1      14.792  11.073  33.327  1.00  0.00     0.000 C 
BRANCH   9  10
ATOM     10  C   UNL     1      13.451  11.808  33.207  1.00  0.00    -0.000 C 
BRANCH  10  11
ATOM     11  C   UNL     1      13.548  13.224  33.791  1.00  0.00    -0.000 C 
BRANCH  11  12
ATOM     12  C   UNL     1      12.605  13.444  34.988  1.00  0.00    -0.000 C 
BRANCH  12  13
ATOM     13  C   UNL     1      13.286  13.380  36.367  1.00  0.00    -0.003 C 
ATOM     14  C   UNL     1      12.735  12.266  37.257  1.00  0.00     0.004 C 
ENDBRANCH  12  13
ENDBRANCH  11  12
ENDBRANCH  10  11
ENDBRANCH   9  10
ENDBRANCH   1   9
TORSDOF 10
ENDMDL
MODEL 4
REMARK VINA RESULT:    -4.466      3.410      5.374
REMARK INTER + INTRA:          -8.252
REMARK INTER:                  -6.709
REMARK INTRA:                  -1.543
REMARK UNBOUND:                -1.174
REMARK SMILES CCCCCCCCCCCC(=O)[O-]
REMARK SMILES IDX 7 1 8 2 9 3 10 4 11 5 12 6 13 7 14 8 6 9 5 10 4 11 3 12 2 13
REMARK SMILES IDX 1 14
REMARK H PARENT
REMARK Flexibility Score: inf
ROOT
ATOM      1  C   UNL     1      13.997  13.594  33.936  1.00  0.00     0.000 C 
ENDROOT
BRANCH   1   2
ATOM      2  C   UNL     1      13.482  14.110  35.292  1.00  0.00     0.000 C 
BRANCH   2   3
ATOM      3  C   UNL     1      12.262  13.357  35.852  1.00  0.00     0.000 C 
BRANCH   3   4
ATOM      4  C   UNL     1      12.588  12.546  37.118  1.00  0.00     0.006 C 
BRANCH   4   5
ATOM      5  C   UNL     1      11.862  11.194  37.142  1.00  0.00     0.053 C 
BRANCH   5   6
ATOM      6  C   UNL     1      10.893  11.107  38.281  1.00  0.00     0.041 C 
ATOM      7  O   UNL     1      10.242  12.122  38.639  1.00  0.00    -0.550 OA
ATOM      8  O   UNL     1      10.736   9.910  38.969  1.00  0.00    -0.550 OA
ENDBRANCH   5   6
ENDBRANCH   4   5
ENDBRANCH   3   4
ENDBRANCH   2   3
ENDBRANCH   1   2
BRANCH   1   9
ATOM      9  C   UNL     1      13.163  12.431  33.380  1.00  0.00     0.000 C 
BRANCH   9  10
ATOM     10  C   UNL     1      14.047  11.217  33.070  1.00  0.00    -0.000 C 
BRANCH  10  11
ATOM     11  C   UNL     1      15.283  11.192  33.980  1.00  0.00    -0.000 C 
BRANCH  11  12
ATOM     12  C   UNL     1      15.037  10.448  35.305  1.00  0.00    -0.000 C 
BRANCH  12  13
ATOM     13  C   UNL     1      15.940  10.888  36.471  1.00  0.00    -0.003 C 
ATOM     14  C   UNL     1      16.479  12.309  36.309  1.00  0.00     0.004 C 
ENDBRANCH  12  13
ENDBRANCH  11  12
ENDBRANCH  10  11
ENDBRANCH   9  10
ENDBRANCH   1   9
TORSDOF 10
ENDMDL
MODEL 5
REMARK VINA RESULT:    -4.464      2.778      5.034
REMARK INTER + INTRA:          -8.248
REMARK INTER:                  -6.568
REMARK INTRA:                  -1.680
REMARK UNBOUND:                -1.174
REMARK SMILES CCCCCCCCCCCC(=O)[O-]
REMARK SMILES IDX 7 1 8 2 9 3 10 4 11 5 12 6 13 7 14 8 6 9 5 10 4 11 3 12 2 13
REMARK SMILES IDX 1 14
REMARK H PARENT
REMARK Flexibility Score: inf
ROOT
ATOM      1  C   UNL     1      13.483  12.801  33.331  1.00  0.00     0.000 C 
ENDROOT
BRANCH   1   2
ATOM      2  C   UNL     1      12.409  13.043  34.407  1.00  0.00     0.000 C 
BRANCH   2   3
ATOM      3  C   UNL     1      12.956  13.373  35.808  1.00  0.00     0.000 C 
BRANCH   3   4
ATOM      4  C   UNL     1      12.228  12.614  36.930  1.00  0.00     0.006 C 
BRANCH   4   5
ATOM      5  C   UNL     1      13.095  11.501  37.534  1.00  0.00     0.053 C 
BRANCH   5   6
ATOM      6  C   UNL     1      12.749  10.160  36.961  1.00  0.00     0.041 C 
ATOM      7  O   UNL     1      13.569   9.208  37.035  1.00  0.00    -0.550 OA
ATOM      8  O   UNL     1      11.533   9.973  36.316  1.00  0.00    -0.550 OA
ENDBRANCH   5   6
ENDBRANCH   4   5
ENDBRANCH   3   4
ENDBRANCH   2   3
ENDBRANCH   1   2
BRANCH   1   9
ATOM      9  C   UNL     1      13.526  11.346  32.842  1.00  0.00     0.000 C 
BRANCH   9  10
ATOM     10  C   UNL     1      14.414  10.486  33.749  1.00  0.00    -0.000 C 
BRANCH  10  11
ATOM     11  C   UNL     1      15.771  11.162  33.989  1.00  0.00    -0.000 C 
BRANCH  11  12
ATOM     12  C   UNL     1      16.155  11.220  35.479  1.00  0.00    -0.000 C 
BRANCH  12  13
ATOM     13  C   UNL     1      16.570  12.613  35.987  1.00  0.00    -0.003 C 
ATOM     14  C   UNL     1      16.631  13.661  34.876  1.00  0.00     0.004 C 
ENDBRANCH  12  13
ENDBRANCH  11  12
ENDBRANCH  10  11
ENDBRANCH   9  10
ENDBRANCH   1   9
TORSDOF 10
ENDMDL
MODEL 6
REMARK VINA RESULT:    -4.440      1.936      3.422
REMARK INTER + INTRA:          -8.209
REMARK INTER:                  -6.803
REMARK INTRA:                  -1.406
REMARK UNBOUND:                -1.174
REMARK SMILES CCCCCCCCCCCC(=O)[O-]
REMARK SMILES IDX 7 1 8 2 9 3 10 4 11 5 12 6 13 7 14 8 6 9 5 10 4 11 3 12 2 13
REMARK SMILES IDX 1 14
REMARK H PARENT
REMARK Flexibility Score: inf
ROOT
ATOM      1  C   UNL     1      14.965  10.566  36.917  1.00  0.00     0.000 C 
ENDROOT
BRANCH   1   2
ATOM      2  C   UNL     1      15.872  11.043  35.768  1.00  0.00     0.000 C 
BRANCH   2   3
ATOM      3  C   UNL     1      16.403  12.481  35.914  1.00  0.00     0.000 C 
BRANCH   3   4
ATOM      4  C   UNL     1      16.762  13.127  34.565  1.00  0.00     0.006 C 
BRANCH   4   5
ATOM      5  C   UNL     1      17.019  12.081  33.472  1.00  0.00     0.053 C 
BRANCH   5   6
ATOM      6  C   UNL     1      18.483  11.904  33.211  1.00  0.00     0.041 C 
ATOM      7  O   UNL     1      18.879  11.064  32.361  1.00  0.00    -0.550 OA
ATOM      8  O   UNL     1      19.412  12.644  33.932  1.00  0.00    -0.550 OA
ENDBRANCH   5   6
ENDBRANCH   4   5
ENDBRANCH   3   4
ENDBRANCH   2   3
ENDBRANCH   1   2
BRANCH   1   9
ATOM      9  C   UNL     1      13.470  10.749  36.618  1.00  0.00     0.000 C 
BRANCH   9  10
ATOM     10  C   UNL     1      12.880  11.898  37.445  1.00  0.00    -0.000 C 
BRANCH  10  11
ATOM     11  C   UNL     1      12.090  12.867  36.553  1.00  0.00    -0.000 C 
BRANCH  11  12
ATOM     12  C   UNL     1      12.974  13.582  35.516  1.00  0.00    -0.000 C 
BRANCH  12  13
ATOM     13  C   UNL     1      12.526  13.408  34.054  1.00  0.00    -0.003 C 
ATOM     14  C   UNL     1      13.324  12.341  33.306  1.00  0.00     0.004 C 
ENDBRANCH  12  13
ENDBRANCH  11  12
ENDBRANCH  10  11
ENDBRANCH   9  10
ENDBRANCH   1   9
TORSDOF 10
ENDMDL
MODEL 7
REMARK VINA RESULT:    -4.409      1.620      2.560
REMARK INTER + INTRA:          -8.161
REMARK INTER:                  -6.878
REMARK INTRA:                  -1.283
REMARK UNBOUND:                -1.174
REMARK SMILES CCCCCCCCCCCC(=O)[O-]
REMARK SMILES IDX 7 1 8 2 9 3 10 4 11 5 12 6 13 7 14 8 6 9 5 10 4 11 3 12 2 13
REMARK SMILES IDX 1 14
REMARK H PARENT
REMARK Flexibility Score: inf
ROOT
ATOM      1  C   UNL     1      13.154  14.104  35.255  1.00  0.00     0.000 C 
ENDROOT
BRANCH   1   2
ATOM      2  C   UNL     1      12.694  13.318  34.014  1.00  0.00     0.000 C 
BRANCH   2   3
ATOM      3  C   UNL     1      13.076  11.827  34.011  1.00  0.00     0.000 C 
BRANCH   3   4
ATOM      4  C   UNL     1      14.217  11.502  33.031  1.00  0.00     0.006 C 
BRANCH   4   5
ATOM      5  C   UNL     1      15.503  11.085  33.757  1.00  0.00     0.053 C 
BRANCH   5   6
ATOM      6  C   UNL     1      16.585  12.108  33.594  1.00  0.00     0.041 C 
ATOM      7  O   UNL     1      16.357  13.320  33.845  1.00  0.00    -0.550 OA
ATOM      8  O   UNL     1      17.839  11.725  33.133  1.00  0.00    -0.550 OA
ENDBRANCH   5   6
ENDBRANCH   4   5
ENDBRANCH   3   4
ENDBRANCH   2   3
ENDBRANCH   1   2
BRANCH   1   9
ATOM      9  C   UNL     1      13.381  13.209  36.483  1.00  0.00     0.000 C 
BRANCH   9  10
ATOM     10  C   UNL     1      12.050  12.844  37.151  1.00  0.00    -0.000 C 
BRANCH  10  11
ATOM     11  C   UNL     1      12.174  11.536  37.944  1.00  0.00    -0.000 C 
BRANCH  11  12
ATOM     12  C   UNL     1      13.495  10.792  37.671  1.00  0.00    -0.000 C 
BRANCH  12  13
ATOM     13  C   UNL     1      13.353   9.508  36.833  1.00  0.00    -0.003 C 
ATOM     14  C   UNL     1      11.917   9.243  36.383  1.00  0.00     0.004 C 
ENDBRANCH  12  13
ENDBRANCH  11  12
ENDBRANCH  10  11
ENDBRANCH   9  10
ENDBRANCH   1   9
TORSDOF 10
ENDMDL
MODEL 8
REMARK VINA RESULT:    -4.380      1.948      3.669
REMARK INTER + INTRA:          -8.114
REMARK INTER:                  -6.660
REMARK INTRA:                  -1.455
REMARK UNBOUND:                -1.174
REMARK SMILES CCCCCCCCCCCC(=O)[O-]
REMARK SMILES IDX 7 1 8 2 9 3 10 4 11 5 12 6 13 7 14 8 6 9 5 10 4 11 3 12 2 13
REMARK SMILES IDX 1 14
REMARK H PARENT
REMARK Flexibility Score: inf
ROOT
ATOM      1  C   UNL     1      13.367  12.238  37.101  1.00  0.00     0.000 C 
ENDROOT
BRANCH   1   2
ATOM      2  C   UNL     1      14.582  11.335  36.825  1.00  0.00     0.000 C 
BRANCH   2   3
ATOM      3  C   UNL     1      15.853  12.078  36.371  1.00  0.00     0.000 C 
BRANCH   3   4
ATOM      4  C   UNL     1      16.860  11.160  35.656  1.00  0.00     0.006 C 
BRANCH   4   5
ATOM      5  C   UNL     1      17.543  11.860  34.474  1.00  0.00     0.053 C 
BRANCH   5   6
ATOM      6  C   UNL     1      19.035  11.760  34.560  1.00  0.00     0.041 C 
ATOM      7  O   UNL     1      19.763  12.496  33.845  1.00  0.00    -0.550 OA
ATOM      8  O   UNL     1      19.621  10.827  35.407  1.00  0.00    -0.550 OA
ENDBRANCH   5   6
ENDBRANCH   4   5
ENDBRANCH   3   4
ENDBRANCH   2   3
ENDBRANCH   1   2
BRANCH   1   9
ATOM      9  C   UNL     1      12.404  12.333  35.908  1.00  0.00     0.000 C 
BRANCH   9  10
ATOM     10  C   UNL     1      12.626  13.631  35.123  1.00  0.00    -0.000 C 
BRANCH  10  11
ATOM     11  C   UNL     1      13.551  13.396  33.921  1.00  0.00    -0.000 C 
BRANCH  11  12
ATOM     12  C   UNL     1      13.166  12.149  33.104  1.00  0.00    -0.000 C 
BRANCH  12  13
ATOM     13  C   UNL     1      14.307  11.139  32.888  1.00  0.00    -0.003 C 
ATOM     14  C   UNL     1      13.991   9.751  33.444  1.00  0.00     0.004 C 
ENDBRANCH  12  13
ENDBRANCH  11  12
ENDBRANCH  10  11
ENDBRANCH   9  10
ENDBRANCH   1   9
TORSDOF 10
ENDMDL
MODEL 9
REMARK VINA RESULT:    -4.360      1.090      1.218
REMARK INTER + INTRA:          -8.084
REMARK INTER:                  -7.072
REMARK INTRA:                  -1.012
REMARK UNBOUND:                -1.174
REMARK SMILES CCCCCCCCCCCC(=O)[O-]
REMARK SMILES IDX 7 1 8 2 9 3 10 4 11 5 12 6 13 7 14 8 6 9 5 10 4 11 3 12 2 13
REMARK SMILES IDX 1 14
REMARK H PARENT
REMARK Flexibility Score: inf
ROOT
ATOM      1  C   UNL     1      13.263  12.940  33.352  1.00  0.00     0.000 C 
ENDROOT
BRANCH   1   2
ATOM      2  C   UNL     1      13.536  11.425  33.376  1.00  0.00     0.000 C 
BRANCH   2   3
ATOM      3  C   UNL     1      14.986  11.021  33.048  1.00  0.00     0.000 C 
BRANCH   3   4
ATOM      4  C   UNL     1      15.963  11.309  34.201  1.00  0.00     0.006 C 
BRANCH   4   5
ATOM      5  C   UNL     1      16.769  12.595  33.969  1.00  0.00     0.053 C 
BRANCH   5   6
ATOM      6  C   UNL     1      18.174  12.464  34.472  1.00  0.00     0.041 C 
ATOM      7  O   UNL     1      18.848  11.435  34.209  1.00  0.00    -0.550 OA
ATOM      8  O   UNL     1      18.725  13.467  35.260  1.00  0.00    -0.550 OA
ENDBRANCH   5   6
ENDBRANCH   4   5
ENDBRANCH   3   4
ENDBRANCH   2   3
ENDBRANCH   1   2
BRANCH   1   9
ATOM      9  C   UNL     1      12.497  13.432  34.589  1.00  0.00     0.000 C 
BRANCH   9  10
ATOM     10  C   UNL     1      13.462  13.857  35.702  1.00  0.00    -0.000 C 
BRANCH  10  11
ATOM     11  C   UNL     1      13.505  12.808  36.821  1.00  0.00    -0.000 C 
BRANCH  11  12
ATOM     12  C   UNL     1      12.206  11.989  36.926  1.00  0.00    -0.000 C 
BRANCH  12  13
ATOM     13  C   UNL     1      11.531  12.021  38.310  1.00  0.00    -0.003 C 
ATOM     14  C   UNL     1      10.136  12.644  38.281  1.00  0.00     0.004 C 
ENDBRANCH  12  13
ENDBRANCH  11  12
ENDBRANCH  10  11
ENDBRANCH   9  10
ENDBRANCH   1   9
TORSDOF 10
ENDMDL
