MODEL 1
REMARK VINA RESULT:    -4.381      0.000      0.000
REMARK INTER + INTRA:          -8.466
REMARK INTER:                  -6.942
REMARK INTRA:                  -1.524
REMARK UNBOUND:                -1.524
REMARK SMILES CCCCCCCCCCCC(=O)[O-]
REMARK SMILES IDX 7 1 8 2 9 3 10 4 11 5 12 6 13 7 14 8 6 9 5 10 4 11 3 12 2 13
REMARK SMILES IDX 1 14
REMARK H PARENT
REMARK Flexibility Score: inf
ROOT
ATOM      1  C   UNL     1       3.984   2.842  14.142  1.00  0.00     0.000 C 
ENDROOT
BRANCH   1   2
ATOM      2  C   UNL     1       4.546   3.146  15.542  1.00  0.00     0.000 C 
BRANCH   2   3
ATOM      3  C   UNL     1       4.237   2.033  16.556  1.00  0.00     0.000 C 
BRANCH   3   4
ATOM      4  C   UNL     1       5.387   1.019  16.692  1.00  0.00     0.006 C 
BRANCH   4   5
ATOM      5  C   UNL     1       5.334   0.257  18.023  1.00  0.00     0.053 C 
BRANCH   5   6
ATOM      6  C   UNL     1       5.829  -1.149  17.882  1.00  0.00     0.041 C 
ATOM      7  O   UNL     1       6.286  -1.763  18.882  1.00  0.00    -0.550 OA
ATOM      8  O   UNL     1       5.814  -1.772  16.640  1.00  0.00    -0.550 OA
ENDBRANCH   5   6
ENDBRANCH   4   5
ENDBRANCH   3   4
ENDBRANCH   2   3
ENDBRANCH   1   2
BRANCH   1   9
ATOM      9  C   UNL     1       5.057   2.311  13.177  1.00  0.00     0.000 C 
BRANCH   9  10
ATOM     10  C   UNL     1       4.999   0.785  13.003  1.00  0.00    -0.000 C 
BRANCH  10  11
ATOM     11  C   UNL     1       3.593   0.253  13.314  1.00  0.00    -0.000 C 
BRANCH  11  12
ATOM     12  C   UNL     1       3.618  -1.049  14.132  1.00  0.00    -0.000 C 
BRANCH  12  13
ATOM     13  C   UNL     1       2.568  -1.064  15.252  1.00  0.00    -0.003 C 
ATOM     14  C   UNL     1       1.509   0.012  15.026  1.00  0.00     0.004 C 
ENDBRANCH  12  13
ENDBRANCH  11  12
ENDBRANCH  10  11
ENDBRANCH   9  10
ENDBRANCH   1   9
TORSDOF 10
ENDMDL
MODEL 2
REMARK VINA RESULT:    -4.228      1.228      2.447
REMARK INTER + INTRA:          -8.223
REMARK INTER:                  -6.689
REMARK INTRA:                  -1.534
REMARK UNBOUND:                -1.524
REMARK SMILES CCCCCCCCCCCC(=O)[O-]
REMARK SMILES IDX 7 1 8 2 9 3 10 4 11 5 12 6 13 7 14 8 6 9 5 10 4 11 3 12 2 13
REMARK SMILES IDX 1 14
REMARK H PARENT
REMARK Flexibility Score: inf
ROOT
ATOM      1  C   UNL     1       3.307   2.362  14.733  1.00  0.00     0.000 C 
ENDROOT
BRANCH   1   2
ATOM      2  C   UNL     1       4.265   2.854  15.832  1.00  0.00     0.000 C 
BRANCH   2   3
ATOM      3  C   UNL     1       4.404   1.849  16.987  1.00  0.00     0.000 C 
BRANCH   3   4
ATOM      4  C   UNL     1       5.654   0.961  16.854  1.00  0.00     0.006 C 
BRANCH   4   5
ATOM      5  C   UNL     1       5.370  -0.500  17.227  1.00  0.00     0.053 C 
BRANCH   5   6
ATOM      6  C   UNL     1       5.668  -0.775  18.668  1.00  0.00     0.041 C 
ATOM      7  O   UNL     1       6.525  -1.642  18.984  1.00  0.00    -0.550 OA
ATOM      8  O   UNL     1       4.978  -0.096  19.665  1.00  0.00    -0.550 OA
ENDBRANCH   5   6
ENDBRANCH   4   5
ENDBRANCH   3   4
ENDBRANCH   2   3
ENDBRANCH   1   2
BRANCH   1   9
ATOM      9  C   UNL     1       2.473   1.148  15.176  1.00  0.00     0.000 C 
BRANCH   9  10
ATOM     10  C   UNL     1       2.693  -0.083  14.283  1.00  0.00    -0.000 C 
BRANCH  10  11
ATOM     11  C   UNL     1       3.726   0.215  13.186  1.00  0.00    -0.000 C 
BRANCH  11  12
ATOM     12  C   UNL     1       4.790  -0.888  13.058  1.00  0.00    -0.000 C 
BRANCH  12  13
ATOM     13  C   UNL     1       6.168  -0.442  13.566  1.00  0.00    -0.003 C 
ATOM     14  C   UNL     1       6.459   1.002  13.167  1.00  0.00     0.004 C 
ENDBRANCH  12  13
ENDBRANCH  11  12
ENDBRANCH  10  11
ENDBRANCH   9  10
ENDBRANCH   1   9
TORSDOF 10
ENDMDL
MODEL 3
REMARK VINA RESULT:    -4.221      1.428      2.420
REMARK INTER + INTRA:          -8.213
REMARK INTER:                  -6.705
REMARK INTRA:                  -1.507
REMARK UNBOUND:                -1.524
REMARK SMILES CCCCCCCCCCCC(=O)[O-]
REMARK SMILES IDX 7 1 8 2 9 3 10 4 11 5 12 6 13 7 14 8 6 9 5 10 4 11 3 12 2 13
REMARK SMILES IDX 1 14
REMARK H PARENT
REMARK Flexibility Score: inf
ROOT
ATOM      1  C   UNL     1       5.782   0.976  13.240  1.00  0.00     0.000 C 
ENDROOT
BRANCH   1   2
ATOM      2  C   UNL     1       6.175   0.491  14.647  1.00  0.00     0.000 C 
BRANCH   2   3
ATOM      3  C   UNL     1       5.923  -1.012  14.845  1.00  0.00     0.000 C 
BRANCH   3   4
ATOM      4  C   UNL     1       5.517  -1.360  16.288  1.00  0.00     0.006 C 
BRANCH   4   5
ATOM      5  C   UNL     1       5.507  -0.126  17.201  1.00  0.00     0.053 C 
BRANCH   5   6
ATOM      6  C   UNL     1       5.582  -0.502  18.648  1.00  0.00     0.041 C 
ATOM      7  O   UNL     1       4.829   0.058  19.488  1.00  0.00    -0.550 OA
ATOM      8  O   UNL     1       6.503  -1.450  19.076  1.00  0.00    -0.550 OA
ENDBRANCH   5   6
ENDBRANCH   4   5
ENDBRANCH   3   4
ENDBRANCH   2   3
ENDBRANCH   1   2
BRANCH   1   9
ATOM      9  C   UNL     1       4.642   2.008  13.268  1.00  0.00     0.000 C 
BRANCH   9  10
ATOM     10  C   UNL     1       4.375   2.562  14.676  1.00  0.00    -0.000 C 
BRANCH  10  11
ATOM     11  C   UNL     1       2.881   2.478  15.022  1.00  0.00    -0.000 C 
BRANCH  11  12
ATOM     12  C   UNL     1       2.527   1.209  15.816  1.00  0.00    -0.000 C 
BRANCH  12  13
ATOM     13  C   UNL     1       1.569   0.283  15.054  1.00  0.00    -0.003 C 
ATOM     14  C   UNL     1       2.339  -0.749  14.234  1.00  0.00     0.004 C 
ENDBRANCH  12  13
ENDBRANCH  11  12
ENDBRANCH  10  11
ENDBRANCH   9  10
ENDBRANCH   1   9
TORSDOF 10
ENDMDL
MODEL 4
REMARK VINA RESULT:    -4.090      1.825      4.160
REMARK INTER + INTRA:          -8.005
REMARK INTER:                  -6.759
REMARK INTRA:                  -1.247
REMARK UNBOUND:                -1.524
REMARK SMILES CCCCCCCCCCCC(=O)[O-]
REMARK SMILES IDX 7 1 8 2 9 3 10 4 11 5 12 6 13 7 14 8 6 9 5 10 4 11 3 12 2 13
REMARK SMILES IDX 1 14
REMARK H PARENT
REMARK Flexibility Score: inf
ROOT
ATOM      1  C   UNL     1       3.652   3.284  14.510  1.00  0.00     0.000 C 
ENDROOT
BRANCH   1   2
ATOM      2  C   UNL     1       4.448   2.930  13.242  1.00  0.00     0.000 C 
BRANCH   2   3
ATOM      3  C   UNL     1       5.218   1.607  13.378  1.00  0.00     0.000 C 
BRANCH   3   4
ATOM      4  C   UNL     1       4.388   0.390  12.934  1.00  0.00     0.006 C 
BRANCH   4   5
ATOM      5  C   UNL     1       4.266  -0.665  14.043  1.00  0.00     0.053 C 
BRANCH   5   6
ATOM      6  C   UNL     1       2.854  -0.817  14.516  1.00  0.00     0.041 C 
ATOM      7  O   UNL     1       1.951  -0.059  14.073  1.00  0.00    -0.550 OA
ATOM      8  O   UNL     1       2.537  -1.777  15.469  1.00  0.00    -0.550 OA
ENDBRANCH   5   6
ENDBRANCH   4   5
ENDBRANCH   3   4
ENDBRANCH   2   3
ENDBRANCH   1   2
BRANCH   1   9
ATOM      9  C   UNL     1       4.386   2.882  15.800  1.00  0.00     0.000 C 
BRANCH   9  10
ATOM     10  C   UNL     1       3.543   1.969  16.704  1.00  0.00    -0.000 C 
BRANCH  10  11
ATOM     11  C   UNL     1       4.377   1.448  17.884  1.00  0.00    -0.000 C 
BRANCH  11  12
ATOM     12  C   UNL     1       5.498   0.493  17.443  1.00  0.00    -0.000 C 
BRANCH  12  13
ATOM     13  C   UNL     1       5.149  -0.982  17.690  1.00  0.00    -0.003 C 
ATOM     14  C   UNL     1       6.185  -1.647  18.592  1.00  0.00     0.004 C 
ENDBRANCH  12  13
ENDBRANCH  11  12
ENDBRANCH  10  11
ENDBRANCH   9  10
ENDBRANCH   1   9
TORSDOF 10
ENDMDL
MODEL 5
REMARK VINA RESULT:    -4.078      2.271      3.722
REMARK INTER + INTRA:          -7.987
REMARK INTER:                  -6.624
REMARK INTRA:                  -1.363
REMARK UNBOUND:                -1.524
REMARK SMILES CCCCCCCCCCCC(=O)[O-]
REMARK SMILES IDX 7 1 8 2 9 3 10 4 11 5 12 6 13 7 14 8 6 9 5 10 4 11 3 12 2 13
REMARK SMILES IDX 1 14
REMARK H PARENT
REMARK Flexibility Score: inf
ROOT
ATOM      1  C   UNL     1       5.121   2.596  13.213  1.00  0.00     0.000 C 
ENDROOT
BRANCH   1   2
ATOM      2  C   UNL     1       4.674   2.983  14.634  1.00  0.00     0.000 C 
BRANCH   2   3
ATOM      3  C   UNL     1       3.146   2.950  14.801  1.00  0.00     0.000 C 
BRANCH   3   4
ATOM      4  C   UNL     1       2.650   1.656  15.470  1.00  0.00     0.006 C 
BRANCH   4   5
ATOM      5  C   UNL     1       2.489   0.508  14.464  1.00  0.00     0.053 C 
BRANCH   5   6
ATOM      6  C   UNL     1       1.590  -0.569  14.987  1.00  0.00     0.041 C 
ATOM      7  O   UNL     1       0.344  -0.390  15.029  1.00  0.00    -0.550 OA
ATOM      8  O   UNL     1       2.128  -1.761  15.455  1.00  0.00    -0.550 OA
ENDBRANCH   5   6
ENDBRANCH   4   5
ENDBRANCH   3   4
ENDBRANCH   2   3
ENDBRANCH   1   2
BRANCH   1   9
ATOM      9  C   UNL     1       5.909   1.276  13.180  1.00  0.00     0.000 C 
BRANCH   9  10
ATOM     10  C   UNL     1       6.238   0.745  14.584  1.00  0.00    -0.000 C 
BRANCH  10  11
ATOM     11  C   UNL     1       5.837  -0.732  14.717  1.00  0.00    -0.000 C 
BRANCH  11  12
ATOM     12  C   UNL     1       5.483  -1.122  16.162  1.00  0.00    -0.000 C 
BRANCH  12  13
ATOM     13  C   UNL     1       5.442   0.087  17.107  1.00  0.00    -0.003 C 
ATOM     14  C   UNL     1       5.341  -0.357  18.564  1.00  0.00     0.004 C 
ENDBRANCH  12  13
ENDBRANCH  11  12
ENDBRANCH  10  11
ENDBRANCH   9  10
ENDBRANCH   1   9
TORSDOF 10
ENDMDL
MODEL 6
REMARK VINA RESULT:    -3.990      1.358      3.435
REMARK INTER + INTRA:          -7.847
REMARK INTER:                  -6.497
REMARK INTRA:                  -1.350
REMARK UNBOUND:                -1.524
REMARK SMILES CCCCCCCCCCCC(=O)[O-]
REMARK SMILES IDX 7 1 8 2 9 3 10 4 11 5 12 6 13 7 14 8 6 9 5 10 4 11 3 12 2 13
REMARK SMILES IDX 1 14
REMARK H PARENT
REMARK Flexibility Score: inf
ROOT
ATOM      1  C   UNL     1       3.561  -0.463  13.461  1.00  0.00     0.000 C 
ENDROOT
BRANCH   1   2
ATOM      2  C   UNL     1       4.829  -1.292  13.728  1.00  0.00     0.000 C 
BRANCH   2   3
ATOM      3  C   UNL     1       5.769  -0.623  14.743  1.00  0.00     0.000 C 
BRANCH   3   4
ATOM      4  C   UNL     1       5.547  -1.129  16.180  1.00  0.00     0.006 C 
BRANCH   4   5
ATOM      5  C   UNL     1       5.596   0.009  17.209  1.00  0.00     0.053 C 
BRANCH   5   6
ATOM      6  C   UNL     1       5.678  -0.511  18.611  1.00  0.00     0.041 C 
ATOM      7  O   UNL     1       6.427  -1.486  18.883  1.00  0.00    -0.550 OA
ATOM      8  O   UNL     1       4.904   0.062  19.613  1.00  0.00    -0.550 OA
ENDBRANCH   5   6
ENDBRANCH   4   5
ENDBRANCH   3   4
ENDBRANCH   2   3
ENDBRANCH   1   2
BRANCH   1   9
ATOM      9  C   UNL     1       2.409  -0.822  14.414  1.00  0.00     0.000 C 
BRANCH   9  10
ATOM     10  C   UNL     1       1.684   0.416  14.965  1.00  0.00    -0.000 C 
BRANCH  10  11
ATOM     11  C   UNL     1       2.646   1.296  15.776  1.00  0.00    -0.000 C 
BRANCH  11  12
ATOM     12  C   UNL     1       2.957   2.632  15.081  1.00  0.00    -0.000 C 
BRANCH  12  13
ATOM     13  C   UNL     1       4.460   2.842  14.849  1.00  0.00    -0.003 C 
ATOM     14  C   UNL     1       4.759   3.096  13.374  1.00  0.00     0.004 C 
ENDBRANCH  12  13
ENDBRANCH  11  12
ENDBRANCH  10  11
ENDBRANCH   9  10
ENDBRANCH   1   9
TORSDOF 10
ENDMDL
MODEL 7
REMARK VINA RESULT:    -3.978      2.411      4.626
REMARK INTER + INTRA:          -7.828
REMARK INTER:                  -6.399
REMARK INTRA:                  -1.429
REMARK UNBOUND:                -1.524
REMARK SMILES CCCCCCCCCCCC(=O)[O-]
REMARK SMILES IDX 7 1 8 2 9 3 10 4 11 5 12 6 13 7 14 8 6 9 5 10 4 11 3 12 2 13
REMARK SMILES IDX 1 14
REMARK H PARENT
REMARK Flexibility Score: inf
ROOT
ATOM      1  C   UNL     1       5.746   0.239  17.352  1.00  0.00     0.000 C 
ENDROOT
BRANCH   1   2
ATOM      2  C   UNL     1       5.248  -1.199  17.122  1.00  0.00     0.000 C 
BRANCH   2   3
ATOM      3  C   UNL     1       5.583  -1.721  15.716  1.00  0.00     0.000 C 
BRANCH   3   4
ATOM      4  C   UNL     1       4.382  -1.651  14.756  1.00  0.00     0.006 C 
BRANCH   4   5
ATOM      5  C   UNL     1       3.062  -1.394  15.497  1.00  0.00     0.053 C 
BRANCH   5   6
ATOM      6  C   UNL     1       2.127  -0.546  14.692  1.00  0.00     0.041 C 
ATOM      7  O   UNL     1       2.487  -0.088  13.576  1.00  0.00    -0.550 OA
ATOM      8  O   UNL     1       0.866  -0.234  15.188  1.00  0.00    -0.550 OA
ENDBRANCH   5   6
ENDBRANCH   4   5
ENDBRANCH   3   4
ENDBRANCH   2   3
ENDBRANCH   1   2
BRANCH   1   9
ATOM      9  C   UNL     1       4.667   1.147  17.966  1.00  0.00     0.000 C 
BRANCH   9  10
ATOM     10  C   UNL     1       3.924   1.985  16.913  1.00  0.00    -0.000 C 
BRANCH  10  11
ATOM     11  C   UNL     1       4.778   2.154  15.648  1.00  0.00    -0.000 C 
BRANCH  11  12
ATOM     12  C   UNL     1       4.030   2.884  14.521  1.00  0.00    -0.000 C 
BRANCH  12  13
ATOM     13  C   UNL     1       4.794   2.856  13.189  1.00  0.00    -0.003 C 
ATOM     14  C   UNL     1       5.596   1.566  13.044  1.00  0.00     0.004 C 
ENDBRANCH  12  13
ENDBRANCH  11  12
ENDBRANCH  10  11
ENDBRANCH   9  10
ENDBRANCH   1   9
TORSDOF 10
ENDMDL
MODEL 8
REMARK VINA RESULT:    -3.852      1.946      4.126
REMARK INTER + INTRA:          -7.628
REMARK INTER:                  -6.236
REMARK INTRA:                  -1.392
REMARK UNBOUND:                -1.524
REMARK SMILES CCCCCCCCCCCC(=O)[O-]
REMARK SMILES IDX 7 1 8 2 9 3 10 4 11 5 12 6 13 7 14 8 6 9 5 10 4 11 3 12 2 13
REMARK SMILES IDX 1 14
REMARK H PARENT
REMARK Flexibility Score: inf
ROOT
ATOM      1  C   UNL     1       2.612   1.639  15.025  1.00  0.00     0.000 C 
ENDROOT
BRANCH   1   2
ATOM      2  C   UNL     1       1.744   0.461  15.502  1.00  0.00     0.000 C 
BRANCH   2   3
ATOM      3  C   UNL     1       2.009  -0.827  14.706  1.00  0.00     0.000 C 
BRANCH   3   4
ATOM      4  C   UNL     1       3.314  -1.526  15.126  1.00  0.00     0.006 C 
BRANCH   4   5
ATOM      5  C   UNL     1       4.062  -2.125  13.928  1.00  0.00     0.053 C 
BRANCH   5   6
ATOM      6  C   UNL     1       5.410  -1.499  13.742  1.00  0.00     0.041 C 
ATOM      7  O   UNL     1       5.564  -0.557  12.920  1.00  0.00    -0.550 OA
ATOM      8  O   UNL     1       6.504  -1.975  14.455  1.00  0.00    -0.550 OA
ENDBRANCH   5   6
ENDBRANCH   4   5
ENDBRANCH   3   4
ENDBRANCH   2   3
ENDBRANCH   1   2
BRANCH   1   9
ATOM      9  C   UNL     1       3.678   2.043  16.057  1.00  0.00     0.000 C 
BRANCH   9  10
ATOM     10  C   UNL     1       5.104   1.684  15.611  1.00  0.00    -0.000 C 
BRANCH  10  11
ATOM     11  C   UNL     1       5.806   0.820  16.669  1.00  0.00    -0.000 C 
BRANCH  11  12
ATOM     12  C   UNL     1       4.983   0.679  17.961  1.00  0.00    -0.000 C 
BRANCH  12  13
ATOM     13  C   UNL     1       5.413  -0.529  18.806  1.00  0.00    -0.003 C 
ATOM     14  C   UNL     1       5.857  -1.690  17.920  1.00  0.00     0.004 C 
ENDBRANCH  12  13
ENDBRANCH  11  12
ENDBRANCH  10  11
ENDBRANCH   9  10
ENDBRANCH   1   9
TORSDOF 10
ENDMDL
MODEL 9
REMARK VINA RESULT:    -3.842      2.527      4.389
REMARK INTER + INTRA:          -7.613
REMARK INTER:                  -6.279
REMARK INTRA:                  -1.334
REMARK UNBOUND:                -1.524
REMARK SMILES CCCCCCCCCCCC(=O)[O-]
REMARK SMILES IDX 7 1 8 2 9 3 10 4 11 5 12 6 13 7 14 8 6 9 5 10 4 11 3 12 2 13
REMARK SMILES IDX 1 14
REMARK H PARENT
REMARK Flexibility Score: inf
ROOT
ATOM      1  C   UNL     1       5.631   0.499  17.702  1.00  0.00     0.000 C 
ENDROOT
BRANCH   1   2
ATOM      2  C   UNL     1       4.392   1.354  17.383  1.00  0.00     0.000 C 
BRANCH   2   3
ATOM      3  C   UNL     1       4.554   2.168  16.089  1.00  0.00     0.000 C 
BRANCH   3   4
ATOM      4  C   UNL     1       3.364   1.996  15.128  1.00  0.00     0.006 C 
BRANCH   4   5
ATOM      5  C   UNL     1       2.260   1.112  15.724  1.00  0.00     0.053 C 
BRANCH   5   6
ATOM      6  C   UNL     1       1.762   0.101  14.739  1.00  0.00     0.041 C 
ATOM      7  O   UNL     1       2.505  -0.289  13.800  1.00  0.00    -0.550 OA
ATOM      8  O   UNL     1       0.466  -0.391  14.839  1.00  0.00    -0.550 OA
ENDBRANCH   5   6
ENDBRANCH   4   5
ENDBRANCH   3   4
ENDBRANCH   2   3
ENDBRANCH   1   2
BRANCH   1   9
ATOM      9  C   UNL     1       5.367  -1.008  17.543  1.00  0.00     0.000 C 
BRANCH   9  10
ATOM     10  C   UNL     1       5.078  -1.411  16.089  1.00  0.00    -0.000 C 
BRANCH  10  11
ATOM     11  C   UNL     1       6.288  -2.125  15.469  1.00  0.00    -0.000 C 
BRANCH  11  12
ATOM     12  C   UNL     1       6.605  -1.630  14.048  1.00  0.00    -0.000 C 
BRANCH  12  13
ATOM     13  C   UNL     1       5.779  -0.397  13.654  1.00  0.00    -0.003 C 
ATOM     14  C   UNL     1       6.682   0.795  13.351  1.00  0.00     0.004 C 
ENDBRANCH  12  13
ENDBRANCH  11  12
ENDBRANCH  10  11
ENDBRANCH   9  10
ENDBRANCH   1   9
TORSDOF 10
ENDMDL
