MODEL 1
REMARK VINA RESULT:    -4.212      0.000      0.000
REMARK INTER + INTRA:          -5.742
REMARK INTER:                  -5.197
REMARK INTRA:                  -0.545
REMARK UNBOUND:                -0.545
REMARK SMILES C=CC(=C)CCC=C(C)C
REMARK SMILES IDX 5 1 6 2 7 3 9 4 8 5 10 6 3 7 4 8 2 9 1 10
REMARK H PARENT
REMARK Flexibility Score: inf
ROOT
ATOM      1  C   UNL     1      54.935  43.676  42.490  1.00  0.00     0.039 C 
ENDROOT
BRANCH   1   2
ATOM      2  C   UNL     1      56.356  43.737  43.071  1.00  0.00     0.032 C 
BRANCH   2   3
ATOM      3  C   UNL     1      57.417  43.622  42.004  1.00  0.00    -0.028 C 
ATOM      4  C   UNL     1      57.600  46.099  41.685  1.00  0.00     0.039 C 
ATOM      5  C   UNL     1      58.002  44.674  41.389  1.00  0.00    -0.080 C 
ATOM      6  C   UNL     1      59.082  44.402  40.375  1.00  0.00     0.039 C 
ENDBRANCH   2   3
ENDBRANCH   1   2
BRANCH   1   7
ATOM      7  C   UNL     1      54.193  44.988  42.664  1.00  0.00    -0.055 C 
ATOM      8  C   UNL     1      53.139  45.238  41.877  1.00  0.00     0.012 C 
BRANCH   7   9
ATOM      9  C   UNL     1      54.560  45.994  43.696  1.00  0.00    -0.005 C 
ATOM     10  C   UNL     1      53.756  46.971  44.120  1.00  0.00     0.009 C 
ENDBRANCH   7   9
ENDBRANCH   1   7
TORSDOF 4
ENDMDL
MODEL 2
REMARK VINA RESULT:    -4.042      1.254      4.448
REMARK INTER + INTRA:          -5.532
REMARK INTER:                  -4.811
REMARK INTRA:                  -0.722
REMARK UNBOUND:                -0.545
REMARK SMILES C=CC(=C)CCC=C(C)C
REMARK SMILES IDX 5 1 6 2 7 3 9 4 8 5 10 6 3 7 4 8 2 9 1 10
REMARK H PARENT
REMARK Flexibility Score: inf
ROOT
ATOM      1  C   UNL     1      58.420  45.107  43.206  1.00  0.00     0.039 C 
ENDROOT
BRANCH   1   2
ATOM      2  C   UNL     1      57.061  44.997  43.912  1.00  0.00     0.032 C 
BRANCH   2   3
ATOM      3  C   UNL     1      56.264  43.805  43.438  1.00  0.00    -0.028 C 
ATOM      4  C   UNL     1      54.418  45.207  42.489  1.00  0.00     0.039 C 
ATOM      5  C   UNL     1      55.088  43.884  42.777  1.00  0.00    -0.080 C 
ATOM      6  C   UNL     1      54.432  42.605  42.325  1.00  0.00     0.039 C 
ENDBRANCH   2   3
ENDBRANCH   1   2
BRANCH   1   7
ATOM      7  C   UNL     1      58.275  45.516  41.752  1.00  0.00    -0.055 C 
ATOM      8  C   UNL     1      57.716  46.699  41.470  1.00  0.00     0.012 C 
BRANCH   7   9
ATOM      9  C   UNL     1      58.760  44.676  40.624  1.00  0.00    -0.005 C 
ATOM     10  C   UNL     1      59.508  43.580  40.764  1.00  0.00     0.009 C 
ENDBRANCH   7   9
ENDBRANCH   1   7
TORSDOF 4
ENDMDL
MODEL 3
REMARK VINA RESULT:    -4.042      0.664      4.219
REMARK INTER + INTRA:          -5.532
REMARK INTER:                  -4.876
REMARK INTRA:                  -0.657
REMARK UNBOUND:                -0.545
REMARK SMILES C=CC(=C)CCC=C(C)C
REMARK SMILES IDX 5 1 6 2 7 3 9 4 8 5 10 6 3 7 4 8 2 9 1 10
REMARK H PARENT
REMARK Flexibility Score: inf
ROOT
ATOM      1  C   UNL     1      57.568  43.119  41.893  1.00  0.00     0.039 C 
ENDROOT
BRANCH   1   2
ATOM      2  C   UNL     1      56.525  43.480  42.961  1.00  0.00     0.032 C 
BRANCH   2   3
ATOM      3  C   UNL     1      55.191  43.850  42.358  1.00  0.00    -0.028 C 
ATOM      4  C   UNL     1      54.913  45.878  43.800  1.00  0.00     0.039 C 
ATOM      5  C   UNL     1      54.467  44.935  42.707  1.00  0.00    -0.080 C 
ATOM      6  C   UNL     1      53.174  45.199  41.980  1.00  0.00     0.039 C 
ENDBRANCH   2   3
ENDBRANCH   1   2
BRANCH   1   7
ATOM      7  C   UNL     1      58.447  44.302  41.534  1.00  0.00    -0.055 C 
ATOM      8  C   UNL     1      59.434  44.124  40.648  1.00  0.00     0.012 C 
BRANCH   7   9
ATOM      9  C   UNL     1      58.238  45.664  42.095  1.00  0.00    -0.005 C 
ATOM     10  C   UNL     1      57.667  46.674  41.437  1.00  0.00     0.009 C 
ENDBRANCH   7   9
ENDBRANCH   1   7
TORSDOF 4
ENDMDL
MODEL 4
REMARK VINA RESULT:    -4.030      1.432      2.238
REMARK INTER + INTRA:          -5.518
REMARK INTER:                  -5.137
REMARK INTRA:                  -0.381
REMARK UNBOUND:                -0.545
REMARK SMILES C=CC(=C)CCC=C(C)C
REMARK SMILES IDX 5 1 6 2 7 3 9 4 8 5 10 6 3 7 4 8 2 9 1 10
REMARK H PARENT
REMARK Flexibility Score: inf
ROOT
ATOM      1  C   UNL     1      54.096  44.978  42.287  1.00  0.00     0.039 C 
ENDROOT
BRANCH   1   2
ATOM      2  C   UNL     1      54.891  43.772  42.809  1.00  0.00     0.032 C 
BRANCH   2   3
ATOM      3  C   UNL     1      56.170  43.553  42.040  1.00  0.00    -0.028 C 
ATOM      4  C   UNL     1      57.530  43.122  44.098  1.00  0.00     0.039 C 
ATOM      5  C   UNL     1      57.358  43.238  42.603  1.00  0.00    -0.080 C 
ATOM      6  C   UNL     1      58.540  43.002  41.698  1.00  0.00     0.039 C 
ENDBRANCH   2   3
ENDBRANCH   1   2
BRANCH   1   7
ATOM      7  C   UNL     1      54.049  46.109  43.298  1.00  0.00    -0.055 C 
ATOM      8  C   UNL     1      55.180  46.462  43.920  1.00  0.00     0.012 C 
BRANCH   7   9
ATOM      9  C   UNL     1      52.808  46.871  43.601  1.00  0.00    -0.005 C 
ATOM     10  C   UNL     1      51.636  46.681  42.993  1.00  0.00     0.009 C 
ENDBRANCH   7   9
ENDBRANCH   1   7
TORSDOF 4
ENDMDL
MODEL 5
REMARK VINA RESULT:    -3.900      1.266      2.614
REMARK INTER + INTRA:          -5.357
REMARK INTER:                  -4.813
REMARK INTRA:                  -0.545
REMARK UNBOUND:                -0.545
REMARK SMILES C=CC(=C)CCC=C(C)C
REMARK SMILES IDX 5 1 6 2 7 3 9 4 8 5 10 6 3 7 4 8 2 9 1 10
REMARK H PARENT
REMARK Flexibility Score: inf
ROOT
ATOM      1  C   UNL     1      56.529  46.115  41.986  1.00  0.00     0.039 C 
ENDROOT
BRANCH   1   2
ATOM      2  C   UNL     1      57.973  45.851  42.436  1.00  0.00     0.032 C 
BRANCH   2   3
ATOM      3  C   UNL     1      58.387  44.416  42.218  1.00  0.00    -0.028 C 
ATOM      4  C   UNL     1      59.442  44.883  39.996  1.00  0.00     0.039 C 
ATOM      5  C   UNL     1      59.068  43.970  41.139  1.00  0.00    -0.080 C 
ATOM      6  C   UNL     1      59.453  42.515  41.085  1.00  0.00     0.039 C 
ENDBRANCH   2   3
ENDBRANCH   1   2
BRANCH   1   7
ATOM      7  C   UNL     1      55.519  45.401  42.864  1.00  0.00    -0.055 C 
ATOM      8  C   UNL     1      55.346  45.826  44.121  1.00  0.00     0.012 C 
BRANCH   7   9
ATOM      9  C   UNL     1      54.682  44.271  42.379  1.00  0.00    -0.005 C 
ATOM     10  C   UNL     1      54.986  42.981  42.540  1.00  0.00     0.009 C 
ENDBRANCH   7   9
ENDBRANCH   1   7
TORSDOF 4
ENDMDL
MODEL 6
REMARK VINA RESULT:    -3.731     21.473     22.986
REMARK INTER + INTRA:          -5.148
REMARK INTER:                  -4.356
REMARK INTRA:                  -0.793
REMARK UNBOUND:                -0.545
REMARK SMILES C=CC(=C)CCC=C(C)C
REMARK SMILES IDX 5 1 6 2 7 3 9 4 8 5 10 6 3 7 4 8 2 9 1 10
REMARK H PARENT
REMARK Flexibility Score: inf
ROOT
ATOM      1  C   UNL     1      56.875  28.933  27.194  1.00  0.00     0.039 C 
ENDROOT
BRANCH   1   2
ATOM      2  C   UNL     1      56.494  30.032  26.191  1.00  0.00     0.032 C 
BRANCH   2   3
ATOM      3  C   UNL     1      55.143  30.636  26.489  1.00  0.00    -0.028 C 
ATOM      4  C   UNL     1      54.080  29.692  24.427  1.00  0.00     0.039 C 
ATOM      5  C   UNL     1      54.044  30.473  25.719  1.00  0.00    -0.080 C 
ATOM      6  C   UNL     1      52.751  31.100  26.172  1.00  0.00     0.039 C 
ENDBRANCH   2   3
ENDBRANCH   1   2
BRANCH   1   7
ATOM      7  C   UNL     1      56.567  27.546  26.662  1.00  0.00    -0.055 C 
ATOM      8  C   UNL     1      57.528  26.880  26.010  1.00  0.00     0.012 C 
BRANCH   7   9
ATOM      9  C   UNL     1      55.255  26.875  26.865  1.00  0.00    -0.005 C 
ATOM     10  C   UNL     1      54.273  27.351  27.633  1.00  0.00     0.009 C 
ENDBRANCH   7   9
ENDBRANCH   1   7
TORSDOF 4
ENDMDL
MODEL 7
REMARK VINA RESULT:    -3.711     21.170     22.777
REMARK INTER + INTRA:          -5.124
REMARK INTER:                  -4.416
REMARK INTRA:                  -0.708
REMARK UNBOUND:                -0.545
REMARK SMILES C=CC(=C)CCC=C(C)C
REMARK SMILES IDX 5 1 6 2 7 3 9 4 8 5 10 6 3 7 4 8 2 9 1 10
REMARK H PARENT
REMARK Flexibility Score: inf
ROOT
ATOM      1  C   UNL     1      54.921  28.167  27.592  1.00  0.00     0.039 C 
ENDROOT
BRANCH   1   2
ATOM      2  C   UNL     1      53.983  28.420  26.402  1.00  0.00     0.032 C 
BRANCH   2   3
ATOM      3  C   UNL     1      53.403  29.813  26.416  1.00  0.00    -0.028 C 
ATOM      4  C   UNL     1      54.893  30.632  24.578  1.00  0.00     0.039 C 
ATOM      5  C   UNL     1      53.784  30.810  25.588  1.00  0.00    -0.080 C 
ATOM      6  C   UNL     1      53.077  32.137  25.689  1.00  0.00     0.039 C 
ENDBRANCH   2   3
ENDBRANCH   1   2
BRANCH   1   7
ATOM      7  C   UNL     1      56.360  28.527  27.269  1.00  0.00    -0.055 C 
ATOM      8  C   UNL     1      56.822  29.726  27.644  1.00  0.00     0.012 C 
BRANCH   7   9
ATOM      9  C   UNL     1      57.292  27.592  26.585  1.00  0.00    -0.005 C 
ATOM     10  C   UNL     1      57.439  27.502  25.261  1.00  0.00     0.009 C 
ENDBRANCH   7   9
ENDBRANCH   1   7
TORSDOF 4
ENDMDL
MODEL 8
REMARK VINA RESULT:    -3.641     21.607     23.088
REMARK INTER + INTRA:          -5.037
REMARK INTER:                  -4.126
REMARK INTRA:                  -0.911
REMARK UNBOUND:                -0.545
REMARK SMILES C=CC(=C)CCC=C(C)C
REMARK SMILES IDX 5 1 6 2 7 3 9 4 8 5 10 6 3 7 4 8 2 9 1 10
REMARK H PARENT
REMARK Flexibility Score: inf
ROOT
ATOM      1  C   UNL     1      54.838  30.189  24.208  1.00  0.00     0.039 C 
ENDROOT
BRANCH   1   2
ATOM      2  C   UNL     1      56.325  30.207  24.591  1.00  0.00     0.032 C 
BRANCH   2   3
ATOM      3  C   UNL     1      56.868  28.822  24.843  1.00  0.00    -0.028 C 
ATOM      4  C   UNL     1      56.838  29.083  27.333  1.00  0.00     0.039 C 
ATOM      5  C   UNL     1      57.082  28.294  26.069  1.00  0.00    -0.080 C 
ATOM      6  C   UNL     1      57.584  26.877  26.162  1.00  0.00     0.039 C 
ENDBRANCH   2   3
ENDBRANCH   1   2
BRANCH   1   7
ATOM      7  C   UNL     1      53.936  30.251  25.426  1.00  0.00    -0.055 C 
ATOM      8  C   UNL     1      53.875  31.391  26.124  1.00  0.00     0.012 C 
BRANCH   7   9
ATOM      9  C   UNL     1      53.084  29.111  25.860  1.00  0.00    -0.005 C 
ATOM     10  C   UNL     1      53.424  27.826  25.744  1.00  0.00     0.009 C 
ENDBRANCH   7   9
ENDBRANCH   1   7
TORSDOF 4
ENDMDL
