MODEL 1
REMARK VINA RESULT:    -6.113      0.000      0.000
REMARK INTER + INTRA:          -7.667
REMARK INTER:                  -7.364
REMARK INTRA:                  -0.302
REMARK UNBOUND:                -0.302
REMARK SMILES O=c1c(O)c(-c2ccc(O)c(O)c2)oc2cc(O)cc(O)c12
REMARK SMILES IDX 5 1 3 2 2 3 1 4 22 5 20 6 19 7 17 8 16 9 15 10 14 11 6 12
REMARK SMILES IDX 7 13 8 14 9 15 13 16 11 17 10 18 12 20 4 22 21 24 18 26
REMARK H PARENT 10 19 12 21 4 23 21 25 18 27
REMARK Flexibility Score: inf
ROOT
ATOM      1  C   UNL     1     -13.694  20.513  10.433  1.00  0.00     0.180 A 
ATOM      2  C   UNL     1     -14.816  20.318   9.609  1.00  0.00     0.208 A 
ATOM      3  C   UNL     1     -16.096  20.572  10.130  1.00  0.00     0.238 A 
ATOM      4  O   UNL     1     -17.099  20.344   9.406  1.00  0.00    -0.285 OA
ATOM      5  C   UNL     1     -16.235  21.033  11.461  1.00  0.00     0.111 A 
ATOM      6  C   UNL     1     -17.479  21.360  12.079  1.00  0.00     0.134 A 
ATOM      7  C   UNL     1     -17.511  21.681  13.442  1.00  0.00     0.093 A 
ATOM      8  C   UNL     1     -16.338  21.751  14.193  1.00  0.00     0.123 A 
ATOM      9  C   UNL     1     -15.109  21.491  13.584  1.00  0.00     0.094 A 
ATOM     10  C   UNL     1     -15.050  21.132  12.235  1.00  0.00     0.146 A 
ATOM     11  O   UNL     1     -13.861  20.883  11.697  1.00  0.00    -0.452 OA
ENDROOT
BRANCH   1  12
ATOM     12  C   UNL     1     -12.312  20.291   9.948  1.00  0.00     0.025 A 
ATOM     13  C   UNL     1     -11.654  21.245   9.152  1.00  0.00     0.016 A 
ATOM     14  C   UNL     1     -10.341  21.024   8.726  1.00  0.00     0.051 A 
ATOM     15  C   UNL     1      -9.664  19.859   9.095  1.00  0.00     0.157 A 
ATOM     16  C   UNL     1     -11.621  19.130  10.334  1.00  0.00     0.062 A 
ATOM     17  C   UNL     1     -10.304  18.908   9.907  1.00  0.00     0.158 A 
BRANCH  15  18
ATOM     18  O   UNL     1      -8.355  19.666   8.653  1.00  0.00    -0.504 OA
ATOM     19  H   UNL     1      -7.587  19.517   9.296  1.00  0.00     0.293 HD
ENDBRANCH  15  18
BRANCH  17  20
ATOM     20  O   UNL     1      -9.633  17.746  10.285  1.00  0.00    -0.504 OA
ATOM     21  H   UNL     1      -8.692  17.548   9.965  1.00  0.00     0.293 HD
ENDBRANCH  17  20
ENDBRANCH   1  12
BRANCH   2  22
ATOM     22  O   UNL     1     -14.657  19.842   8.305  1.00  0.00    -0.502 OA
ATOM     23  H   UNL     1     -14.659  18.854   8.083  1.00  0.00     0.293 HD
ENDBRANCH   2  22
BRANCH   6  24
ATOM     24  O   UNL     1     -18.699  21.411  11.399  1.00  0.00    -0.507 OA
ATOM     25  H   UNL     1     -18.921  22.068  10.666  1.00  0.00     0.293 HD
ENDBRANCH   6  24
BRANCH   8  26
ATOM     26  O   UNL     1     -16.404  22.089  15.542  1.00  0.00    -0.508 OA
ATOM     27  H   UNL     1     -16.970  21.559  16.195  1.00  0.00     0.293 HD
ENDBRANCH   8  26
TORSDOF 6
ENDMDL
MODEL 2
REMARK VINA RESULT:    -5.916      1.420      6.781
REMARK INTER + INTRA:          -7.429
REMARK INTER:                  -7.775
REMARK INTRA:                   0.346
REMARK UNBOUND:                -0.302
REMARK SMILES O=c1c(O)c(-c2ccc(O)c(O)c2)oc2cc(O)cc(O)c12
REMARK SMILES IDX 5 1 3 2 2 3 1 4 22 5 20 6 19 7 17 8 16 9 15 10 14 11 6 12
REMARK SMILES IDX 7 13 8 14 9 15 13 16 11 17 10 18 12 20 4 22 21 24 18 26
REMARK H PARENT 10 19 12 21 4 23 21 25 18 27
REMARK Flexibility Score: inf
ROOT
ATOM      1  C   UNL     1     -15.144  21.289  11.534  1.00  0.00     0.180 A 
ATOM      2  C   UNL     1     -15.643  21.596  10.256  1.00  0.00     0.208 A 
ATOM      3  C   UNL     1     -14.817  21.399   9.137  1.00  0.00     0.238 A 
ATOM      4  O   UNL     1     -15.248  21.727   8.002  1.00  0.00    -0.285 OA
ATOM      5  C   UNL     1     -13.509  20.883   9.309  1.00  0.00     0.111 A 
ATOM      6  C   UNL     1     -12.601  20.607   8.244  1.00  0.00     0.134 A 
ATOM      7  C   UNL     1     -11.287  20.221   8.539  1.00  0.00     0.093 A 
ATOM      8  C   UNL     1     -10.868  20.040   9.856  1.00  0.00     0.123 A 
ATOM      9  C   UNL     1     -11.766  20.250  10.904  1.00  0.00     0.094 A 
ATOM     10  C   UNL     1     -13.072  20.670  10.642  1.00  0.00     0.146 A 
ATOM     11  O   UNL     1     -13.892  20.868  11.668  1.00  0.00    -0.452 OA
ENDROOT
BRANCH   1  12
ATOM     12  C   UNL     1     -15.964  21.445  12.757  1.00  0.00     0.025 A 
ATOM     13  C   UNL     1     -15.375  21.743  13.999  1.00  0.00     0.016 A 
ATOM     14  C   UNL     1     -16.171  21.910  15.135  1.00  0.00     0.051 A 
ATOM     15  C   UNL     1     -17.561  21.795  15.049  1.00  0.00     0.157 A 
ATOM     16  C   UNL     1     -17.362  21.350  12.670  1.00  0.00     0.062 A 
ATOM     17  C   UNL     1     -18.162  21.518  13.810  1.00  0.00     0.158 A 
BRANCH  15  18
ATOM     18  O   UNL     1     -18.329  21.966  16.201  1.00  0.00    -0.504 OA
ATOM     19  H   UNL     1     -18.464  22.874  16.628  1.00  0.00     0.293 HD
ENDBRANCH  15  18
BRANCH  17  20
ATOM     20  O   UNL     1     -19.548  21.409  13.714  1.00  0.00    -0.504 OA
ATOM     21  H   UNL     1     -19.986  20.745  13.088  1.00  0.00     0.293 HD
ENDBRANCH  17  20
ENDBRANCH   1  12
BRANCH   2  22
ATOM     22  O   UNL     1     -16.928  22.125  10.110  1.00  0.00    -0.502 OA
ATOM     23  H   UNL     1     -17.155  22.818   9.409  1.00  0.00     0.293 HD
ENDBRANCH   2  22
BRANCH   6  24
ATOM     24  O   UNL     1     -12.943  20.668   6.890  1.00  0.00    -0.507 OA
ATOM     25  H   UNL     1     -13.338  19.904   6.362  1.00  0.00     0.293 HD
ENDBRANCH   6  24
BRANCH   8  26
ATOM     26  O   UNL     1      -9.559  19.640  10.113  1.00  0.00    -0.508 OA
ATOM     27  H   UNL     1      -9.159  18.819   9.674  1.00  0.00     0.293 HD
ENDBRANCH   8  26
TORSDOF 6
ENDMDL
MODEL 3
REMARK VINA RESULT:    -5.745      1.521      2.141
REMARK INTER + INTRA:          -7.223
REMARK INTER:                  -6.903
REMARK INTRA:                  -0.319
REMARK UNBOUND:                -0.302
REMARK SMILES O=c1c(O)c(-c2ccc(O)c(O)c2)oc2cc(O)cc(O)c12
REMARK SMILES IDX 5 1 3 2 2 3 1 4 22 5 20 6 19 7 17 8 16 9 15 10 14 11 6 12
REMARK SMILES IDX 7 13 8 14 9 15 13 16 11 17 10 18 12 20 4 22 21 24 18 26
REMARK H PARENT 10 19 12 21 4 23 21 25 18 27
REMARK Flexibility Score: inf
ROOT
ATOM      1  C   UNL     1     -12.258  19.695   9.739  1.00  0.00     0.180 A 
ATOM      2  C   UNL     1     -13.067  19.923   8.611  1.00  0.00     0.208 A 
ATOM      3  C   UNL     1     -14.311  20.552   8.782  1.00  0.00     0.238 A 
ATOM      4  O   UNL     1     -15.054  20.704   7.778  1.00  0.00    -0.285 OA
ATOM      5  C   UNL     1     -14.723  20.959  10.074  1.00  0.00     0.111 A 
ATOM      6  C   UNL     1     -15.945  21.640  10.357  1.00  0.00     0.134 A 
ATOM      7  C   UNL     1     -16.311  21.879  11.688  1.00  0.00     0.093 A 
ATOM      8  C   UNL     1     -15.470  21.520  12.741  1.00  0.00     0.123 A 
ATOM      9  C   UNL     1     -14.246  20.907  12.473  1.00  0.00     0.094 A 
ATOM     10  C   UNL     1     -13.870  20.623  11.157  1.00  0.00     0.146 A 
ATOM     11  O   UNL     1     -12.701  20.029  10.945  1.00  0.00    -0.452 OA
ENDROOT
BRANCH   1  12
ATOM     12  C   UNL     1     -10.924  19.061   9.636  1.00  0.00     0.025 A 
ATOM     13  C   UNL     1      -9.787  19.804   9.275  1.00  0.00     0.016 A 
ATOM     14  C   UNL     1      -8.534  19.189   9.208  1.00  0.00     0.051 A 
ATOM     15  C   UNL     1      -8.395  17.831   9.510  1.00  0.00     0.157 A 
ATOM     16  C   UNL     1     -10.777  17.702   9.958  1.00  0.00     0.062 A 
ATOM     17  C   UNL     1      -9.520  17.083   9.891  1.00  0.00     0.158 A 
BRANCH  15  18
ATOM     18  O   UNL     1      -7.131  17.245   9.432  1.00  0.00    -0.504 OA
ATOM     19  H   UNL     1      -6.716  16.976   8.549  1.00  0.00     0.293 HD
ENDBRANCH  15  18
BRANCH  17  20
ATOM     20  O   UNL     1      -9.389  15.731  10.201  1.00  0.00    -0.504 OA
ATOM     21  H   UNL     1      -8.501  15.250  10.115  1.00  0.00     0.293 HD
ENDBRANCH  17  20
ENDBRANCH   1  12
BRANCH   2  22
ATOM     22  O   UNL     1     -12.651  19.494   7.349  1.00  0.00    -0.502 OA
ATOM     23  H   UNL     1     -12.342  18.546   7.171  1.00  0.00     0.293 HD
ENDBRANCH   2  22
BRANCH   6  24
ATOM     24  O   UNL     1     -16.815  22.125   9.376  1.00  0.00    -0.507 OA
ATOM     25  H   UNL     1     -16.609  22.152   8.389  1.00  0.00     0.293 HD
ENDBRANCH   6  24
BRANCH   8  26
ATOM     26  O   UNL     1     -15.858  21.786  14.052  1.00  0.00    -0.508 OA
ATOM     27  H   UNL     1     -16.536  21.207  14.533  1.00  0.00     0.293 HD
ENDBRANCH   8  26
TORSDOF 6
ENDMDL
MODEL 4
REMARK VINA RESULT:    -5.569     10.948     13.599
REMARK INTER + INTRA:          -7.010
REMARK INTER:                  -6.807
REMARK INTRA:                  -0.203
REMARK UNBOUND:                -0.302
REMARK SMILES O=c1c(O)c(-c2ccc(O)c(O)c2)oc2cc(O)cc(O)c12
REMARK SMILES IDX 5 1 3 2 2 3 1 4 22 5 20 6 19 7 17 8 16 9 15 10 14 11 6 12
REMARK SMILES IDX 7 13 8 14 9 15 13 16 11 17 10 18 12 20 4 22 21 24 18 26
REMARK H PARENT 10 19 12 21 4 23 21 25 18 27
REMARK Flexibility Score: inf
ROOT
ATOM      1  C   UNL     1     -10.542   7.933   8.747  1.00  0.00     0.180 A 
ATOM      2  C   UNL     1      -9.602   8.704   8.040  1.00  0.00     0.208 A 
ATOM      3  C   UNL     1      -9.294   9.994   8.502  1.00  0.00     0.238 A 
ATOM      4  O   UNL     1      -8.494  10.700   7.836  1.00  0.00    -0.285 OA
ATOM      5  C   UNL     1      -9.917  10.490   9.673  1.00  0.00     0.111 A 
ATOM      6  C   UNL     1      -9.651  11.766  10.254  1.00  0.00     0.134 A 
ATOM      7  C   UNL     1     -10.421  12.206  11.339  1.00  0.00     0.093 A 
ATOM      8  C   UNL     1     -11.401  11.391  11.903  1.00  0.00     0.123 A 
ATOM      9  C   UNL     1     -11.629  10.117  11.380  1.00  0.00     0.094 A 
ATOM     10  C   UNL     1     -10.902   9.665  10.276  1.00  0.00     0.146 A 
ATOM     11  O   UNL     1     -11.157   8.451   9.803  1.00  0.00    -0.452 OA
ENDROOT
BRANCH   1  12
ATOM     12  C   UNL     1     -10.900   6.556   8.336  1.00  0.00     0.025 A 
ATOM     13  C   UNL     1      -9.960   5.511   8.384  1.00  0.00     0.016 A 
ATOM     14  C   UNL     1     -10.328   4.214   8.014  1.00  0.00     0.051 A 
ATOM     15  C   UNL     1     -11.635   3.939   7.604  1.00  0.00     0.157 A 
ATOM     16  C   UNL     1     -12.217   6.271   7.942  1.00  0.00     0.062 A 
ATOM     17  C   UNL     1     -12.587   4.970   7.571  1.00  0.00     0.158 A 
BRANCH  15  18
ATOM     18  O   UNL     1     -11.971   2.635   7.239  1.00  0.00    -0.504 OA
ATOM     19  H   UNL     1     -12.912   2.274   7.339  1.00  0.00     0.293 HD
ENDBRANCH  15  18
BRANCH  17  20
ATOM     20  O   UNL     1     -13.895   4.702   7.170  1.00  0.00    -0.504 OA
ATOM     21  H   UNL     1     -14.194   4.836   6.211  1.00  0.00     0.293 HD
ENDBRANCH  17  20
ENDBRANCH   1  12
BRANCH   2  22
ATOM     22  O   UNL     1      -9.016   8.204   6.875  1.00  0.00    -0.502 OA
ATOM     23  H   UNL     1      -8.260   7.530   6.892  1.00  0.00     0.293 HD
ENDBRANCH   2  22
BRANCH   6  24
ATOM     24  O   UNL     1      -8.632  12.622   9.825  1.00  0.00    -0.507 OA
ATOM     25  H   UNL     1      -8.678  13.629   9.853  1.00  0.00     0.293 HD
ENDBRANCH   6  24
BRANCH   8  26
ATOM     26  O   UNL     1     -12.137  11.854  12.991  1.00  0.00    -0.508 OA
ATOM     27  H   UNL     1     -11.687  12.150  13.849  1.00  0.00     0.293 HD
ENDBRANCH   8  26
TORSDOF 6
ENDMDL
MODEL 5
REMARK VINA RESULT:    -5.540      7.629     10.893
REMARK INTER + INTRA:          -6.976
REMARK INTER:                  -6.688
REMARK INTRA:                  -0.289
REMARK UNBOUND:                -0.302
REMARK SMILES O=c1c(O)c(-c2ccc(O)c(O)c2)oc2cc(O)cc(O)c12
REMARK SMILES IDX 5 1 3 2 2 3 1 4 22 5 20 6 19 7 17 8 16 9 15 10 14 11 6 12
REMARK SMILES IDX 7 13 8 14 9 15 13 16 11 17 10 18 12 20 4 22 21 24 18 26
REMARK H PARENT 10 19 12 21 4 23 21 25 18 27
REMARK Flexibility Score: inf
ROOT
ATOM      1  C   UNL     1      -9.402  11.492   9.172  1.00  0.00     0.180 A 
ATOM      2  C   UNL     1      -9.683  11.792  10.516  1.00  0.00     0.208 A 
ATOM      3  C   UNL     1      -9.876  13.133  10.888  1.00  0.00     0.238 A 
ATOM      4  O   UNL     1     -10.072  13.401  12.102  1.00  0.00    -0.285 OA
ATOM      5  C   UNL     1      -9.802  14.153   9.909  1.00  0.00     0.111 A 
ATOM      6  C   UNL     1     -10.020  15.540  10.166  1.00  0.00     0.134 A 
ATOM      7  C   UNL     1      -9.793  16.475   9.149  1.00  0.00     0.093 A 
ATOM      8  C   UNL     1      -9.420  16.070   7.868  1.00  0.00     0.123 A 
ATOM      9  C   UNL     1      -9.262  14.711   7.589  1.00  0.00     0.094 A 
ATOM     10  C   UNL     1      -9.446  13.758   8.594  1.00  0.00     0.146 A 
ATOM     11  O   UNL     1      -9.275  12.476   8.290  1.00  0.00    -0.452 OA
ENDROOT
BRANCH   1  12
ATOM     12  C   UNL     1      -9.212  10.101   8.699  1.00  0.00     0.025 A 
ATOM     13  C   UNL     1     -10.304   9.236   8.511  1.00  0.00     0.016 A 
ATOM     14  C   UNL     1     -10.102   7.936   8.041  1.00  0.00     0.051 A 
ATOM     15  C   UNL     1      -8.814   7.484   7.740  1.00  0.00     0.157 A 
ATOM     16  C   UNL     1      -7.921   9.651   8.376  1.00  0.00     0.062 A 
ATOM     17  C   UNL     1      -7.717   8.346   7.904  1.00  0.00     0.158 A 
BRANCH  15  18
ATOM     18  O   UNL     1      -8.644   6.181   7.273  1.00  0.00    -0.504 OA
ATOM     19  H   UNL     1      -8.856   5.919   6.318  1.00  0.00     0.293 HD
ENDBRANCH  15  18
BRANCH  17  20
ATOM     20  O   UNL     1      -6.431   7.906   7.599  1.00  0.00    -0.504 OA
ATOM     21  H   UNL     1      -5.785   8.478   7.069  1.00  0.00     0.293 HD
ENDBRANCH  17  20
ENDBRANCH   1  12
BRANCH   2  22
ATOM     22  O   UNL     1      -9.729  10.773  11.470  1.00  0.00    -0.502 OA
ATOM     23  H   UNL     1      -8.947  10.559  12.077  1.00  0.00     0.293 HD
ENDBRANCH   2  22
BRANCH   6  24
ATOM     24  O   UNL     1     -10.482  16.045  11.385  1.00  0.00    -0.507 OA
ATOM     25  H   UNL     1     -11.278  16.656  11.489  1.00  0.00     0.293 HD
ENDBRANCH   6  24
BRANCH   8  26
ATOM     26  O   UNL     1      -9.218  17.026   6.875  1.00  0.00    -0.508 OA
ATOM     27  H   UNL     1      -8.309  17.444   6.719  1.00  0.00     0.293 HD
ENDBRANCH   8  26
TORSDOF 6
ENDMDL
MODEL 6
REMARK VINA RESULT:    -5.516      3.904      7.344
REMARK INTER + INTRA:          -6.948
REMARK INTER:                  -6.840
REMARK INTRA:                  -0.108
REMARK UNBOUND:                -0.302
REMARK SMILES O=c1c(O)c(-c2ccc(O)c(O)c2)oc2cc(O)cc(O)c12
REMARK SMILES IDX 5 1 3 2 2 3 1 4 22 5 20 6 19 7 17 8 16 9 15 10 14 11 6 12
REMARK SMILES IDX 7 13 8 14 9 15 13 16 11 17 10 18 12 20 4 22 21 24 18 26
REMARK H PARENT 10 19 12 21 4 23 21 25 18 27
REMARK Flexibility Score: inf
ROOT
ATOM      1  C   UNL     1      -9.790  16.171   9.699  1.00  0.00     0.180 A 
ATOM      2  C   UNL     1      -8.803  16.684   8.839  1.00  0.00     0.208 A 
ATOM      3  C   UNL     1      -8.784  18.062   8.569  1.00  0.00     0.238 A 
ATOM      4  O   UNL     1      -7.933  18.507   7.756  1.00  0.00    -0.285 OA
ATOM      5  C   UNL     1      -9.741  18.912   9.175  1.00  0.00     0.111 A 
ATOM      6  C   UNL     1      -9.791  20.328   9.004  1.00  0.00     0.134 A 
ATOM      7  C   UNL     1     -10.859  21.052   9.547  1.00  0.00     0.093 A 
ATOM      8  C   UNL     1     -11.844  20.423  10.307  1.00  0.00     0.123 A 
ATOM      9  C   UNL     1     -11.773  19.047  10.530  1.00  0.00     0.094 A 
ATOM     10  C   UNL     1     -10.738  18.292   9.972  1.00  0.00     0.146 A 
ATOM     11  O   UNL     1     -10.713  16.984  10.200  1.00  0.00    -0.452 OA
ENDROOT
BRANCH   1  12
ATOM     12  C   UNL     1      -9.859  14.735  10.051  1.00  0.00     0.025 A 
ATOM     13  C   UNL     1      -9.755  14.303  11.385  1.00  0.00     0.016 A 
ATOM     14  C   UNL     1      -9.848  12.943  11.695  1.00  0.00     0.051 A 
ATOM     15  C   UNL     1     -10.055  11.999  10.686  1.00  0.00     0.157 A 
ATOM     16  C   UNL     1     -10.087  13.785   9.042  1.00  0.00     0.062 A 
ATOM     17  C   UNL     1     -10.180  12.420   9.352  1.00  0.00     0.158 A 
BRANCH  15  18
ATOM     18  O   UNL     1     -10.142  10.649  11.027  1.00  0.00    -0.504 OA
ATOM     19  H   UNL     1     -10.880  10.290  11.620  1.00  0.00     0.293 HD
ENDBRANCH  15  18
BRANCH  17  20
ATOM     20  O   UNL     1     -10.394  11.486   8.341  1.00  0.00    -0.504 OA
ATOM     21  H   UNL     1     -10.596  11.770   7.389  1.00  0.00     0.293 HD
ENDBRANCH  17  20
ENDBRANCH   1  12
BRANCH   2  22
ATOM     22  O   UNL     1      -7.882  15.825   8.234  1.00  0.00    -0.502 OA
ATOM     23  H   UNL     1      -6.981  15.616   8.646  1.00  0.00     0.293 HD
ENDBRANCH   2  22
BRANCH   6  24
ATOM     24  O   UNL     1      -8.809  21.069   8.340  1.00  0.00    -0.507 OA
ATOM     25  H   UNL     1      -8.203  21.745   8.780  1.00  0.00     0.293 HD
ENDBRANCH   6  24
BRANCH   8  26
ATOM     26  O   UNL     1     -12.884  21.176  10.845  1.00  0.00    -0.508 OA
ATOM     27  H   UNL     1     -13.116  21.133  11.831  1.00  0.00     0.293 HD
ENDBRANCH   8  26
TORSDOF 6
ENDMDL
MODEL 7
REMARK VINA RESULT:    -5.442      2.685      7.607
REMARK INTER + INTRA:          -6.857
REMARK INTER:                  -7.392
REMARK INTRA:                   0.534
REMARK UNBOUND:                -0.302
REMARK SMILES O=c1c(O)c(-c2ccc(O)c(O)c2)oc2cc(O)cc(O)c12
REMARK SMILES IDX 5 1 3 2 2 3 1 4 22 5 20 6 19 7 17 8 16 9 15 10 14 11 6 12
REMARK SMILES IDX 7 13 8 14 9 15 13 16 11 17 10 18 12 20 4 22 21 24 18 26
REMARK H PARENT 10 19 12 21 4 23 21 25 18 27
REMARK Flexibility Score: inf
ROOT
ATOM      1  C   UNL     1     -17.303  21.869  13.587  1.00  0.00     0.180 A 
ATOM      2  C   UNL     1     -18.293  21.893  12.588  1.00  0.00     0.208 A 
ATOM      3  C   UNL     1     -17.902  21.830  11.240  1.00  0.00     0.238 A 
ATOM      4  O   UNL     1     -18.788  21.906  10.350  1.00  0.00    -0.285 OA
ATOM      5  C   UNL     1     -16.529  21.727  10.910  1.00  0.00     0.111 A 
ATOM      6  C   UNL     1     -16.023  21.616   9.580  1.00  0.00     0.134 A 
ATOM      7  C   UNL     1     -14.639  21.652   9.362  1.00  0.00     0.093 A 
ATOM      8  C   UNL     1     -13.744  21.729  10.428  1.00  0.00     0.123 A 
ATOM      9  C   UNL     1     -14.228  21.778  11.737  1.00  0.00     0.094 A 
ATOM     10  C   UNL     1     -15.603  21.781  11.983  1.00  0.00     0.146 A 
ATOM     11  O   UNL     1     -16.022  21.839  13.243  1.00  0.00    -0.452 OA
ENDROOT
BRANCH   1  12
ATOM     12  C   UNL     1     -17.639  21.907  15.029  1.00  0.00     0.025 A 
ATOM     13  C   UNL     1     -16.642  22.063  16.008  1.00  0.00     0.016 A 
ATOM     14  C   UNL     1     -16.985  22.120  17.361  1.00  0.00     0.051 A 
ATOM     15  C   UNL     1     -18.323  22.035  17.757  1.00  0.00     0.157 A 
ATOM     16  C   UNL     1     -18.983  21.842  15.428  1.00  0.00     0.062 A 
ATOM     17  C   UNL     1     -19.329  21.900  16.787  1.00  0.00     0.158 A 
BRANCH  15  18
ATOM     18  O   UNL     1     -18.633  22.094  19.115  1.00  0.00    -0.504 OA
ATOM     19  H   UNL     1     -18.816  22.971  19.588  1.00  0.00     0.293 HD
ENDBRANCH  15  18
BRANCH  17  20
ATOM     20  O   UNL     1     -20.666  21.821  17.172  1.00  0.00    -0.504 OA
ATOM     21  H   UNL     1     -21.419  21.994  16.517  1.00  0.00     0.293 HD
ENDBRANCH  17  20
ENDBRANCH   1  12
BRANCH   2  22
ATOM     22  O   UNL     1     -19.640  22.017  12.936  1.00  0.00    -0.502 OA
ATOM     23  H   UNL     1     -20.101  21.373  13.566  1.00  0.00     0.293 HD
ENDBRANCH   2  22
BRANCH   6  24
ATOM     24  O   UNL     1     -16.827  21.442   8.450  1.00  0.00    -0.507 OA
ATOM     25  H   UNL     1     -16.481  21.366   7.505  1.00  0.00     0.293 HD
ENDBRANCH   6  24
BRANCH   8  26
ATOM     26  O   UNL     1     -12.375  21.747  10.177  1.00  0.00    -0.508 OA
ATOM     27  H   UNL     1     -11.697  21.700  10.928  1.00  0.00     0.293 HD
ENDBRANCH   8  26
TORSDOF 6
ENDMDL
MODEL 8
REMARK VINA RESULT:    -3.338      2.156      4.130
REMARK INTER + INTRA:          -4.324
REMARK INTER:                  -4.128
REMARK INTRA:                  -0.196
REMARK UNBOUND:                -0.302
REMARK SMILES O=c1c(O)c(-c2ccc(O)c(O)c2)oc2cc(O)cc(O)c12
REMARK SMILES IDX 5 1 3 2 2 3 1 4 22 5 20 6 19 7 17 8 16 9 15 10 14 11 6 12
REMARK SMILES IDX 7 13 8 14 9 15 13 16 11 17 10 18 12 20 4 22 21 24 18 26
REMARK H PARENT 10 19 12 21 4 23 21 25 18 27
REMARK Flexibility Score: inf
ROOT
ATOM      1  C   UNL     1     -16.038  21.071  12.101  1.00  0.00     0.180 A 
ATOM      2  C   UNL     1     -16.368  21.489  13.402  1.00  0.00     0.208 A 
ATOM      3  C   UNL     1     -17.718  21.698  13.728  1.00  0.00     0.238 A 
ATOM      4  O   UNL     1     -18.003  22.125  14.877  1.00  0.00    -0.285 OA
ATOM      5  C   UNL     1     -18.721  21.469  12.755  1.00  0.00     0.111 A 
ATOM      6  C   UNL     1     -20.122  21.610  12.988  1.00  0.00     0.134 A 
ATOM      7  C   UNL     1     -21.016  21.484  11.917  1.00  0.00     0.093 A 
ATOM      8  C   UNL     1     -20.567  21.160  10.638  1.00  0.00     0.123 A 
ATOM      9  C   UNL     1     -19.204  20.962  10.411  1.00  0.00     0.094 A 
ATOM     10  C   UNL     1     -18.285  21.116  11.452  1.00  0.00     0.146 A 
ATOM     11  O   UNL     1     -16.996  20.928  11.192  1.00  0.00    -0.452 OA
ENDROOT
BRANCH   1  12
ATOM     12  C   UNL     1     -14.640  20.806  11.689  1.00  0.00     0.025 A 
ATOM     13  C   UNL     1     -13.973  21.646  10.781  1.00  0.00     0.016 A 
ATOM     14  C   UNL     1     -12.646  21.390  10.426  1.00  0.00     0.051 A 
ATOM     15  C   UNL     1     -11.962  20.304  10.979  1.00  0.00     0.157 A 
ATOM     16  C   UNL     1     -13.944  19.727  12.258  1.00  0.00     0.062 A 
ATOM     17  C   UNL     1     -12.612  19.469  11.903  1.00  0.00     0.158 A 
BRANCH  15  18
ATOM     18  O   UNL     1     -10.639  20.073  10.604  1.00  0.00    -0.504 OA
ATOM     19  H   UNL     1     -10.190  19.176  10.740  1.00  0.00     0.293 HD
ENDBRANCH  15  18
BRANCH  17  20
ATOM     20  O   UNL     1     -11.935  18.388  12.464  1.00  0.00    -0.504 OA
ATOM     21  H   UNL     1     -12.223  17.980  13.345  1.00  0.00     0.293 HD
ENDBRANCH  17  20
ENDBRANCH   1  12
BRANCH   2  22
ATOM     22  O   UNL     1     -15.361  21.730  14.340  1.00  0.00    -0.502 OA
ATOM     23  H   UNL     1     -15.399  21.368  15.284  1.00  0.00     0.293 HD
ENDBRANCH   2  22
BRANCH   6  24
ATOM     24  O   UNL     1     -20.685  21.843  14.246  1.00  0.00    -0.507 OA
ATOM     25  H   UNL     1     -21.391  22.537  14.439  1.00  0.00     0.293 HD
ENDBRANCH   6  24
BRANCH   8  26
ATOM     26  O   UNL     1     -21.485  21.028   9.599  1.00  0.00    -0.508 OA
ATOM     27  H   UNL     1     -21.268  21.330   8.657  1.00  0.00     0.293 HD
ENDBRANCH   8  26
TORSDOF 6
ENDMDL
