MODEL 1
REMARK VINA RESULT:    -3.286      0.000      0.000
REMARK INTER + INTRA:          -8.895
REMARK INTER:                  -6.167
REMARK INTRA:                  -2.728
REMARK UNBOUND:                -2.728
REMARK SMILES CCCCCCCCC=CCCCCCCCC(=O)[O-]
REMARK SMILES IDX 10 1 9 2 11 3 12 4 13 5 14 6 15 7 16 8 17 9 18 10 19 11
REMARK SMILES IDX 20 12 8 13 7 14 6 15 5 16 4 17 3 18 2 19 1 20
REMARK H PARENT
REMARK Flexibility Score: inf
ROOT
ATOM      1  C   UNL     1      60.901  32.007  59.984  1.00  0.00    -0.031 C 
ATOM      2  C   UNL     1      61.420  32.993  60.732  1.00  0.00    -0.031 C 
ENDROOT
BRANCH   1   3
ATOM      3  C   UNL     1      60.871  30.584  60.468  1.00  0.00     0.027 C 
BRANCH   3   4
ATOM      4  C   UNL     1      61.593  30.440  61.814  1.00  0.00     0.004 C 
BRANCH   4   5
ATOM      5  C   UNL     1      63.010  29.888  61.621  1.00  0.00     0.000 C 
BRANCH   5   6
ATOM      6  C   UNL     1      63.027  28.763  60.575  1.00  0.00     0.000 C 
BRANCH   6   7
ATOM      7  C   UNL     1      64.384  28.673  59.847  1.00  0.00     0.000 C 
BRANCH   7   8
ATOM      8  C   UNL     1      65.565  28.319  60.770  1.00  0.00     0.006 C 
BRANCH   8   9
ATOM      9  C   UNL     1      66.861  29.087  60.456  1.00  0.00     0.053 C 
BRANCH   9  10
ATOM     10  C   UNL     1      68.066  28.490  61.121  1.00  0.00     0.041 C 
ATOM     11  O   UNL     1      68.639  29.101  62.061  1.00  0.00    -0.550 OA
ATOM     12  O   UNL     1      68.517  27.228  60.753  1.00  0.00    -0.550 OA
ENDBRANCH   9  10
ENDBRANCH   8   9
ENDBRANCH   7   8
ENDBRANCH   6   7
ENDBRANCH   5   6
ENDBRANCH   4   5
ENDBRANCH   3   4
ENDBRANCH   1   3
BRANCH   2  13
ATOM     13  C   UNL     1      61.450  34.416  60.248  1.00  0.00     0.027 C 
BRANCH  13  14
ATOM     14  C   UNL     1      62.736  35.125  60.690  1.00  0.00     0.004 C 
BRANCH  14  15
ATOM     15  C   UNL     1      63.838  34.111  61.018  1.00  0.00     0.000 C 
BRANCH  15  16
ATOM     16  C   UNL     1      64.729  33.852  59.794  1.00  0.00     0.000 C 
BRANCH  16  17
ATOM     17  C   UNL     1      64.785  32.365  59.398  1.00  0.00    -0.000 C 
BRANCH  17  18
ATOM     18  C   UNL     1      64.009  32.000  58.116  1.00  0.00    -0.000 C 
BRANCH  18  19
ATOM     19  C   UNL     1      63.488  33.202  57.308  1.00  0.00    -0.003 C 
ATOM     20  C   UNL     1      62.133  32.938  56.654  1.00  0.00     0.004 C 
ENDBRANCH  18  19
ENDBRANCH  17  18
ENDBRANCH  16  17
ENDBRANCH  15  16
ENDBRANCH  14  15
ENDBRANCH  13  14
ENDBRANCH   2  13
TORSDOF 15
ENDMDL
MODEL 2
REMARK VINA RESULT:    -3.272     10.349     12.342
REMARK INTER + INTRA:          -8.869
REMARK INTER:                  -6.174
REMARK INTRA:                  -2.695
REMARK UNBOUND:                -2.728
REMARK SMILES CCCCCCCCC=CCCCCCCCC(=O)[O-]
REMARK SMILES IDX 10 1 9 2 11 3 12 4 13 5 14 6 15 7 16 8 17 9 18 10 19 11
REMARK SMILES IDX 20 12 8 13 7 14 6 15 5 16 4 17 3 18 2 19 1 20
REMARK H PARENT
REMARK Flexibility Score: inf
ROOT
ATOM      1  C   UNL     1      57.335  28.687  52.909  1.00  0.00    -0.031 C 
ATOM      2  C   UNL     1      56.464  29.624  52.501  1.00  0.00    -0.031 C 
ENDROOT
BRANCH   1   3
ATOM      3  C   UNL     1      58.718  28.591  52.329  1.00  0.00     0.027 C 
BRANCH   3   4
ATOM      4  C   UNL     1      58.881  29.528  51.126  1.00  0.00     0.004 C 
BRANCH   4   5
ATOM      5  C   UNL     1      58.640  28.779  49.810  1.00  0.00     0.000 C 
BRANCH   5   6
ATOM      6  C   UNL     1      59.794  27.814  49.504  1.00  0.00     0.000 C 
BRANCH   6   7
ATOM      7  C   UNL     1      59.312  26.352  49.404  1.00  0.00     0.000 C 
BRANCH   7   8
ATOM      8  C   UNL     1      59.775  25.460  50.571  1.00  0.00     0.006 C 
BRANCH   8   9
ATOM      9  C   UNL     1      60.640  24.261  50.142  1.00  0.00     0.053 C 
BRANCH   9  10
ATOM     10  C   UNL     1      62.103  24.484  50.386  1.00  0.00     0.041 C 
ATOM     11  O   UNL     1      62.648  25.561  50.028  1.00  0.00    -0.550 OA
ATOM     12  O   UNL     1      62.853  23.534  51.069  1.00  0.00    -0.550 OA
ENDBRANCH   9  10
ENDBRANCH   8   9
ENDBRANCH   7   8
ENDBRANCH   6   7
ENDBRANCH   5   6
ENDBRANCH   4   5
ENDBRANCH   3   4
ENDBRANCH   1   3
BRANCH   2  13
ATOM     13  C   UNL     1      55.081  29.719  53.081  1.00  0.00     0.027 C 
BRANCH  13  14
ATOM     14  C   UNL     1      54.029  29.903  51.980  1.00  0.00     0.004 C 
BRANCH  14  15
ATOM     15  C   UNL     1      54.532  29.347  50.642  1.00  0.00     0.000 C 
BRANCH  15  16
ATOM     16  C   UNL     1      53.525  28.351  50.047  1.00  0.00     0.000 C 
BRANCH  16  17
ATOM     17  C   UNL     1      54.143  26.969  49.771  1.00  0.00    -0.000 C 
BRANCH  17  18
ATOM     18  C   UNL     1      55.652  26.854  50.071  1.00  0.00    -0.000 C 
BRANCH  18  19
ATOM     19  C   UNL     1      56.027  25.781  51.108  1.00  0.00    -0.003 C 
ATOM     20  C   UNL     1      55.139  25.816  52.351  1.00  0.00     0.004 C 
ENDBRANCH  18  19
ENDBRANCH  17  18
ENDBRANCH  16  17
ENDBRANCH  15  16
ENDBRANCH  14  15
ENDBRANCH  13  14
ENDBRANCH   2  13
TORSDOF 15
ENDMDL
MODEL 3
REMARK VINA RESULT:    -3.194     10.612     12.265
REMARK INTER + INTRA:          -8.722
REMARK INTER:                  -6.594
REMARK INTRA:                  -2.128
REMARK UNBOUND:                -2.728
REMARK SMILES CCCCCCCCC=CCCCCCCCC(=O)[O-]
REMARK SMILES IDX 10 1 9 2 11 3 12 4 13 5 14 6 15 7 16 8 17 9 18 10 19 11
REMARK SMILES IDX 20 12 8 13 7 14 6 15 5 16 4 17 3 18 2 19 1 20
REMARK H PARENT
REMARK Flexibility Score: inf
ROOT
ATOM      1  C   UNL     1      59.522  26.555  50.214  1.00  0.00    -0.031 C 
ATOM      2  C   UNL     1      59.298  27.520  49.309  1.00  0.00    -0.031 C 
ENDROOT
BRANCH   1   3
ATOM      3  C   UNL     1      59.932  25.168  49.802  1.00  0.00     0.027 C 
BRANCH   3   4
ATOM      4  C   UNL     1      61.055  24.632  50.699  1.00  0.00     0.004 C 
BRANCH   4   5
ATOM      5  C   UNL     1      62.011  25.757  51.112  1.00  0.00     0.000 C 
BRANCH   5   6
ATOM      6  C   UNL     1      63.242  25.802  50.196  1.00  0.00     0.000 C 
BRANCH   6   7
ATOM      7  C   UNL     1      63.872  27.209  50.144  1.00  0.00     0.000 C 
BRANCH   7   8
ATOM      8  C   UNL     1      63.095  28.209  49.268  1.00  0.00     0.006 C 
BRANCH   8   9
ATOM      9  C   UNL     1      62.486  29.388  50.049  1.00  0.00     0.053 C 
BRANCH   9  10
ATOM     10  C   UNL     1      62.931  30.722  49.527  1.00  0.00     0.041 C 
ATOM     11  O   UNL     1      62.247  31.753  49.761  1.00  0.00    -0.550 OA
ATOM     12  O   UNL     1      64.133  30.841  48.841  1.00  0.00    -0.550 OA
ENDBRANCH   9  10
ENDBRANCH   8   9
ENDBRANCH   7   8
ENDBRANCH   6   7
ENDBRANCH   5   6
ENDBRANCH   4   5
ENDBRANCH   3   4
ENDBRANCH   1   3
BRANCH   2  13
ATOM     13  C   UNL     1      58.888  28.907  49.720  1.00  0.00     0.027 C 
BRANCH  13  14
ATOM     14  C   UNL     1      58.975  29.082  51.241  1.00  0.00     0.004 C 
BRANCH  14  15
ATOM     15  C   UNL     1      57.646  29.589  51.813  1.00  0.00     0.000 C 
BRANCH  15  16
ATOM     16  C   UNL     1      56.543  28.531  51.662  1.00  0.00     0.000 C 
BRANCH  16  17
ATOM     17  C   UNL     1      55.313  29.053  50.896  1.00  0.00    -0.000 C 
BRANCH  17  18
ATOM     18  C   UNL     1      54.564  27.994  50.062  1.00  0.00    -0.000 C 
BRANCH  18  19
ATOM     19  C   UNL     1      55.313  26.662  49.881  1.00  0.00    -0.003 C 
ATOM     20  C   UNL     1      54.429  25.555  49.305  1.00  0.00     0.004 C 
ENDBRANCH  18  19
ENDBRANCH  17  18
ENDBRANCH  16  17
ENDBRANCH  15  16
ENDBRANCH  14  15
ENDBRANCH  13  14
ENDBRANCH   2  13
TORSDOF 15
ENDMDL
MODEL 4
REMARK VINA RESULT:    -3.189     10.374     13.114
REMARK INTER + INTRA:          -8.712
REMARK INTER:                  -6.184
REMARK INTRA:                  -2.528
REMARK UNBOUND:                -2.728
REMARK SMILES CCCCCCCCC=CCCCCCCCC(=O)[O-]
REMARK SMILES IDX 10 1 9 2 11 3 12 4 13 5 14 6 15 7 16 8 17 9 18 10 19 11
REMARK SMILES IDX 20 12 8 13 7 14 6 15 5 16 4 17 3 18 2 19 1 20
REMARK H PARENT
REMARK Flexibility Score: inf
ROOT
ATOM      1  C   UNL     1      59.959  25.766  51.666  1.00  0.00    -0.031 C 
ATOM      2  C   UNL     1      58.730  25.447  51.229  1.00  0.00    -0.031 C 
ENDROOT
BRANCH   1   3
ATOM      3  C   UNL     1      61.105  25.969  50.714  1.00  0.00     0.027 C 
BRANCH   3   4
ATOM      4  C   UNL     1      60.657  26.732  49.461  1.00  0.00     0.004 C 
BRANCH   4   5
ATOM      5  C   UNL     1      60.404  28.210  49.780  1.00  0.00     0.000 C 
BRANCH   5   6
ATOM      6  C   UNL     1      59.051  28.673  49.221  1.00  0.00     0.000 C 
BRANCH   6   7
ATOM      7  C   UNL     1      58.142  29.256  50.322  1.00  0.00     0.000 C 
BRANCH   7   8
ATOM      8  C   UNL     1      58.721  29.129  51.743  1.00  0.00     0.006 C 
BRANCH   8   9
ATOM      9  C   UNL     1      58.322  30.275  52.690  1.00  0.00     0.053 C 
BRANCH   9  10
ATOM     10  C   UNL     1      56.897  30.179  53.151  1.00  0.00     0.041 C 
ATOM     11  O   UNL     1      56.188  31.215  53.234  1.00  0.00    -0.550 OA
ATOM     12  O   UNL     1      56.331  28.940  53.422  1.00  0.00    -0.550 OA
ENDBRANCH   9  10
ENDBRANCH   8   9
ENDBRANCH   7   8
ENDBRANCH   6   7
ENDBRANCH   5   6
ENDBRANCH   4   5
ENDBRANCH   3   4
ENDBRANCH   1   3
BRANCH   2  13
ATOM     13  C   UNL     1      57.585  25.245  52.181  1.00  0.00     0.027 C 
BRANCH  13  14
ATOM     14  C   UNL     1      56.283  25.824  51.614  1.00  0.00     0.004 C 
BRANCH  14  15
ATOM     15  C   UNL     1      56.391  26.037  50.099  1.00  0.00     0.000 C 
BRANCH  15  16
ATOM     16  C   UNL     1      55.019  25.889  49.424  1.00  0.00     0.000 C 
BRANCH  16  17
ATOM     17  C   UNL     1      53.876  26.506  50.250  1.00  0.00    -0.000 C 
BRANCH  17  18
ATOM     18  C   UNL     1      53.488  27.946  49.858  1.00  0.00    -0.000 C 
BRANCH  18  19
ATOM     19  C   UNL     1      54.403  29.043  50.431  1.00  0.00    -0.003 C 
ATOM     20  C   UNL     1      53.625  30.197  51.064  1.00  0.00     0.004 C 
ENDBRANCH  18  19
ENDBRANCH  17  18
ENDBRANCH  16  17
ENDBRANCH  15  16
ENDBRANCH  14  15
ENDBRANCH  13  14
ENDBRANCH   2  13
TORSDOF 15
ENDMDL
MODEL 5
REMARK VINA RESULT:    -3.122      2.234      2.853
REMARK INTER + INTRA:          -8.587
REMARK INTER:                  -5.947
REMARK INTRA:                  -2.640
REMARK UNBOUND:                -2.728
REMARK SMILES CCCCCCCCC=CCCCCCCCC(=O)[O-]
REMARK SMILES IDX 10 1 9 2 11 3 12 4 13 5 14 6 15 7 16 8 17 9 18 10 19 11
REMARK SMILES IDX 20 12 8 13 7 14 6 15 5 16 4 17 3 18 2 19 1 20
REMARK H PARENT
REMARK Flexibility Score: inf
ROOT
ATOM      1  C   UNL     1      62.157  33.504  60.679  1.00  0.00    -0.031 C 
ATOM      2  C   UNL     1      61.914  34.823  60.731  1.00  0.00    -0.031 C 
ENDROOT
BRANCH   1   3
ATOM      3  C   UNL     1      61.092  32.523  60.274  1.00  0.00     0.027 C 
BRANCH   3   4
ATOM      4  C   UNL     1      60.973  31.383  61.292  1.00  0.00     0.004 C 
BRANCH   4   5
ATOM      5  C   UNL     1      61.626  30.101  60.761  1.00  0.00     0.000 C 
BRANCH   5   6
ATOM      6  C   UNL     1      62.767  29.641  61.680  1.00  0.00     0.000 C 
BRANCH   6   7
ATOM      7  C   UNL     1      64.152  29.881  61.045  1.00  0.00     0.000 C 
BRANCH   7   8
ATOM      8  C   UNL     1      64.094  30.511  59.642  1.00  0.00     0.006 C 
BRANCH   8   9
ATOM      9  C   UNL     1      65.128  31.628  59.411  1.00  0.00     0.053 C 
BRANCH   9  10
ATOM     10  C   UNL     1      66.161  31.261  58.387  1.00  0.00     0.041 C 
ATOM     11  O   UNL     1      67.189  30.619  58.727  1.00  0.00    -0.550 OA
ATOM     12  O   UNL     1      65.959  31.566  57.047  1.00  0.00    -0.550 OA
ENDBRANCH   9  10
ENDBRANCH   8   9
ENDBRANCH   7   8
ENDBRANCH   6   7
ENDBRANCH   5   6
ENDBRANCH   4   5
ENDBRANCH   3   4
ENDBRANCH   1   3
BRANCH   2  13
ATOM     13  C   UNL     1      62.978  35.805  61.136  1.00  0.00     0.027 C 
BRANCH  13  14
ATOM     14  C   UNL     1      64.295  35.091  61.464  1.00  0.00     0.004 C 
BRANCH  14  15
ATOM     15  C   UNL     1      65.492  36.032  61.278  1.00  0.00     0.000 C 
BRANCH  15  16
ATOM     16  C   UNL     1      65.618  36.478  59.814  1.00  0.00     0.000 C 
BRANCH  16  17
ATOM     17  C   UNL     1      65.636  35.297  58.827  1.00  0.00    -0.000 C 
BRANCH  17  18
ATOM     18  C   UNL     1      64.715  35.455  57.600  1.00  0.00    -0.000 C 
BRANCH  18  19
ATOM     19  C   UNL     1      63.705  34.312  57.395  1.00  0.00    -0.003 C 
ATOM     20  C   UNL     1      62.294  34.811  57.083  1.00  0.00     0.004 C 
ENDBRANCH  18  19
ENDBRANCH  17  18
ENDBRANCH  16  17
ENDBRANCH  15  16
ENDBRANCH  14  15
ENDBRANCH  13  14
ENDBRANCH   2  13
TORSDOF 15
ENDMDL
MODEL 6
REMARK VINA RESULT:    -3.103     11.594     13.617
REMARK INTER + INTRA:          -8.552
REMARK INTER:                  -5.988
REMARK INTRA:                  -2.564
REMARK UNBOUND:                -2.728
REMARK SMILES CCCCCCCCC=CCCCCCCCC(=O)[O-]
REMARK SMILES IDX 10 1 9 2 11 3 12 4 13 5 14 6 15 7 16 8 17 9 18 10 19 11
REMARK SMILES IDX 20 12 8 13 7 14 6 15 5 16 4 17 3 18 2 19 1 20
REMARK H PARENT
REMARK Flexibility Score: inf
ROOT
ATOM      1  C   UNL     1      57.966  28.887  51.066  1.00  0.00    -0.031 C 
ATOM      2  C   UNL     1      58.269  29.050  49.769  1.00  0.00    -0.031 C 
ENDROOT
BRANCH   1   3
ATOM      3  C   UNL     1      56.543  28.886  51.549  1.00  0.00     0.027 C 
BRANCH   3   4
ATOM      4  C   UNL     1      55.591  28.357  50.469  1.00  0.00     0.004 C 
BRANCH   4   5
ATOM      5  C   UNL     1      54.261  29.119  50.489  1.00  0.00     0.000 C 
BRANCH   5   6
ATOM      6  C   UNL     1      53.127  28.267  49.901  1.00  0.00     0.000 C 
BRANCH   6   7
ATOM      7  C   UNL     1      53.604  26.847  49.532  1.00  0.00     0.000 C 
BRANCH   7   8
ATOM      8  C   UNL     1      53.002  25.737  50.413  1.00  0.00     0.006 C 
BRANCH   8   9
ATOM      9  C   UNL     1      54.006  25.094  51.388  1.00  0.00     0.053 C 
BRANCH   9  10
ATOM     10  C   UNL     1      53.776  25.503  52.813  1.00  0.00     0.041 C 
ATOM     11  O   UNL     1      53.572  24.630  53.696  1.00  0.00    -0.550 OA
ATOM     12  O   UNL     1      53.855  26.841  53.180  1.00  0.00    -0.550 OA
ENDBRANCH   9  10
ENDBRANCH   8   9
ENDBRANCH   7   8
ENDBRANCH   6   7
ENDBRANCH   5   6
ENDBRANCH   4   5
ENDBRANCH   3   4
ENDBRANCH   1   3
BRANCH   2  13
ATOM     13  C   UNL     1      59.692  29.051  49.286  1.00  0.00     0.027 C 
BRANCH  13  14
ATOM     14  C   UNL     1      60.641  28.495  50.354  1.00  0.00     0.004 C 
BRANCH  14  15
ATOM     15  C   UNL     1      61.494  27.352  49.791  1.00  0.00     0.000 C 
BRANCH  15  16
ATOM     16  C   UNL     1      61.040  25.997  50.354  1.00  0.00     0.000 C 
BRANCH  16  17
ATOM     17  C   UNL     1      59.790  25.443  49.647  1.00  0.00    -0.000 C 
BRANCH  17  18
ATOM     18  C   UNL     1      58.550  25.276  50.548  1.00  0.00    -0.000 C 
BRANCH  18  19
ATOM     19  C   UNL     1      58.813  25.453  52.054  1.00  0.00    -0.003 C 
ATOM     20  C   UNL     1      57.528  25.549  52.876  1.00  0.00     0.004 C 
ENDBRANCH  18  19
ENDBRANCH  17  18
ENDBRANCH  16  17
ENDBRANCH  15  16
ENDBRANCH  14  15
ENDBRANCH  13  14
ENDBRANCH   2  13
TORSDOF 15
ENDMDL
MODEL 7
REMARK VINA RESULT:    -3.098      9.833     12.384
REMARK INTER + INTRA:          -8.543
REMARK INTER:                  -5.595
REMARK INTRA:                  -2.948
REMARK UNBOUND:                -2.728
REMARK SMILES CCCCCCCCC=CCCCCCCCC(=O)[O-]
REMARK SMILES IDX 10 1 9 2 11 3 12 4 13 5 14 6 15 7 16 8 17 9 18 10 19 11
REMARK SMILES IDX 20 12 8 13 7 14 6 15 5 16 4 17 3 18 2 19 1 20
REMARK H PARENT
REMARK Flexibility Score: inf
ROOT
ATOM      1  C   UNL     1      57.240  25.496  51.104  1.00  0.00    -0.031 C 
ATOM      2  C   UNL     1      56.755  26.188  50.062  1.00  0.00    -0.031 C 
ENDROOT
BRANCH   1   3
ATOM      3  C   UNL     1      58.714  25.435  51.394  1.00  0.00     0.027 C 
BRANCH   3   4
ATOM      4  C   UNL     1      59.531  25.388  50.097  1.00  0.00     0.004 C 
BRANCH   4   5
ATOM      5  C   UNL     1      60.971  25.858  50.339  1.00  0.00     0.000 C 
BRANCH   5   6
ATOM      6  C   UNL     1      61.193  27.270  49.777  1.00  0.00     0.000 C 
BRANCH   6   7
ATOM      7  C   UNL     1      59.931  27.820  49.083  1.00  0.00     0.000 C 
BRANCH   7   8
ATOM      8  C   UNL     1      59.396  29.124  49.702  1.00  0.00     0.006 C 
BRANCH   8   9
ATOM      9  C   UNL     1      59.453  29.161  51.239  1.00  0.00     0.053 C 
BRANCH   9  10
ATOM     10  C   UNL     1      60.418  30.185  51.761  1.00  0.00     0.041 C 
ATOM     11  O   UNL     1      60.349  30.568  52.958  1.00  0.00    -0.550 OA
ATOM     12  O   UNL     1      61.437  30.666  50.948  1.00  0.00    -0.550 OA
ENDBRANCH   9  10
ENDBRANCH   8   9
ENDBRANCH   7   8
ENDBRANCH   6   7
ENDBRANCH   5   6
ENDBRANCH   4   5
ENDBRANCH   3   4
ENDBRANCH   1   3
BRANCH   2  13
ATOM     13  C   UNL     1      55.281  26.248  49.772  1.00  0.00     0.027 C 
BRANCH  13  14
ATOM     14  C   UNL     1      54.700  27.621  50.134  1.00  0.00     0.004 C 
BRANCH  14  15
ATOM     15  C   UNL     1      55.816  28.617  50.472  1.00  0.00     0.000 C 
BRANCH  15  16
ATOM     16  C   UNL     1      55.567  29.279  51.835  1.00  0.00     0.000 C 
BRANCH  16  17
ATOM     17  C   UNL     1      56.299  28.568  52.988  1.00  0.00    -0.000 C 
BRANCH  17  18
ATOM     18  C   UNL     1      55.382  27.967  54.072  1.00  0.00    -0.000 C 
BRANCH  18  19
ATOM     19  C   UNL     1      55.364  26.429  54.127  1.00  0.00    -0.003 C 
ATOM     20  C   UNL     1      54.199  25.818  53.347  1.00  0.00     0.004 C 
ENDBRANCH  18  19
ENDBRANCH  17  18
ENDBRANCH  16  17
ENDBRANCH  15  16
ENDBRANCH  14  15
ENDBRANCH  13  14
ENDBRANCH   2  13
TORSDOF 15
ENDMDL
MODEL 8
REMARK VINA RESULT:    -3.094      9.911     12.486
REMARK INTER + INTRA:          -8.535
REMARK INTER:                  -5.771
REMARK INTRA:                  -2.763
REMARK UNBOUND:                -2.728
REMARK SMILES CCCCCCCCC=CCCCCCCCC(=O)[O-]
REMARK SMILES IDX 10 1 9 2 11 3 12 4 13 5 14 6 15 7 16 8 17 9 18 10 19 11
REMARK SMILES IDX 20 12 8 13 7 14 6 15 5 16 4 17 3 18 2 19 1 20
REMARK H PARENT
REMARK Flexibility Score: inf
ROOT
ATOM      1  C   UNL     1      57.357  26.629  52.961  1.00  0.00    -0.031 C 
ATOM      2  C   UNL     1      56.996  26.171  51.752  1.00  0.00    -0.031 C 
ENDROOT
BRANCH   1   3
ATOM      3  C   UNL     1      58.773  27.039  53.257  1.00  0.00     0.027 C 
BRANCH   3   4
ATOM      4  C   UNL     1      58.930  28.564  53.214  1.00  0.00     0.004 C 
BRANCH   4   5
ATOM      5  C   UNL     1      59.549  29.014  51.885  1.00  0.00     0.000 C 
BRANCH   5   6
ATOM      6  C   UNL     1      58.462  29.389  50.868  1.00  0.00     0.000 C 
BRANCH   6   7
ATOM      7  C   UNL     1      58.834  28.949  49.437  1.00  0.00     0.000 C 
BRANCH   7   8
ATOM      8  C   UNL     1      59.976  27.918  49.378  1.00  0.00     0.006 C 
BRANCH   8   9
ATOM      9  C   UNL     1      59.501  26.455  49.320  1.00  0.00     0.053 C 
BRANCH   9  10
ATOM     10  C   UNL     1      60.345  25.537  50.154  1.00  0.00     0.041 C 
ATOM     11  O   UNL     1      61.263  26.004  50.879  1.00  0.00    -0.550 OA
ATOM     12  O   UNL     1      60.076  24.174  50.187  1.00  0.00    -0.550 OA
ENDBRANCH   9  10
ENDBRANCH   8   9
ENDBRANCH   7   8
ENDBRANCH   6   7
ENDBRANCH   5   6
ENDBRANCH   4   5
ENDBRANCH   3   4
ENDBRANCH   1   3
BRANCH   2  13
ATOM     13  C   UNL     1      55.581  25.761  51.456  1.00  0.00     0.027 C 
BRANCH  13  14
ATOM     14  C   UNL     1      55.235  25.989  49.979  1.00  0.00     0.004 C 
BRANCH  14  15
ATOM     15  C   UNL     1      54.232  27.138  49.821  1.00  0.00     0.000 C 
BRANCH  15  16
ATOM     16  C   UNL     1      54.866  28.480  50.214  1.00  0.00     0.000 C 
BRANCH  16  17
ATOM     17  C   UNL     1      53.824  29.541  50.613  1.00  0.00    -0.000 C 
BRANCH  17  18
ATOM     18  C   UNL     1      54.159  30.341  51.888  1.00  0.00    -0.000 C 
BRANCH  18  19
ATOM     19  C   UNL     1      55.258  29.723  52.772  1.00  0.00    -0.003 C 
ATOM     20  C   UNL     1      54.698  28.911  53.939  1.00  0.00     0.004 C 
ENDBRANCH  18  19
ENDBRANCH  17  18
ENDBRANCH  16  17
ENDBRANCH  15  16
ENDBRANCH  14  15
ENDBRANCH  13  14
ENDBRANCH   2  13
TORSDOF 15
ENDMDL
MODEL 9
REMARK VINA RESULT:    -3.061      1.136      2.733
REMARK INTER + INTRA:          -8.472
REMARK INTER:                  -5.875
REMARK INTRA:                  -2.597
REMARK UNBOUND:                -2.728
REMARK SMILES CCCCCCCCC=CCCCCCCCC(=O)[O-]
REMARK SMILES IDX 10 1 9 2 11 3 12 4 13 5 14 6 15 7 16 8 17 9 18 10 19 11
REMARK SMILES IDX 20 12 8 13 7 14 6 15 5 16 4 17 3 18 2 19 1 20
REMARK H PARENT
REMARK Flexibility Score: inf
ROOT
ATOM      1  C   UNL     1      61.176  31.505  60.902  1.00  0.00    -0.031 C 
ATOM      2  C   UNL     1      60.959  31.416  59.580  1.00  0.00    -0.031 C 
ENDROOT
BRANCH   1   3
ATOM      3  C   UNL     1      61.739  30.354  61.687  1.00  0.00     0.027 C 
BRANCH   3   4
ATOM      4  C   UNL     1      63.271  30.410  61.733  1.00  0.00     0.004 C 
BRANCH   4   5
ATOM      5  C   UNL     1      63.887  29.255  60.936  1.00  0.00     0.000 C 
BRANCH   5   6
ATOM      6  C   UNL     1      64.432  29.743  59.586  1.00  0.00     0.000 C 
BRANCH   6   7
ATOM      7  C   UNL     1      65.810  30.420  59.731  1.00  0.00     0.000 C 
BRANCH   7   8
ATOM      8  C   UNL     1      66.872  29.891  58.749  1.00  0.00     0.006 C 
BRANCH   8   9
ATOM      9  C   UNL     1      68.091  29.243  59.429  1.00  0.00     0.053 C 
BRANCH   9  10
ATOM     10  C   UNL     1      67.729  28.491  60.676  1.00  0.00     0.041 C 
ATOM     11  O   UNL     1      67.129  27.387  60.598  1.00  0.00    -0.550 OA
ATOM     12  O   UNL     1      68.114  28.973  61.921  1.00  0.00    -0.550 OA
ENDBRANCH   9  10
ENDBRANCH   8   9
ENDBRANCH   7   8
ENDBRANCH   6   7
ENDBRANCH   5   6
ENDBRANCH   4   5
ENDBRANCH   3   4
ENDBRANCH   1   3
BRANCH   2  13
ATOM     13  C   UNL     1      60.397  32.567  58.794  1.00  0.00     0.027 C 
BRANCH  13  14
ATOM     14  C   UNL     1      61.260  32.875  57.565  1.00  0.00     0.004 C 
BRANCH  14  15
ATOM     15  C   UNL     1      62.745  32.632  57.862  1.00  0.00     0.000 C 
BRANCH  15  16
ATOM     16  C   UNL     1      63.421  33.912  58.373  1.00  0.00     0.000 C 
BRANCH  16  17
ATOM     17  C   UNL     1      64.222  33.690  59.669  1.00  0.00    -0.000 C 
BRANCH  17  18
ATOM     18  C   UNL     1      63.591  34.292  60.941  1.00  0.00    -0.000 C 
BRANCH  18  19
ATOM     19  C   UNL     1      62.269  35.047  60.714  1.00  0.00    -0.003 C 
ATOM     20  C   UNL     1      62.358  36.528  61.082  1.00  0.00     0.004 C 
ENDBRANCH  18  19
ENDBRANCH  17  18
ENDBRANCH  16  17
ENDBRANCH  15  16
ENDBRANCH  14  15
ENDBRANCH  13  14
ENDBRANCH   2  13
TORSDOF 15
ENDMDL
