MODEL 1
REMARK VINA RESULT:    -5.164      0.000      0.000
REMARK INTER + INTRA:          -8.192
REMARK INTER:                  -7.278
REMARK INTRA:                  -0.914
REMARK UNBOUND:                -0.914
REMARK SMILES O=c1cc(-c2ccc(O)c(O)c2)oc2cc(O)c([C@H]3O[C@H](CO)[C@H](O)[C@@H](O)[C@H]3O)c(O)c12
REMARK SMILES IDX 4 1 3 2 2 3 1 4 32 5 14 6 13 7 15 8 16 9 18 10 30 11 5 12
REMARK SMILES IDX 6 13 7 14 8 15 12 16 10 17 9 18 11 20 31 22 17 24 19 26
REMARK SMILES IDX 28 27 20 28 26 29 21 30 24 31 29 32 27 34 22 36 23 37 25 39
REMARK H PARENT 9 19 11 21 31 23 17 25 29 33 27 35 23 38 25 40
REMARK Flexibility Score: inf
ROOT
ATOM      1  C   UNL     1      43.684  31.954  21.048  1.00  0.00     0.138 A 
ATOM      2  C   UNL     1      44.788  32.744  21.408  1.00  0.00     0.100 A 
ATOM      3  C   UNL     1      45.536  32.404  22.535  1.00  0.00     0.197 A 
ATOM      4  O   UNL     1      46.524  33.123  22.846  1.00  0.00    -0.289 OA
ATOM      5  C   UNL     1      45.177  31.270  23.298  1.00  0.00     0.107 A 
ATOM      6  C   UNL     1      44.063  30.523  22.862  1.00  0.00     0.146 A 
ATOM      7  O   UNL     1      43.381  30.887  21.781  1.00  0.00    -0.456 OA
ATOM      8  C   UNL     1      43.668  29.384  23.554  1.00  0.00     0.094 A 
ATOM      9  C   UNL     1      44.345  28.974  24.705  1.00  0.00     0.128 A 
ATOM     10  C   UNL     1      45.438  29.729  25.200  1.00  0.00     0.068 A 
ATOM     11  C   UNL     1      45.890  30.855  24.452  1.00  0.00     0.140 A 
ENDROOT
BRANCH   1  12
ATOM     12  C   UNL     1      42.851  32.267  19.859  1.00  0.00     0.021 A 
ATOM     13  C   UNL     1      41.444  32.260  19.920  1.00  0.00     0.016 A 
ATOM     14  C   UNL     1      40.685  32.548  18.782  1.00  0.00     0.051 A 
ATOM     15  C   UNL     1      41.312  32.840  17.567  1.00  0.00     0.157 A 
ATOM     16  C   UNL     1      43.475  32.548  18.631  1.00  0.00     0.062 A 
ATOM     17  C   UNL     1      42.714  32.838  17.490  1.00  0.00     0.158 A 
BRANCH  15  18
ATOM     18  O   UNL     1      40.527  33.125  16.451  1.00  0.00    -0.504 OA
ATOM     19  H   UNL     1      39.689  32.599  16.234  1.00  0.00     0.293 HD
ENDBRANCH  15  18
BRANCH  17  20
ATOM     20  O   UNL     1      43.346  33.125  16.281  1.00  0.00    -0.504 OA
ATOM     21  H   UNL     1      43.238  32.527  15.470  1.00  0.00     0.293 HD
ENDBRANCH  17  20
ENDBRANCH   1  12
BRANCH  11  22
ATOM     22  O   UNL     1      47.042  31.562  24.819  1.00  0.00    -0.506 OA
ATOM     23  H   UNL     1      47.970  31.165  24.869  1.00  0.00     0.293 HD
ENDBRANCH  11  22
BRANCH   9  24
ATOM     24  O   UNL     1      43.932  27.808  25.351  1.00  0.00    -0.507 OA
ATOM     25  H   UNL     1      44.345  26.907  25.143  1.00  0.00     0.293 HD
ENDBRANCH   9  24
BRANCH  10  26
ATOM     26  C   UNL     1      46.141  29.310  26.491  1.00  0.00     0.188 C 
ATOM     27  C   UNL     1      47.240  28.270  26.187  1.00  0.00     0.179 C 
ATOM     28  O   UNL     1      45.196  28.807  27.428  1.00  0.00    -0.362 OA
ATOM     29  C   UNL     1      47.960  27.899  27.491  1.00  0.00     0.177 C 
ATOM     30  C   UNL     1      45.781  28.473  28.684  1.00  0.00     0.176 C 
ATOM     31  C   UNL     1      46.932  27.442  28.539  1.00  0.00     0.177 C 
BRANCH  27  32
ATOM     32  O   UNL     1      46.668  27.127  25.600  1.00  0.00    -0.387 OA
ATOM     33  H   UNL     1      47.331  26.770  24.953  1.00  0.00     0.211 HD
ENDBRANCH  27  32
BRANCH  29  34
ATOM     34  O   UNL     1      48.888  26.875  27.241  1.00  0.00    -0.387 OA
ATOM     35  H   UNL     1      48.371  26.083  26.937  1.00  0.00     0.211 HD
ENDBRANCH  29  34
BRANCH  30  36
ATOM     36  C   UNL     1      46.156  29.722  29.515  1.00  0.00     0.191 C 
BRANCH  36  37
ATOM     37  O   UNL     1      45.034  30.542  29.699  1.00  0.00    -0.394 OA
ATOM     38  H   UNL     1      45.112  31.286  29.047  1.00  0.00     0.210 HD
ENDBRANCH  36  37
ENDBRANCH  30  36
BRANCH  31  39
ATOM     39  O   UNL     1      47.575  27.232  29.771  1.00  0.00    -0.388 OA
ATOM     40  H   UNL     1      48.510  27.548  29.662  1.00  0.00     0.211 HD
ENDBRANCH  31  39
ENDBRANCH  10  26
TORSDOF 11
ENDMDL
MODEL 2
REMARK VINA RESULT:    -5.155      2.653      3.466
REMARK INTER + INTRA:          -8.178
REMARK INTER:                  -7.139
REMARK INTRA:                  -1.039
REMARK UNBOUND:                -0.914
REMARK SMILES O=c1cc(-c2ccc(O)c(O)c2)oc2cc(O)c([C@H]3O[C@H](CO)[C@H](O)[C@@H](O)[C@H]3O)c(O)c12
REMARK SMILES IDX 4 1 3 2 2 3 1 4 32 5 14 6 13 7 15 8 16 9 18 10 30 11 5 12
REMARK SMILES IDX 6 13 7 14 8 15 12 16 10 17 9 18 11 20 31 22 17 24 19 26
REMARK SMILES IDX 28 27 20 28 26 29 21 30 24 31 29 32 27 34 22 36 23 37 25 39
REMARK H PARENT 9 19 11 21 31 23 17 25 29 33 27 35 23 38 25 40
REMARK Flexibility Score: inf
ROOT
ATOM      1  C   UNL     1      46.789  31.702  21.110  1.00  0.00     0.138 A 
ATOM      2  C   UNL     1      46.362  32.651  22.052  1.00  0.00     0.100 A 
ATOM      3  C   UNL     1      46.116  32.252  23.365  1.00  0.00     0.197 A 
ATOM      4  O   UNL     1      45.732  33.116  24.199  1.00  0.00    -0.289 OA
ATOM      5  C   UNL     1      46.300  30.900  23.733  1.00  0.00     0.107 A 
ATOM      6  C   UNL     1      46.743  30.012  22.730  1.00  0.00     0.146 A 
ATOM      7  O   UNL     1      46.965  30.440  21.491  1.00  0.00    -0.456 OA
ATOM      8  C   UNL     1      46.966  28.672  23.028  1.00  0.00     0.094 A 
ATOM      9  C   UNL     1      46.729  28.175  24.312  1.00  0.00     0.128 A 
ATOM     10  C   UNL     1      46.237  29.028  25.331  1.00  0.00     0.068 A 
ATOM     11  C   UNL     1      46.078  30.416  25.047  1.00  0.00     0.140 A 
ENDROOT
BRANCH   1  12
ATOM     12  C   UNL     1      47.067  32.068  19.698  1.00  0.00     0.021 A 
ATOM     13  C   UNL     1      48.305  32.610  19.304  1.00  0.00     0.016 A 
ATOM     14  C   UNL     1      48.535  32.954  17.969  1.00  0.00     0.051 A 
ATOM     15  C   UNL     1      47.536  32.772  17.008  1.00  0.00     0.157 A 
ATOM     16  C   UNL     1      46.061  31.899  18.729  1.00  0.00     0.062 A 
ATOM     17  C   UNL     1      46.292  32.244  17.390  1.00  0.00     0.158 A 
BRANCH  15  18
ATOM     18  O   UNL     1      47.796  33.124  15.685  1.00  0.00    -0.504 OA
ATOM     19  H   UNL     1      48.184  32.467  15.019  1.00  0.00     0.293 HD
ENDBRANCH  15  18
BRANCH  17  20
ATOM     20  O   UNL     1      45.290  32.063  16.437  1.00  0.00    -0.504 OA
ATOM     21  H   UNL     1      45.319  31.297  15.774  1.00  0.00     0.293 HD
ENDBRANCH  17  20
ENDBRANCH   1  12
BRANCH  11  22
ATOM     22  O   UNL     1      45.719  31.331  26.046  1.00  0.00    -0.506 OA
ATOM     23  H   UNL     1      46.331  31.644  26.786  1.00  0.00     0.293 HD
ENDBRANCH  11  22
BRANCH   9  24
ATOM     24  O   UNL     1      46.994  26.830  24.573  1.00  0.00    -0.507 OA
ATOM     25  H   UNL     1      46.299  26.219  24.986  1.00  0.00     0.293 HD
ENDBRANCH   9  24
BRANCH  10  26
ATOM     26  C   UNL     1      45.926  28.470  26.719  1.00  0.00     0.188 C 
ATOM     27  C   UNL     1      47.215  28.389  27.563  1.00  0.00     0.179 C 
ATOM     28  O   UNL     1      45.295  27.199  26.612  1.00  0.00    -0.362 OA
ATOM     29  C   UNL     1      46.869  27.867  28.965  1.00  0.00     0.177 C 
ATOM     30  C   UNL     1      44.907  26.661  27.873  1.00  0.00     0.176 C 
ATOM     31  C   UNL     1      46.106  26.538  28.851  1.00  0.00     0.177 C 
BRANCH  27  32
ATOM     32  O   UNL     1      48.143  27.536  26.938  1.00  0.00    -0.387 OA
ATOM     33  H   UNL     1      47.974  27.589  25.961  1.00  0.00     0.211 HD
ENDBRANCH  27  32
BRANCH  29  34
ATOM     34  O   UNL     1      48.051  27.687  29.704  1.00  0.00    -0.387 OA
ATOM     35  H   UNL     1      47.976  26.809  30.161  1.00  0.00     0.211 HD
ENDBRANCH  29  34
BRANCH  30  36
ATOM     36  C   UNL     1      43.677  27.381  28.472  1.00  0.00     0.191 C 
BRANCH  36  37
ATOM     37  O   UNL     1      42.861  26.469  29.157  1.00  0.00    -0.394 OA
ATOM     38  H   UNL     1      43.422  26.059  29.866  1.00  0.00     0.210 HD
ENDBRANCH  36  37
ENDBRANCH  30  36
BRANCH  31  39
ATOM     39  O   UNL     1      45.674  26.131  30.124  1.00  0.00    -0.388 OA
ATOM     40  H   UNL     1      44.716  25.882  30.035  1.00  0.00     0.211 HD
ENDBRANCH  31  39
ENDBRANCH  10  26
TORSDOF 11
ENDMDL
MODEL 3
REMARK VINA RESULT:    -5.155      6.945      9.904
REMARK INTER + INTRA:          -8.178
REMARK INTER:                  -7.044
REMARK INTRA:                  -1.134
REMARK UNBOUND:                -0.914
REMARK SMILES O=c1cc(-c2ccc(O)c(O)c2)oc2cc(O)c([C@H]3O[C@H](CO)[C@H](O)[C@@H](O)[C@H]3O)c(O)c12
REMARK SMILES IDX 4 1 3 2 2 3 1 4 32 5 14 6 13 7 15 8 16 9 18 10 30 11 5 12
REMARK SMILES IDX 6 13 7 14 8 15 12 16 10 17 9 18 11 20 31 22 17 24 19 26
REMARK SMILES IDX 28 27 20 28 26 29 21 30 24 31 29 32 27 34 22 36 23 37 25 39
REMARK H PARENT 9 19 11 21 31 23 17 25 29 33 27 35 23 38 25 40
REMARK Flexibility Score: inf
ROOT
ATOM      1  C   UNL     1      37.549  26.141  28.769  1.00  0.00     0.138 A 
ATOM      2  C   UNL     1      37.645  27.191  27.843  1.00  0.00     0.100 A 
ATOM      3  C   UNL     1      38.898  27.727  27.541  1.00  0.00     0.197 A 
ATOM      4  O   UNL     1      38.967  28.671  26.708  1.00  0.00    -0.289 OA
ATOM      5  C   UNL     1      40.052  27.206  28.167  1.00  0.00     0.107 A 
ATOM      6  C   UNL     1      39.870  26.142  29.077  1.00  0.00     0.146 A 
ATOM      7  O   UNL     1      38.656  25.665  29.332  1.00  0.00    -0.456 OA
ATOM      8  C   UNL     1      40.966  25.569  29.712  1.00  0.00     0.094 A 
ATOM      9  C   UNL     1      42.257  26.050  29.487  1.00  0.00     0.128 A 
ATOM     10  C   UNL     1      42.471  27.149  28.619  1.00  0.00     0.068 A 
ATOM     11  C   UNL     1      41.359  27.691  27.910  1.00  0.00     0.140 A 
ENDROOT
BRANCH   1  12
ATOM     12  C   UNL     1      36.244  25.530  29.130  1.00  0.00     0.021 A 
ATOM     13  C   UNL     1      36.067  24.134  29.172  1.00  0.00     0.016 A 
ATOM     14  C   UNL     1      34.824  23.588  29.505  1.00  0.00     0.051 A 
ATOM     15  C   UNL     1      33.739  24.420  29.794  1.00  0.00     0.157 A 
ATOM     16  C   UNL     1      35.145  26.362  29.408  1.00  0.00     0.062 A 
ATOM     17  C   UNL     1      33.899  25.814  29.743  1.00  0.00     0.158 A 
BRANCH  15  18
ATOM     18  O   UNL     1      32.513  23.845  30.124  1.00  0.00    -0.504 OA
ATOM     19  H   UNL     1      32.088  23.121  29.558  1.00  0.00     0.293 HD
ENDBRANCH  15  18
BRANCH  17  20
ATOM     20  O   UNL     1      32.820  26.650  30.027  1.00  0.00    -0.504 OA
ATOM     21  H   UNL     1      32.912  27.659  30.018  1.00  0.00     0.293 HD
ENDBRANCH  17  20
ENDBRANCH   1  12
BRANCH  11  22
ATOM     22  O   UNL     1      41.525  28.691  26.942  1.00  0.00    -0.506 OA
ATOM     23  H   UNL     1      40.994  29.549  26.905  1.00  0.00     0.293 HD
ENDBRANCH  11  22
BRANCH   9  24
ATOM     24  O   UNL     1      43.330  25.425  30.125  1.00  0.00    -0.507 OA
ATOM     25  H   UNL     1      43.586  24.465  29.924  1.00  0.00     0.293 HD
ENDBRANCH   9  24
BRANCH  10  26
ATOM     26  C   UNL     1      43.879  27.709  28.418  1.00  0.00     0.188 C 
ATOM     27  C   UNL     1      44.135  28.874  29.397  1.00  0.00     0.179 C 
ATOM     28  O   UNL     1      44.062  28.116  27.068  1.00  0.00    -0.362 OA
ATOM     29  C   UNL     1      45.569  29.389  29.206  1.00  0.00     0.177 C 
ATOM     30  C   UNL     1      45.384  28.574  26.798  1.00  0.00     0.176 C 
ATOM     31  C   UNL     1      45.801  29.745  27.729  1.00  0.00     0.177 C 
BRANCH  27  32
ATOM     32  O   UNL     1      43.208  29.906  29.165  1.00  0.00    -0.387 OA
ATOM     33  H   UNL     1      42.534  29.861  29.892  1.00  0.00     0.211 HD
ENDBRANCH  27  32
BRANCH  29  34
ATOM     34  O   UNL     1      45.774  30.519  30.016  1.00  0.00    -0.387 OA
ATOM     35  H   UNL     1      45.056  31.168  29.795  1.00  0.00     0.211 HD
ENDBRANCH  29  34
BRANCH  30  36
ATOM     36  C   UNL     1      46.412  27.420  26.740  1.00  0.00     0.191 C 
BRANCH  36  37
ATOM     37  O   UNL     1      47.460  27.741  25.866  1.00  0.00    -0.394 OA
ATOM     38  H   UNL     1      48.171  27.064  26.009  1.00  0.00     0.210 HD
ENDBRANCH  36  37
ENDBRANCH  30  36
BRANCH  31  39
ATOM     39  O   UNL     1      47.149  30.087  27.531  1.00  0.00    -0.388 OA
ATOM     40  H   UNL     1      47.529  29.406  26.916  1.00  0.00     0.211 HD
ENDBRANCH  31  39
ENDBRANCH  10  26
TORSDOF 11
ENDMDL
MODEL 4
REMARK VINA RESULT:    -4.817      8.515     11.435
REMARK INTER + INTRA:          -7.702
REMARK INTER:                  -6.652
REMARK INTRA:                  -1.050
REMARK UNBOUND:                -0.914
REMARK SMILES O=c1cc(-c2ccc(O)c(O)c2)oc2cc(O)c([C@H]3O[C@H](CO)[C@H](O)[C@@H](O)[C@H]3O)c(O)c12
REMARK SMILES IDX 4 1 3 2 2 3 1 4 32 5 14 6 13 7 15 8 16 9 18 10 30 11 5 12
REMARK SMILES IDX 6 13 7 14 8 15 12 16 10 17 9 18 11 20 31 22 17 24 19 26
REMARK SMILES IDX 28 27 20 28 26 29 21 30 24 31 29 32 27 34 22 36 23 37 25 39
REMARK H PARENT 9 19 11 21 31 23 17 25 29 33 27 35 23 38 25 40
REMARK Flexibility Score: inf
ROOT
ATOM      1  C   UNL     1      39.453  31.295  23.398  1.00  0.00     0.138 A 
ATOM      2  C   UNL     1      38.873  30.276  22.625  1.00  0.00     0.100 A 
ATOM      3  C   UNL     1      37.516  29.991  22.773  1.00  0.00     0.197 A 
ATOM      4  O   UNL     1      37.010  29.073  22.073  1.00  0.00    -0.289 OA
ATOM      5  C   UNL     1      36.742  30.729  23.696  1.00  0.00     0.107 A 
ATOM      6  C   UNL     1      37.398  31.744  24.425  1.00  0.00     0.146 A 
ATOM      7  O   UNL     1      38.694  31.979  24.248  1.00  0.00    -0.456 OA
ATOM      8  C   UNL     1      36.691  32.523  25.334  1.00  0.00     0.094 A 
ATOM      9  C   UNL     1      35.332  32.300  25.564  1.00  0.00     0.128 A 
ATOM     10  C   UNL     1      34.652  31.257  24.887  1.00  0.00     0.068 A 
ATOM     11  C   UNL     1      35.357  30.505  23.901  1.00  0.00     0.140 A 
ENDROOT
BRANCH   1  12
ATOM     12  C   UNL     1      40.892  31.644  23.283  1.00  0.00     0.021 A 
ATOM     13  C   UNL     1      41.319  32.822  22.641  1.00  0.00     0.016 A 
ATOM     14  C   UNL     1      42.681  33.119  22.539  1.00  0.00     0.051 A 
ATOM     15  C   UNL     1      43.638  32.248  23.067  1.00  0.00     0.157 A 
ATOM     16  C   UNL     1      41.860  30.765  23.800  1.00  0.00     0.062 A 
ATOM     17  C   UNL     1      43.226  31.063  23.699  1.00  0.00     0.158 A 
BRANCH  15  18
ATOM     18  O   UNL     1      44.988  32.573  22.950  1.00  0.00    -0.504 OA
ATOM     19  H   UNL     1      45.677  32.265  23.627  1.00  0.00     0.293 HD
ENDBRANCH  15  18
BRANCH  17  20
ATOM     20  O   UNL     1      44.176  30.188  24.224  1.00  0.00    -0.504 OA
ATOM     21  H   UNL     1      44.923  29.810  23.654  1.00  0.00     0.293 HD
ENDBRANCH  17  20
ENDBRANCH   1  12
BRANCH  11  22
ATOM     22  O   UNL     1      34.708  29.550  23.107  1.00  0.00    -0.506 OA
ATOM     23  H   UNL     1      34.384  29.709  22.164  1.00  0.00     0.293 HD
ENDBRANCH  11  22
BRANCH   9  24
ATOM     24  O   UNL     1      34.656  33.125  26.464  1.00  0.00    -0.507 OA
ATOM     25  H   UNL     1      34.076  32.747  27.204  1.00  0.00     0.293 HD
ENDBRANCH   9  24
BRANCH  10  26
ATOM     26  C   UNL     1      33.179  30.979  25.182  1.00  0.00     0.188 C 
ATOM     27  C   UNL     1      32.281  31.741  24.185  1.00  0.00     0.179 C 
ATOM     28  O   UNL     1      32.870  31.323  26.527  1.00  0.00    -0.362 OA
ATOM     29  C   UNL     1      30.810  31.410  24.475  1.00  0.00     0.177 C 
ATOM     30  C   UNL     1      31.527  31.012  26.889  1.00  0.00     0.176 C 
ATOM     31  C   UNL     1      30.495  31.695  25.952  1.00  0.00     0.177 C 
BRANCH  27  32
ATOM     32  O   UNL     1      32.505  33.125  24.302  1.00  0.00    -0.387 OA
ATOM     33  H   UNL     1      31.630  33.574  24.161  1.00  0.00     0.211 HD
ENDBRANCH  27  32
BRANCH  29  34
ATOM     34  O   UNL     1      29.982  32.183  23.643  1.00  0.00    -0.387 OA
ATOM     35  H   UNL     1      29.439  32.766  24.236  1.00  0.00     0.211 HD
ENDBRANCH  29  34
BRANCH  30  36
ATOM     36  C   UNL     1      31.300  29.493  27.074  1.00  0.00     0.191 C 
BRANCH  36  37
ATOM     37  O   UNL     1      30.385  29.258  28.110  1.00  0.00    -0.394 OA
ATOM     38  H   UNL     1      30.321  28.274  28.218  1.00  0.00     0.210 HD
ENDBRANCH  36  37
ENDBRANCH  30  36
BRANCH  31  39
ATOM     39  O   UNL     1      29.190  31.267  26.248  1.00  0.00    -0.388 OA
ATOM     40  H   UNL     1      29.272  30.370  26.666  1.00  0.00     0.211 HD
ENDBRANCH  31  39
ENDBRANCH  10  26
TORSDOF 11
ENDMDL
MODEL 5
REMARK VINA RESULT:    -4.797      2.699      3.825
REMARK INTER + INTRA:          -7.674
REMARK INTER:                  -6.895
REMARK INTRA:                  -0.779
REMARK UNBOUND:                -0.914
REMARK SMILES O=c1cc(-c2ccc(O)c(O)c2)oc2cc(O)c([C@H]3O[C@H](CO)[C@H](O)[C@@H](O)[C@H]3O)c(O)c12
REMARK SMILES IDX 4 1 3 2 2 3 1 4 32 5 14 6 13 7 15 8 16 9 18 10 30 11 5 12
REMARK SMILES IDX 6 13 7 14 8 15 12 16 10 17 9 18 11 20 31 22 17 24 19 26
REMARK SMILES IDX 28 27 20 28 26 29 21 30 24 31 29 32 27 34 22 36 23 37 25 39
REMARK H PARENT 9 19 11 21 31 23 17 25 29 33 27 35 23 38 25 40
REMARK Flexibility Score: inf
ROOT
ATOM      1  C   UNL     1      47.015  31.719  20.617  1.00  0.00     0.138 A 
ATOM      2  C   UNL     1      46.398  32.623  21.497  1.00  0.00     0.100 A 
ATOM      3  C   UNL     1      46.138  32.232  22.811  1.00  0.00     0.197 A 
ATOM      4  O   UNL     1      45.583  33.055  23.588  1.00  0.00    -0.289 OA
ATOM      5  C   UNL     1      46.500  30.936  23.240  1.00  0.00     0.107 A 
ATOM      6  C   UNL     1      47.127  30.093  22.298  1.00  0.00     0.146 A 
ATOM      7  O   UNL     1      47.354  30.511  21.057  1.00  0.00    -0.456 OA
ATOM      8  C   UNL     1      47.528  28.812  22.661  1.00  0.00     0.094 A 
ATOM      9  C   UNL     1      47.295  28.326  23.949  1.00  0.00     0.128 A 
ATOM     10  C   UNL     1      46.623  29.127  24.906  1.00  0.00     0.068 A 
ATOM     11  C   UNL     1      46.276  30.465  24.559  1.00  0.00     0.140 A 
ENDROOT
BRANCH   1  12
ATOM     12  C   UNL     1      47.316  32.078  19.208  1.00  0.00     0.021 A 
ATOM     13  C   UNL     1      48.598  32.507  18.812  1.00  0.00     0.016 A 
ATOM     14  C   UNL     1      48.850  32.848  17.480  1.00  0.00     0.051 A 
ATOM     15  C   UNL     1      47.832  32.776  16.525  1.00  0.00     0.157 A 
ATOM     16  C   UNL     1      46.293  32.021  18.245  1.00  0.00     0.062 A 
ATOM     17  C   UNL     1      46.546  32.362  16.909  1.00  0.00     0.158 A 
BRANCH  15  18
ATOM     18  O   UNL     1      48.114  33.121  15.205  1.00  0.00    -0.504 OA
ATOM     19  H   UNL     1      49.063  33.255  14.874  1.00  0.00     0.293 HD
ENDBRANCH  15  18
BRANCH  17  20
ATOM     20  O   UNL     1      45.524  32.292  15.963  1.00  0.00    -0.504 OA
ATOM     21  H   UNL     1      45.721  32.155  14.978  1.00  0.00     0.293 HD
ENDBRANCH  17  20
ENDBRANCH   1  12
BRANCH  11  22
ATOM     22  O   UNL     1      45.729  31.347  25.501  1.00  0.00    -0.506 OA
ATOM     23  H   UNL     1      46.199  31.659  26.339  1.00  0.00     0.293 HD
ENDBRANCH  11  22
BRANCH   9  24
ATOM     24  O   UNL     1      47.740  27.045  24.276  1.00  0.00    -0.507 OA
ATOM     25  H   UNL     1      48.498  26.597  23.774  1.00  0.00     0.293 HD
ENDBRANCH   9  24
BRANCH  10  26
ATOM     26  C   UNL     1      46.319  28.571  26.297  1.00  0.00     0.188 C 
ATOM     27  C   UNL     1      44.844  28.125  26.383  1.00  0.00     0.179 C 
ATOM     28  O   UNL     1      46.627  29.537  27.294  1.00  0.00    -0.362 OA
ATOM     29  C   UNL     1      44.576  27.531  27.773  1.00  0.00     0.177 C 
ATOM     30  C   UNL     1      46.440  29.050  28.620  1.00  0.00     0.176 C 
ATOM     31  C   UNL     1      44.994  28.538  28.857  1.00  0.00     0.177 C 
BRANCH  27  32
ATOM     32  O   UNL     1      43.997  29.223  26.147  1.00  0.00    -0.387 OA
ATOM     33  H   UNL     1      43.422  29.325  26.950  1.00  0.00     0.211 HD
ENDBRANCH  27  32
BRANCH  29  34
ATOM     34  O   UNL     1      43.211  27.223  27.897  1.00  0.00    -0.387 OA
ATOM     35  H   UNL     1      42.848  27.141  26.976  1.00  0.00     0.211 HD
ENDBRANCH  29  34
BRANCH  30  36
ATOM     36  C   UNL     1      47.540  28.049  29.044  1.00  0.00     0.191 C 
BRANCH  36  37
ATOM     37  O   UNL     1      48.728  28.301  28.344  1.00  0.00    -0.394 OA
ATOM     38  H   UNL     1      49.370  28.685  28.997  1.00  0.00     0.210 HD
ENDBRANCH  36  37
ENDBRANCH  30  36
BRANCH  31  39
ATOM     39  O   UNL     1      44.875  27.943  30.125  1.00  0.00    -0.388 OA
ATOM     40  H   UNL     1      45.229  28.598  30.782  1.00  0.00     0.211 HD
ENDBRANCH  31  39
ENDBRANCH  10  26
TORSDOF 11
ENDMDL
MODEL 6
REMARK VINA RESULT:    -4.711      0.912      2.254
REMARK INTER + INTRA:          -7.553
REMARK INTER:                  -6.568
REMARK INTRA:                  -0.985
REMARK UNBOUND:                -0.914
REMARK SMILES O=c1cc(-c2ccc(O)c(O)c2)oc2cc(O)c([C@H]3O[C@H](CO)[C@H](O)[C@@H](O)[C@H]3O)c(O)c12
REMARK SMILES IDX 4 1 3 2 2 3 1 4 32 5 14 6 13 7 15 8 16 9 18 10 30 11 5 12
REMARK SMILES IDX 6 13 7 14 8 15 12 16 10 17 9 18 11 20 31 22 17 24 19 26
REMARK SMILES IDX 28 27 20 28 26 29 21 30 24 31 29 32 27 34 22 36 23 37 25 39
REMARK H PARENT 9 19 11 21 31 23 17 25 29 33 27 35 23 38 25 40
REMARK Flexibility Score: inf
ROOT
ATOM      1  C   UNL     1      42.530  30.937  21.275  1.00  0.00     0.138 A 
ATOM      2  C   UNL     1      41.821  29.956  21.986  1.00  0.00     0.100 A 
ATOM      3  C   UNL     1      42.351  29.451  23.173  1.00  0.00     0.197 A 
ATOM      4  O   UNL     1      41.702  28.569  23.798  1.00  0.00    -0.289 OA
ATOM      5  C   UNL     1      43.592  29.932  23.647  1.00  0.00     0.107 A 
ATOM      6  C   UNL     1      44.235  30.927  22.880  1.00  0.00     0.146 A 
ATOM      7  O   UNL     1      43.690  31.378  21.755  1.00  0.00    -0.456 OA
ATOM      8  C   UNL     1      45.448  31.461  23.301  1.00  0.00     0.094 A 
ATOM      9  C   UNL     1      46.066  31.005  24.467  1.00  0.00     0.128 A 
ATOM     10  C   UNL     1      45.473  29.971  25.235  1.00  0.00     0.068 A 
ATOM     11  C   UNL     1      44.194  29.475  24.846  1.00  0.00     0.140 A 
ENDROOT
BRANCH   1  12
ATOM     12  C   UNL     1      42.016  31.512  20.006  1.00  0.00     0.021 A 
ATOM     13  C   UNL     1      40.636  31.617  19.747  1.00  0.00     0.016 A 
ATOM     14  C   UNL     1      40.181  32.154  18.539  1.00  0.00     0.051 A 
ATOM     15  C   UNL     1      41.090  32.587  17.570  1.00  0.00     0.157 A 
ATOM     16  C   UNL     1      42.925  31.938  19.022  1.00  0.00     0.062 A 
ATOM     17  C   UNL     1      42.469  32.477  17.810  1.00  0.00     0.158 A 
BRANCH  15  18
ATOM     18  O   UNL     1      40.606  33.119  16.376  1.00  0.00    -0.504 OA
ATOM     19  H   UNL     1      39.614  33.188  16.180  1.00  0.00     0.293 HD
ENDBRANCH  15  18
BRANCH  17  20
ATOM     20  O   UNL     1      43.381  32.904  16.846  1.00  0.00    -0.504 OA
ATOM     21  H   UNL     1      44.239  33.380  17.100  1.00  0.00     0.293 HD
ENDBRANCH  17  20
ENDBRANCH   1  12
BRANCH  11  22
ATOM     22  O   UNL     1      43.499  28.548  25.634  1.00  0.00    -0.506 OA
ATOM     23  H   UNL     1      43.927  27.781  26.134  1.00  0.00     0.293 HD
ENDBRANCH  11  22
BRANCH   9  24
ATOM     24  O   UNL     1      47.269  31.589  24.866  1.00  0.00    -0.507 OA
ATOM     25  H   UNL     1      47.978  31.065  25.364  1.00  0.00     0.293 HD
ENDBRANCH   9  24
BRANCH  10  26
ATOM     26  C   UNL     1      46.178  29.436  26.480  1.00  0.00     0.188 C 
ATOM     27  C   UNL     1      46.994  28.173  26.130  1.00  0.00     0.179 C 
ATOM     28  O   UNL     1      45.234  29.174  27.511  1.00  0.00    -0.362 OA
ATOM     29  C   UNL     1      47.727  27.681  27.386  1.00  0.00     0.177 C 
ATOM     30  C   UNL     1      45.840  28.747  28.728  1.00  0.00     0.176 C 
ATOM     31  C   UNL     1      46.721  27.484  28.531  1.00  0.00     0.177 C 
BRANCH  27  32
ATOM     32  O   UNL     1      46.137  27.172  25.638  1.00  0.00    -0.387 OA
ATOM     33  H   UNL     1      45.820  26.651  26.422  1.00  0.00     0.211 HD
ENDBRANCH  27  32
BRANCH  29  34
ATOM     34  O   UNL     1      48.384  26.472  27.103  1.00  0.00    -0.387 OA
ATOM     35  H   UNL     1      49.327  26.579  27.395  1.00  0.00     0.211 HD
ENDBRANCH  29  34
BRANCH  30  36
ATOM     36  C   UNL     1      46.549  29.901  29.474  1.00  0.00     0.191 C 
BRANCH  36  37
ATOM     37  O   UNL     1      45.610  30.713  30.125  1.00  0.00    -0.394 OA
ATOM     38  H   UNL     1      45.732  30.567  31.099  1.00  0.00     0.210 HD
ENDBRANCH  36  37
ENDBRANCH  30  36
BRANCH  31  39
ATOM     39  O   UNL     1      47.409  27.165  29.714  1.00  0.00    -0.388 OA
ATOM     40  H   UNL     1      47.744  26.236  29.607  1.00  0.00     0.211 HD
ENDBRANCH  31  39
ENDBRANCH  10  26
TORSDOF 11
ENDMDL
MODEL 7
REMARK VINA RESULT:    -4.704      2.737      3.816
REMARK INTER + INTRA:          -7.543
REMARK INTER:                  -6.593
REMARK INTRA:                  -0.950
REMARK UNBOUND:                -0.914
REMARK SMILES O=c1cc(-c2ccc(O)c(O)c2)oc2cc(O)c([C@H]3O[C@H](CO)[C@H](O)[C@@H](O)[C@H]3O)c(O)c12
REMARK SMILES IDX 4 1 3 2 2 3 1 4 32 5 14 6 13 7 15 8 16 9 18 10 30 11 5 12
REMARK SMILES IDX 6 13 7 14 8 15 12 16 10 17 9 18 11 20 31 22 17 24 19 26
REMARK SMILES IDX 28 27 20 28 26 29 21 30 24 31 29 32 27 34 22 36 23 37 25 39
REMARK H PARENT 9 19 11 21 31 23 17 25 29 33 27 35 23 38 25 40
REMARK Flexibility Score: inf
ROOT
ATOM      1  C   UNL     1      46.671  30.840  20.010  1.00  0.00     0.138 A 
ATOM      2  C   UNL     1      46.497  29.461  20.204  1.00  0.00     0.100 A 
ATOM      3  C   UNL     1      46.219  28.978  21.483  1.00  0.00     0.197 A 
ATOM      4  O   UNL     1      46.066  27.737  21.641  1.00  0.00    -0.289 OA
ATOM      5  C   UNL     1      46.115  29.880  22.565  1.00  0.00     0.107 A 
ATOM      6  C   UNL     1      46.292  31.252  22.283  1.00  0.00     0.146 A 
ATOM      7  O   UNL     1      46.555  31.664  21.047  1.00  0.00    -0.456 OA
ATOM      8  C   UNL     1      46.181  32.196  23.298  1.00  0.00     0.094 A 
ATOM      9  C   UNL     1      45.923  31.807  24.614  1.00  0.00     0.128 A 
ATOM     10  C   UNL     1      45.790  30.435  24.942  1.00  0.00     0.068 A 
ATOM     11  C   UNL     1      45.829  29.471  23.892  1.00  0.00     0.140 A 
ENDROOT
BRANCH   1  12
ATOM     12  C   UNL     1      46.969  31.412  18.672  1.00  0.00     0.021 A 
ATOM     13  C   UNL     1      48.290  31.590  18.220  1.00  0.00     0.016 A 
ATOM     14  C   UNL     1      48.540  32.140  16.960  1.00  0.00     0.051 A 
ATOM     15  C   UNL     1      47.482  32.528  16.134  1.00  0.00     0.157 A 
ATOM     16  C   UNL     1      45.908  31.817  17.842  1.00  0.00     0.062 A 
ATOM     17  C   UNL     1      46.159  32.369  16.577  1.00  0.00     0.158 A 
BRANCH  15  18
ATOM     18  O   UNL     1      47.763  33.073  14.882  1.00  0.00    -0.504 OA
ATOM     19  H   UNL     1      47.772  32.511  14.040  1.00  0.00     0.293 HD
ENDBRANCH  15  18
BRANCH  17  20
ATOM     20  O   UNL     1      45.098  32.757  15.760  1.00  0.00    -0.504 OA
ATOM     21  H   UNL     1      44.268  32.185  15.659  1.00  0.00     0.293 HD
ENDBRANCH  17  20
ENDBRANCH   1  12
BRANCH  11  22
ATOM     22  O   UNL     1      45.575  28.114  24.134  1.00  0.00    -0.506 OA
ATOM     23  H   UNL     1      46.099  27.350  23.733  1.00  0.00     0.293 HD
ENDBRANCH  11  22
BRANCH   9  24
ATOM     24  O   UNL     1      45.792  32.791  25.594  1.00  0.00    -0.507 OA
ATOM     25  H   UNL     1      45.485  32.571  26.535  1.00  0.00     0.293 HD
ENDBRANCH   9  24
BRANCH  10  26
ATOM     26  C   UNL     1      45.563  30.008  26.392  1.00  0.00     0.188 C 
ATOM     27  C   UNL     1      46.896  29.568  27.034  1.00  0.00     0.179 C 
ATOM     28  O   UNL     1      44.589  28.974  26.458  1.00  0.00    -0.362 OA
ATOM     29  C   UNL     1      46.649  29.187  28.500  1.00  0.00     0.177 C 
ATOM     30  C   UNL     1      44.274  28.588  27.793  1.00  0.00     0.176 C 
ATOM     31  C   UNL     1      45.531  28.135  28.583  1.00  0.00     0.177 C 
BRANCH  27  32
ATOM     32  O   UNL     1      47.428  28.475  26.326  1.00  0.00    -0.387 OA
ATOM     33  H   UNL     1      48.360  28.714  26.079  1.00  0.00     0.211 HD
ENDBRANCH  27  32
BRANCH  29  34
ATOM     34  O   UNL     1      47.835  28.682  29.060  1.00  0.00    -0.387 OA
ATOM     35  H   UNL     1      47.619  27.789  29.437  1.00  0.00     0.211 HD
ENDBRANCH  29  34
BRANCH  30  36
ATOM     36  C   UNL     1      43.414  29.642  28.528  1.00  0.00     0.191 C 
BRANCH  36  37
ATOM     37  O   UNL     1      42.188  29.817  27.872  1.00  0.00    -0.394 OA
ATOM     38  H   UNL     1      42.389  30.239  26.996  1.00  0.00     0.210 HD
ENDBRANCH  36  37
ENDBRANCH  30  36
BRANCH  31  39
ATOM     39  O   UNL     1      45.215  27.887  29.929  1.00  0.00    -0.388 OA
ATOM     40  H   UNL     1      45.792  27.135  30.225  1.00  0.00     0.211 HD
ENDBRANCH  31  39
ENDBRANCH  10  26
TORSDOF 11
ENDMDL
MODEL 8
REMARK VINA RESULT:    -4.579      2.917      4.073
REMARK INTER + INTRA:          -7.367
REMARK INTER:                  -6.255
REMARK INTRA:                  -1.112
REMARK UNBOUND:                -0.914
REMARK SMILES O=c1cc(-c2ccc(O)c(O)c2)oc2cc(O)c([C@H]3O[C@H](CO)[C@H](O)[C@@H](O)[C@H]3O)c(O)c12
REMARK SMILES IDX 4 1 3 2 2 3 1 4 32 5 14 6 13 7 15 8 16 9 18 10 30 11 5 12
REMARK SMILES IDX 6 13 7 14 8 15 12 16 10 17 9 18 11 20 31 22 17 24 19 26
REMARK SMILES IDX 28 27 20 28 26 29 21 30 24 31 29 32 27 34 22 36 23 37 25 39
REMARK H PARENT 9 19 11 21 31 23 17 25 29 33 27 35 23 38 25 40
REMARK Flexibility Score: inf
ROOT
ATOM      1  C   UNL     1      40.354  31.619  22.594  1.00  0.00     0.138 A 
ATOM      2  C   UNL     1      41.481  32.457  22.600  1.00  0.00     0.100 A 
ATOM      3  C   UNL     1      42.601  32.095  23.349  1.00  0.00     0.197 A 
ATOM      4  O   UNL     1      43.604  32.859  23.345  1.00  0.00    -0.289 OA
ATOM      5  C   UNL     1      42.589  30.893  24.091  1.00  0.00     0.107 A 
ATOM      6  C   UNL     1      41.422  30.102  24.022  1.00  0.00     0.146 A 
ATOM      7  O   UNL     1      40.380  30.488  23.293  1.00  0.00    -0.456 OA
ATOM      8  C   UNL     1      41.352  28.896  24.710  1.00  0.00     0.094 A 
ATOM      9  C   UNL     1      42.416  28.459  25.502  1.00  0.00     0.128 A 
ATOM     10  C   UNL     1      43.583  29.252  25.634  1.00  0.00     0.068 A 
ATOM     11  C   UNL     1      43.687  30.452  24.872  1.00  0.00     0.140 A 
ENDROOT
BRANCH   1  12
ATOM     12  C   UNL     1      39.134  31.951  21.815  1.00  0.00     0.021 A 
ATOM     13  C   UNL     1      39.207  32.406  20.485  1.00  0.00     0.016 A 
ATOM     14  C   UNL     1      38.042  32.721  19.779  1.00  0.00     0.051 A 
ATOM     15  C   UNL     1      36.790  32.595  20.387  1.00  0.00     0.157 A 
ATOM     16  C   UNL     1      37.872  31.840  22.426  1.00  0.00     0.062 A 
ATOM     17  C   UNL     1      36.704  32.155  21.718  1.00  0.00     0.158 A 
BRANCH  15  18
ATOM     18  O   UNL     1      35.647  32.915  19.657  1.00  0.00    -0.504 OA
ATOM     19  H   UNL     1      35.172  32.237  19.073  1.00  0.00     0.293 HD
ENDBRANCH  15  18
BRANCH  17  20
ATOM     20  O   UNL     1      35.458  32.030  22.332  1.00  0.00    -0.504 OA
ATOM     21  H   UNL     1      34.598  32.049  21.797  1.00  0.00     0.293 HD
ENDBRANCH  17  20
ENDBRANCH   1  12
BRANCH  11  22
ATOM     22  O   UNL     1      44.865  31.211  24.860  1.00  0.00    -0.506 OA
ATOM     23  H   UNL     1      44.912  32.204  25.042  1.00  0.00     0.293 HD
ENDBRANCH  11  22
BRANCH   9  24
ATOM     24  O   UNL     1      42.312  27.228  26.152  1.00  0.00    -0.507 OA
ATOM     25  H   UNL     1      42.976  26.481  25.990  1.00  0.00     0.293 HD
ENDBRANCH   9  24
BRANCH  10  26
ATOM     26  C   UNL     1      44.722  28.798  26.546  1.00  0.00     0.188 C 
ATOM     27  C   UNL     1      44.558  29.411  27.952  1.00  0.00     0.179 C 
ATOM     28  O   UNL     1      45.980  29.141  25.975  1.00  0.00    -0.362 OA
ATOM     29  C   UNL     1      45.688  28.906  28.860  1.00  0.00     0.177 C 
ATOM     30  C   UNL     1      47.086  28.672  26.740  1.00  0.00     0.176 C 
ATOM     31  C   UNL     1      47.049  29.192  28.203  1.00  0.00     0.177 C 
BRANCH  27  32
ATOM     32  O   UNL     1      44.587  30.815  27.868  1.00  0.00    -0.387 OA
ATOM     33  H   UNL     1      44.142  31.165  28.684  1.00  0.00     0.211 HD
ENDBRANCH  27  32
BRANCH  29  34
ATOM     34  O   UNL     1      45.608  29.543  30.109  1.00  0.00    -0.387 OA
ATOM     35  H   UNL     1      46.422  30.105  30.200  1.00  0.00     0.211 HD
ENDBRANCH  29  34
BRANCH  30  36
ATOM     36  C   UNL     1      47.286  27.144  26.620  1.00  0.00     0.191 C 
BRANCH  36  37
ATOM     37  O   UNL     1      48.575  26.784  27.038  1.00  0.00    -0.394 OA
ATOM     38  H   UNL     1      48.467  26.076  27.725  1.00  0.00     0.210 HD
ENDBRANCH  36  37
ENDBRANCH  30  36
BRANCH  31  39
ATOM     39  O   UNL     1      48.074  28.611  28.967  1.00  0.00    -0.388 OA
ATOM     40  H   UNL     1      48.908  28.691  28.434  1.00  0.00     0.211 HD
ENDBRANCH  31  39
ENDBRANCH  10  26
TORSDOF 11
ENDMDL
