MODEL 1
REMARK VINA RESULT:    -4.215      0.000      0.000
REMARK INTER + INTRA:         -10.013
REMARK INTER:                  -7.664
REMARK INTRA:                  -2.349
REMARK UNBOUND:                -2.349
REMARK SMILES CCCCCCCCCCCCCCCC(=O)[O-]
REMARK SMILES IDX 9 1 10 2 11 3 12 4 13 5 14 6 15 7 16 8 17 9 18 10 8 11 7 12
REMARK SMILES IDX 6 13 5 14 4 15 3 16 2 17 1 18
REMARK H PARENT
REMARK Flexibility Score: inf
ROOT
ATOM      1  C   UNL     1      -6.361   7.831  16.070  1.00  0.00     0.000 C 
ENDROOT
BRANCH   1   2
ATOM      2  C   UNL     1      -6.846   7.402  17.460  1.00  0.00     0.000 C 
BRANCH   2   3
ATOM      3  C   UNL     1      -5.947   6.308  18.045  1.00  0.00     0.000 C 
BRANCH   3   4
ATOM      4  C   UNL     1      -5.089   5.656  16.951  1.00  0.00     0.000 C 
BRANCH   4   5
ATOM      5  C   UNL     1      -5.469   4.188  16.696  1.00  0.00     0.000 C 
BRANCH   5   6
ATOM      6  C   UNL     1      -4.239   3.281  16.515  1.00  0.00     0.006 C 
BRANCH   6   7
ATOM      7  C   UNL     1      -3.137   3.958  15.690  1.00  0.00     0.053 C 
BRANCH   7   8
ATOM      8  C   UNL     1      -1.772   3.616  16.202  1.00  0.00     0.041 C 
ATOM      9  O   UNL     1      -1.580   2.540  16.829  1.00  0.00    -0.550 OA
ATOM     10  O   UNL     1      -0.718   4.502  16.017  1.00  0.00    -0.550 OA
ENDBRANCH   7   8
ENDBRANCH   6   7
ENDBRANCH   5   6
ENDBRANCH   4   5
ENDBRANCH   3   4
ENDBRANCH   2   3
ENDBRANCH   1   2
BRANCH   1  11
ATOM     11  C   UNL     1      -7.512   7.824  15.058  1.00  0.00     0.000 C 
BRANCH  11  12
ATOM     12  C   UNL     1      -8.646   6.897  15.523  1.00  0.00    -0.000 C 
BRANCH  12  13
ATOM     13  C   UNL     1      -9.004   5.827  14.477  1.00  0.00    -0.000 C 
BRANCH  13  14
ATOM     14  C   UNL     1      -8.014   5.797  13.300  1.00  0.00    -0.000 C 
BRANCH  14  15
ATOM     15  C   UNL     1      -7.128   4.540  13.307  1.00  0.00    -0.000 C 
BRANCH  15  16
ATOM     16  C   UNL     1      -5.640   4.863  13.080  1.00  0.00    -0.000 C 
BRANCH  16  17
ATOM     17  C   UNL     1      -5.433   6.201  12.352  1.00  0.00    -0.003 C 
ATOM     18  C   UNL     1      -4.449   7.121  13.076  1.00  0.00     0.004 C 
ENDBRANCH  16  17
ENDBRANCH  15  16
ENDBRANCH  14  15
ENDBRANCH  13  14
ENDBRANCH  12  13
ENDBRANCH  11  12
ENDBRANCH   1  11
TORSDOF 14
ENDMDL
MODEL 2
REMARK VINA RESULT:    -4.196      4.725      8.061
REMARK INTER + INTRA:          -9.980
REMARK INTER:                  -9.217
REMARK INTRA:                  -0.763
REMARK UNBOUND:                -2.349
REMARK SMILES CCCCCCCCCCCCCCCC(=O)[O-]
REMARK SMILES IDX 9 1 10 2 11 3 12 4 13 5 14 6 15 7 16 8 17 9 18 10 8 11 7 12
REMARK SMILES IDX 6 13 5 14 4 15 3 16 2 17 1 18
REMARK H PARENT
REMARK Flexibility Score: inf
ROOT
ATOM      1  C   UNL     1      -1.152   4.355  15.770  1.00  0.00     0.000 C 
ENDROOT
BRANCH   1   2
ATOM      2  C   UNL     1      -2.654   4.150  15.547  1.00  0.00     0.000 C 
BRANCH   2   3
ATOM      3  C   UNL     1      -3.229   3.142  16.549  1.00  0.00     0.000 C 
BRANCH   3   4
ATOM      4  C   UNL     1      -4.764   3.148  16.518  1.00  0.00     0.000 C 
BRANCH   4   5
ATOM      5  C   UNL     1      -5.331   4.122  15.473  1.00  0.00     0.000 C 
BRANCH   5   6
ATOM      6  C   UNL     1      -6.419   5.044  16.052  1.00  0.00     0.006 C 
BRANCH   6   7
ATOM      7  C   UNL     1      -7.390   5.542  14.973  1.00  0.00     0.053 C 
BRANCH   7   8
ATOM      8  C   UNL     1      -7.748   6.983  15.172  1.00  0.00     0.041 C 
ATOM      9  O   UNL     1      -8.908   7.303  15.544  1.00  0.00    -0.550 OA
ATOM     10  O   UNL     1      -6.809   7.974  14.914  1.00  0.00    -0.550 OA
ENDBRANCH   7   8
ENDBRANCH   6   7
ENDBRANCH   5   6
ENDBRANCH   4   5
ENDBRANCH   3   4
ENDBRANCH   2   3
ENDBRANCH   1   2
BRANCH   1  11
ATOM     11  C   UNL     1      -0.829   4.489  17.263  1.00  0.00     0.000 C 
BRANCH  11  12
ATOM     12  C   UNL     1       0.003   5.753  17.532  1.00  0.00    -0.000 C 
BRANCH  12  13
ATOM     13  C   UNL     1       0.084   6.101  19.029  1.00  0.00    -0.000 C 
BRANCH  13  14
ATOM     14  C   UNL     1       0.370   7.593  19.272  1.00  0.00    -0.000 C 
BRANCH  14  15
ATOM     15  C   UNL     1       0.404   7.950  20.767  1.00  0.00    -0.000 C 
BRANCH  15  16
ATOM     16  C   UNL     1       1.376   7.063  21.566  1.00  0.00    -0.000 C 
BRANCH  16  17
ATOM     17  C   UNL     1       0.769   6.570  22.889  1.00  0.00    -0.003 C 
ATOM     18  C   UNL     1      -0.733   6.839  22.986  1.00  0.00     0.004 C 
ENDBRANCH  16  17
ENDBRANCH  15  16
ENDBRANCH  14  15
ENDBRANCH  13  14
ENDBRANCH  12  13
ENDBRANCH  11  12
ENDBRANCH   1  11
TORSDOF 14
ENDMDL
MODEL 3
REMARK VINA RESULT:    -4.156      0.960      2.525
REMARK INTER + INTRA:          -9.907
REMARK INTER:                  -7.231
REMARK INTRA:                  -2.676
REMARK UNBOUND:                -2.349
REMARK SMILES CCCCCCCCCCCCCCCC(=O)[O-]
REMARK SMILES IDX 9 1 10 2 11 3 12 4 13 5 14 6 15 7 16 8 17 9 18 10 8 11 7 12
REMARK SMILES IDX 6 13 5 14 4 15 3 16 2 17 1 18
REMARK H PARENT
REMARK Flexibility Score: inf
ROOT
ATOM      1  C   UNL     1      -4.846   7.657  14.785  1.00  0.00     0.000 C 
ENDROOT
BRANCH   1   2
ATOM      2  C   UNL     1      -5.739   8.052  15.966  1.00  0.00     0.000 C 
BRANCH   2   3
ATOM      3  C   UNL     1      -6.156   6.822  16.779  1.00  0.00     0.000 C 
BRANCH   3   4
ATOM      4  C   UNL     1      -4.996   5.822  16.900  1.00  0.00     0.000 C 
BRANCH   4   5
ATOM      5  C   UNL     1      -5.465   4.360  16.830  1.00  0.00     0.000 C 
BRANCH   5   6
ATOM      6  C   UNL     1      -4.337   3.396  16.419  1.00  0.00     0.006 C 
BRANCH   6   7
ATOM      7  C   UNL     1      -3.286   4.079  15.535  1.00  0.00     0.053 C 
BRANCH   7   8
ATOM      8  C   UNL     1      -1.893   3.764  15.987  1.00  0.00     0.041 C 
ATOM      9  O   UNL     1      -0.925   4.468  15.596  1.00  0.00    -0.550 OA
ATOM     10  O   UNL     1      -1.661   2.671  16.812  1.00  0.00    -0.550 OA
ENDBRANCH   7   8
ENDBRANCH   6   7
ENDBRANCH   5   6
ENDBRANCH   4   5
ENDBRANCH   3   4
ENDBRANCH   2   3
ENDBRANCH   1   2
BRANCH   1  11
ATOM     11  C   UNL     1      -5.461   8.108  13.454  1.00  0.00     0.000 C 
BRANCH  11  12
ATOM     12  C   UNL     1      -5.216   7.063  12.355  1.00  0.00    -0.000 C 
BRANCH  12  13
ATOM     13  C   UNL     1      -5.367   5.620  12.864  1.00  0.00    -0.000 C 
BRANCH  13  14
ATOM     14  C   UNL     1      -6.739   5.013  12.524  1.00  0.00    -0.000 C 
BRANCH  14  15
ATOM     15  C   UNL     1      -7.497   4.532  13.771  1.00  0.00    -0.000 C 
BRANCH  15  16
ATOM     16  C   UNL     1      -8.470   5.592  14.319  1.00  0.00    -0.000 C 
BRANCH  16  17
ATOM     17  C   UNL     1      -8.931   6.582  13.238  1.00  0.00    -0.003 C 
ATOM     18  C   UNL     1      -9.128   7.998  13.778  1.00  0.00     0.004 C 
ENDBRANCH  16  17
ENDBRANCH  15  16
ENDBRANCH  14  15
ENDBRANCH  13  14
ENDBRANCH  12  13
ENDBRANCH  11  12
ENDBRANCH   1  11
TORSDOF 14
ENDMDL
MODEL 4
REMARK VINA RESULT:    -4.061      1.116      2.095
REMARK INTER + INTRA:          -9.733
REMARK INTER:                  -7.146
REMARK INTRA:                  -2.588
REMARK UNBOUND:                -2.349
REMARK SMILES CCCCCCCCCCCCCCCC(=O)[O-]
REMARK SMILES IDX 9 1 10 2 11 3 12 4 13 5 14 6 15 7 16 8 17 9 18 10 8 11 7 12
REMARK SMILES IDX 6 13 5 14 4 15 3 16 2 17 1 18
REMARK H PARENT
REMARK Flexibility Score: inf
ROOT
ATOM      1  C   UNL     1      -7.508   5.984  15.855  1.00  0.00     0.000 C 
ENDROOT
BRANCH   1   2
ATOM      2  C   UNL     1      -7.071   7.375  16.326  1.00  0.00     0.000 C 
BRANCH   2   3
ATOM      3  C   UNL     1      -5.562   7.418  16.593  1.00  0.00     0.000 C 
BRANCH   3   4
ATOM      4  C   UNL     1      -4.975   6.001  16.666  1.00  0.00     0.000 C 
BRANCH   4   5
ATOM      5  C   UNL     1      -3.936   5.733  15.565  1.00  0.00     0.000 C 
BRANCH   5   6
ATOM      6  C   UNL     1      -3.453   4.271  15.549  1.00  0.00     0.006 C 
BRANCH   6   7
ATOM      7  C   UNL     1      -1.938   4.165  15.338  1.00  0.00     0.053 C 
BRANCH   7   8
ATOM      8  C   UNL     1      -1.228   3.782  16.600  1.00  0.00     0.041 C 
ATOM      9  O   UNL     1      -0.578   4.644  17.249  1.00  0.00    -0.550 OA
ATOM     10  O   UNL     1      -1.257   2.465  17.042  1.00  0.00    -0.550 OA
ENDBRANCH   7   8
ENDBRANCH   6   7
ENDBRANCH   5   6
ENDBRANCH   4   5
ENDBRANCH   3   4
ENDBRANCH   2   3
ENDBRANCH   1   2
BRANCH   1  11
ATOM     11  C   UNL     1      -8.586   6.083  14.768  1.00  0.00     0.000 C 
BRANCH  11  12
ATOM     12  C   UNL     1      -8.249   5.173  13.577  1.00  0.00    -0.000 C 
BRANCH  12  13
ATOM     13  C   UNL     1      -6.886   4.476  13.730  1.00  0.00    -0.000 C 
BRANCH  13  14
ATOM     14  C   UNL     1      -5.985   4.663  12.497  1.00  0.00    -0.000 C 
BRANCH  14  15
ATOM     15  C   UNL     1      -6.095   6.073  11.896  1.00  0.00    -0.000 C 
BRANCH  15  16
ATOM     16  C   UNL     1      -4.891   6.965  12.253  1.00  0.00    -0.000 C 
BRANCH  16  17
ATOM     17  C   UNL     1      -5.305   8.237  13.008  1.00  0.00    -0.003 C 
ATOM     18  C   UNL     1      -6.776   8.597  12.797  1.00  0.00     0.004 C 
ENDBRANCH  16  17
ENDBRANCH  15  16
ENDBRANCH  14  15
ENDBRANCH  13  14
ENDBRANCH  12  13
ENDBRANCH  11  12
ENDBRANCH   1  11
TORSDOF 14
ENDMDL
MODEL 5
REMARK VINA RESULT:    -3.846      1.143      3.801
REMARK INTER + INTRA:          -9.343
REMARK INTER:                  -6.996
REMARK INTRA:                  -2.347
REMARK UNBOUND:                -2.349
REMARK SMILES CCCCCCCCCCCCCCCC(=O)[O-]
REMARK SMILES IDX 9 1 10 2 11 3 12 4 13 5 14 6 15 7 16 8 17 9 18 10 8 11 7 12
REMARK SMILES IDX 6 13 5 14 4 15 3 16 2 17 1 18
REMARK H PARENT
REMARK Flexibility Score: inf
ROOT
ATOM      1  C   UNL     1      -4.692   6.429  12.238  1.00  0.00     0.000 C 
ENDROOT
BRANCH   1   2
ATOM      2  C   UNL     1      -6.158   6.092  12.534  1.00  0.00     0.000 C 
BRANCH   2   3
ATOM      3  C   UNL     1      -6.280   4.748  13.262  1.00  0.00     0.000 C 
BRANCH   3   4
ATOM      4  C   UNL     1      -4.923   4.304  13.828  1.00  0.00     0.000 C 
BRANCH   4   5
ATOM      5  C   UNL     1      -4.989   3.966  15.326  1.00  0.00     0.000 C 
BRANCH   5   6
ATOM      6  C   UNL     1      -3.723   4.399  16.087  1.00  0.00     0.006 C 
BRANCH   6   7
ATOM      7  C   UNL     1      -2.451   3.780  15.494  1.00  0.00     0.053 C 
BRANCH   7   8
ATOM      8  C   UNL     1      -1.399   3.567  16.539  1.00  0.00     0.041 C 
ATOM      9  O   UNL     1      -1.190   2.415  17.003  1.00  0.00    -0.550 OA
ATOM     10  O   UNL     1      -0.673   4.648  17.024  1.00  0.00    -0.550 OA
ENDBRANCH   7   8
ENDBRANCH   6   7
ENDBRANCH   5   6
ENDBRANCH   4   5
ENDBRANCH   3   4
ENDBRANCH   2   3
ENDBRANCH   1   2
BRANCH   1  11
ATOM     11  C   UNL     1      -4.335   7.831  12.745  1.00  0.00     0.000 C 
BRANCH  11  12
ATOM     12  C   UNL     1      -4.296   7.865  14.281  1.00  0.00    -0.000 C 
BRANCH  12  13
ATOM     13  C   UNL     1      -4.909   9.150  14.862  1.00  0.00    -0.000 C 
BRANCH  13  14
ATOM     14  C   UNL     1      -5.727   8.889  16.139  1.00  0.00    -0.000 C 
BRANCH  14  15
ATOM     15  C   UNL     1      -5.673   7.419  16.583  1.00  0.00    -0.000 C 
BRANCH  15  16
ATOM     16  C   UNL     1      -7.063   6.758  16.618  1.00  0.00    -0.000 C 
BRANCH  16  17
ATOM     17  C   UNL     1      -8.025   7.358  15.580  1.00  0.00    -0.003 C 
ATOM     18  C   UNL     1      -9.055   6.347  15.074  1.00  0.00     0.004 C 
ENDBRANCH  16  17
ENDBRANCH  15  16
ENDBRANCH  14  15
ENDBRANCH  13  14
ENDBRANCH  12  13
ENDBRANCH  11  12
ENDBRANCH   1  11
TORSDOF 14
ENDMDL
MODEL 6
REMARK VINA RESULT:    -3.833      1.478      3.034
REMARK INTER + INTRA:          -9.319
REMARK INTER:                  -6.744
REMARK INTRA:                  -2.575
REMARK UNBOUND:                -2.349
REMARK SMILES CCCCCCCCCCCCCCCC(=O)[O-]
REMARK SMILES IDX 9 1 10 2 11 3 12 4 13 5 14 6 15 7 16 8 17 9 18 10 8 11 7 12
REMARK SMILES IDX 6 13 5 14 4 15 3 16 2 17 1 18
REMARK H PARENT
REMARK Flexibility Score: inf
ROOT
ATOM      1  C   UNL     1      -9.256   6.102  14.147  1.00  0.00     0.000 C 
ENDROOT
BRANCH   1   2
ATOM      2  C   UNL     1      -9.136   7.256  15.148  1.00  0.00     0.000 C 
BRANCH   2   3
ATOM      3  C   UNL     1      -7.668   7.554  15.474  1.00  0.00     0.000 C 
BRANCH   3   4
ATOM      4  C   UNL     1      -7.048   6.424  16.309  1.00  0.00     0.000 C 
BRANCH   4   5
ATOM      5  C   UNL     1      -5.577   6.690  16.666  1.00  0.00     0.000 C 
BRANCH   5   6
ATOM      6  C   UNL     1      -4.720   5.411  16.634  1.00  0.00     0.006 C 
BRANCH   6   7
ATOM      7  C   UNL     1      -5.569   4.141  16.771  1.00  0.00     0.053 C 
BRANCH   7   8
ATOM      8  C   UNL     1      -4.717   2.914  16.882  1.00  0.00     0.041 C 
ATOM      9  O   UNL     1      -3.491   2.966  16.601  1.00  0.00    -0.550 OA
ATOM     10  O   UNL     1      -5.287   1.706  17.262  1.00  0.00    -0.550 OA
ENDBRANCH   7   8
ENDBRANCH   6   7
ENDBRANCH   5   6
ENDBRANCH   4   5
ENDBRANCH   3   4
ENDBRANCH   2   3
ENDBRANCH   1   2
BRANCH   1  11
ATOM     11  C   UNL     1      -9.040   6.594  12.710  1.00  0.00     0.000 C 
BRANCH  11  12
ATOM     12  C   UNL     1      -7.842   5.882  12.062  1.00  0.00    -0.000 C 
BRANCH  12  13
ATOM     13  C   UNL     1      -7.254   4.777  12.956  1.00  0.00    -0.000 C 
BRANCH  13  14
ATOM     14  C   UNL     1      -5.721   4.859  13.064  1.00  0.00    -0.000 C 
BRANCH  14  15
ATOM     15  C   UNL     1      -5.144   6.084  12.337  1.00  0.00    -0.000 C 
BRANCH  15  16
ATOM     16  C   UNL     1      -4.416   7.050  13.290  1.00  0.00    -0.000 C 
BRANCH  16  17
ATOM     17  C   UNL     1      -4.992   8.474  13.237  1.00  0.00    -0.003 C 
ATOM     18  C   UNL     1      -4.412   9.387  14.318  1.00  0.00     0.004 C 
ENDBRANCH  16  17
ENDBRANCH  15  16
ENDBRANCH  14  15
ENDBRANCH  13  14
ENDBRANCH  12  13
ENDBRANCH  11  12
ENDBRANCH   1  11
TORSDOF 14
ENDMDL
MODEL 7
REMARK VINA RESULT:    -3.802      1.126      1.717
REMARK INTER + INTRA:          -9.262
REMARK INTER:                  -6.683
REMARK INTRA:                  -2.579
REMARK UNBOUND:                -2.349
REMARK SMILES CCCCCCCCCCCCCCCC(=O)[O-]
REMARK SMILES IDX 9 1 10 2 11 3 12 4 13 5 14 6 15 7 16 8 17 9 18 10 8 11 7 12
REMARK SMILES IDX 6 13 5 14 4 15 3 16 2 17 1 18
REMARK H PARENT
REMARK Flexibility Score: inf
ROOT
ATOM      1  C   UNL     1      -7.095   8.574  13.662  1.00  0.00     0.000 C 
ENDROOT
BRANCH   1   2
ATOM      2  C   UNL     1      -6.292   8.952  14.912  1.00  0.00     0.000 C 
BRANCH   2   3
ATOM      3  C   UNL     1      -5.280   7.857  15.269  1.00  0.00     0.000 C 
BRANCH   3   4
ATOM      4  C   UNL     1      -5.593   7.245  16.642  1.00  0.00     0.000 C 
BRANCH   4   5
ATOM      5  C   UNL     1      -5.141   5.780  16.754  1.00  0.00     0.000 C 
BRANCH   5   6
ATOM      6  C   UNL     1      -4.058   5.414  15.723  1.00  0.00     0.006 C 
BRANCH   6   7
ATOM      7  C   UNL     1      -3.672   3.931  15.791  1.00  0.00     0.053 C 
BRANCH   7   8
ATOM      8  C   UNL     1      -2.194   3.749  15.947  1.00  0.00     0.041 C 
ATOM      9  O   UNL     1      -1.739   2.743  16.552  1.00  0.00    -0.550 OA
ATOM     10  O   UNL     1      -1.320   4.710  15.453  1.00  0.00    -0.550 OA
ENDBRANCH   7   8
ENDBRANCH   6   7
ENDBRANCH   5   6
ENDBRANCH   4   5
ENDBRANCH   3   4
ENDBRANCH   2   3
ENDBRANCH   1   2
BRANCH   1  11
ATOM     11  C   UNL     1      -8.536   8.197  14.027  1.00  0.00     0.000 C 
BRANCH  11  12
ATOM     12  C   UNL     1      -8.851   6.755  13.600  1.00  0.00    -0.000 C 
BRANCH  12  13
ATOM     13  C   UNL     1      -8.331   5.712  14.605  1.00  0.00    -0.000 C 
BRANCH  13  14
ATOM     14  C   UNL     1      -7.334   4.727  13.971  1.00  0.00    -0.000 C 
BRANCH  14  15
ATOM     15  C   UNL     1      -6.995   5.086  12.516  1.00  0.00    -0.000 C 
BRANCH  15  16
ATOM     16  C   UNL     1      -5.517   5.478  12.331  1.00  0.00    -0.000 C 
BRANCH  16  17
ATOM     17  C   UNL     1      -5.327   6.564  11.260  1.00  0.00    -0.003 C 
ATOM     18  C   UNL     1      -4.157   7.499  11.568  1.00  0.00     0.004 C 
ENDBRANCH  16  17
ENDBRANCH  15  16
ENDBRANCH  14  15
ENDBRANCH  13  14
ENDBRANCH  12  13
ENDBRANCH  11  12
ENDBRANCH   1  11
TORSDOF 14
ENDMDL
MODEL 8
REMARK VINA RESULT:    -3.798      1.289      2.081
REMARK INTER + INTRA:          -9.255
REMARK INTER:                  -7.077
REMARK INTRA:                  -2.178
REMARK UNBOUND:                -2.349
REMARK SMILES CCCCCCCCCCCCCCCC(=O)[O-]
REMARK SMILES IDX 9 1 10 2 11 3 12 4 13 5 14 6 15 7 16 8 17 9 18 10 8 11 7 12
REMARK SMILES IDX 6 13 5 14 4 15 3 16 2 17 1 18
REMARK H PARENT
REMARK Flexibility Score: inf
ROOT
ATOM      1  C   UNL     1      -7.961   5.878  15.474  1.00  0.00     0.000 C 
ENDROOT
BRANCH   1   2
ATOM      2  C   UNL     1      -6.960   6.898  16.029  1.00  0.00     0.000 C 
BRANCH   2   3
ATOM      3  C   UNL     1      -5.765   6.197  16.687  1.00  0.00     0.000 C 
BRANCH   3   4
ATOM      4  C   UNL     1      -5.861   4.673  16.522  1.00  0.00     0.000 C 
BRANCH   4   5
ATOM      5  C   UNL     1      -4.484   4.006  16.368  1.00  0.00     0.000 C 
BRANCH   5   6
ATOM      6  C   UNL     1      -3.372   5.016  16.031  1.00  0.00     0.006 C 
BRANCH   6   7
ATOM      7  C   UNL     1      -2.109   4.328  15.498  1.00  0.00     0.053 C 
BRANCH   7   8
ATOM      8  C   UNL     1      -1.158   3.983  16.604  1.00  0.00     0.041 C 
ATOM      9  O   UNL     1      -0.372   4.855  17.059  1.00  0.00    -0.550 OA
ATOM     10  O   UNL     1      -1.118   2.689  17.107  1.00  0.00    -0.550 OA
ENDBRANCH   7   8
ENDBRANCH   6   7
ENDBRANCH   5   6
ENDBRANCH   4   5
ENDBRANCH   3   4
ENDBRANCH   2   3
ENDBRANCH   1   2
BRANCH   1  11
ATOM     11  C   UNL     1      -9.234   6.571  14.973  1.00  0.00     0.000 C 
BRANCH  11  12
ATOM     12  C   UNL     1      -9.292   6.567  13.438  1.00  0.00    -0.000 C 
BRANCH  12  13
ATOM     13  C   UNL     1      -9.039   7.957  12.831  1.00  0.00    -0.000 C 
BRANCH  13  14
ATOM     14  C   UNL     1      -7.614   8.106  12.270  1.00  0.00    -0.000 C 
BRANCH  14  15
ATOM     15  C   UNL     1      -7.158   6.866  11.484  1.00  0.00    -0.000 C 
BRANCH  15  16
ATOM     16  C   UNL     1      -5.639   6.629  11.582  1.00  0.00    -0.000 C 
BRANCH  16  17
ATOM     17  C   UNL     1      -5.244   5.863  12.854  1.00  0.00    -0.003 C 
ATOM     18  C   UNL     1      -5.728   4.413  12.845  1.00  0.00     0.004 C 
ENDBRANCH  16  17
ENDBRANCH  15  16
ENDBRANCH  14  15
ENDBRANCH  13  14
ENDBRANCH  12  13
ENDBRANCH  11  12
ENDBRANCH   1  11
TORSDOF 14
ENDMDL
MODEL 9
REMARK VINA RESULT:    -3.777      1.629      3.947
REMARK INTER + INTRA:          -9.217
REMARK INTER:                  -6.828
REMARK INTRA:                  -2.389
REMARK UNBOUND:                -2.349
REMARK SMILES CCCCCCCCCCCCCCCC(=O)[O-]
REMARK SMILES IDX 9 1 10 2 11 3 12 4 13 5 14 6 15 7 16 8 17 9 18 10 8 11 7 12
REMARK SMILES IDX 6 13 5 14 4 15 3 16 2 17 1 18
REMARK H PARENT
REMARK Flexibility Score: inf
ROOT
ATOM      1  C   UNL     1      -7.792   5.903  11.205  1.00  0.00     0.000 C 
ENDROOT
BRANCH   1   2
ATOM      2  C   UNL     1      -6.408   6.489  10.903  1.00  0.00     0.000 C 
BRANCH   2   3
ATOM      3  C   UNL     1      -5.444   6.258  12.071  1.00  0.00     0.000 C 
BRANCH   3   4
ATOM      4  C   UNL     1      -5.742   4.927  12.777  1.00  0.00     0.000 C 
BRANCH   4   5
ATOM      5  C   UNL     1      -5.071   4.825  14.156  1.00  0.00     0.000 C 
BRANCH   5   6
ATOM      6  C   UNL     1      -5.994   4.203  15.220  1.00  0.00     0.006 C 
BRANCH   6   7
ATOM      7  C   UNL     1      -5.356   4.212  16.615  1.00  0.00     0.053 C 
BRANCH   7   8
ATOM      8  C   UNL     1      -4.588   2.953  16.881  1.00  0.00     0.041 C 
ATOM      9  O   UNL     1      -3.348   2.910  16.666  1.00  0.00    -0.550 OA
ATOM     10  O   UNL     1      -5.249   1.819  17.334  1.00  0.00    -0.550 OA
ENDBRANCH   7   8
ENDBRANCH   6   7
ENDBRANCH   5   6
ENDBRANCH   4   5
ENDBRANCH   3   4
ENDBRANCH   2   3
ENDBRANCH   1   2
BRANCH   1  11
ATOM     11  C   UNL     1      -8.876   6.987  11.142  1.00  0.00     0.000 C 
BRANCH  11  12
ATOM     12  C   UNL     1      -9.228   7.492  12.550  1.00  0.00    -0.000 C 
BRANCH  12  13
ATOM     13  C   UNL     1      -9.839   6.394  13.438  1.00  0.00    -0.000 C 
BRANCH  13  14
ATOM     14  C   UNL     1      -9.048   6.179  14.740  1.00  0.00    -0.000 C 
BRANCH  14  15
ATOM     15  C   UNL     1      -8.016   7.291  14.992  1.00  0.00    -0.000 C 
BRANCH  15  16
ATOM     16  C   UNL     1      -7.460   7.268  16.428  1.00  0.00    -0.000 C 
BRANCH  16  17
ATOM     17  C   UNL     1      -6.067   7.908  16.529  1.00  0.00    -0.003 C 
ATOM     18  C   UNL     1      -5.570   8.455  15.190  1.00  0.00     0.004 C 
ENDBRANCH  16  17
ENDBRANCH  15  16
ENDBRANCH  14  15
ENDBRANCH  13  14
ENDBRANCH  12  13
ENDBRANCH  11  12
ENDBRANCH   1  11
TORSDOF 14
ENDMDL
