MODEL 1
REMARK VINA RESULT:    -3.798      0.000      0.000
REMARK INTER + INTRA:         -14.187
REMARK INTER:                  -9.571
REMARK INTRA:                  -4.616
REMARK UNBOUND:                -4.616
REMARK SMILES CCCCCCCCCCCCCCCCCCCCCCCCCCCC(=O)[O-]
REMARK SMILES IDX 15 1 16 2 17 3 18 4 19 5 20 6 21 7 22 8 23 9 24 10 25 11
REMARK SMILES IDX 26 12 27 13 28 14 29 15 30 16 14 17 13 18 12 19 11 20 10 21
REMARK SMILES IDX 9 22 8 23 7 24 6 25 5 26 4 27 3 28 2 29 1 30
REMARK H PARENT
REMARK Flexibility Score: inf
ROOT
ATOM      1  C   UNL     1      12.710  21.723 -19.313  1.00  0.00     0.000 C 
ENDROOT
BRANCH   1   2
ATOM      2  C   UNL     1      11.960  22.574 -20.361  1.00  0.00     0.000 C 
BRANCH   2   3
ATOM      3  C   UNL     1      12.846  23.207 -21.453  1.00  0.00     0.000 C 
BRANCH   3   4
ATOM      4  C   UNL     1      12.420  22.899 -22.903  1.00  0.00     0.000 C 
BRANCH   4   5
ATOM      5  C   UNL     1      13.494  22.193 -23.750  1.00  0.00     0.000 C 
BRANCH   5   6
ATOM      6  C   UNL     1      13.176  20.710 -23.991  1.00  0.00     0.000 C 
BRANCH   6   7
ATOM      7  C   UNL     1      13.819  19.832 -22.907  1.00  0.00     0.000 C 
BRANCH   7   8
ATOM      8  C   UNL     1      12.784  19.109 -22.028  1.00  0.00     0.000 C 
BRANCH   8   9
ATOM      9  C   UNL     1      13.369  18.357 -20.813  1.00  0.00     0.000 C 
BRANCH   9  10
ATOM     10  C   UNL     1      14.903  18.437 -20.666  1.00  0.00     0.000 C 
BRANCH  10  11
ATOM     11  C   UNL     1      15.485  17.681 -19.455  1.00  0.00     0.000 C 
BRANCH  11  12
ATOM     12  C   UNL     1      16.688  16.777 -19.779  1.00  0.00     0.006 C 
BRANCH  12  13
ATOM     13  C   UNL     1      16.319  15.287 -19.781  1.00  0.00     0.053 C 
BRANCH  13  14
ATOM     14  C   UNL     1      15.353  14.978 -20.884  1.00  0.00     0.041 C 
ATOM     15  O   UNL     1      14.204  14.535 -20.617  1.00  0.00    -0.550 OA
ATOM     16  O   UNL     1      15.721  15.179 -22.209  1.00  0.00    -0.550 OA
ENDBRANCH  13  14
ENDBRANCH  12  13
ENDBRANCH  11  12
ENDBRANCH  10  11
ENDBRANCH   9  10
ENDBRANCH   8   9
ENDBRANCH   7   8
ENDBRANCH   6   7
ENDBRANCH   5   6
ENDBRANCH   4   5
ENDBRANCH   3   4
ENDBRANCH   2   3
ENDBRANCH   1   2
BRANCH   1  17
ATOM     17  C   UNL     1      14.246  21.825 -19.368  1.00  0.00     0.000 C 
BRANCH  17  18
ATOM     18  C   UNL     1      14.932  21.127 -18.185  1.00  0.00     0.000 C 
BRANCH  18  19
ATOM     19  C   UNL     1      16.372  21.634 -18.004  1.00  0.00     0.000 C 
BRANCH  19  20
ATOM     20  C   UNL     1      17.384  20.484 -17.812  1.00  0.00     0.000 C 
BRANCH  20  21
ATOM     21  C   UNL     1      17.025  19.516 -16.666  1.00  0.00     0.000 C 
BRANCH  21  22
ATOM     22  C   UNL     1      18.208  19.053 -15.800  1.00  0.00    -0.000 C 
BRANCH  22  23
ATOM     23  C   UNL     1      19.555  19.134 -16.536  1.00  0.00    -0.000 C 
BRANCH  23  24
ATOM     24  C   UNL     1      20.194  17.743 -16.664  1.00  0.00    -0.000 C 
BRANCH  24  25
ATOM     25  C   UNL     1      19.218  16.698 -17.228  1.00  0.00    -0.000 C 
BRANCH  25  26
ATOM     26  C   UNL     1      19.382  15.319 -16.563  1.00  0.00    -0.000 C 
BRANCH  26  27
ATOM     27  C   UNL     1      18.112  14.886 -15.801  1.00  0.00    -0.000 C 
BRANCH  27  28
ATOM     28  C   UNL     1      16.861  15.703 -16.166  1.00  0.00    -0.000 C 
BRANCH  28  29
ATOM     29  C   UNL     1      15.909  15.903 -14.978  1.00  0.00    -0.003 C 
ATOM     30  C   UNL     1      16.643  16.493 -13.777  1.00  0.00     0.004 C 
ENDBRANCH  28  29
ENDBRANCH  27  28
ENDBRANCH  26  27
ENDBRANCH  25  26
ENDBRANCH  24  25
ENDBRANCH  23  24
ENDBRANCH  22  23
ENDBRANCH  21  22
ENDBRANCH  20  21
ENDBRANCH  19  20
ENDBRANCH  18  19
ENDBRANCH  17  18
ENDBRANCH   1  17
TORSDOF 26
ENDMDL
MODEL 2
REMARK VINA RESULT:    -3.728      1.692      2.924
REMARK INTER + INTRA:         -14.011
REMARK INTER:                 -10.387
REMARK INTRA:                  -3.624
REMARK UNBOUND:                -4.616
REMARK SMILES CCCCCCCCCCCCCCCCCCCCCCCCCCCC(=O)[O-]
REMARK SMILES IDX 15 1 16 2 17 3 18 4 19 5 20 6 21 7 22 8 23 9 24 10 25 11
REMARK SMILES IDX 26 12 27 13 28 14 29 15 30 16 14 17 13 18 12 19 11 20 10 21
REMARK SMILES IDX 9 22 8 23 7 24 6 25 5 26 4 27 3 28 2 29 1 30
REMARK H PARENT
REMARK Flexibility Score: inf
ROOT
ATOM      1  C   UNL     1      13.041  22.820 -20.560  1.00  0.00     0.000 C 
ENDROOT
BRANCH   1   2
ATOM      2  C   UNL     1      12.301  22.500 -21.878  1.00  0.00     0.000 C 
BRANCH   2   3
ATOM      3  C   UNL     1      12.712  23.360 -23.090  1.00  0.00     0.000 C 
BRANCH   3   4
ATOM      4  C   UNL     1      12.208  22.851 -24.456  1.00  0.00     0.000 C 
BRANCH   4   5
ATOM      5  C   UNL     1      13.296  22.228 -25.349  1.00  0.00     0.000 C 
BRANCH   5   6
ATOM      6  C   UNL     1      12.920  20.826 -25.849  1.00  0.00     0.000 C 
BRANCH   6   7
ATOM      7  C   UNL     1      12.024  20.107 -24.831  1.00  0.00     0.000 C 
BRANCH   7   8
ATOM      8  C   UNL     1      12.779  19.051 -24.004  1.00  0.00     0.000 C 
BRANCH   8   9
ATOM      9  C   UNL     1      12.196  18.779 -22.601  1.00  0.00     0.000 C 
BRANCH   9  10
ATOM     10  C   UNL     1      13.142  19.089 -21.423  1.00  0.00     0.000 C 
BRANCH  10  11
ATOM     11  C   UNL     1      14.541  18.446 -21.517  1.00  0.00     0.000 C 
BRANCH  11  12
ATOM     12  C   UNL     1      14.547  16.908 -21.455  1.00  0.00     0.006 C 
BRANCH  12  13
ATOM     13  C   UNL     1      15.566  16.286 -22.419  1.00  0.00     0.053 C 
BRANCH  13  14
ATOM     14  C   UNL     1      14.880  15.700 -23.615  1.00  0.00     0.041 C 
ATOM     15  O   UNL     1      15.546  15.380 -24.636  1.00  0.00    -0.550 OA
ATOM     16  O   UNL     1      13.504  15.507 -23.605  1.00  0.00    -0.550 OA
ENDBRANCH  13  14
ENDBRANCH  12  13
ENDBRANCH  11  12
ENDBRANCH  10  11
ENDBRANCH   9  10
ENDBRANCH   8   9
ENDBRANCH   7   8
ENDBRANCH   6   7
ENDBRANCH   5   6
ENDBRANCH   4   5
ENDBRANCH   3   4
ENDBRANCH   2   3
ENDBRANCH   1   2
BRANCH   1  17
ATOM     17  C   UNL     1      12.379  22.258 -19.287  1.00  0.00     0.000 C 
BRANCH  17  18
ATOM     18  C   UNL     1      13.368  21.503 -18.387  1.00  0.00     0.000 C 
BRANCH  18  19
ATOM     19  C   UNL     1      14.751  21.399 -19.052  1.00  0.00     0.000 C 
BRANCH  19  20
ATOM     20  C   UNL     1      15.905  21.460 -18.028  1.00  0.00     0.000 C 
BRANCH  20  21
ATOM     21  C   UNL     1      16.354  20.081 -17.505  1.00  0.00     0.000 C 
BRANCH  21  22
ATOM     22  C   UNL     1      16.210  18.919 -18.502  1.00  0.00    -0.000 C 
BRANCH  22  23
ATOM     23  C   UNL     1      16.994  17.667 -18.078  1.00  0.00    -0.000 C 
BRANCH  23  24
ATOM     24  C   UNL     1      16.411  17.065 -16.790  1.00  0.00    -0.000 C 
BRANCH  24  25
ATOM     25  C   UNL     1      17.443  16.997 -15.653  1.00  0.00    -0.000 C 
BRANCH  25  26
ATOM     26  C   UNL     1      17.323  18.179 -14.675  1.00  0.00    -0.000 C 
BRANCH  26  27
ATOM     27  C   UNL     1      18.666  18.915 -14.483  1.00  0.00    -0.000 C 
BRANCH  27  28
ATOM     28  C   UNL     1      19.444  19.134 -15.792  1.00  0.00    -0.000 C 
BRANCH  28  29
ATOM     29  C   UNL     1      20.897  18.644 -15.714  1.00  0.00    -0.003 C 
ATOM     30  C   UNL     1      21.034  17.482 -14.733  1.00  0.00     0.004 C 
ENDBRANCH  28  29
ENDBRANCH  27  28
ENDBRANCH  26  27
ENDBRANCH  25  26
ENDBRANCH  24  25
ENDBRANCH  23  24
ENDBRANCH  22  23
ENDBRANCH  21  22
ENDBRANCH  20  21
ENDBRANCH  19  20
ENDBRANCH  18  19
ENDBRANCH  17  18
ENDBRANCH   1  17
TORSDOF 26
ENDMDL
MODEL 3
REMARK VINA RESULT:    -3.699      1.440      2.243
REMARK INTER + INTRA:         -13.938
REMARK INTER:                  -9.639
REMARK INTRA:                  -4.299
REMARK UNBOUND:                -4.616
REMARK SMILES CCCCCCCCCCCCCCCCCCCCCCCCCCCC(=O)[O-]
REMARK SMILES IDX 15 1 16 2 17 3 18 4 19 5 20 6 21 7 22 8 23 9 24 10 25 11
REMARK SMILES IDX 26 12 27 13 28 14 29 15 30 16 14 17 13 18 12 19 11 20 10 21
REMARK SMILES IDX 9 22 8 23 7 24 6 25 5 26 4 27 3 28 2 29 1 30
REMARK H PARENT
REMARK Flexibility Score: inf
ROOT
ATOM      1  C   UNL     1      12.696  21.714 -19.317  1.00  0.00     0.000 C 
ENDROOT
BRANCH   1   2
ATOM      2  C   UNL     1      12.035  22.488 -20.478  1.00  0.00     0.000 C 
BRANCH   2   3
ATOM      3  C   UNL     1      13.001  22.989 -21.571  1.00  0.00     0.000 C 
BRANCH   3   4
ATOM      4  C   UNL     1      12.470  22.877 -23.015  1.00  0.00     0.000 C 
BRANCH   4   5
ATOM      5  C   UNL     1      13.455  22.236 -24.010  1.00  0.00     0.000 C 
BRANCH   5   6
ATOM      6  C   UNL     1      12.772  21.235 -24.954  1.00  0.00     0.000 C 
BRANCH   6   7
ATOM      7  C   UNL     1      12.972  19.796 -24.460  1.00  0.00     0.000 C 
BRANCH   7   8
ATOM      8  C   UNL     1      11.908  19.359 -23.437  1.00  0.00     0.000 C 
BRANCH   8   9
ATOM      9  C   UNL     1      12.450  19.028 -22.030  1.00  0.00     0.000 C 
BRANCH   9  10
ATOM     10  C   UNL     1      13.963  19.264 -21.834  1.00  0.00     0.000 C 
BRANCH  10  11
ATOM     11  C   UNL     1      14.765  18.029 -21.378  1.00  0.00     0.000 C 
BRANCH  11  12
ATOM     12  C   UNL     1      14.441  17.542 -19.954  1.00  0.00     0.006 C 
BRANCH  12  13
ATOM     13  C   UNL     1      13.762  16.165 -19.945  1.00  0.00     0.053 C 
BRANCH  13  14
ATOM     14  C   UNL     1      14.562  15.182 -19.145  1.00  0.00     0.041 C 
ATOM     15  O   UNL     1      15.400  14.432 -19.715  1.00  0.00    -0.550 OA
ATOM     16  O   UNL     1      14.381  15.091 -17.771  1.00  0.00    -0.550 OA
ENDBRANCH  13  14
ENDBRANCH  12  13
ENDBRANCH  11  12
ENDBRANCH  10  11
ENDBRANCH   9  10
ENDBRANCH   8   9
ENDBRANCH   7   8
ENDBRANCH   6   7
ENDBRANCH   5   6
ENDBRANCH   4   5
ENDBRANCH   3   4
ENDBRANCH   2   3
ENDBRANCH   1   2
BRANCH   1  17
ATOM     17  C   UNL     1      14.235  21.779 -19.282  1.00  0.00     0.000 C 
BRANCH  17  18
ATOM     18  C   UNL     1      14.843  20.907 -18.174  1.00  0.00     0.000 C 
BRANCH  18  19
ATOM     19  C   UNL     1      16.187  20.307 -18.619  1.00  0.00     0.000 C 
BRANCH  19  20
ATOM     20  C   UNL     1      17.239  20.310 -17.488  1.00  0.00     0.000 C 
BRANCH  20  21
ATOM     21  C   UNL     1      17.046  19.188 -16.448  1.00  0.00     0.000 C 
BRANCH  21  22
ATOM     22  C   UNL     1      16.631  17.822 -17.021  1.00  0.00    -0.000 C 
BRANCH  22  23
ATOM     23  C   UNL     1      17.768  17.123 -17.782  1.00  0.00    -0.000 C 
BRANCH  23  24
ATOM     24  C   UNL     1      18.924  16.769 -16.833  1.00  0.00    -0.000 C 
BRANCH  24  25
ATOM     25  C   UNL     1      20.200  17.570 -17.137  1.00  0.00    -0.000 C 
BRANCH  25  26
ATOM     26  C   UNL     1      20.745  18.304 -15.899  1.00  0.00    -0.000 C 
BRANCH  26  27
ATOM     27  C   UNL     1      20.635  17.447 -14.619  1.00  0.00    -0.000 C 
BRANCH  27  28
ATOM     28  C   UNL     1      20.236  18.250 -13.369  1.00  0.00    -0.000 C 
BRANCH  28  29
ATOM     29  C   UNL     1      18.745  18.615 -13.344  1.00  0.00    -0.003 C 
ATOM     30  C   UNL     1      17.873  17.364 -13.272  1.00  0.00     0.004 C 
ENDBRANCH  28  29
ENDBRANCH  27  28
ENDBRANCH  26  27
ENDBRANCH  25  26
ENDBRANCH  24  25
ENDBRANCH  23  24
ENDBRANCH  22  23
ENDBRANCH  21  22
ENDBRANCH  20  21
ENDBRANCH  19  20
ENDBRANCH  18  19
ENDBRANCH  17  18
ENDBRANCH   1  17
TORSDOF 26
ENDMDL
MODEL 4
REMARK VINA RESULT:    -3.651      1.878      7.201
REMARK INTER + INTRA:         -13.817
REMARK INTER:                  -9.759
REMARK INTRA:                  -4.058
REMARK UNBOUND:                -4.616
REMARK SMILES CCCCCCCCCCCCCCCCCCCCCCCCCCCC(=O)[O-]
REMARK SMILES IDX 15 1 16 2 17 3 18 4 19 5 20 6 21 7 22 8 23 9 24 10 25 11
REMARK SMILES IDX 26 12 27 13 28 14 29 15 30 16 14 17 13 18 12 19 11 20 10 21
REMARK SMILES IDX 9 22 8 23 7 24 6 25 5 26 4 27 3 28 2 29 1 30
REMARK H PARENT
REMARK Flexibility Score: inf
ROOT
ATOM      1  C   UNL     1      12.291  21.579 -21.567  1.00  0.00     0.000 C 
ENDROOT
BRANCH   1   2
ATOM      2  C   UNL     1      13.208  22.615 -20.881  1.00  0.00     0.000 C 
BRANCH   2   3
ATOM      3  C   UNL     1      13.349  22.462 -19.353  1.00  0.00     0.000 C 
BRANCH   3   4
ATOM      4  C   UNL     1      13.771  21.059 -18.871  1.00  0.00     0.000 C 
BRANCH   4   5
ATOM      5  C   UNL     1      14.995  21.044 -17.938  1.00  0.00     0.000 C 
BRANCH   5   6
ATOM      6  C   UNL     1      16.225  20.392 -18.585  1.00  0.00     0.000 C 
BRANCH   6   7
ATOM      7  C   UNL     1      17.418  20.399 -17.619  1.00  0.00     0.000 C 
BRANCH   7   8
ATOM      8  C   UNL     1      17.231  19.447 -16.425  1.00  0.00     0.000 C 
BRANCH   8   9
ATOM      9  C   UNL     1      16.795  18.013 -16.794  1.00  0.00     0.000 C 
BRANCH   9  10
ATOM     10  C   UNL     1      17.837  17.187 -17.576  1.00  0.00     0.000 C 
BRANCH  10  11
ATOM     11  C   UNL     1      17.268  16.328 -18.722  1.00  0.00     0.000 C 
BRANCH  11  12
ATOM     12  C   UNL     1      15.759  16.039 -18.620  1.00  0.00     0.006 C 
BRANCH  12  13
ATOM     13  C   UNL     1      15.379  14.683 -19.230  1.00  0.00     0.053 C 
BRANCH  13  14
ATOM     14  C   UNL     1      14.162  14.809 -20.096  1.00  0.00     0.041 C 
ATOM     15  O   UNL     1      14.059  14.125 -21.149  1.00  0.00    -0.550 OA
ATOM     16  O   UNL     1      13.142  15.684 -19.742  1.00  0.00    -0.550 OA
ENDBRANCH  13  14
ENDBRANCH  12  13
ENDBRANCH  11  12
ENDBRANCH  10  11
ENDBRANCH   9  10
ENDBRANCH   8   9
ENDBRANCH   7   8
ENDBRANCH   6   7
ENDBRANCH   5   6
ENDBRANCH   4   5
ENDBRANCH   3   4
ENDBRANCH   2   3
ENDBRANCH   1   2
BRANCH   1  17
ATOM     17  C   UNL     1      12.192  21.707 -23.099  1.00  0.00     0.000 C 
BRANCH  17  18
ATOM     18  C   UNL     1      13.562  21.864 -23.773  1.00  0.00     0.000 C 
BRANCH  18  19
ATOM     19  C   UNL     1      13.552  23.025 -24.782  1.00  0.00     0.000 C 
BRANCH  19  20
ATOM     20  C   UNL     1      12.527  22.811 -25.917  1.00  0.00     0.000 C 
BRANCH  20  21
ATOM     21  C   UNL     1      13.148  22.311 -27.237  1.00  0.00     0.000 C 
BRANCH  21  22
ATOM     22  C   UNL     1      12.631  20.950 -27.734  1.00  0.00    -0.000 C 
BRANCH  22  23
ATOM     23  C   UNL     1      11.919  20.144 -26.635  1.00  0.00    -0.000 C 
BRANCH  23  24
ATOM     24  C   UNL     1      12.682  18.847 -26.326  1.00  0.00    -0.000 C 
BRANCH  24  25
ATOM     25  C   UNL     1      12.646  18.486 -24.833  1.00  0.00    -0.000 C 
BRANCH  25  26
ATOM     26  C   UNL     1      13.196  17.076 -24.553  1.00  0.00    -0.000 C 
BRANCH  26  27
ATOM     27  C   UNL     1      13.916  16.992 -23.190  1.00  0.00    -0.000 C 
BRANCH  27  28
ATOM     28  C   UNL     1      13.509  18.101 -22.206  1.00  0.00    -0.000 C 
BRANCH  28  29
ATOM     29  C   UNL     1      14.667  18.556 -21.306  1.00  0.00    -0.003 C 
ATOM     30  C   UNL     1      15.985  17.919 -21.739  1.00  0.00     0.004 C 
ENDBRANCH  28  29
ENDBRANCH  27  28
ENDBRANCH  26  27
ENDBRANCH  25  26
ENDBRANCH  24  25
ENDBRANCH  23  24
ENDBRANCH  22  23
ENDBRANCH  21  22
ENDBRANCH  20  21
ENDBRANCH  19  20
ENDBRANCH  18  19
ENDBRANCH  17  18
ENDBRANCH   1  17
TORSDOF 26
ENDMDL
MODEL 5
REMARK VINA RESULT:    -3.648      2.369      7.278
REMARK INTER + INTRA:         -13.808
REMARK INTER:                  -9.727
REMARK INTRA:                  -4.081
REMARK UNBOUND:                -4.616
REMARK SMILES CCCCCCCCCCCCCCCCCCCCCCCCCCCC(=O)[O-]
REMARK SMILES IDX 15 1 16 2 17 3 18 4 19 5 20 6 21 7 22 8 23 9 24 10 25 11
REMARK SMILES IDX 26 12 27 13 28 14 29 15 30 16 14 17 13 18 12 19 11 20 10 21
REMARK SMILES IDX 9 22 8 23 7 24 6 25 5 26 4 27 3 28 2 29 1 30
REMARK H PARENT
REMARK Flexibility Score: inf
ROOT
ATOM      1  C   UNL     1      15.129  21.003 -18.081  1.00  0.00     0.000 C 
ENDROOT
BRANCH   1   2
ATOM      2  C   UNL     1      16.342  20.181 -18.568  1.00  0.00     0.000 C 
BRANCH   2   3
ATOM      3  C   UNL     1      16.281  18.670 -18.260  1.00  0.00     0.000 C 
BRANCH   3   4
ATOM      4  C   UNL     1      17.169  18.204 -17.089  1.00  0.00     0.000 C 
BRANCH   4   5
ATOM      5  C   UNL     1      17.952  16.906 -17.357  1.00  0.00     0.000 C 
BRANCH   5   6
ATOM      6  C   UNL     1      19.450  17.046 -17.049  1.00  0.00     0.000 C 
BRANCH   6   7
ATOM      7  C   UNL     1      19.817  18.511 -16.776  1.00  0.00     0.000 C 
BRANCH   7   8
ATOM      8  C   UNL     1      20.511  18.714 -15.417  1.00  0.00     0.000 C 
BRANCH   8   9
ATOM      9  C   UNL     1      19.762  19.635 -14.431  1.00  0.00     0.000 C 
BRANCH   9  10
ATOM     10  C   UNL     1      18.582  18.980 -13.683  1.00  0.00     0.000 C 
BRANCH  10  11
ATOM     11  C   UNL     1      18.779  17.494 -13.323  1.00  0.00     0.000 C 
BRANCH  11  12
ATOM     12  C   UNL     1      17.510  16.781 -12.821  1.00  0.00     0.006 C 
BRANCH  12  13
ATOM     13  C   UNL     1      16.440  16.649 -13.913  1.00  0.00     0.053 C 
BRANCH  13  14
ATOM     14  C   UNL     1      15.144  16.168 -13.335  1.00  0.00     0.041 C 
ATOM     15  O   UNL     1      14.778  16.551 -12.192  1.00  0.00    -0.550 OA
ATOM     16  O   UNL     1      14.339  15.295 -14.058  1.00  0.00    -0.550 OA
ENDBRANCH  13  14
ENDBRANCH  12  13
ENDBRANCH  11  12
ENDBRANCH  10  11
ENDBRANCH   9  10
ENDBRANCH   8   9
ENDBRANCH   7   8
ENDBRANCH   6   7
ENDBRANCH   5   6
ENDBRANCH   4   5
ENDBRANCH   3   4
ENDBRANCH   2   3
ENDBRANCH   1   2
BRANCH   1  17
ATOM     17  C   UNL     1      14.308  21.679 -19.196  1.00  0.00     0.000 C 
BRANCH  17  18
ATOM     18  C   UNL     1      12.798  21.653 -18.922  1.00  0.00     0.000 C 
BRANCH  18  19
ATOM     19  C   UNL     1      12.049  22.609 -19.865  1.00  0.00     0.000 C 
BRANCH  19  20
ATOM     20  C   UNL     1      12.987  23.283 -20.890  1.00  0.00     0.000 C 
BRANCH  20  21
ATOM     21  C   UNL     1      12.616  23.003 -22.360  1.00  0.00     0.000 C 
BRANCH  21  22
ATOM     22  C   UNL     1      12.203  21.554 -22.671  1.00  0.00    -0.000 C 
BRANCH  22  23
ATOM     23  C   UNL     1      13.403  20.601 -22.779  1.00  0.00    -0.000 C 
BRANCH  23  24
ATOM     24  C   UNL     1      13.203  19.364 -21.889  1.00  0.00    -0.000 C 
BRANCH  24  25
ATOM     25  C   UNL     1      14.532  18.695 -21.506  1.00  0.00    -0.000 C 
BRANCH  25  26
ATOM     26  C   UNL     1      14.456  17.158 -21.562  1.00  0.00    -0.000 C 
BRANCH  26  27
ATOM     27  C   UNL     1      15.851  16.503 -21.468  1.00  0.00    -0.000 C 
BRANCH  27  28
ATOM     28  C   UNL     1      16.008  15.553 -20.268  1.00  0.00    -0.000 C 
BRANCH  28  29
ATOM     29  C   UNL     1      14.665  15.041 -19.730  1.00  0.00    -0.003 C 
ATOM     30  C   UNL     1      14.496  15.383 -18.252  1.00  0.00     0.004 C 
ENDBRANCH  28  29
ENDBRANCH  27  28
ENDBRANCH  26  27
ENDBRANCH  25  26
ENDBRANCH  24  25
ENDBRANCH  23  24
ENDBRANCH  22  23
ENDBRANCH  21  22
ENDBRANCH  20  21
ENDBRANCH  19  20
ENDBRANCH  18  19
ENDBRANCH  17  18
ENDBRANCH   1  17
TORSDOF 26
ENDMDL
MODEL 6
REMARK VINA RESULT:    -3.624      1.564      3.101
REMARK INTER + INTRA:         -13.749
REMARK INTER:                  -9.790
REMARK INTRA:                  -3.960
REMARK UNBOUND:                -4.616
REMARK SMILES CCCCCCCCCCCCCCCCCCCCCCCCCCCC(=O)[O-]
REMARK SMILES IDX 15 1 16 2 17 3 18 4 19 5 20 6 21 7 22 8 23 9 24 10 25 11
REMARK SMILES IDX 26 12 27 13 28 14 29 15 30 16 14 17 13 18 12 19 11 20 10 21
REMARK SMILES IDX 9 22 8 23 7 24 6 25 5 26 4 27 3 28 2 29 1 30
REMARK H PARENT
REMARK Flexibility Score: inf
ROOT
ATOM      1  C   UNL     1      15.684  21.477 -18.634  1.00  0.00     0.000 C 
ENDROOT
BRANCH   1   2
ATOM      2  C   UNL     1      14.218  21.117 -18.305  1.00  0.00     0.000 C 
BRANCH   2   3
ATOM      3  C   UNL     1      13.153  21.887 -19.112  1.00  0.00     0.000 C 
BRANCH   3   4
ATOM      4  C   UNL     1      13.710  22.869 -20.164  1.00  0.00     0.000 C 
BRANCH   4   5
ATOM      5  C   UNL     1      12.686  23.325 -21.218  1.00  0.00     0.000 C 
BRANCH   5   6
ATOM      6  C   UNL     1      12.037  22.148 -21.961  1.00  0.00     0.000 C 
BRANCH   6   7
ATOM      7  C   UNL     1      12.737  21.900 -23.305  1.00  0.00     0.000 C 
BRANCH   7   8
ATOM      8  C   UNL     1      12.994  20.408 -23.582  1.00  0.00     0.000 C 
BRANCH   8   9
ATOM      9  C   UNL     1      13.805  19.671 -22.495  1.00  0.00     0.000 C 
BRANCH   9  10
ATOM     10  C   UNL     1      12.975  19.099 -21.327  1.00  0.00     0.000 C 
BRANCH  10  11
ATOM     11  C   UNL     1      13.349  17.666 -20.897  1.00  0.00     0.000 C 
BRANCH  11  12
ATOM     12  C   UNL     1      14.476  17.582 -19.853  1.00  0.00     0.006 C 
BRANCH  12  13
ATOM     13  C   UNL     1      15.559  16.564 -20.239  1.00  0.00     0.053 C 
BRANCH  13  14
ATOM     14  C   UNL     1      16.110  16.862 -21.599  1.00  0.00     0.041 C 
ATOM     15  O   UNL     1      16.824  17.883 -21.786  1.00  0.00    -0.550 OA
ATOM     16  O   UNL     1      15.836  16.012 -22.664  1.00  0.00    -0.550 OA
ENDBRANCH  13  14
ENDBRANCH  12  13
ENDBRANCH  11  12
ENDBRANCH  10  11
ENDBRANCH   9  10
ENDBRANCH   8   9
ENDBRANCH   7   8
ENDBRANCH   6   7
ENDBRANCH   5   6
ENDBRANCH   4   5
ENDBRANCH   3   4
ENDBRANCH   2   3
ENDBRANCH   1   2
BRANCH   1  17
ATOM     17  C   UNL     1      16.741  20.763 -17.771  1.00  0.00     0.000 C 
BRANCH  17  18
ATOM     18  C   UNL     1      16.349  19.320 -17.424  1.00  0.00     0.000 C 
BRANCH  18  19
ATOM     19  C   UNL     1      17.209  18.777 -16.271  1.00  0.00     0.000 C 
BRANCH  19  20
ATOM     20  C   UNL     1      17.463  17.258 -16.387  1.00  0.00     0.000 C 
BRANCH  20  21
ATOM     21  C   UNL     1      18.233  16.844 -17.657  1.00  0.00     0.000 C 
BRANCH  21  22
ATOM     22  C   UNL     1      19.712  16.480 -17.441  1.00  0.00    -0.000 C 
BRANCH  22  23
ATOM     23  C   UNL     1      20.045  16.182 -15.971  1.00  0.00    -0.000 C 
BRANCH  23  24
ATOM     24  C   UNL     1      21.123  17.143 -15.447  1.00  0.00    -0.000 C 
BRANCH  24  25
ATOM     25  C   UNL     1      20.904  18.587 -15.926  1.00  0.00    -0.000 C 
BRANCH  25  26
ATOM     26  C   UNL     1      20.570  19.548 -14.770  1.00  0.00    -0.000 C 
BRANCH  26  27
ATOM     27  C   UNL     1      20.384  18.804 -13.430  1.00  0.00    -0.000 C 
BRANCH  27  28
ATOM     28  C   UNL     1      18.957  18.898 -12.864  1.00  0.00    -0.000 C 
BRANCH  28  29
ATOM     29  C   UNL     1      18.238  17.542 -12.825  1.00  0.00    -0.003 C 
ATOM     30  C   UNL     1      19.164  16.442 -12.313  1.00  0.00     0.004 C 
ENDBRANCH  28  29
ENDBRANCH  27  28
ENDBRANCH  26  27
ENDBRANCH  25  26
ENDBRANCH  24  25
ENDBRANCH  23  24
ENDBRANCH  22  23
ENDBRANCH  21  22
ENDBRANCH  20  21
ENDBRANCH  19  20
ENDBRANCH  18  19
ENDBRANCH  17  18
ENDBRANCH   1  17
TORSDOF 26
ENDMDL
MODEL 7
REMARK VINA RESULT:    -3.619      3.197      8.291
REMARK INTER + INTRA:         -13.735
REMARK INTER:                 -10.483
REMARK INTRA:                  -3.252
REMARK UNBOUND:                -4.616
REMARK SMILES CCCCCCCCCCCCCCCCCCCCCCCCCCCC(=O)[O-]
REMARK SMILES IDX 15 1 16 2 17 3 18 4 19 5 20 6 21 7 22 8 23 9 24 10 25 11
REMARK SMILES IDX 26 12 27 13 28 14 29 15 30 16 14 17 13 18 12 19 11 20 10 21
REMARK SMILES IDX 9 22 8 23 7 24 6 25 5 26 4 27 3 28 2 29 1 30
REMARK H PARENT
REMARK Flexibility Score: inf
ROOT
ATOM      1  C   UNL     1      14.251  21.127 -18.252  1.00  0.00     0.000 C 
ENDROOT
BRANCH   1   2
ATOM      2  C   UNL     1      15.721  21.511 -18.526  1.00  0.00     0.000 C 
BRANCH   2   3
ATOM      3  C   UNL     1      16.756  20.405 -18.238  1.00  0.00     0.000 C 
BRANCH   3   4
ATOM      4  C   UNL     1      16.161  19.032 -17.864  1.00  0.00     0.000 C 
BRANCH   4   5
ATOM      5  C   UNL     1      16.065  18.036 -19.034  1.00  0.00     0.000 C 
BRANCH   5   6
ATOM      6  C   UNL     1      16.753  16.697 -18.728  1.00  0.00     0.000 C 
BRANCH   6   7
ATOM      7  C   UNL     1      15.925  15.874 -17.731  1.00  0.00     0.000 C 
BRANCH   7   8
ATOM      8  C   UNL     1      16.732  15.434 -16.497  1.00  0.00     0.000 C 
BRANCH   8   9
ATOM      9  C   UNL     1      17.301  16.587 -15.643  1.00  0.00     0.000 C 
BRANCH   9  10
ATOM     10  C   UNL     1      18.840  16.696 -15.624  1.00  0.00     0.000 C 
BRANCH  10  11
ATOM     11  C   UNL     1      19.438  17.722 -16.608  1.00  0.00     0.000 C 
BRANCH  11  12
ATOM     12  C   UNL     1      20.124  18.927 -15.941  1.00  0.00     0.006 C 
BRANCH  12  13
ATOM     13  C   UNL     1      20.824  18.552 -14.627  1.00  0.00     0.053 C 
BRANCH  13  14
ATOM     14  C   UNL     1      20.263  19.337 -13.481  1.00  0.00     0.041 C 
ATOM     15  O   UNL     1      21.022  19.752 -12.564  1.00  0.00    -0.550 OA
ATOM     16  O   UNL     1      18.902  19.612 -13.423  1.00  0.00    -0.550 OA
ENDBRANCH  13  14
ENDBRANCH  12  13
ENDBRANCH  11  12
ENDBRANCH  10  11
ENDBRANCH   9  10
ENDBRANCH   8   9
ENDBRANCH   7   8
ENDBRANCH   6   7
ENDBRANCH   5   6
ENDBRANCH   4   5
ENDBRANCH   3   4
ENDBRANCH   2   3
ENDBRANCH   1   2
BRANCH   1  17
ATOM     17  C   UNL     1      13.204  21.978 -18.995  1.00  0.00     0.000 C 
BRANCH  17  18
ATOM     18  C   UNL     1      13.804  22.774 -20.163  1.00  0.00     0.000 C 
BRANCH  18  19
ATOM     19  C   UNL     1      12.699  23.363 -21.056  1.00  0.00     0.000 C 
BRANCH  19  20
ATOM     20  C   UNL     1      12.392  22.473 -22.280  1.00  0.00     0.000 C 
BRANCH  20  21
ATOM     21  C   UNL     1      12.618  23.171 -23.636  1.00  0.00     0.000 C 
BRANCH  21  22
ATOM     22  C   UNL     1      13.808  22.644 -24.457  1.00  0.00    -0.000 C 
BRANCH  22  23
ATOM     23  C   UNL     1      13.504  22.559 -25.961  1.00  0.00    -0.000 C 
BRANCH  23  24
ATOM     24  C   UNL     1      12.278  21.671 -26.223  1.00  0.00    -0.000 C 
BRANCH  24  25
ATOM     25  C   UNL     1      12.621  20.173 -26.197  1.00  0.00    -0.000 C 
BRANCH  25  26
ATOM     26  C   UNL     1      12.027  19.453 -24.973  1.00  0.00    -0.000 C 
BRANCH  26  27
ATOM     27  C   UNL     1      12.601  18.030 -24.799  1.00  0.00    -0.000 C 
BRANCH  27  28
ATOM     28  C   UNL     1      13.365  17.828 -23.480  1.00  0.00    -0.000 C 
BRANCH  28  29
ATOM     29  C   UNL     1      13.674  19.148 -22.759  1.00  0.00    -0.003 C 
ATOM     30  C   UNL     1      13.385  19.040 -21.264  1.00  0.00     0.004 C 
ENDBRANCH  28  29
ENDBRANCH  27  28
ENDBRANCH  26  27
ENDBRANCH  25  26
ENDBRANCH  24  25
ENDBRANCH  23  24
ENDBRANCH  22  23
ENDBRANCH  21  22
ENDBRANCH  20  21
ENDBRANCH  19  20
ENDBRANCH  18  19
ENDBRANCH  17  18
ENDBRANCH   1  17
TORSDOF 26
ENDMDL
MODEL 8
REMARK VINA RESULT:    -3.610      1.489      8.243
REMARK INTER + INTRA:         -13.713
REMARK INTER:                  -9.816
REMARK INTRA:                  -3.898
REMARK UNBOUND:                -4.616
REMARK SMILES CCCCCCCCCCCCCCCCCCCCCCCCCCCC(=O)[O-]
REMARK SMILES IDX 15 1 16 2 17 3 18 4 19 5 20 6 21 7 22 8 23 9 24 10 25 11
REMARK SMILES IDX 26 12 27 13 28 14 29 15 30 16 14 17 13 18 12 19 11 20 10 21
REMARK SMILES IDX 9 22 8 23 7 24 6 25 5 26 4 27 3 28 2 29 1 30
REMARK H PARENT
REMARK Flexibility Score: inf
ROOT
ATOM      1  C   UNL     1      20.088  17.760 -16.973  1.00  0.00     0.000 C 
ENDROOT
BRANCH   1   2
ATOM      2  C   UNL     1      20.201  16.338 -16.380  1.00  0.00     0.000 C 
BRANCH   2   3
ATOM      3  C   UNL     1      20.585  16.276 -14.887  1.00  0.00     0.000 C 
BRANCH   3   4
ATOM      4  C   UNL     1      19.473  15.770 -13.945  1.00  0.00     0.000 C 
BRANCH   4   5
ATOM      5  C   UNL     1      18.619  16.882 -13.309  1.00  0.00     0.000 C 
BRANCH   5   6
ATOM      6  C   UNL     1      17.113  16.655 -13.507  1.00  0.00     0.000 C 
BRANCH   6   7
ATOM      7  C   UNL     1      16.726  16.823 -14.983  1.00  0.00     0.000 C 
BRANCH   7   8
ATOM      8  C   UNL     1      16.053  15.571 -15.574  1.00  0.00     0.000 C 
BRANCH   8   9
ATOM      9  C   UNL     1      16.943  14.733 -16.515  1.00  0.00     0.000 C 
BRANCH   9  10
ATOM     10  C   UNL     1      16.670  14.920 -18.022  1.00  0.00     0.000 C 
BRANCH  10  11
ATOM     11  C   UNL     1      17.188  16.243 -18.622  1.00  0.00     0.000 C 
BRANCH  11  12
ATOM     12  C   UNL     1      16.106  17.315 -18.844  1.00  0.00     0.006 C 
BRANCH  12  13
ATOM     13  C   UNL     1      15.496  17.252 -20.251  1.00  0.00     0.053 C 
BRANCH  13  14
ATOM     14  C   UNL     1      14.012  17.057 -20.182  1.00  0.00     0.041 C 
ATOM     15  O   UNL     1      13.528  16.093 -19.531  1.00  0.00    -0.550 OA
ATOM     16  O   UNL     1      13.162  17.940 -20.837  1.00  0.00    -0.550 OA
ENDBRANCH  13  14
ENDBRANCH  12  13
ENDBRANCH  11  12
ENDBRANCH  10  11
ENDBRANCH   9  10
ENDBRANCH   8   9
ENDBRANCH   7   8
ENDBRANCH   6   7
ENDBRANCH   5   6
ENDBRANCH   4   5
ENDBRANCH   3   4
ENDBRANCH   2   3
ENDBRANCH   1   2
BRANCH   1  17
ATOM     17  C   UNL     1      20.361  18.905 -15.980  1.00  0.00     0.000 C 
BRANCH  17  18
ATOM     18  C   UNL     1      19.097  19.701 -15.626  1.00  0.00     0.000 C 
BRANCH  18  19
ATOM     19  C   UNL     1      18.113  19.727 -16.808  1.00  0.00     0.000 C 
BRANCH  19  20
ATOM     20  C   UNL     1      18.133  21.073 -17.564  1.00  0.00     0.000 C 
BRANCH  20  21
ATOM     21  C   UNL     1      16.746  21.547 -18.041  1.00  0.00     0.000 C 
BRANCH  21  22
ATOM     22  C   UNL     1      15.580  20.593 -17.728  1.00  0.00    -0.000 C 
BRANCH  22  23
ATOM     23  C   UNL     1      14.472  20.635 -18.793  1.00  0.00    -0.000 C 
BRANCH  23  24
ATOM     24  C   UNL     1      13.567  21.860 -18.593  1.00  0.00    -0.000 C 
BRANCH  24  25
ATOM     25  C   UNL     1      12.329  21.830 -19.504  1.00  0.00    -0.000 C 
BRANCH  25  26
ATOM     26  C   UNL     1      12.434  22.824 -20.675  1.00  0.00    -0.000 C 
BRANCH  26  27
ATOM     27  C   UNL     1      13.146  22.210 -21.899  1.00  0.00    -0.000 C 
BRANCH  27  28
ATOM     28  C   UNL     1      12.443  22.503 -23.235  1.00  0.00    -0.000 C 
BRANCH  28  29
ATOM     29  C   UNL     1      13.215  21.963 -24.448  1.00  0.00    -0.003 C 
ATOM     30  C   UNL     1      14.062  23.057 -25.093  1.00  0.00     0.004 C 
ENDBRANCH  28  29
ENDBRANCH  27  28
ENDBRANCH  26  27
ENDBRANCH  25  26
ENDBRANCH  24  25
ENDBRANCH  23  24
ENDBRANCH  22  23
ENDBRANCH  21  22
ENDBRANCH  20  21
ENDBRANCH  19  20
ENDBRANCH  18  19
ENDBRANCH  17  18
ENDBRANCH   1  17
TORSDOF 26
ENDMDL
MODEL 9
REMARK VINA RESULT:    -3.557      1.373      3.742
REMARK INTER + INTRA:         -13.580
REMARK INTER:                  -9.529
REMARK INTRA:                  -4.051
REMARK UNBOUND:                -4.616
REMARK SMILES CCCCCCCCCCCCCCCCCCCCCCCCCCCC(=O)[O-]
REMARK SMILES IDX 15 1 16 2 17 3 18 4 19 5 20 6 21 7 22 8 23 9 24 10 25 11
REMARK SMILES IDX 26 12 27 13 28 14 29 15 30 16 14 17 13 18 12 19 11 20 10 21
REMARK SMILES IDX 9 22 8 23 7 24 6 25 5 26 4 27 3 28 2 29 1 30
REMARK H PARENT
REMARK Flexibility Score: inf
ROOT
ATOM      1  C   UNL     1      15.880  20.004 -18.597  1.00  0.00     0.000 C 
ENDROOT
BRANCH   1   2
ATOM      2  C   UNL     1      14.870  21.117 -18.241  1.00  0.00     0.000 C 
BRANCH   2   3
ATOM      3  C   UNL     1      13.523  21.050 -18.990  1.00  0.00     0.000 C 
BRANCH   3   4
ATOM      4  C   UNL     1      12.507  22.146 -18.611  1.00  0.00     0.000 C 
BRANCH   4   5
ATOM      5  C   UNL     1      12.027  23.009 -19.793  1.00  0.00     0.000 C 
BRANCH   5   6
ATOM      6  C   UNL     1      13.020  23.013 -20.964  1.00  0.00     0.000 C 
BRANCH   6   7
ATOM      7  C   UNL     1      12.358  22.478 -22.241  1.00  0.00     0.000 C 
BRANCH   7   8
ATOM      8  C   UNL     1      13.338  21.719 -23.154  1.00  0.00     0.000 C 
BRANCH   8   9
ATOM      9  C   UNL     1      13.708  20.299 -22.678  1.00  0.00     0.000 C 
BRANCH   9  10
ATOM     10  C   UNL     1      12.536  19.463 -22.122  1.00  0.00     0.000 C 
BRANCH  10  11
ATOM     11  C   UNL     1      12.654  17.942 -22.342  1.00  0.00     0.000 C 
BRANCH  11  12
ATOM     12  C   UNL     1      14.051  17.460 -22.772  1.00  0.00     0.006 C 
BRANCH  12  13
ATOM     13  C   UNL     1      14.372  16.051 -22.253  1.00  0.00     0.053 C 
BRANCH  13  14
ATOM     14  C   UNL     1      14.621  15.108 -23.390  1.00  0.00     0.041 C 
ATOM     15  O   UNL     1      13.677  14.421 -23.864  1.00  0.00    -0.550 OA
ATOM     16  O   UNL     1      15.897  14.985 -23.927  1.00  0.00    -0.550 OA
ENDBRANCH  13  14
ENDBRANCH  12  13
ENDBRANCH  11  12
ENDBRANCH  10  11
ENDBRANCH   9  10
ENDBRANCH   8   9
ENDBRANCH   7   8
ENDBRANCH   6   7
ENDBRANCH   5   6
ENDBRANCH   4   5
ENDBRANCH   3   4
ENDBRANCH   2   3
ENDBRANCH   1   2
BRANCH   1  17
ATOM     17  C   UNL     1      15.361  18.946 -19.590  1.00  0.00     0.000 C 
BRANCH  17  18
ATOM     18  C   UNL     1      15.411  17.521 -19.019  1.00  0.00     0.000 C 
BRANCH  18  19
ATOM     19  C   UNL     1      16.753  16.844 -19.343  1.00  0.00     0.000 C 
BRANCH  19  20
ATOM     20  C   UNL     1      17.672  16.733 -18.107  1.00  0.00     0.000 C 
BRANCH  20  21
ATOM     21  C   UNL     1      17.236  15.656 -17.094  1.00  0.00     0.000 C 
BRANCH  21  22
ATOM     22  C   UNL     1      16.358  16.158 -15.935  1.00  0.00    -0.000 C 
BRANCH  22  23
ATOM     23  C   UNL     1      17.165  16.882 -14.846  1.00  0.00    -0.000 C 
BRANCH  23  24
ATOM     24  C   UNL     1      17.143  18.403 -15.068  1.00  0.00    -0.000 C 
BRANCH  24  25
ATOM     25  C   UNL     1      18.518  19.049 -14.837  1.00  0.00    -0.000 C 
BRANCH  25  26
ATOM     26  C   UNL     1      19.224  19.421 -16.154  1.00  0.00    -0.000 C 
BRANCH  26  27
ATOM     27  C   UNL     1      20.436  18.509 -16.442  1.00  0.00    -0.000 C 
BRANCH  27  28
ATOM     28  C   UNL     1      20.796  17.572 -15.277  1.00  0.00    -0.000 C 
BRANCH  28  29
ATOM     29  C   UNL     1      21.265  16.187 -15.746  1.00  0.00    -0.003 C 
ATOM     30  C   UNL     1      20.369  15.084 -15.189  1.00  0.00     0.004 C 
ENDBRANCH  28  29
ENDBRANCH  27  28
ENDBRANCH  26  27
ENDBRANCH  25  26
ENDBRANCH  24  25
ENDBRANCH  23  24
ENDBRANCH  22  23
ENDBRANCH  21  22
ENDBRANCH  20  21
ENDBRANCH  19  20
ENDBRANCH  18  19
ENDBRANCH  17  18
ENDBRANCH   1  17
TORSDOF 26
ENDMDL
