MODEL 1
REMARK VINA RESULT:    -3.343      0.000      0.000
REMARK INTER + INTRA:         -11.861
REMARK INTER:                  -7.643
REMARK INTRA:                  -4.218
REMARK UNBOUND:                -4.218
REMARK SMILES CCCCCCCCCCCCCCCCCCCCCCCC(=O)[O-]
REMARK SMILES IDX 13 1 14 2 15 3 16 4 17 5 18 6 19 7 20 8 21 9 22 10 23 11
REMARK SMILES IDX 24 12 25 13 26 14 12 15 11 16 10 17 9 18 8 19 7 20 6 21 5 22
REMARK SMILES IDX 4 23 3 24 2 25 1 26
REMARK H PARENT
REMARK Flexibility Score: inf
ROOT
ATOM      1  C   UNL     1      30.893   0.819 -38.599  1.00  0.00     0.000 C 
ENDROOT
BRANCH   1   2
ATOM      2  C   UNL     1      29.876   1.557 -39.485  1.00  0.00     0.000 C 
BRANCH   2   3
ATOM      3  C   UNL     1      28.795   2.283 -38.667  1.00  0.00     0.000 C 
BRANCH   3   4
ATOM      4  C   UNL     1      28.466   1.568 -37.344  1.00  0.00     0.000 C 
BRANCH   4   5
ATOM      5  C   UNL     1      28.111   2.497 -36.167  1.00  0.00     0.000 C 
BRANCH   5   6
ATOM      6  C   UNL     1      29.269   3.379 -35.660  1.00  0.00     0.000 C 
BRANCH   6   7
ATOM      7  C   UNL     1      29.535   3.300 -34.143  1.00  0.00     0.000 C 
BRANCH   7   8
ATOM      8  C   UNL     1      30.955   3.700 -33.703  1.00  0.00     0.000 C 
BRANCH   8   9
ATOM      9  C   UNL     1      31.391   3.014 -32.397  1.00  0.00     0.000 C 
BRANCH   9  10
ATOM     10  C   UNL     1      32.918   2.842 -32.289  1.00  0.00     0.006 C 
BRANCH  10  11
ATOM     11  C   UNL     1      33.714   3.660 -33.323  1.00  0.00     0.053 C 
BRANCH  11  12
ATOM     12  C   UNL     1      34.336   4.889 -32.734  1.00  0.00     0.041 C 
ATOM     13  O   UNL     1      33.804   5.460 -31.745  1.00  0.00    -0.550 OA
ATOM     14  O   UNL     1      35.488   5.425 -33.298  1.00  0.00    -0.550 OA
ENDBRANCH  11  12
ENDBRANCH  10  11
ENDBRANCH   9  10
ENDBRANCH   8   9
ENDBRANCH   7   8
ENDBRANCH   6   7
ENDBRANCH   5   6
ENDBRANCH   4   5
ENDBRANCH   3   4
ENDBRANCH   2   3
ENDBRANCH   1   2
BRANCH   1  15
ATOM     15  C   UNL     1      30.928  -0.694 -38.868  1.00  0.00     0.000 C 
BRANCH  15  16
ATOM     16  C   UNL     1      32.309  -1.276 -38.530  1.00  0.00     0.000 C 
BRANCH  16  17
ATOM     17  C   UNL     1      33.188  -0.300 -37.731  1.00  0.00     0.000 C 
BRANCH  17  18
ATOM     18  C   UNL     1      33.529  -0.825 -36.326  1.00  0.00    -0.000 C 
BRANCH  18  19
ATOM     19  C   UNL     1      33.195   0.190 -35.220  1.00  0.00    -0.000 C 
BRANCH  19  20
ATOM     20  C   UNL     1      31.684   0.428 -35.068  1.00  0.00    -0.000 C 
BRANCH  20  21
ATOM     21  C   UNL     1      30.977  -0.846 -34.580  1.00  0.00    -0.000 C 
BRANCH  21  22
ATOM     22  C   UNL     1      29.726  -1.184 -35.406  1.00  0.00    -0.000 C 
BRANCH  22  23
ATOM     23  C   UNL     1      29.720  -2.641 -35.901  1.00  0.00    -0.000 C 
BRANCH  23  24
ATOM     24  C   UNL     1      30.782  -3.506 -35.203  1.00  0.00    -0.000 C 
BRANCH  24  25
ATOM     25  C   UNL     1      31.760  -4.158 -36.191  1.00  0.00    -0.003 C 
ATOM     26  C   UNL     1      31.015  -4.790 -37.364  1.00  0.00     0.004 C 
ENDBRANCH  24  25
ENDBRANCH  23  24
ENDBRANCH  22  23
ENDBRANCH  21  22
ENDBRANCH  20  21
ENDBRANCH  19  20
ENDBRANCH  18  19
ENDBRANCH  17  18
ENDBRANCH  16  17
ENDBRANCH  15  16
ENDBRANCH   1  15
TORSDOF 22
ENDMDL
MODEL 2
REMARK VINA RESULT:    -3.299      4.263      7.621
REMARK INTER + INTRA:         -11.760
REMARK INTER:                  -7.277
REMARK INTRA:                  -4.483
REMARK UNBOUND:                -4.218
REMARK SMILES CCCCCCCCCCCCCCCCCCCCCCCC(=O)[O-]
REMARK SMILES IDX 13 1 14 2 15 3 16 4 17 5 18 6 19 7 20 8 21 9 22 10 23 11
REMARK SMILES IDX 24 12 25 13 26 14 12 15 11 16 10 17 9 18 8 19 7 20 6 21 5 22
REMARK SMILES IDX 4 23 3 24 2 25 1 26
REMARK H PARENT
REMARK Flexibility Score: inf
ROOT
ATOM      1  C   UNL     1      31.256  -3.080 -35.903  1.00  0.00     0.000 C 
ENDROOT
BRANCH   1   2
ATOM      2  C   UNL     1      31.501  -4.577 -36.158  1.00  0.00     0.000 C 
BRANCH   2   3
ATOM      3  C   UNL     1      31.454  -4.938 -37.653  1.00  0.00     0.000 C 
BRANCH   3   4
ATOM      4  C   UNL     1      31.921  -3.786 -38.561  1.00  0.00     0.000 C 
BRANCH   4   5
ATOM      5  C   UNL     1      30.977  -3.449 -39.731  1.00  0.00     0.000 C 
BRANCH   5   6
ATOM      6  C   UNL     1      29.558  -4.040 -39.615  1.00  0.00     0.000 C 
BRANCH   6   7
ATOM      7  C   UNL     1      28.463  -3.034 -39.206  1.00  0.00     0.000 C 
BRANCH   7   8
ATOM      8  C   UNL     1      28.241  -2.887 -37.689  1.00  0.00     0.000 C 
BRANCH   8   9
ATOM      9  C   UNL     1      27.732  -4.181 -37.032  1.00  0.00     0.000 C 
BRANCH   9  10
ATOM     10  C   UNL     1      26.780  -3.921 -35.850  1.00  0.00     0.006 C 
BRANCH  10  11
ATOM     11  C   UNL     1      25.437  -3.285 -36.256  1.00  0.00     0.053 C 
BRANCH  11  12
ATOM     12  C   UNL     1      24.539  -3.031 -35.084  1.00  0.00     0.041 C 
ATOM     13  O   UNL     1      24.073  -1.879 -34.877  1.00  0.00    -0.550 OA
ATOM     14  O   UNL     1      24.240  -4.060 -34.200  1.00  0.00    -0.550 OA
ENDBRANCH  11  12
ENDBRANCH  10  11
ENDBRANCH   9  10
ENDBRANCH   8   9
ENDBRANCH   7   8
ENDBRANCH   6   7
ENDBRANCH   5   6
ENDBRANCH   4   5
ENDBRANCH   3   4
ENDBRANCH   2   3
ENDBRANCH   1   2
BRANCH   1  15
ATOM     15  C   UNL     1      31.755  -2.623 -34.523  1.00  0.00     0.000 C 
BRANCH  15  16
ATOM     16  C   UNL     1      32.878  -1.585 -34.667  1.00  0.00     0.000 C 
BRANCH  16  17
ATOM     17  C   UNL     1      33.529  -1.599 -36.059  1.00  0.00     0.000 C 
BRANCH  17  18
ATOM     18  C   UNL     1      33.512  -0.216 -36.734  1.00  0.00    -0.000 C 
BRANCH  18  19
ATOM     19  C   UNL     1      33.049  -0.280 -38.199  1.00  0.00    -0.000 C 
BRANCH  19  20
ATOM     20  C   UNL     1      31.525  -0.141 -38.347  1.00  0.00    -0.000 C 
BRANCH  20  21
ATOM     21  C   UNL     1      30.970   0.885 -37.347  1.00  0.00    -0.000 C 
BRANCH  21  22
ATOM     22  C   UNL     1      29.833   0.317 -36.483  1.00  0.00    -0.000 C 
BRANCH  22  23
ATOM     23  C   UNL     1      29.990   0.669 -34.993  1.00  0.00    -0.000 C 
BRANCH  23  24
ATOM     24  C   UNL     1      30.905   1.884 -34.767  1.00  0.00    -0.000 C 
BRANCH  24  25
ATOM     25  C   UNL     1      31.722   1.779 -33.471  1.00  0.00    -0.003 C 
ATOM     26  C   UNL     1      33.211   1.969 -33.744  1.00  0.00     0.004 C 
ENDBRANCH  24  25
ENDBRANCH  23  24
ENDBRANCH  22  23
ENDBRANCH  21  22
ENDBRANCH  20  21
ENDBRANCH  19  20
ENDBRANCH  18  19
ENDBRANCH  17  18
ENDBRANCH  16  17
ENDBRANCH  15  16
ENDBRANCH   1  15
TORSDOF 22
ENDMDL
MODEL 3
REMARK VINA RESULT:    -3.283      4.716      7.018
REMARK INTER + INTRA:         -11.724
REMARK INTER:                  -7.508
REMARK INTRA:                  -4.217
REMARK UNBOUND:                -4.218
REMARK SMILES CCCCCCCCCCCCCCCCCCCCCCCC(=O)[O-]
REMARK SMILES IDX 13 1 14 2 15 3 16 4 17 5 18 6 19 7 20 8 21 9 22 10 23 11
REMARK SMILES IDX 24 12 25 13 26 14 12 15 11 16 10 17 9 18 8 19 7 20 6 21 5 22
REMARK SMILES IDX 4 23 3 24 2 25 1 26
REMARK H PARENT
REMARK Flexibility Score: inf
ROOT
ATOM      1  C   UNL     1      33.126  -0.254 -38.037  1.00  0.00     0.000 C 
ENDROOT
BRANCH   1   2
ATOM      2  C   UNL     1      31.768   0.366 -38.403  1.00  0.00     0.000 C 
BRANCH   2   3
ATOM      3  C   UNL     1      30.584  -0.550 -38.046  1.00  0.00     0.000 C 
BRANCH   3   4
ATOM      4  C   UNL     1      30.299  -1.607 -39.129  1.00  0.00     0.000 C 
BRANCH   4   5
ATOM      5  C   UNL     1      28.834  -2.078 -39.217  1.00  0.00     0.000 C 
BRANCH   5   6
ATOM      6  C   UNL     1      27.876  -1.420 -38.204  1.00  0.00     0.000 C 
BRANCH   6   7
ATOM      7  C   UNL     1      27.253  -2.383 -37.174  1.00  0.00     0.000 C 
BRANCH   7   8
ATOM      8  C   UNL     1      27.516  -3.879 -37.430  1.00  0.00     0.000 C 
BRANCH   8   9
ATOM      9  C   UNL     1      26.870  -4.788 -36.372  1.00  0.00     0.000 C 
BRANCH   9  10
ATOM     10  C   UNL     1      25.706  -4.108 -35.626  1.00  0.00     0.006 C 
BRANCH  10  11
ATOM     11  C   UNL     1      25.818  -4.182 -34.091  1.00  0.00     0.053 C 
BRANCH  11  12
ATOM     12  C   UNL     1      24.526  -4.562 -33.435  1.00  0.00     0.041 C 
ATOM     13  O   UNL     1      23.466  -3.939 -33.707  1.00  0.00    -0.550 OA
ATOM     14  O   UNL     1      24.498  -5.587 -32.496  1.00  0.00    -0.550 OA
ENDBRANCH  11  12
ENDBRANCH  10  11
ENDBRANCH   9  10
ENDBRANCH   8   9
ENDBRANCH   7   8
ENDBRANCH   6   7
ENDBRANCH   5   6
ENDBRANCH   4   5
ENDBRANCH   3   4
ENDBRANCH   2   3
ENDBRANCH   1   2
BRANCH   1  15
ATOM     15  C   UNL     1      33.121  -0.922 -36.653  1.00  0.00     0.000 C 
BRANCH  15  16
ATOM     16  C   UNL     1      33.564   0.071 -35.567  1.00  0.00     0.000 C 
BRANCH  16  17
ATOM     17  C   UNL     1      32.597   0.121 -34.374  1.00  0.00     0.000 C 
BRANCH  17  18
ATOM     18  C   UNL     1      31.314   0.911 -34.684  1.00  0.00    -0.000 C 
BRANCH  18  19
ATOM     19  C   UNL     1      30.041   0.072 -34.486  1.00  0.00    -0.000 C 
BRANCH  19  20
ATOM     20  C   UNL     1      30.317  -1.268 -33.785  1.00  0.00    -0.000 C 
BRANCH  20  21
ATOM     21  C   UNL     1      29.379  -2.364 -34.315  1.00  0.00    -0.000 C 
BRANCH  21  22
ATOM     22  C   UNL     1      30.132  -3.633 -34.747  1.00  0.00    -0.000 C 
BRANCH  22  23
ATOM     23  C   UNL     1      30.997  -3.410 -35.999  1.00  0.00    -0.000 C 
BRANCH  23  24
ATOM     24  C   UNL     1      31.091  -4.666 -36.882  1.00  0.00    -0.000 C 
BRANCH  24  25
ATOM     25  C   UNL     1      32.505  -4.896 -37.436  1.00  0.00    -0.003 C 
ATOM     26  C   UNL     1      32.620  -4.395 -38.873  1.00  0.00     0.004 C 
ENDBRANCH  24  25
ENDBRANCH  23  24
ENDBRANCH  22  23
ENDBRANCH  21  22
ENDBRANCH  20  21
ENDBRANCH  19  20
ENDBRANCH  18  19
ENDBRANCH  17  18
ENDBRANCH  16  17
ENDBRANCH  15  16
ENDBRANCH   1  15
TORSDOF 22
ENDMDL
MODEL 4
REMARK VINA RESULT:    -3.272      5.740      8.115
REMARK INTER + INTRA:         -11.700
REMARK INTER:                  -8.278
REMARK INTRA:                  -3.421
REMARK UNBOUND:                -4.218
REMARK SMILES CCCCCCCCCCCCCCCCCCCCCCCC(=O)[O-]
REMARK SMILES IDX 13 1 14 2 15 3 16 4 17 5 18 6 19 7 20 8 21 9 22 10 23 11
REMARK SMILES IDX 24 12 25 13 26 14 12 15 11 16 10 17 9 18 8 19 7 20 6 21 5 22
REMARK SMILES IDX 4 23 3 24 2 25 1 26
REMARK H PARENT
REMARK Flexibility Score: inf
ROOT
ATOM      1  C   UNL     1      30.469  -2.941 -39.404  1.00  0.00     0.000 C 
ENDROOT
BRANCH   1   2
ATOM      2  C   UNL     1      28.959  -3.150 -39.208  1.00  0.00     0.000 C 
BRANCH   2   3
ATOM      3  C   UNL     1      28.632  -3.954 -37.938  1.00  0.00     0.000 C 
BRANCH   3   4
ATOM      4  C   UNL     1      27.431  -3.382 -37.162  1.00  0.00     0.000 C 
BRANCH   4   5
ATOM      5  C   UNL     1      27.352  -3.795 -35.679  1.00  0.00     0.000 C 
BRANCH   5   6
ATOM      6  C   UNL     1      26.384  -4.955 -35.376  1.00  0.00     0.000 C 
BRANCH   6   7
ATOM      7  C   UNL     1      25.803  -4.965 -33.947  1.00  0.00     0.000 C 
BRANCH   7   8
ATOM      8  C   UNL     1      24.497  -4.169 -33.764  1.00  0.00     0.000 C 
BRANCH   8   9
ATOM      9  C   UNL     1      23.828  -4.426 -32.404  1.00  0.00     0.000 C 
BRANCH   9  10
ATOM     10  C   UNL     1      24.734  -5.196 -31.424  1.00  0.00     0.006 C 
BRANCH  10  11
ATOM     11  C   UNL     1      23.978  -6.182 -30.515  1.00  0.00     0.053 C 
BRANCH  11  12
ATOM     12  C   UNL     1      24.751  -6.545 -29.284  1.00  0.00     0.041 C 
ATOM     13  O   UNL     1      25.228  -5.644 -28.544  1.00  0.00    -0.550 OA
ATOM     14  O   UNL     1      24.974  -7.880 -28.971  1.00  0.00    -0.550 OA
ENDBRANCH  11  12
ENDBRANCH  10  11
ENDBRANCH   9  10
ENDBRANCH   8   9
ENDBRANCH   7   8
ENDBRANCH   6   7
ENDBRANCH   5   6
ENDBRANCH   4   5
ENDBRANCH   3   4
ENDBRANCH   2   3
ENDBRANCH   1   2
BRANCH   1  15
ATOM     15  C   UNL     1      31.306  -3.549 -38.267  1.00  0.00     0.000 C 
BRANCH  15  16
ATOM     16  C   UNL     1      32.553  -2.695 -37.992  1.00  0.00     0.000 C 
BRANCH  16  17
ATOM     17  C   UNL     1      32.669  -1.487 -38.935  1.00  0.00     0.000 C 
BRANCH  17  18
ATOM     18  C   UNL     1      32.657  -0.145 -38.181  1.00  0.00    -0.000 C 
BRANCH  18  19
ATOM     19  C   UNL     1      31.355   0.642 -38.400  1.00  0.00    -0.000 C 
BRANCH  19  20
ATOM     20  C   UNL     1      30.544   0.820 -37.106  1.00  0.00    -0.000 C 
BRANCH  20  21
ATOM     21  C   UNL     1      29.769  -0.462 -36.766  1.00  0.00    -0.000 C 
BRANCH  21  22
ATOM     22  C   UNL     1      29.677  -0.718 -35.253  1.00  0.00    -0.000 C 
BRANCH  22  23
ATOM     23  C   UNL     1      30.479  -1.954 -34.812  1.00  0.00    -0.000 C 
BRANCH  23  24
ATOM     24  C   UNL     1      31.984  -1.665 -34.681  1.00  0.00    -0.000 C 
BRANCH  24  25
ATOM     25  C   UNL     1      32.276  -0.384 -33.885  1.00  0.00    -0.003 C 
ATOM     26  C   UNL     1      33.264   0.511 -34.628  1.00  0.00     0.004 C 
ENDBRANCH  24  25
ENDBRANCH  23  24
ENDBRANCH  22  23
ENDBRANCH  21  22
ENDBRANCH  20  21
ENDBRANCH  19  20
ENDBRANCH  18  19
ENDBRANCH  17  18
ENDBRANCH  16  17
ENDBRANCH  15  16
ENDBRANCH   1  15
TORSDOF 22
ENDMDL
MODEL 5
REMARK VINA RESULT:    -3.245      4.044      6.635
REMARK INTER + INTRA:         -11.637
REMARK INTER:                  -7.154
REMARK INTRA:                  -4.483
REMARK UNBOUND:                -4.218
REMARK SMILES CCCCCCCCCCCCCCCCCCCCCCCC(=O)[O-]
REMARK SMILES IDX 13 1 14 2 15 3 16 4 17 5 18 6 19 7 20 8 21 9 22 10 23 11
REMARK SMILES IDX 24 12 25 13 26 14 12 15 11 16 10 17 9 18 8 19 7 20 6 21 5 22
REMARK SMILES IDX 4 23 3 24 2 25 1 26
REMARK H PARENT
REMARK Flexibility Score: inf
ROOT
ATOM      1  C   UNL     1      31.973   0.336 -35.676  1.00  0.00     0.000 C 
ENDROOT
BRANCH   1   2
ATOM      2  C   UNL     1      30.652  -0.449 -35.727  1.00  0.00     0.000 C 
BRANCH   2   3
ATOM      3  C   UNL     1      29.432   0.459 -35.960  1.00  0.00     0.000 C 
BRANCH   3   4
ATOM      4  C   UNL     1      29.734   1.632 -36.910  1.00  0.00     0.000 C 
BRANCH   4   5
ATOM      5  C   UNL     1      29.070   1.538 -38.298  1.00  0.00     0.000 C 
BRANCH   5   6
ATOM      6  C   UNL     1      29.652   0.454 -39.227  1.00  0.00     0.000 C 
BRANCH   6   7
ATOM      7  C   UNL     1      28.691  -0.704 -39.560  1.00  0.00     0.000 C 
BRANCH   7   8
ATOM      8  C   UNL     1      28.872  -1.974 -38.707  1.00  0.00     0.000 C 
BRANCH   8   9
ATOM      9  C   UNL     1      27.639  -2.294 -37.846  1.00  0.00     0.000 C 
BRANCH   9  10
ATOM     10  C   UNL     1      27.584  -3.768 -37.401  1.00  0.00     0.006 C 
BRANCH  10  11
ATOM     11  C   UNL     1      26.340  -4.123 -36.564  1.00  0.00     0.053 C 
BRANCH  11  12
ATOM     12  C   UNL     1      26.666  -4.383 -35.125  1.00  0.00     0.041 C 
ATOM     13  O   UNL     1      27.411  -3.591 -34.488  1.00  0.00    -0.550 OA
ATOM     14  O   UNL     1      26.172  -5.518 -34.493  1.00  0.00    -0.550 OA
ENDBRANCH  11  12
ENDBRANCH  10  11
ENDBRANCH   9  10
ENDBRANCH   8   9
ENDBRANCH   7   8
ENDBRANCH   6   7
ENDBRANCH   5   6
ENDBRANCH   4   5
ENDBRANCH   3   4
ENDBRANCH   2   3
ENDBRANCH   1   2
BRANCH   1  15
ATOM     15  C   UNL     1      33.122  -0.386 -36.397  1.00  0.00     0.000 C 
BRANCH  15  16
ATOM     16  C   UNL     1      33.009  -0.206 -37.918  1.00  0.00     0.000 C 
BRANCH  16  17
ATOM     17  C   UNL     1      32.697  -1.520 -38.653  1.00  0.00     0.000 C 
BRANCH  17  18
ATOM     18  C   UNL     1      32.909  -2.758 -37.765  1.00  0.00    -0.000 C 
BRANCH  18  19
ATOM     19  C   UNL     1      31.861  -3.854 -38.022  1.00  0.00    -0.000 C 
BRANCH  19  20
ATOM     20  C   UNL     1      31.493  -4.635 -36.750  1.00  0.00    -0.000 C 
BRANCH  20  21
ATOM     21  C   UNL     1      30.731  -3.740 -35.761  1.00  0.00    -0.000 C 
BRANCH  21  22
ATOM     22  C   UNL     1      31.195  -3.930 -34.308  1.00  0.00    -0.000 C 
BRANCH  22  23
ATOM     23  C   UNL     1      32.705  -4.201 -34.200  1.00  0.00    -0.000 C 
BRANCH  23  24
ATOM     24  C   UNL     1      33.498  -2.959 -33.760  1.00  0.00    -0.000 C 
BRANCH  24  25
ATOM     25  C   UNL     1      32.655  -1.981 -32.928  1.00  0.00    -0.003 C 
ATOM     26  C   UNL     1      32.971  -2.113 -31.441  1.00  0.00     0.004 C 
ENDBRANCH  24  25
ENDBRANCH  23  24
ENDBRANCH  22  23
ENDBRANCH  21  22
ENDBRANCH  20  21
ENDBRANCH  19  20
ENDBRANCH  18  19
ENDBRANCH  17  18
ENDBRANCH  16  17
ENDBRANCH  15  16
ENDBRANCH   1  15
TORSDOF 22
ENDMDL
MODEL 6
REMARK VINA RESULT:    -3.228      3.853      7.107
REMARK INTER + INTRA:         -11.598
REMARK INTER:                  -6.689
REMARK INTRA:                  -4.909
REMARK UNBOUND:                -4.218
REMARK SMILES CCCCCCCCCCCCCCCCCCCCCCCC(=O)[O-]
REMARK SMILES IDX 13 1 14 2 15 3 16 4 17 5 18 6 19 7 20 8 21 9 22 10 23 11
REMARK SMILES IDX 24 12 25 13 26 14 12 15 11 16 10 17 9 18 8 19 7 20 6 21 5 22
REMARK SMILES IDX 4 23 3 24 2 25 1 26
REMARK H PARENT
REMARK Flexibility Score: inf
ROOT
ATOM      1  C   UNL     1      32.555  -3.137 -38.126  1.00  0.00     0.000 C 
ENDROOT
BRANCH   1   2
ATOM      2  C   UNL     1      33.538  -2.770 -37.002  1.00  0.00     0.000 C 
BRANCH   2   3
ATOM      3  C   UNL     1      33.249  -3.525 -35.693  1.00  0.00     0.000 C 
BRANCH   3   4
ATOM      4  C   UNL     1      33.159  -2.591 -34.472  1.00  0.00     0.000 C 
BRANCH   4   5
ATOM      5  C   UNL     1      32.816  -1.123 -34.794  1.00  0.00     0.000 C 
BRANCH   5   6
ATOM      6  C   UNL     1      31.529  -0.593 -34.131  1.00  0.00     0.000 C 
BRANCH   6   7
ATOM      7  C   UNL     1      30.272  -1.456 -34.363  1.00  0.00     0.000 C 
BRANCH   7   8
ATOM      8  C   UNL     1      29.865  -1.641 -35.837  1.00  0.00     0.000 C 
BRANCH   8   9
ATOM      9  C   UNL     1      29.525  -3.100 -36.183  1.00  0.00     0.000 C 
BRANCH   9  10
ATOM     10  C   UNL     1      28.756  -3.239 -37.511  1.00  0.00     0.006 C 
BRANCH  10  11
ATOM     11  C   UNL     1      27.344  -2.625 -37.483  1.00  0.00     0.053 C 
BRANCH  11  12
ATOM     12  C   UNL     1      26.442  -3.292 -36.491  1.00  0.00     0.041 C 
ATOM     13  O   UNL     1      26.221  -4.529 -36.563  1.00  0.00    -0.550 OA
ATOM     14  O   UNL     1      25.818  -2.540 -35.502  1.00  0.00    -0.550 OA
ENDBRANCH  11  12
ENDBRANCH  10  11
ENDBRANCH   9  10
ENDBRANCH   8   9
ENDBRANCH   7   8
ENDBRANCH   6   7
ENDBRANCH   5   6
ENDBRANCH   4   5
ENDBRANCH   3   4
ENDBRANCH   2   3
ENDBRANCH   1   2
BRANCH   1  15
ATOM     15  C   UNL     1      32.123  -1.920 -38.959  1.00  0.00     0.000 C 
BRANCH  15  16
ATOM     16  C   UNL     1      32.856  -0.652 -38.493  1.00  0.00     0.000 C 
BRANCH  16  17
ATOM     17  C   UNL     1      31.895   0.480 -38.097  1.00  0.00     0.000 C 
BRANCH  17  18
ATOM     18  C   UNL     1      30.522   0.357 -38.781  1.00  0.00    -0.000 C 
BRANCH  18  19
ATOM     19  C   UNL     1      30.170   1.594 -39.623  1.00  0.00    -0.000 C 
BRANCH  19  20
ATOM     20  C   UNL     1      28.740   2.097 -39.372  1.00  0.00    -0.000 C 
BRANCH  20  21
ATOM     21  C   UNL     1      27.816   0.938 -38.971  1.00  0.00    -0.000 C 
BRANCH  21  22
ATOM     22  C   UNL     1      26.962   1.258 -37.733  1.00  0.00    -0.000 C 
BRANCH  22  23
ATOM     23  C   UNL     1      27.717   1.013 -36.415  1.00  0.00    -0.000 C 
BRANCH  23  24
ATOM     24  C   UNL     1      28.254   2.311 -35.791  1.00  0.00    -0.000 C 
BRANCH  24  25
ATOM     25  C   UNL     1      29.788   2.351 -35.733  1.00  0.00    -0.003 C 
ATOM     26  C   UNL     1      30.272   2.983 -34.431  1.00  0.00     0.004 C 
ENDBRANCH  24  25
ENDBRANCH  23  24
ENDBRANCH  22  23
ENDBRANCH  21  22
ENDBRANCH  20  21
ENDBRANCH  19  20
ENDBRANCH  18  19
ENDBRANCH  17  18
ENDBRANCH  16  17
ENDBRANCH  15  16
ENDBRANCH   1  15
TORSDOF 22
ENDMDL
MODEL 7
REMARK VINA RESULT:    -3.206      5.027      8.032
REMARK INTER + INTRA:         -11.548
REMARK INTER:                  -7.910
REMARK INTRA:                  -3.638
REMARK UNBOUND:                -4.218
REMARK SMILES CCCCCCCCCCCCCCCCCCCCCCCC(=O)[O-]
REMARK SMILES IDX 13 1 14 2 15 3 16 4 17 5 18 6 19 7 20 8 21 9 22 10 23 11
REMARK SMILES IDX 24 12 25 13 26 14 12 15 11 16 10 17 9 18 8 19 7 20 6 21 5 22
REMARK SMILES IDX 4 23 3 24 2 25 1 26
REMARK H PARENT
REMARK Flexibility Score: inf
ROOT
ATOM      1  C   UNL     1      29.703  -1.003 -34.162  1.00  0.00     0.000 C 
ENDROOT
BRANCH   1   2
ATOM      2  C   UNL     1      29.991  -1.770 -35.463  1.00  0.00     0.000 C 
BRANCH   2   3
ATOM      3  C   UNL     1      29.742  -3.282 -35.326  1.00  0.00     0.000 C 
BRANCH   3   4
ATOM      4  C   UNL     1      30.093  -4.064 -36.605  1.00  0.00     0.000 C 
BRANCH   4   5
ATOM      5  C   UNL     1      28.900  -4.380 -37.528  1.00  0.00     0.000 C 
BRANCH   5   6
ATOM      6  C   UNL     1      27.564  -3.733 -37.112  1.00  0.00     0.000 C 
BRANCH   6   7
ATOM      7  C   UNL     1      26.566  -4.684 -36.420  1.00  0.00     0.000 C 
BRANCH   7   8
ATOM      8  C   UNL     1      25.849  -4.101 -35.188  1.00  0.00     0.000 C 
BRANCH   8   9
ATOM      9  C   UNL     1      26.016  -4.973 -33.932  1.00  0.00     0.000 C 
BRANCH   9  10
ATOM     10  C   UNL     1      24.712  -5.119 -33.125  1.00  0.00     0.006 C 
BRANCH  10  11
ATOM     11  C   UNL     1      24.755  -4.446 -31.740  1.00  0.00     0.053 C 
BRANCH  11  12
ATOM     12  C   UNL     1      24.692  -5.433 -30.614  1.00  0.00     0.041 C 
ATOM     13  O   UNL     1      23.643  -6.099 -30.410  1.00  0.00    -0.550 OA
ATOM     14  O   UNL     1      25.783  -5.595 -29.769  1.00  0.00    -0.550 OA
ENDBRANCH  11  12
ENDBRANCH  10  11
ENDBRANCH   9  10
ENDBRANCH   8   9
ENDBRANCH   7   8
ENDBRANCH   6   7
ENDBRANCH   5   6
ENDBRANCH   4   5
ENDBRANCH   3   4
ENDBRANCH   2   3
ENDBRANCH   1   2
BRANCH   1  15
ATOM     15  C   UNL     1      30.888  -0.135 -33.710  1.00  0.00     0.000 C 
BRANCH  15  16
ATOM     16  C   UNL     1      32.219  -0.737 -34.187  1.00  0.00     0.000 C 
BRANCH  16  17
ATOM     17  C   UNL     1      33.075   0.262 -34.981  1.00  0.00     0.000 C 
BRANCH  17  18
ATOM     18  C   UNL     1      33.625  -0.338 -36.287  1.00  0.00    -0.000 C 
BRANCH  18  19
ATOM     19  C   UNL     1      33.476  -1.867 -36.342  1.00  0.00    -0.000 C 
BRANCH  19  20
ATOM     20  C   UNL     1      33.074  -2.375 -37.736  1.00  0.00    -0.000 C 
BRANCH  20  21
ATOM     21  C   UNL     1      32.487  -1.237 -38.584  1.00  0.00    -0.000 C 
BRANCH  21  22
ATOM     22  C   UNL     1      31.028  -1.494 -38.996  1.00  0.00    -0.000 C 
BRANCH  22  23
ATOM     23  C   UNL     1      30.151  -0.235 -38.882  1.00  0.00    -0.000 C 
BRANCH  23  24
ATOM     24  C   UNL     1      30.816   0.875 -38.052  1.00  0.00    -0.000 C 
BRANCH  24  25
ATOM     25  C   UNL     1      29.870   1.482 -37.005  1.00  0.00    -0.003 C 
ATOM     26  C   UNL     1      28.416   1.127 -37.310  1.00  0.00     0.004 C 
ENDBRANCH  24  25
ENDBRANCH  23  24
ENDBRANCH  22  23
ENDBRANCH  21  22
ENDBRANCH  20  21
ENDBRANCH  19  20
ENDBRANCH  18  19
ENDBRANCH  17  18
ENDBRANCH  16  17
ENDBRANCH  15  16
ENDBRANCH   1  15
TORSDOF 22
ENDMDL
MODEL 8
REMARK VINA RESULT:    -3.180      4.307      6.807
REMARK INTER + INTRA:         -11.489
REMARK INTER:                  -7.113
REMARK INTRA:                  -4.377
REMARK UNBOUND:                -4.218
REMARK SMILES CCCCCCCCCCCCCCCCCCCCCCCC(=O)[O-]
REMARK SMILES IDX 13 1 14 2 15 3 16 4 17 5 18 6 19 7 20 8 21 9 22 10 23 11
REMARK SMILES IDX 24 12 25 13 26 14 12 15 11 16 10 17 9 18 8 19 7 20 6 21 5 22
REMARK SMILES IDX 4 23 3 24 2 25 1 26
REMARK H PARENT
REMARK Flexibility Score: inf
ROOT
ATOM      1  C   UNL     1      28.427   1.318 -37.911  1.00  0.00     0.000 C 
ENDROOT
BRANCH   1   2
ATOM      2  C   UNL     1      29.505   0.891 -38.920  1.00  0.00     0.000 C 
BRANCH   2   3
ATOM      3  C   UNL     1      29.255  -0.513 -39.497  1.00  0.00     0.000 C 
BRANCH   3   4
ATOM      4  C   UNL     1      27.901  -1.104 -39.063  1.00  0.00     0.000 C 
BRANCH   4   5
ATOM      5  C   UNL     1      27.965  -2.526 -38.472  1.00  0.00     0.000 C 
BRANCH   5   6
ATOM      6  C   UNL     1      27.289  -2.691 -37.096  1.00  0.00     0.000 C 
BRANCH   6   7
ATOM      7  C   UNL     1      27.699  -3.955 -36.315  1.00  0.00     0.000 C 
BRANCH   7   8
ATOM      8  C   UNL     1      28.352  -3.697 -34.944  1.00  0.00     0.000 C 
BRANCH   8   9
ATOM      9  C   UNL     1      27.444  -4.091 -33.767  1.00  0.00     0.000 C 
BRANCH   9  10
ATOM     10  C   UNL     1      26.275  -5.000 -34.189  1.00  0.00     0.006 C 
BRANCH  10  11
ATOM     11  C   UNL     1      24.894  -4.502 -33.722  1.00  0.00     0.053 C 
BRANCH  11  12
ATOM     12  C   UNL     1      24.449  -3.267 -34.445  1.00  0.00     0.041 C 
ATOM     13  O   UNL     1      24.003  -3.344 -35.620  1.00  0.00    -0.550 OA
ATOM     14  O   UNL     1      24.557  -2.025 -33.831  1.00  0.00    -0.550 OA
ENDBRANCH  11  12
ENDBRANCH  10  11
ENDBRANCH   9  10
ENDBRANCH   8   9
ENDBRANCH   7   8
ENDBRANCH   6   7
ENDBRANCH   5   6
ENDBRANCH   4   5
ENDBRANCH   3   4
ENDBRANCH   2   3
ENDBRANCH   1   2
BRANCH   1  15
ATOM     15  C   UNL     1      29.003   1.626 -36.520  1.00  0.00     0.000 C 
BRANCH  15  16
ATOM     16  C   UNL     1      28.839   0.420 -35.583  1.00  0.00     0.000 C 
BRANCH  16  17
ATOM     17  C   UNL     1      30.102  -0.453 -35.507  1.00  0.00     0.000 C 
BRANCH  17  18
ATOM     18  C   UNL     1      31.386   0.378 -35.337  1.00  0.00    -0.000 C 
BRANCH  18  19
ATOM     19  C   UNL     1      32.645  -0.497 -35.228  1.00  0.00    -0.000 C 
BRANCH  19  20
ATOM     20  C   UNL     1      33.602  -0.313 -36.417  1.00  0.00    -0.000 C 
BRANCH  20  21
ATOM     21  C   UNL     1      32.821  -0.004 -37.703  1.00  0.00    -0.000 C 
BRANCH  21  22
ATOM     22  C   UNL     1      32.852  -1.165 -38.711  1.00  0.00    -0.000 C 
BRANCH  22  23
ATOM     23  C   UNL     1      32.843  -2.543 -38.026  1.00  0.00    -0.000 C 
BRANCH  23  24
ATOM     24  C   UNL     1      31.421  -3.085 -37.807  1.00  0.00    -0.000 C 
BRANCH  24  25
ATOM     25  C   UNL     1      31.401  -4.387 -36.993  1.00  0.00    -0.003 C 
ATOM     26  C   UNL     1      31.976  -4.169 -35.595  1.00  0.00     0.004 C 
ENDBRANCH  24  25
ENDBRANCH  23  24
ENDBRANCH  22  23
ENDBRANCH  21  22
ENDBRANCH  20  21
ENDBRANCH  19  20
ENDBRANCH  18  19
ENDBRANCH  17  18
ENDBRANCH  16  17
ENDBRANCH  15  16
ENDBRANCH   1  15
TORSDOF 22
ENDMDL
MODEL 9
REMARK VINA RESULT:    -3.163      4.684      7.076
REMARK INTER + INTRA:         -11.450
REMARK INTER:                  -6.750
REMARK INTRA:                  -4.700
REMARK UNBOUND:                -4.218
REMARK SMILES CCCCCCCCCCCCCCCCCCCCCCCC(=O)[O-]
REMARK SMILES IDX 13 1 14 2 15 3 16 4 17 5 18 6 19 7 20 8 21 9 22 10 23 11
REMARK SMILES IDX 24 12 25 13 26 14 12 15 11 16 10 17 9 18 8 19 7 20 6 21 5 22
REMARK SMILES IDX 4 23 3 24 2 25 1 26
REMARK H PARENT
REMARK Flexibility Score: inf
ROOT
ATOM      1  C   UNL     1      28.735  -3.984 -37.744  1.00  0.00     0.000 C 
ENDROOT
BRANCH   1   2
ATOM      2  C   UNL     1      28.378  -3.012 -38.880  1.00  0.00     0.000 C 
BRANCH   2   3
ATOM      3  C   UNL     1      28.837  -1.572 -38.594  1.00  0.00     0.000 C 
BRANCH   3   4
ATOM      4  C   UNL     1      28.377  -0.573 -39.671  1.00  0.00     0.000 C 
BRANCH   4   5
ATOM      5  C   UNL     1      27.980   0.821 -39.146  1.00  0.00     0.000 C 
BRANCH   5   6
ATOM      6  C   UNL     1      27.353   0.833 -37.738  1.00  0.00     0.000 C 
BRANCH   6   7
ATOM      7  C   UNL     1      25.813   0.777 -37.708  1.00  0.00     0.000 C 
BRANCH   7   8
ATOM      8  C   UNL     1      25.211  -0.623 -37.484  1.00  0.00     0.000 C 
BRANCH   8   9
ATOM      9  C   UNL     1      25.943  -1.419 -36.392  1.00  0.00     0.000 C 
BRANCH   9  10
ATOM     10  C   UNL     1      25.492  -2.890 -36.316  1.00  0.00     0.006 C 
BRANCH  10  11
ATOM     11  C   UNL     1      24.011  -3.072 -35.935  1.00  0.00     0.053 C 
BRANCH  11  12
ATOM     12  C   UNL     1      23.790  -3.072 -34.453  1.00  0.00     0.041 C 
ATOM     13  O   UNL     1      23.895  -4.140 -33.794  1.00  0.00    -0.550 OA
ATOM     14  O   UNL     1      23.436  -1.896 -33.802  1.00  0.00    -0.550 OA
ENDBRANCH  11  12
ENDBRANCH  10  11
ENDBRANCH   9  10
ENDBRANCH   8   9
ENDBRANCH   7   8
ENDBRANCH   6   7
ENDBRANCH   5   6
ENDBRANCH   4   5
ENDBRANCH   3   4
ENDBRANCH   2   3
ENDBRANCH   1   2
BRANCH   1  15
ATOM     15  C   UNL     1      29.428  -5.259 -38.249  1.00  0.00     0.000 C 
BRANCH  15  16
ATOM     16  C   UNL     1      30.911  -5.269 -37.846  1.00  0.00     0.000 C 
BRANCH  16  17
ATOM     17  C   UNL     1      31.213  -4.339 -36.660  1.00  0.00     0.000 C 
BRANCH  17  18
ATOM     18  C   UNL     1      32.420  -3.420 -36.921  1.00  0.00    -0.000 C 
BRANCH  18  19
ATOM     19  C   UNL     1      32.746  -3.287 -38.417  1.00  0.00    -0.000 C 
BRANCH  19  20
ATOM     20  C   UNL     1      32.338  -1.922 -38.995  1.00  0.00    -0.000 C 
BRANCH  20  21
ATOM     21  C   UNL     1      32.719  -0.786 -38.034  1.00  0.00    -0.000 C 
BRANCH  21  22
ATOM     22  C   UNL     1      31.909   0.497 -38.280  1.00  0.00    -0.000 C 
BRANCH  22  23
ATOM     23  C   UNL     1      31.054   0.899 -37.066  1.00  0.00    -0.000 C 
BRANCH  23  24
ATOM     24  C   UNL     1      31.052  -0.174 -35.965  1.00  0.00    -0.000 C 
BRANCH  24  25
ATOM     25  C   UNL     1      29.721  -0.240 -35.202  1.00  0.00    -0.003 C 
ATOM     26  C   UNL     1      29.349  -1.682 -34.870  1.00  0.00     0.004 C 
ENDBRANCH  24  25
ENDBRANCH  23  24
ENDBRANCH  22  23
ENDBRANCH  21  22
ENDBRANCH  20  21
ENDBRANCH  19  20
ENDBRANCH  18  19
ENDBRANCH  17  18
ENDBRANCH  16  17
ENDBRANCH  15  16
ENDBRANCH   1  15
TORSDOF 22
ENDMDL
