MODEL 1
REMARK VINA RESULT:    -8.657      0.000      0.000
REMARK INTER + INTRA:         -10.365
REMARK INTER:                 -10.428
REMARK INTRA:                   0.063
REMARK UNBOUND:                 0.063
REMARK SMILES O=c1c(O)c(-c2ccc(O)c(O)c2)oc2cc(O)cc(O)c12
REMARK SMILES IDX 5 1 3 2 2 3 1 4 22 5 20 6 19 7 17 8 16 9 15 10 14 11 6 12
REMARK SMILES IDX 7 13 8 14 9 15 13 16 11 17 10 18 12 20 4 22 21 24 18 26
REMARK H PARENT 10 19 12 21 4 23 21 25 18 27
REMARK Flexibility Score: inf
ROOT
ATOM      1  C   UNL     1     -15.057 -30.967 -13.678  1.00  0.00     0.180 A 
ATOM      2  C   UNL     1     -15.175 -31.585 -12.420  1.00  0.00     0.208 A 
ATOM      3  C   UNL     1     -15.136 -32.986 -12.344  1.00  0.00     0.238 A 
ATOM      4  O   UNL     1     -15.188 -33.531 -11.211  1.00  0.00    -0.285 OA
ATOM      5  C   UNL     1     -14.997 -33.752 -13.526  1.00  0.00     0.111 A 
ATOM      6  C   UNL     1     -14.986 -35.179 -13.571  1.00  0.00     0.134 A 
ATOM      7  C   UNL     1     -14.711 -35.830 -14.780  1.00  0.00     0.093 A 
ATOM      8  C   UNL     1     -14.511 -35.110 -15.956  1.00  0.00     0.123 A 
ATOM      9  C   UNL     1     -14.578 -33.716 -15.936  1.00  0.00     0.094 A 
ATOM     10  C   UNL     1     -14.815 -33.037 -14.739  1.00  0.00     0.146 A 
ATOM     11  O   UNL     1     -14.862 -31.710 -14.760  1.00  0.00    -0.452 OA
ENDROOT
BRANCH   1  12
ATOM     12  C   UNL     1     -15.114 -29.496 -13.841  1.00  0.00     0.025 A 
ATOM     13  C   UNL     1     -16.124 -28.767 -13.193  1.00  0.00     0.016 A 
ATOM     14  C   UNL     1     -16.183 -27.376 -13.316  1.00  0.00     0.051 A 
ATOM     15  C   UNL     1     -15.223 -26.694 -14.074  1.00  0.00     0.157 A 
ATOM     16  C   UNL     1     -14.140 -28.804 -14.583  1.00  0.00     0.062 A 
ATOM     17  C   UNL     1     -14.198 -27.408 -14.705  1.00  0.00     0.158 A 
BRANCH  15  18
ATOM     18  O   UNL     1     -15.279 -25.307 -14.200  1.00  0.00    -0.504 OA
ATOM     19  H   UNL     1     -15.528 -24.864 -15.077  1.00  0.00     0.293 HD
ENDBRANCH  15  18
BRANCH  17  20
ATOM     20  O   UNL     1     -13.236 -26.724 -15.447  1.00  0.00    -0.504 OA
ATOM     21  H   UNL     1     -12.345 -27.147 -15.678  1.00  0.00     0.293 HD
ENDBRANCH  17  20
ENDBRANCH   1  12
BRANCH   2  22
ATOM     22  O   UNL     1     -15.291 -30.809 -11.264  1.00  0.00    -0.502 OA
ATOM     23  H   UNL     1     -15.652 -31.180 -10.393  1.00  0.00     0.293 HD
ENDBRANCH   2  22
BRANCH   6  24
ATOM     24  O   UNL     1     -15.264 -35.996 -12.471  1.00  0.00    -0.507 OA
ATOM     25  H   UNL     1     -15.768 -35.701 -11.649  1.00  0.00     0.293 HD
ENDBRANCH   6  24
BRANCH   8  26
ATOM     26  O   UNL     1     -14.255 -35.791 -17.144  1.00  0.00    -0.508 OA
ATOM     27  H   UNL     1     -14.675 -36.693 -17.340  1.00  0.00     0.293 HD
ENDBRANCH   8  26
TORSDOF 6
ENDMDL
MODEL 2
REMARK VINA RESULT:    -8.445      3.925      7.002
REMARK INTER + INTRA:         -10.110
REMARK INTER:                 -10.575
REMARK INTRA:                   0.465
REMARK UNBOUND:                 0.063
REMARK SMILES O=c1c(O)c(-c2ccc(O)c(O)c2)oc2cc(O)cc(O)c12
REMARK SMILES IDX 5 1 3 2 2 3 1 4 22 5 20 6 19 7 17 8 16 9 15 10 14 11 6 12
REMARK SMILES IDX 7 13 8 14 9 15 13 16 11 17 10 18 12 20 4 22 21 24 18 26
REMARK H PARENT 10 19 12 21 4 23 21 25 18 27
REMARK Flexibility Score: inf
ROOT
ATOM      1  C   UNL     1     -12.921 -30.385 -10.970  1.00  0.00     0.180 A 
ATOM      2  C   UNL     1     -14.116 -31.073 -11.249  1.00  0.00     0.208 A 
ATOM      3  C   UNL     1     -15.069 -30.470 -12.084  1.00  0.00     0.238 A 
ATOM      4  O   UNL     1     -16.112 -31.112 -12.373  1.00  0.00    -0.285 OA
ATOM      5  C   UNL     1     -14.825 -29.181 -12.615  1.00  0.00     0.111 A 
ATOM      6  C   UNL     1     -15.740 -28.457 -13.439  1.00  0.00     0.134 A 
ATOM      7  C   UNL     1     -15.339 -27.245 -14.016  1.00  0.00     0.093 A 
ATOM      8  C   UNL     1     -14.086 -26.700 -13.747  1.00  0.00     0.123 A 
ATOM      9  C   UNL     1     -13.206 -27.369 -12.895  1.00  0.00     0.094 A 
ATOM     10  C   UNL     1     -13.562 -28.596 -12.334  1.00  0.00     0.146 A 
ATOM     11  O   UNL     1     -12.693 -29.206 -11.537  1.00  0.00    -0.452 OA
ENDROOT
BRANCH   1  12
ATOM     12  C   UNL     1     -11.879 -30.946 -10.080  1.00  0.00     0.025 A 
ATOM     13  C   UNL     1     -11.863 -32.326  -9.818  1.00  0.00     0.016 A 
ATOM     14  C   UNL     1     -10.876 -32.879  -8.998  1.00  0.00     0.051 A 
ATOM     15  C   UNL     1      -9.882 -32.064  -8.443  1.00  0.00     0.157 A 
ATOM     16  C   UNL     1     -10.866 -30.135  -9.537  1.00  0.00     0.062 A 
ATOM     17  C   UNL     1      -9.874 -30.691  -8.715  1.00  0.00     0.158 A 
BRANCH  15  18
ATOM     18  O   UNL     1      -8.896 -32.612  -7.623  1.00  0.00    -0.504 OA
ATOM     19  H   UNL     1      -8.981 -32.603  -6.613  1.00  0.00     0.293 HD
ENDBRANCH  15  18
BRANCH  17  20
ATOM     20  O   UNL     1      -8.875 -29.885  -8.173  1.00  0.00    -0.504 OA
ATOM     21  H   UNL     1      -8.938 -28.874  -8.194  1.00  0.00     0.293 HD
ENDBRANCH  17  20
ENDBRANCH   1  12
BRANCH   2  22
ATOM     22  O   UNL     1     -14.327 -32.353 -10.731  1.00  0.00    -0.502 OA
ATOM     23  H   UNL     1     -15.140 -32.909 -10.966  1.00  0.00     0.293 HD
ENDBRANCH   2  22
BRANCH   6  24
ATOM     24  O   UNL     1     -17.051 -28.869 -13.698  1.00  0.00    -0.507 OA
ATOM     25  H   UNL     1     -17.325 -29.465 -14.464  1.00  0.00     0.293 HD
ENDBRANCH   6  24
BRANCH   8  26
ATOM     26  O   UNL     1     -13.727 -25.484 -14.326  1.00  0.00    -0.508 OA
ATOM     27  H   UNL     1     -13.496 -25.412 -15.311  1.00  0.00     0.293 HD
ENDBRANCH   8  26
TORSDOF 6
ENDMDL
MODEL 3
REMARK VINA RESULT:    -7.504      3.591      4.813
REMARK INTER + INTRA:          -8.977
REMARK INTER:                  -8.663
REMARK INTRA:                  -0.314
REMARK UNBOUND:                 0.063
REMARK SMILES O=c1c(O)c(-c2ccc(O)c(O)c2)oc2cc(O)cc(O)c12
REMARK SMILES IDX 5 1 3 2 2 3 1 4 22 5 20 6 19 7 17 8 16 9 15 10 14 11 6 12
REMARK SMILES IDX 7 13 8 14 9 15 13 16 11 17 10 18 12 20 4 22 21 24 18 26
REMARK H PARENT 10 19 12 21 4 23 21 25 18 27
REMARK Flexibility Score: inf
ROOT
ATOM      1  C   UNL     1     -13.544 -29.485 -11.737  1.00  0.00     0.180 A 
ATOM      2  C   UNL     1     -14.463 -30.506 -11.436  1.00  0.00     0.208 A 
ATOM      3  C   UNL     1     -14.062 -31.557 -10.597  1.00  0.00     0.238 A 
ATOM      4  O   UNL     1     -14.905 -32.439 -10.288  1.00  0.00    -0.285 OA
ATOM      5  C   UNL     1     -12.743 -31.585 -10.083  1.00  0.00     0.111 A 
ATOM      6  C   UNL     1     -12.217 -32.624  -9.258  1.00  0.00     0.134 A 
ATOM      7  C   UNL     1     -10.940 -32.482  -8.699  1.00  0.00     0.093 A 
ATOM      8  C   UNL     1     -10.147 -31.374  -8.990  1.00  0.00     0.123 A 
ATOM      9  C   UNL     1     -10.628 -30.381  -9.844  1.00  0.00     0.094 A 
ATOM     10  C   UNL     1     -11.911 -30.476 -10.387  1.00  0.00     0.146 A 
ATOM     11  O   UNL     1     -12.335 -29.505 -11.187  1.00  0.00    -0.452 OA
ENDROOT
BRANCH   1  12
ATOM     12  C   UNL     1     -13.886 -28.356 -12.633  1.00  0.00     0.025 A 
ATOM     13  C   UNL     1     -14.196 -27.104 -12.079  1.00  0.00     0.016 A 
ATOM     14  C   UNL     1     -14.501 -26.020 -12.907  1.00  0.00     0.051 A 
ATOM     15  C   UNL     1     -14.482 -26.169 -14.299  1.00  0.00     0.157 A 
ATOM     16  C   UNL     1     -13.848 -28.495 -14.032  1.00  0.00     0.062 A 
ATOM     17  C   UNL     1     -14.152 -27.406 -14.863  1.00  0.00     0.158 A 
BRANCH  15  18
ATOM     18  O   UNL     1     -14.787 -25.090 -15.128  1.00  0.00    -0.504 OA
ATOM     19  H   UNL     1     -15.008 -24.177 -14.749  1.00  0.00     0.293 HD
ENDBRANCH  15  18
BRANCH  17  20
ATOM     20  O   UNL     1     -14.121 -27.548 -16.249  1.00  0.00    -0.504 OA
ATOM     21  H   UNL     1     -13.861 -26.779 -16.856  1.00  0.00     0.293 HD
ENDBRANCH  17  20
ENDBRANCH   1  12
BRANCH   2  22
ATOM     22  O   UNL     1     -15.767 -30.447 -11.936  1.00  0.00    -0.502 OA
ATOM     23  H   UNL     1     -16.351 -29.626 -11.839  1.00  0.00     0.293 HD
ENDBRANCH   2  22
BRANCH   6  24
ATOM     24  O   UNL     1     -12.892 -33.817  -8.979  1.00  0.00    -0.507 OA
ATOM     25  H   UNL     1     -12.503 -34.738  -9.103  1.00  0.00     0.293 HD
ENDBRANCH   6  24
BRANCH   8  26
ATOM     26  O   UNL     1      -8.875 -31.273  -8.430  1.00  0.00    -0.508 OA
ATOM     27  H   UNL     1      -8.743 -31.117  -7.436  1.00  0.00     0.293 HD
ENDBRANCH   8  26
TORSDOF 6
ENDMDL
MODEL 4
REMARK VINA RESULT:    -7.265      1.363      6.824
REMARK INTER + INTRA:          -8.688
REMARK INTER:                  -9.099
REMARK INTRA:                   0.410
REMARK UNBOUND:                 0.063
REMARK SMILES O=c1c(O)c(-c2ccc(O)c(O)c2)oc2cc(O)cc(O)c12
REMARK SMILES IDX 5 1 3 2 2 3 1 4 22 5 20 6 19 7 17 8 16 9 15 10 14 11 6 12
REMARK SMILES IDX 7 13 8 14 9 15 13 16 11 17 10 18 12 20 4 22 21 24 18 26
REMARK H PARENT 10 19 12 21 4 23 21 25 18 27
REMARK Flexibility Score: inf
ROOT
ATOM      1  C   UNL     1     -14.987 -30.905 -13.474  1.00  0.00     0.180 A 
ATOM      2  C   UNL     1     -15.271 -30.508 -12.155  1.00  0.00     0.208 A 
ATOM      3  C   UNL     1     -15.183 -29.148 -11.821  1.00  0.00     0.238 A 
ATOM      4  O   UNL     1     -15.490 -28.792 -10.653  1.00  0.00    -0.285 OA
ATOM      5  C   UNL     1     -14.798 -28.204 -12.802  1.00  0.00     0.111 A 
ATOM      6  C   UNL     1     -14.637 -26.806 -12.564  1.00  0.00     0.134 A 
ATOM      7  C   UNL     1     -14.380 -25.946 -13.640  1.00  0.00     0.093 A 
ATOM      8  C   UNL     1     -14.213 -26.441 -14.932  1.00  0.00     0.123 A 
ATOM      9  C   UNL     1     -14.309 -27.813 -15.167  1.00  0.00     0.094 A 
ATOM     10  C   UNL     1     -14.600 -28.691 -14.121  1.00  0.00     0.146 A 
ATOM     11  O   UNL     1     -14.693 -29.988 -14.388  1.00  0.00    -0.452 OA
ENDROOT
BRANCH   1  12
ATOM     12  C   UNL     1     -15.034 -32.324 -13.897  1.00  0.00     0.025 A 
ATOM     13  C   UNL     1     -14.983 -32.639 -15.264  1.00  0.00     0.016 A 
ATOM     14  C   UNL     1     -15.005 -33.972 -15.684  1.00  0.00     0.051 A 
ATOM     15  C   UNL     1     -15.061 -35.008 -14.742  1.00  0.00     0.157 A 
ATOM     16  C   UNL     1     -15.069 -33.368 -12.954  1.00  0.00     0.062 A 
ATOM     17  C   UNL     1     -15.090 -34.706 -13.376  1.00  0.00     0.158 A 
BRANCH  15  18
ATOM     18  O   UNL     1     -15.084 -36.338 -15.157  1.00  0.00    -0.504 OA
ATOM     19  H   UNL     1     -14.660 -36.628 -16.030  1.00  0.00     0.293 HD
ENDBRANCH  15  18
BRANCH  17  20
ATOM     20  O   UNL     1     -15.131 -35.738 -12.441  1.00  0.00    -0.504 OA
ATOM     21  H   UNL     1     -14.809 -36.672 -12.666  1.00  0.00     0.293 HD
ENDBRANCH  17  20
ENDBRANCH   1  12
BRANCH   2  22
ATOM     22  O   UNL     1     -15.669 -31.454 -11.207  1.00  0.00    -0.502 OA
ATOM     23  H   UNL     1     -16.633 -31.559 -10.915  1.00  0.00     0.293 HD
ENDBRANCH   2  22
BRANCH   6  24
ATOM     24  O   UNL     1     -14.693 -26.219 -11.295  1.00  0.00    -0.507 OA
ATOM     25  H   UNL     1     -15.530 -26.132 -10.740  1.00  0.00     0.293 HD
ENDBRANCH   6  24
BRANCH   8  26
ATOM     26  O   UNL     1     -13.943 -25.559 -15.976  1.00  0.00    -0.508 OA
ATOM     27  H   UNL     1     -13.551 -25.880 -16.854  1.00  0.00     0.293 HD
ENDBRANCH   8  26
TORSDOF 6
ENDMDL
MODEL 5
REMARK VINA RESULT:    -6.378      1.265      6.531
REMARK INTER + INTRA:          -7.620
REMARK INTER:                  -8.076
REMARK INTRA:                   0.456
REMARK UNBOUND:                 0.063
REMARK SMILES O=c1c(O)c(-c2ccc(O)c(O)c2)oc2cc(O)cc(O)c12
REMARK SMILES IDX 5 1 3 2 2 3 1 4 22 5 20 6 19 7 17 8 16 9 15 10 14 11 6 12
REMARK SMILES IDX 7 13 8 14 9 15 13 16 11 17 10 18 12 20 4 22 21 24 18 26
REMARK H PARENT 10 19 12 21 4 23 21 25 18 27
REMARK Flexibility Score: inf
ROOT
ATOM      1  C   UNL     1     -15.002 -32.422 -13.198  1.00  0.00     0.180 A 
ATOM      2  C   UNL     1     -15.176 -32.480 -11.804  1.00  0.00     0.208 A 
ATOM      3  C   UNL     1     -15.337 -31.283 -11.088  1.00  0.00     0.238 A 
ATOM      4  O   UNL     1     -15.545 -31.344  -9.849  1.00  0.00    -0.285 OA
ATOM      5  C   UNL     1     -15.307 -30.044 -11.772  1.00  0.00     0.111 A 
ATOM      6  C   UNL     1     -15.420 -28.768 -11.142  1.00  0.00     0.134 A 
ATOM      7  C   UNL     1     -15.509 -27.613 -11.930  1.00  0.00     0.093 A 
ATOM      8  C   UNL     1     -15.424 -27.683 -13.319  1.00  0.00     0.123 A 
ATOM      9  C   UNL     1     -15.253 -28.919 -13.943  1.00  0.00     0.094 A 
ATOM     10  C   UNL     1     -15.198 -30.091 -13.186  1.00  0.00     0.146 A 
ATOM     11  O   UNL     1     -15.045 -31.249 -13.819  1.00  0.00    -0.452 OA
ENDROOT
BRANCH   1  12
ATOM     12  C   UNL     1     -14.802 -33.639 -14.018  1.00  0.00     0.025 A 
ATOM     13  C   UNL     1     -15.190 -34.888 -13.507  1.00  0.00     0.016 A 
ATOM     14  C   UNL     1     -15.029 -36.046 -14.272  1.00  0.00     0.051 A 
ATOM     15  C   UNL     1     -14.495 -35.970 -15.564  1.00  0.00     0.157 A 
ATOM     16  C   UNL     1     -14.285 -33.565 -15.324  1.00  0.00     0.062 A 
ATOM     17  C   UNL     1     -14.125 -34.728 -16.093  1.00  0.00     0.158 A 
BRANCH  15  18
ATOM     18  O   UNL     1     -14.332 -37.123 -16.330  1.00  0.00    -0.504 OA
ATOM     19  H   UNL     1     -14.044 -38.001 -15.912  1.00  0.00     0.293 HD
ENDBRANCH  15  18
BRANCH  17  20
ATOM     20  O   UNL     1     -13.607 -34.653 -17.384  1.00  0.00    -0.504 OA
ATOM     21  H   UNL     1     -12.962 -35.349 -17.739  1.00  0.00     0.293 HD
ENDBRANCH  17  20
ENDBRANCH   1  12
BRANCH   2  22
ATOM     22  O   UNL     1     -15.223 -33.715 -11.152  1.00  0.00    -0.502 OA
ATOM     23  H   UNL     1     -15.974 -33.970 -10.523  1.00  0.00     0.293 HD
ENDBRANCH   2  22
BRANCH   6  24
ATOM     24  O   UNL     1     -15.421 -28.579  -9.756  1.00  0.00    -0.507 OA
ATOM     25  H   UNL     1     -16.241 -28.629  -9.171  1.00  0.00     0.293 HD
ENDBRANCH   6  24
BRANCH   8  26
ATOM     26  O   UNL     1     -15.500 -26.512 -14.072  1.00  0.00    -0.508 OA
ATOM     27  H   UNL     1     -15.836 -25.644 -13.670  1.00  0.00     0.293 HD
ENDBRANCH   8  26
TORSDOF 6
ENDMDL
MODEL 6
REMARK VINA RESULT:    -6.180      3.218      4.309
REMARK INTER + INTRA:          -7.381
REMARK INTER:                  -7.498
REMARK INTRA:                   0.117
REMARK UNBOUND:                 0.063
REMARK SMILES O=c1c(O)c(-c2ccc(O)c(O)c2)oc2cc(O)cc(O)c12
REMARK SMILES IDX 5 1 3 2 2 3 1 4 22 5 20 6 19 7 17 8 16 9 15 10 14 11 6 12
REMARK SMILES IDX 7 13 8 14 9 15 13 16 11 17 10 18 12 20 4 22 21 24 18 26
REMARK H PARENT 10 19 12 21 4 23 21 25 18 27
REMARK Flexibility Score: inf
ROOT
ATOM      1  C   UNL     1     -14.096 -29.159 -12.592  1.00  0.00     0.180 A 
ATOM      2  C   UNL     1     -15.278 -29.920 -12.573  1.00  0.00     0.208 A 
ATOM      3  C   UNL     1     -15.325 -31.083 -11.788  1.00  0.00     0.238 A 
ATOM      4  O   UNL     1     -16.403 -31.731 -11.734  1.00  0.00    -0.285 OA
ATOM      5  C   UNL     1     -14.187 -31.479 -11.046  1.00  0.00     0.111 A 
ATOM      6  C   UNL     1     -14.110 -32.661 -10.249  1.00  0.00     0.134 A 
ATOM      7  C   UNL     1     -12.979 -32.885  -9.453  1.00  0.00     0.093 A 
ATOM      8  C   UNL     1     -11.898 -32.007  -9.476  1.00  0.00     0.123 A 
ATOM      9  C   UNL     1     -11.938 -30.879 -10.297  1.00  0.00     0.094 A 
ATOM     10  C   UNL     1     -13.066 -30.609 -11.074  1.00  0.00     0.146 A 
ATOM     11  O   UNL     1     -13.068 -29.520 -11.834  1.00  0.00    -0.452 OA
ENDROOT
BRANCH   1  12
ATOM     12  C   UNL     1     -13.961 -27.933 -13.414  1.00  0.00     0.025 A 
ATOM     13  C   UNL     1     -12.805 -27.745 -14.188  1.00  0.00     0.016 A 
ATOM     14  C   UNL     1     -12.667 -26.606 -14.987  1.00  0.00     0.051 A 
ATOM     15  C   UNL     1     -13.689 -25.650 -15.036  1.00  0.00     0.157 A 
ATOM     16  C   UNL     1     -14.994 -26.981 -13.483  1.00  0.00     0.062 A 
ATOM     17  C   UNL     1     -14.856 -25.839 -14.286  1.00  0.00     0.158 A 
BRANCH  15  18
ATOM     18  O   UNL     1     -13.554 -24.513 -15.830  1.00  0.00    -0.504 OA
ATOM     19  H   UNL     1     -13.152 -23.657 -15.466  1.00  0.00     0.293 HD
ENDBRANCH  15  18
BRANCH  17  20
ATOM     20  O   UNL     1     -15.877 -24.893 -14.347  1.00  0.00    -0.504 OA
ATOM     21  H   UNL     1     -16.819 -25.108 -14.042  1.00  0.00     0.293 HD
ENDBRANCH  17  20
ENDBRANCH   1  12
BRANCH   2  22
ATOM     22  O   UNL     1     -16.396 -29.499 -13.297  1.00  0.00    -0.502 OA
ATOM     23  H   UNL     1     -16.344 -28.784 -14.012  1.00  0.00     0.293 HD
ENDBRANCH   2  22
BRANCH   6  24
ATOM     24  O   UNL     1     -15.097 -33.651 -10.225  1.00  0.00    -0.507 OA
ATOM     25  H   UNL     1     -14.921 -34.635 -10.092  1.00  0.00     0.293 HD
ENDBRANCH   6  24
BRANCH   8  26
ATOM     26  O   UNL     1     -10.783 -32.270  -8.683  1.00  0.00    -0.508 OA
ATOM     27  H   UNL     1      -9.840 -32.141  -9.034  1.00  0.00     0.293 HD
ENDBRANCH   8  26
TORSDOF 6
ENDMDL
MODEL 7
REMARK VINA RESULT:    -5.666      1.461      2.921
REMARK INTER + INTRA:          -6.763
REMARK INTER:                  -7.173
REMARK INTRA:                   0.410
REMARK UNBOUND:                 0.063
REMARK SMILES O=c1c(O)c(-c2ccc(O)c(O)c2)oc2cc(O)cc(O)c12
REMARK SMILES IDX 5 1 3 2 2 3 1 4 22 5 20 6 19 7 17 8 16 9 15 10 14 11 6 12
REMARK SMILES IDX 7 13 8 14 9 15 13 16 11 17 10 18 12 20 4 22 21 24 18 26
REMARK H PARENT 10 19 12 21 4 23 21 25 18 27
REMARK Flexibility Score: inf
ROOT
ATOM      1  C   UNL     1     -14.742 -30.595 -14.079  1.00  0.00     0.180 A 
ATOM      2  C   UNL     1     -14.472 -30.761 -15.449  1.00  0.00     0.208 A 
ATOM      3  C   UNL     1     -14.419 -32.059 -15.980  1.00  0.00     0.238 A 
ATOM      4  O   UNL     1     -14.231 -32.199 -17.216  1.00  0.00    -0.285 OA
ATOM      5  C   UNL     1     -14.620 -33.175 -15.132  1.00  0.00     0.111 A 
ATOM      6  C   UNL     1     -14.548 -34.537 -15.555  1.00  0.00     0.134 A 
ATOM      7  C   UNL     1     -14.893 -35.557 -14.659  1.00  0.00     0.093 A 
ATOM      8  C   UNL     1     -15.243 -35.270 -13.341  1.00  0.00     0.123 A 
ATOM      9  C   UNL     1     -15.259 -33.945 -12.901  1.00  0.00     0.094 A 
ATOM     10  C   UNL     1     -14.955 -32.904 -13.780  1.00  0.00     0.146 A 
ATOM     11  O   UNL     1     -14.991 -31.658 -13.324  1.00  0.00    -0.452 OA
ENDROOT
BRANCH   1  12
ATOM     12  C   UNL     1     -14.790 -29.258 -13.442  1.00  0.00     0.025 A 
ATOM     13  C   UNL     1     -15.295 -29.132 -12.138  1.00  0.00     0.016 A 
ATOM     14  C   UNL     1     -15.330 -27.884 -11.511  1.00  0.00     0.051 A 
ATOM     15  C   UNL     1     -14.846 -26.748 -12.171  1.00  0.00     0.157 A 
ATOM     16  C   UNL     1     -14.286 -28.118 -14.094  1.00  0.00     0.062 A 
ATOM     17  C   UNL     1     -14.320 -26.865 -13.463  1.00  0.00     0.158 A 
BRANCH  15  18
ATOM     18  O   UNL     1     -14.880 -25.501 -11.550  1.00  0.00    -0.504 OA
ATOM     19  H   UNL     1     -14.163 -24.805 -11.718  1.00  0.00     0.293 HD
ENDBRANCH  15  18
BRANCH  17  20
ATOM     20  O   UNL     1     -13.825 -25.736 -14.113  1.00  0.00    -0.504 OA
ATOM     21  H   UNL     1     -13.265 -25.046 -13.627  1.00  0.00     0.293 HD
ENDBRANCH  17  20
ENDBRANCH   1  12
BRANCH   2  22
ATOM     22  O   UNL     1     -14.298 -29.644 -16.272  1.00  0.00    -0.502 OA
ATOM     23  H   UNL     1     -14.090 -29.723 -17.259  1.00  0.00     0.293 HD
ENDBRANCH   2  22
BRANCH   6  24
ATOM     24  O   UNL     1     -14.121 -34.939 -16.824  1.00  0.00    -0.507 OA
ATOM     25  H   UNL     1     -14.573 -34.684 -17.689  1.00  0.00     0.293 HD
ENDBRANCH   6  24
BRANCH   8  26
ATOM     26  O   UNL     1     -15.565 -36.311 -12.473  1.00  0.00    -0.508 OA
ATOM     27  H   UNL     1     -16.343 -36.241 -11.827  1.00  0.00     0.293 HD
ENDBRANCH   8  26
TORSDOF 6
ENDMDL
