MODEL 1
REMARK VINA RESULT:    -7.197      0.000      0.000
REMARK INTER + INTRA:          -9.073
REMARK INTER:                  -8.669
REMARK INTRA:                  -0.404
REMARK UNBOUND:                -0.404
REMARK SMILES O=c1c(O)c(-c2ccc(O)cc2O)oc2cc(O)cc(O)c12
REMARK SMILES IDX 5 1 3 2 2 3 1 4 22 5 20 6 19 7 17 8 16 9 15 10 14 11 6 12
REMARK SMILES IDX 8 13 7 14 9 15 11 16 12 17 10 18 13 20 4 22 21 24 18 26
REMARK H PARENT 10 19 13 21 4 23 21 25 18 27
REMARK Flexibility Score: inf
ROOT
ATOM      1  C   UNL     1      16.496  56.630  26.465  1.00  0.00     0.184 A 
ATOM      2  C   UNL     1      17.206  57.440  25.561  1.00  0.00     0.208 A 
ATOM      3  C   UNL     1      16.794  58.767  25.373  1.00  0.00     0.238 A 
ATOM      4  O   UNL     1      17.416  59.500  24.557  1.00  0.00    -0.285 OA
ATOM      5  C   UNL     1      15.696  59.266  26.104  1.00  0.00     0.111 A 
ATOM      6  C   UNL     1      15.219  60.593  25.976  1.00  0.00     0.134 A 
ATOM      7  C   UNL     1      14.125  61.016  26.747  1.00  0.00     0.093 A 
ATOM      8  C   UNL     1      13.503  60.142  27.640  1.00  0.00     0.123 A 
ATOM      9  C   UNL     1      13.969  58.830  27.770  1.00  0.00     0.094 A 
ATOM     10  C   UNL     1      15.056  58.388  27.011  1.00  0.00     0.146 A 
ATOM     11  O   UNL     1      15.476  57.135  27.150  1.00  0.00    -0.451 OA
ENDROOT
BRANCH   1  12
ATOM     12  C   UNL     1      16.871  55.220  26.702  1.00  0.00     0.063 A 
ATOM     13  C   UNL     1      17.018  52.942  25.868  1.00  0.00     0.047 A 
ATOM     14  C   UNL     1      16.670  54.281  25.678  1.00  0.00     0.020 A 
ATOM     15  C   UNL     1      17.586  52.527  27.078  1.00  0.00     0.119 A 
ATOM     16  C   UNL     1      17.812  53.460  28.095  1.00  0.00     0.093 A 
ATOM     17  C   UNL     1      17.471  54.808  27.911  1.00  0.00     0.130 A 
BRANCH  15  18
ATOM     18  O   UNL     1      17.934  51.193  27.280  1.00  0.00    -0.508 OA
ATOM     19  H   UNL     1      17.471  50.626  27.981  1.00  0.00     0.293 HD
ENDBRANCH  15  18
BRANCH  17  20
ATOM     20  O   UNL     1      17.746  55.737  28.915  1.00  0.00    -0.507 OA
ATOM     21  H   UNL     1      18.144  55.457  29.804  1.00  0.00     0.293 HD
ENDBRANCH  17  20
ENDBRANCH   1  12
BRANCH   2  22
ATOM     22  O   UNL     1      18.318  56.929  24.885  1.00  0.00    -0.502 OA
ATOM     23  H   UNL     1      18.572  55.949  24.924  1.00  0.00     0.293 HD
ENDBRANCH   2  22
BRANCH   6  24
ATOM     24  O   UNL     1      15.821  61.491  25.094  1.00  0.00    -0.507 OA
ATOM     25  H   UNL     1      16.770  61.817  25.230  1.00  0.00     0.293 HD
ENDBRANCH   6  24
BRANCH   8  26
ATOM     26  O   UNL     1      12.418  60.588  28.394  1.00  0.00    -0.508 OA
ATOM     27  H   UNL     1      11.706  61.187  27.995  1.00  0.00     0.293 HD
ENDBRANCH   8  26
TORSDOF 6
ENDMDL
MODEL 2
REMARK VINA RESULT:    -7.147      9.157     11.106
REMARK INTER + INTRA:          -9.013
REMARK INTER:                  -8.595
REMARK INTRA:                  -0.417
REMARK UNBOUND:                -0.404
REMARK SMILES O=c1c(O)c(-c2ccc(O)cc2O)oc2cc(O)cc(O)c12
REMARK SMILES IDX 5 1 3 2 2 3 1 4 22 5 20 6 19 7 17 8 16 9 15 10 14 11 6 12
REMARK SMILES IDX 8 13 7 14 9 15 11 16 12 17 10 18 13 20 4 22 21 24 18 26
REMARK H PARENT 10 19 13 21 4 23 21 25 18 27
REMARK Flexibility Score: inf
ROOT
ATOM      1  C   UNL     1      24.098  63.635  26.586  1.00  0.00     0.184 A 
ATOM      2  C   UNL     1      23.312  62.481  26.756  1.00  0.00     0.208 A 
ATOM      3  C   UNL     1      22.338  62.468  27.764  1.00  0.00     0.238 A 
ATOM      4  O   UNL     1      21.634  61.435  27.934  1.00  0.00    -0.285 OA
ATOM      5  C   UNL     1      22.152  63.612  28.569  1.00  0.00     0.111 A 
ATOM      6  C   UNL     1      21.189  63.682  29.605  1.00  0.00     0.134 A 
ATOM      7  C   UNL     1      21.060  64.860  30.356  1.00  0.00     0.093 A 
ATOM      8  C   UNL     1      21.872  65.966  30.091  1.00  0.00     0.123 A 
ATOM      9  C   UNL     1      22.825  65.902  29.070  1.00  0.00     0.094 A 
ATOM     10  C   UNL     1      22.970  64.738  28.311  1.00  0.00     0.146 A 
ATOM     11  O   UNL     1      23.887  64.701  27.351  1.00  0.00    -0.451 OA
ENDROOT
BRANCH   1  12
ATOM     12  C   UNL     1      25.149  63.711  25.550  1.00  0.00     0.063 A 
ATOM     13  C   UNL     1      27.359  63.052  24.780  1.00  0.00     0.047 A 
ATOM     14  C   UNL     1      26.347  63.006  25.743  1.00  0.00     0.020 A 
ATOM     15  C   UNL     1      27.179  63.792  23.606  1.00  0.00     0.119 A 
ATOM     16  C   UNL     1      25.980  64.479  23.394  1.00  0.00     0.093 A 
ATOM     17  C   UNL     1      24.956  64.433  24.353  1.00  0.00     0.130 A 
BRANCH  15  18
ATOM     18  O   UNL     1      28.183  63.849  22.640  1.00  0.00    -0.508 OA
ATOM     19  H   UNL     1      27.971  63.765  21.653  1.00  0.00     0.293 HD
ENDBRANCH  15  18
BRANCH  17  20
ATOM     20  O   UNL     1      23.746  65.082  24.108  1.00  0.00    -0.507 OA
ATOM     21  H   UNL     1      23.401  65.226  23.166  1.00  0.00     0.293 HD
ENDBRANCH  17  20
ENDBRANCH   1  12
BRANCH   2  22
ATOM     22  O   UNL     1      23.490  61.381  25.913  1.00  0.00    -0.502 OA
ATOM     23  H   UNL     1      24.173  61.377  25.164  1.00  0.00     0.293 HD
ENDBRANCH   2  22
BRANCH   6  24
ATOM     24  O   UNL     1      20.363  62.595  29.892  1.00  0.00    -0.507 OA
ATOM     25  H   UNL     1      20.076  62.379  30.840  1.00  0.00     0.293 HD
ENDBRANCH   6  24
BRANCH   8  26
ATOM     26  O   UNL     1      21.722  67.125  30.851  1.00  0.00    -0.508 OA
ATOM     27  H   UNL     1      21.333  67.972  30.455  1.00  0.00     0.293 HD
ENDBRANCH   8  26
TORSDOF 6
ENDMDL
MODEL 3
REMARK VINA RESULT:    -7.133     10.385     12.385
REMARK INTER + INTRA:          -8.997
REMARK INTER:                  -8.569
REMARK INTRA:                  -0.428
REMARK UNBOUND:                -0.404
REMARK SMILES O=c1c(O)c(-c2ccc(O)cc2O)oc2cc(O)cc(O)c12
REMARK SMILES IDX 5 1 3 2 2 3 1 4 22 5 20 6 19 7 17 8 16 9 15 10 14 11 6 12
REMARK SMILES IDX 8 13 7 14 9 15 11 16 12 17 10 18 13 20 4 22 21 24 18 26
REMARK H PARENT 10 19 13 21 4 23 21 25 18 27
REMARK Flexibility Score: inf
ROOT
ATOM      1  C   UNL     1      23.392  63.449  31.019  1.00  0.00     0.184 A 
ATOM      2  C   UNL     1      22.442  63.634  32.039  1.00  0.00     0.208 A 
ATOM      3  C   UNL     1      22.773  63.258  33.349  1.00  0.00     0.238 A 
ATOM      4  O   UNL     1      21.925  63.408  34.271  1.00  0.00    -0.285 OA
ATOM      5  C   UNL     1      24.050  62.723  33.619  1.00  0.00     0.111 A 
ATOM      6  C   UNL     1      24.464  62.322  34.912  1.00  0.00     0.134 A 
ATOM      7  C   UNL     1      25.755  61.807  35.100  1.00  0.00     0.093 A 
ATOM      8  C   UNL     1      26.638  61.687  34.025  1.00  0.00     0.123 A 
ATOM      9  C   UNL     1      26.235  62.081  32.745  1.00  0.00     0.094 A 
ATOM     10  C   UNL     1      24.952  62.595  32.536  1.00  0.00     0.146 A 
ATOM     11  O   UNL     1      24.592  62.957  31.310  1.00  0.00    -0.451 OA
ENDROOT
BRANCH   1  12
ATOM     12  C   UNL     1      23.105  63.814  29.616  1.00  0.00     0.063 A 
ATOM     13  C   UNL     1      22.884  65.546  27.924  1.00  0.00     0.047 A 
ATOM     14  C   UNL     1      23.146  65.167  29.244  1.00  0.00     0.020 A 
ATOM     15  C   UNL     1      22.595  64.576  26.958  1.00  0.00     0.119 A 
ATOM     16  C   UNL     1      22.576  63.224  27.315  1.00  0.00     0.093 A 
ATOM     17  C   UNL     1      22.842  62.834  28.635  1.00  0.00     0.130 A 
BRANCH  15  18
ATOM     18  O   UNL     1      22.329  64.942  25.640  1.00  0.00    -0.508 OA
ATOM     19  H   UNL     1      21.396  64.877  25.251  1.00  0.00     0.293 HD
ENDBRANCH  15  18
BRANCH  17  20
ATOM     20  O   UNL     1      22.868  61.480  28.967  1.00  0.00    -0.507 OA
ATOM     21  H   UNL     1      23.709  60.923  28.865  1.00  0.00     0.293 HD
ENDBRANCH  17  20
ENDBRANCH   1  12
BRANCH   2  22
ATOM     22  O   UNL     1      21.202  64.208  31.747  1.00  0.00    -0.502 OA
ATOM     23  H   UNL     1      21.116  65.095  31.265  1.00  0.00     0.293 HD
ENDBRANCH   2  22
BRANCH   6  24
ATOM     24  O   UNL     1      23.606  62.430  36.007  1.00  0.00    -0.507 OA
ATOM     25  H   UNL     1      23.732  61.869  36.841  1.00  0.00     0.293 HD
ENDBRANCH   6  24
BRANCH   8  26
ATOM     26  O   UNL     1      27.916  61.173  34.239  1.00  0.00    -0.508 OA
ATOM     27  H   UNL     1      28.671  61.340  33.584  1.00  0.00     0.293 HD
ENDBRANCH   8  26
TORSDOF 6
ENDMDL
MODEL 4
REMARK VINA RESULT:    -7.096      9.848     11.072
REMARK INTER + INTRA:          -8.952
REMARK INTER:                  -8.684
REMARK INTRA:                  -0.268
REMARK UNBOUND:                -0.404
REMARK SMILES O=c1c(O)c(-c2ccc(O)cc2O)oc2cc(O)cc(O)c12
REMARK SMILES IDX 5 1 3 2 2 3 1 4 22 5 20 6 19 7 17 8 16 9 15 10 14 11 6 12
REMARK SMILES IDX 8 13 7 14 9 15 11 16 12 17 10 18 13 20 4 22 21 24 18 26
REMARK H PARENT 10 19 13 21 4 23 21 25 18 27
REMARK Flexibility Score: inf
ROOT
ATOM      1  C   UNL     1      23.585  62.731  31.367  1.00  0.00     0.184 A 
ATOM      2  C   UNL     1      23.695  61.589  30.554  1.00  0.00     0.208 A 
ATOM      3  C   UNL     1      23.383  61.695  29.191  1.00  0.00     0.238 A 
ATOM      4  O   UNL     1      23.466  60.675  28.454  1.00  0.00    -0.285 OA
ATOM      5  C   UNL     1      22.987  62.941  28.662  1.00  0.00     0.111 A 
ATOM      6  C   UNL     1      22.658  63.135  27.298  1.00  0.00     0.134 A 
ATOM      7  C   UNL     1      22.281  64.409  26.848  1.00  0.00     0.093 A 
ATOM      8  C   UNL     1      22.228  65.490  27.730  1.00  0.00     0.123 A 
ATOM      9  C   UNL     1      22.551  65.305  29.078  1.00  0.00     0.094 A 
ATOM     10  C   UNL     1      22.928  64.044  29.548  1.00  0.00     0.146 A 
ATOM     11  O   UNL     1      23.224  63.894  30.834  1.00  0.00    -0.451 OA
ENDROOT
BRANCH   1  12
ATOM     12  C   UNL     1      23.889  62.686  32.813  1.00  0.00     0.063 A 
ATOM     13  C   UNL     1      25.473  62.187  34.587  1.00  0.00     0.047 A 
ATOM     14  C   UNL     1      25.151  62.236  33.229  1.00  0.00     0.020 A 
ATOM     15  C   UNL     1      24.541  62.602  35.546  1.00  0.00     0.119 A 
ATOM     16  C   UNL     1      23.290  63.074  35.140  1.00  0.00     0.093 A 
ATOM     17  C   UNL     1      22.961  63.133  33.777  1.00  0.00     0.130 A 
BRANCH  15  18
ATOM     18  O   UNL     1      24.849  62.553  36.905  1.00  0.00    -0.508 OA
ATOM     19  H   UNL     1      25.439  61.823  37.287  1.00  0.00     0.293 HD
ENDBRANCH  15  18
BRANCH  17  20
ATOM     20  O   UNL     1      21.727  63.652  33.383  1.00  0.00    -0.507 OA
ATOM     21  H   UNL     1      20.966  63.050  33.093  1.00  0.00     0.293 HD
ENDBRANCH  17  20
ENDBRANCH   1  12
BRANCH   2  22
ATOM     22  O   UNL     1      24.133  60.380  31.099  1.00  0.00    -0.502 OA
ATOM     23  H   UNL     1      24.146  60.209  32.098  1.00  0.00     0.293 HD
ENDBRANCH   2  22
BRANCH   6  24
ATOM     24  O   UNL     1      22.702  62.075  26.391  1.00  0.00    -0.507 OA
ATOM     25  H   UNL     1      22.038  61.996  25.631  1.00  0.00     0.293 HD
ENDBRANCH   6  24
BRANCH   8  26
ATOM     26  O   UNL     1      21.852  66.745  27.256  1.00  0.00    -0.508 OA
ATOM     27  H   UNL     1      22.236  67.597  27.648  1.00  0.00     0.293 HD
ENDBRANCH   8  26
TORSDOF 6
ENDMDL
MODEL 5
REMARK VINA RESULT:    -7.000      9.955     10.970
REMARK INTER + INTRA:          -8.836
REMARK INTER:                  -8.814
REMARK INTRA:                  -0.022
REMARK UNBOUND:                -0.404
REMARK SMILES O=c1c(O)c(-c2ccc(O)cc2O)oc2cc(O)cc(O)c12
REMARK SMILES IDX 5 1 3 2 2 3 1 4 22 5 20 6 19 7 17 8 16 9 15 10 14 11 6 12
REMARK SMILES IDX 8 13 7 14 9 15 11 16 12 17 10 18 13 20 4 22 21 24 18 26
REMARK H PARENT 10 19 13 21 4 23 21 25 18 27
REMARK Flexibility Score: inf
ROOT
ATOM      1  C   UNL     1      23.691  62.910  31.053  1.00  0.00     0.184 A 
ATOM      2  C   UNL     1      22.712  63.894  31.282  1.00  0.00     0.208 A 
ATOM      3  C   UNL     1      22.257  64.660  30.199  1.00  0.00     0.238 A 
ATOM      4  O   UNL     1      21.387  65.552  30.393  1.00  0.00    -0.285 OA
ATOM      5  C   UNL     1      22.771  64.418  28.909  1.00  0.00     0.111 A 
ATOM      6  C   UNL     1      22.363  65.144  27.763  1.00  0.00     0.134 A 
ATOM      7  C   UNL     1      22.917  64.837  26.512  1.00  0.00     0.093 A 
ATOM      8  C   UNL     1      23.866  63.821  26.383  1.00  0.00     0.123 A 
ATOM      9  C   UNL     1      24.274  63.101  27.510  1.00  0.00     0.094 A 
ATOM     10  C   UNL     1      23.736  63.392  28.766  1.00  0.00     0.146 A 
ATOM     11  O   UNL     1      24.144  62.697  29.822  1.00  0.00    -0.451 OA
ENDROOT
BRANCH   1  12
ATOM     12  C   UNL     1      24.222  62.075  32.151  1.00  0.00     0.063 A 
ATOM     13  C   UNL     1      24.945  61.900  34.465  1.00  0.00     0.047 A 
ATOM     14  C   UNL     1      24.449  62.663  33.405  1.00  0.00     0.020 A 
ATOM     15  C   UNL     1      25.206  60.536  34.289  1.00  0.00     0.119 A 
ATOM     16  C   UNL     1      24.960  59.937  33.050  1.00  0.00     0.093 A 
ATOM     17  C   UNL     1      24.457  60.694  31.981  1.00  0.00     0.130 A 
BRANCH  15  18
ATOM     18  O   UNL     1      25.704  59.766  35.338  1.00  0.00    -0.508 OA
ATOM     19  H   UNL     1      25.493  59.988  36.304  1.00  0.00     0.293 HD
ENDBRANCH  15  18
BRANCH  17  20
ATOM     20  O   UNL     1      24.170  60.073  30.765  1.00  0.00    -0.507 OA
ATOM     21  H   UNL     1      24.254  60.566  29.884  1.00  0.00     0.293 HD
ENDBRANCH  17  20
ENDBRANCH   1  12
BRANCH   2  22
ATOM     22  O   UNL     1      22.189  64.078  32.564  1.00  0.00    -0.502 OA
ATOM     23  H   UNL     1      21.196  64.189  32.733  1.00  0.00     0.293 HD
ENDBRANCH   2  22
BRANCH   6  24
ATOM     24  O   UNL     1      21.415  66.164  27.859  1.00  0.00    -0.507 OA
ATOM     25  H   UNL     1      20.431  65.965  27.998  1.00  0.00     0.293 HD
ENDBRANCH   6  24
BRANCH   8  26
ATOM     26  O   UNL     1      24.400  63.535  25.127  1.00  0.00    -0.508 OA
ATOM     27  H   UNL     1      25.225  62.957  25.021  1.00  0.00     0.293 HD
ENDBRANCH   8  26
TORSDOF 6
ENDMDL
MODEL 6
REMARK VINA RESULT:    -6.956      1.674      2.052
REMARK INTER + INTRA:          -8.783
REMARK INTER:                  -8.399
REMARK INTRA:                  -0.384
REMARK UNBOUND:                -0.404
REMARK SMILES O=c1c(O)c(-c2ccc(O)cc2O)oc2cc(O)cc(O)c12
REMARK SMILES IDX 5 1 3 2 2 3 1 4 22 5 20 6 19 7 17 8 16 9 15 10 14 11 6 12
REMARK SMILES IDX 8 13 7 14 9 15 11 16 12 17 10 18 13 20 4 22 21 24 18 26
REMARK H PARENT 10 19 13 21 4 23 21 25 18 27
REMARK Flexibility Score: inf
ROOT
ATOM      1  C   UNL     1      17.401  56.383  27.399  1.00  0.00     0.184 A 
ATOM      2  C   UNL     1      18.143  56.560  26.217  1.00  0.00     0.208 A 
ATOM      3  C   UNL     1      17.869  57.671  25.406  1.00  0.00     0.238 A 
ATOM      4  O   UNL     1      18.519  57.835  24.338  1.00  0.00    -0.285 OA
ATOM      5  C   UNL     1      16.876  58.592  25.799  1.00  0.00     0.111 A 
ATOM      6  C   UNL     1      16.541  59.740  25.040  1.00  0.00     0.134 A 
ATOM      7  C   UNL     1      15.546  60.614  25.504  1.00  0.00     0.093 A 
ATOM      8  C   UNL     1      14.884  60.365  26.708  1.00  0.00     0.123 A 
ATOM      9  C   UNL     1      15.210  59.234  27.461  1.00  0.00     0.094 A 
ATOM     10  C   UNL     1      16.197  58.349  27.017  1.00  0.00     0.146 A 
ATOM     11  O   UNL     1      16.484  57.278  27.749  1.00  0.00    -0.451 OA
ENDROOT
BRANCH   1  12
ATOM     12  C   UNL     1      17.632  55.229  28.294  1.00  0.00     0.063 A 
ATOM     13  C   UNL     1      17.029  52.975  28.974  1.00  0.00     0.047 A 
ATOM     14  C   UNL     1      16.833  54.085  28.148  1.00  0.00     0.020 A 
ATOM     15  C   UNL     1      18.037  52.990  29.945  1.00  0.00     0.119 A 
ATOM     16  C   UNL     1      18.853  54.116  30.081  1.00  0.00     0.093 A 
ATOM     17  C   UNL     1      18.668  55.233  29.253  1.00  0.00     0.130 A 
BRANCH  15  18
ATOM     18  O   UNL     1      18.239  51.890  30.777  1.00  0.00    -0.508 OA
ATOM     19  H   UNL     1      18.016  51.926  31.764  1.00  0.00     0.293 HD
ENDBRANCH  15  18
BRANCH  17  20
ATOM     20  O   UNL     1      19.520  56.331  29.367  1.00  0.00    -0.507 OA
ATOM     21  H   UNL     1      20.352  56.301  29.945  1.00  0.00     0.293 HD
ENDBRANCH  17  20
ENDBRANCH   1  12
BRANCH   2  22
ATOM     22  O   UNL     1      19.151  55.654  25.879  1.00  0.00    -0.502 OA
ATOM     23  H   UNL     1      19.830  55.846  25.152  1.00  0.00     0.293 HD
ENDBRANCH   2  22
BRANCH   6  24
ATOM     24  O   UNL     1      17.185  60.017  23.834  1.00  0.00    -0.507 OA
ATOM     25  H   UNL     1      17.293  59.313  23.113  1.00  0.00     0.293 HD
ENDBRANCH   6  24
BRANCH   8  26
ATOM     26  O   UNL     1      13.900  61.251  27.146  1.00  0.00    -0.508 OA
ATOM     27  H   UNL     1      13.632  62.058  26.597  1.00  0.00     0.293 HD
ENDBRANCH   8  26
TORSDOF 6
ENDMDL
MODEL 7
REMARK VINA RESULT:    -6.940      9.389     10.926
REMARK INTER + INTRA:          -8.763
REMARK INTER:                  -8.453
REMARK INTRA:                  -0.310
REMARK UNBOUND:                -0.404
REMARK SMILES O=c1c(O)c(-c2ccc(O)cc2O)oc2cc(O)cc(O)c12
REMARK SMILES IDX 5 1 3 2 2 3 1 4 22 5 20 6 19 7 17 8 16 9 15 10 14 11 6 12
REMARK SMILES IDX 8 13 7 14 9 15 11 16 12 17 10 18 13 20 4 22 21 24 18 26
REMARK H PARENT 10 19 13 21 4 23 21 25 18 27
REMARK Flexibility Score: inf
ROOT
ATOM      1  C   UNL     1      23.172  63.734  28.044  1.00  0.00     0.184 A 
ATOM      2  C   UNL     1      21.826  64.128  28.147  1.00  0.00     0.208 A 
ATOM      3  C   UNL     1      21.210  64.112  29.406  1.00  0.00     0.238 A 
ATOM      4  O   UNL     1      20.000  64.452  29.510  1.00  0.00    -0.285 OA
ATOM      5  C   UNL     1      21.953  63.724  30.540  1.00  0.00     0.111 A 
ATOM      6  C   UNL     1      21.409  63.684  31.847  1.00  0.00     0.134 A 
ATOM      7  C   UNL     1      22.217  63.294  32.926  1.00  0.00     0.093 A 
ATOM      8  C   UNL     1      23.555  62.947  32.724  1.00  0.00     0.123 A 
ATOM      9  C   UNL     1      24.098  62.984  31.437  1.00  0.00     0.094 A 
ATOM     10  C   UNL     1      23.310  63.367  30.348  1.00  0.00     0.146 A 
ATOM     11  O   UNL     1      23.849  63.389  29.134  1.00  0.00    -0.451 OA
ENDROOT
BRANCH   1  12
ATOM     12  C   UNL     1      23.878  63.718  26.745  1.00  0.00     0.063 A 
ATOM     13  C   UNL     1      24.656  64.932  24.789  1.00  0.00     0.047 A 
ATOM     14  C   UNL     1      23.990  64.912  26.017  1.00  0.00     0.020 A 
ATOM     15  C   UNL     1      25.232  63.762  24.282  1.00  0.00     0.119 A 
ATOM     16  C   UNL     1      25.146  62.573  25.012  1.00  0.00     0.093 A 
ATOM     17  C   UNL     1      24.485  62.544  26.248  1.00  0.00     0.130 A 
BRANCH  15  18
ATOM     18  O   UNL     1      25.896  63.769  23.056  1.00  0.00    -0.508 OA
ATOM     19  H   UNL     1      26.635  63.106  22.851  1.00  0.00     0.293 HD
ENDBRANCH  15  18
BRANCH  17  20
ATOM     20  O   UNL     1      24.448  61.363  26.990  1.00  0.00    -0.507 OA
ATOM     21  H   UNL     1      23.871  60.578  26.711  1.00  0.00     0.293 HD
ENDBRANCH  17  20
ENDBRANCH   1  12
BRANCH   2  22
ATOM     22  O   UNL     1      21.130  64.551  27.011  1.00  0.00    -0.502 OA
ATOM     23  H   UNL     1      21.008  65.531  26.784  1.00  0.00     0.293 HD
ENDBRANCH   2  22
BRANCH   6  24
ATOM     24  O   UNL     1      20.077  64.027  32.081  1.00  0.00    -0.507 OA
ATOM     25  H   UNL     1      19.748  64.289  33.002  1.00  0.00     0.293 HD
ENDBRANCH   6  24
BRANCH   8  26
ATOM     26  O   UNL     1      24.336  62.564  33.814  1.00  0.00    -0.508 OA
ATOM     27  H   UNL     1      25.347  62.630  33.790  1.00  0.00     0.293 HD
ENDBRANCH   8  26
TORSDOF 6
ENDMDL
MODEL 8
REMARK VINA RESULT:    -6.929      9.830     11.590
REMARK INTER + INTRA:          -8.750
REMARK INTER:                  -8.454
REMARK INTRA:                  -0.297
REMARK UNBOUND:                -0.404
REMARK SMILES O=c1c(O)c(-c2ccc(O)cc2O)oc2cc(O)cc(O)c12
REMARK SMILES IDX 5 1 3 2 2 3 1 4 22 5 20 6 19 7 17 8 16 9 15 10 14 11 6 12
REMARK SMILES IDX 8 13 7 14 9 15 11 16 12 17 10 18 13 20 4 22 21 24 18 26
REMARK H PARENT 10 19 13 21 4 23 21 25 18 27
REMARK Flexibility Score: inf
ROOT
ATOM      1  C   UNL     1      23.402  62.933  30.558  1.00  0.00     0.184 A 
ATOM      2  C   UNL     1      24.275  61.834  30.645  1.00  0.00     0.208 A 
ATOM      3  C   UNL     1      24.613  61.336  31.911  1.00  0.00     0.238 A 
ATOM      4  O   UNL     1      25.404  60.358  32.003  1.00  0.00    -0.285 OA
ATOM      5  C   UNL     1      24.058  61.929  33.064  1.00  0.00     0.111 A 
ATOM      6  C   UNL     1      24.344  61.485  34.378  1.00  0.00     0.134 A 
ATOM      7  C   UNL     1      23.744  62.124  35.474  1.00  0.00     0.093 A 
ATOM      8  C   UNL     1      22.865  63.193  35.282  1.00  0.00     0.123 A 
ATOM      9  C   UNL     1      22.580  63.636  33.988  1.00  0.00     0.094 A 
ATOM     10  C   UNL     1      23.168  63.015  32.882  1.00  0.00     0.146 A 
ATOM     11  O   UNL     1      22.884  63.459  31.663  1.00  0.00    -0.451 OA
ENDROOT
BRANCH   1  12
ATOM     12  C   UNL     1      23.013  63.514  29.255  1.00  0.00     0.063 A 
ATOM     13  C   UNL     1      23.140  65.367  27.687  1.00  0.00     0.047 A 
ATOM     14  C   UNL     1      23.484  64.791  28.913  1.00  0.00     0.020 A 
ATOM     15  C   UNL     1      22.334  64.666  26.782  1.00  0.00     0.119 A 
ATOM     16  C   UNL     1      21.881  63.383  27.105  1.00  0.00     0.093 A 
ATOM     17  C   UNL     1      22.226  62.795  28.331  1.00  0.00     0.130 A 
BRANCH  15  18
ATOM     18  O   UNL     1      21.982  65.231  25.558  1.00  0.00    -0.508 OA
ATOM     19  H   UNL     1      22.425  66.077  25.219  1.00  0.00     0.293 HD
ENDBRANCH  15  18
BRANCH  17  20
ATOM     20  O   UNL     1      21.807  61.497  28.620  1.00  0.00    -0.507 OA
ATOM     21  H   UNL     1      21.220  60.973  27.982  1.00  0.00     0.293 HD
ENDBRANCH  17  20
ENDBRANCH   1  12
BRANCH   2  22
ATOM     22  O   UNL     1      24.773  61.240  29.482  1.00  0.00    -0.502 OA
ATOM     23  H   UNL     1      24.295  60.477  29.017  1.00  0.00     0.293 HD
ENDBRANCH   2  22
BRANCH   6  24
ATOM     24  O   UNL     1      25.215  60.419  34.602  1.00  0.00    -0.507 OA
ATOM     25  H   UNL     1      25.399  60.068  35.535  1.00  0.00     0.293 HD
ENDBRANCH   6  24
BRANCH   8  26
ATOM     26  O   UNL     1      22.282  63.809  36.388  1.00  0.00    -0.508 OA
ATOM     27  H   UNL     1      21.838  64.717  36.316  1.00  0.00     0.293 HD
ENDBRANCH   8  26
TORSDOF 6
ENDMDL
MODEL 9
REMARK VINA RESULT:    -6.922     10.349     11.664
REMARK INTER + INTRA:          -8.741
REMARK INTER:                  -8.313
REMARK INTRA:                  -0.428
REMARK UNBOUND:                -0.404
REMARK SMILES O=c1c(O)c(-c2ccc(O)cc2O)oc2cc(O)cc(O)c12
REMARK SMILES IDX 5 1 3 2 2 3 1 4 22 5 20 6 19 7 17 8 16 9 15 10 14 11 6 12
REMARK SMILES IDX 8 13 7 14 9 15 11 16 12 17 10 18 13 20 4 22 21 24 18 26
REMARK H PARENT 10 19 13 21 4 23 21 25 18 27
REMARK Flexibility Score: inf
ROOT
ATOM      1  C   UNL     1      23.644  62.121  31.484  1.00  0.00     0.184 A 
ATOM      2  C   UNL     1      24.915  61.568  31.724  1.00  0.00     0.208 A 
ATOM      3  C   UNL     1      25.445  61.627  33.021  1.00  0.00     0.238 A 
ATOM      4  O   UNL     1      26.588  61.145  33.247  1.00  0.00    -0.285 OA
ATOM      5  C   UNL     1      24.691  62.218  34.056  1.00  0.00     0.111 A 
ATOM      6  C   UNL     1      25.151  62.315  35.392  1.00  0.00     0.134 A 
ATOM      7  C   UNL     1      24.336  62.910  36.366  1.00  0.00     0.093 A 
ATOM      8  C   UNL     1      23.074  63.406  36.033  1.00  0.00     0.123 A 
ATOM      9  C   UNL     1      22.614  63.314  34.717  1.00  0.00     0.094 A 
ATOM     10  C   UNL     1      23.411  62.727  33.730  1.00  0.00     0.146 A 
ATOM     11  O   UNL     1      22.952  62.656  32.485  1.00  0.00    -0.451 OA
ENDROOT
BRANCH   1  12
ATOM     12  C   UNL     1      23.031  62.101  30.139  1.00  0.00     0.063 A 
ATOM     13  C   UNL     1      21.871  60.856  28.404  1.00  0.00     0.047 A 
ATOM     14  C   UNL     1      22.464  60.907  29.668  1.00  0.00     0.020 A 
ATOM     15  C   UNL     1      21.825  62.002  27.601  1.00  0.00     0.119 A 
ATOM     16  C   UNL     1      22.366  63.202  28.073  1.00  0.00     0.093 A 
ATOM     17  C   UNL     1      22.958  63.264  29.343  1.00  0.00     0.130 A 
BRANCH  15  18
ATOM     18  O   UNL     1      21.240  61.962  26.337  1.00  0.00    -0.508 OA
ATOM     19  H   UNL     1      21.270  61.125  25.767  1.00  0.00     0.293 HD
ENDBRANCH  15  18
BRANCH  17  20
ATOM     20  O   UNL     1      23.450  64.478  29.821  1.00  0.00    -0.507 OA
ATOM     21  H   UNL     1      23.319  65.343  29.310  1.00  0.00     0.293 HD
ENDBRANCH  17  20
ENDBRANCH   1  12
BRANCH   2  22
ATOM     22  O   UNL     1      25.618  60.949  30.687  1.00  0.00    -0.502 OA
ATOM     23  H   UNL     1      26.221  60.150  30.843  1.00  0.00     0.293 HD
ENDBRANCH   2  22
BRANCH   6  24
ATOM     24  O   UNL     1      26.406  61.827  35.756  1.00  0.00    -0.507 OA
ATOM     25  H   UNL     1      26.983  61.303  35.108  1.00  0.00     0.293 HD
ENDBRANCH   6  24
BRANCH   8  26
ATOM     26  O   UNL     1      22.284  63.992  37.022  1.00  0.00    -0.508 OA
ATOM     27  H   UNL     1      22.687  64.573  37.747  1.00  0.00     0.293 HD
ENDBRANCH   8  26
TORSDOF 6
ENDMDL
