MODEL 1
REMARK VINA RESULT:    -1.225      0.000      0.000
REMARK INTER + INTRA:          -0.857
REMARK INTER:                  -1.619
REMARK INTRA:                   0.762
REMARK UNBOUND:                 0.762
REMARK SMILES CC[C@H](C=C[C@@H](C)[C@@H]1CC[C@H]2[C@@H]3CC=C4C[C@H](O)CC[C@]4(C)[C@H]3CC[C@]21C)C(C)C
REMARK SMILES IDX 6 1 7 2 5 3 4 4 3 5 2 6 1 7 28 8 29 9 30 10 8 11 9 12 26 13
REMARK SMILES IDX 10 14 11 15 25 16 27 17 12 18 24 19 23 20 13 21 21 22 14 23
REMARK SMILES IDX 15 24 20 25 22 26 16 27 19 28 17 29 18 30
REMARK H PARENT 18 31
REMARK Flexibility Score: inf
ROOT
ATOM      1  C   UNL     1      15.589  -1.816  18.854  1.00  0.00     0.012 C 
ATOM      2  C   UNL     1      16.007  -1.837  17.372  1.00  0.00     0.012 C 
ENDROOT
BRANCH   1   3
ATOM      3  C   UNL     1      16.709  -2.428  19.666  1.00  0.00    -0.028 C 
ATOM      4  C   UNL     1      17.973  -2.476  19.215  1.00  0.00    -0.027 C 
BRANCH   4   5
ATOM      5  C   UNL     1      19.086  -3.095  20.033  1.00  0.00     0.014 C 
BRANCH   5   6
ATOM      6  C   UNL     1      18.905  -4.631  20.103  1.00  0.00     0.004 C 
ATOM      7  C   UNL     1      17.430  -5.041  20.102  1.00  0.00     0.004 C 
ENDBRANCH   5   6
BRANCH   5   8
ATOM      8  C   UNL     1      20.470  -2.648  19.474  1.00  0.00    -0.011 C 
ATOM      9  C   UNL     1      20.459  -1.240  18.857  1.00  0.00     0.008 C 
ATOM     10  C   UNL     1      21.030  -3.665  18.467  1.00  0.00     0.008 C 
ENDBRANCH   5   8
ENDBRANCH   4   5
ENDBRANCH   1   3
BRANCH   1  11
ATOM     11  C   UNL     1      14.238  -2.539  19.201  1.00  0.00     0.002 C 
ATOM     12  C   UNL     1      14.347  -3.761  20.125  1.00  0.00     0.005 C 
ATOM     13  C   UNL     1      13.338  -3.005  18.022  1.00  0.00    -0.026 C 
ATOM     14  C   UNL     1      13.112  -4.625  19.839  1.00  0.00     0.005 C 
ATOM     15  C   UNL     1      12.296  -3.917  18.733  1.00  0.00    -0.001 C 
ATOM     16  C   UNL     1      12.679  -1.842  17.227  1.00  0.00     0.007 C 
ATOM     17  C   UNL     1      14.138  -3.854  16.998  1.00  0.00     0.012 C 
ATOM     18  C   UNL     1      11.065  -3.167  19.359  1.00  0.00     0.000 C 
ATOM     19  C   UNL     1      11.579  -1.118  17.987  1.00  0.00     0.005 C 
ATOM     20  C   UNL     1      10.469  -2.102  18.405  1.00  0.00     0.003 C 
ATOM     21  C   UNL     1       9.977  -4.197  19.732  1.00  0.00     0.031 C 
ATOM     22  C   UNL     1       9.200  -1.376  19.011  1.00  0.00    -0.008 C 
ATOM     23  C   UNL     1       8.653  -3.590  20.088  1.00  0.00    -0.027 C 
ATOM     24  C   UNL     1       8.238  -2.388  19.647  1.00  0.00    -0.065 C 
ATOM     25  C   UNL     1       8.452  -0.630  17.858  1.00  0.00     0.014 C 
ATOM     26  C   UNL     1       9.604  -0.349  20.105  1.00  0.00     0.016 C 
ATOM     27  C   UNL     1       6.811  -1.956  19.954  1.00  0.00     0.063 C 
ATOM     28  C   UNL     1       7.050  -0.129  18.232  1.00  0.00     0.033 C 
ATOM     29  C   UNL     1       6.164  -1.270  18.743  1.00  0.00     0.118 C 
BRANCH  29  30
ATOM     30  O   UNL     1       5.949  -2.201  17.714  1.00  0.00    -0.393 OA
ATOM     31  H   UNL     1       5.949  -1.693  16.860  1.00  0.00     0.210 HD
ENDBRANCH  29  30
ENDBRANCH   1  11
TORSDOF 6
ENDMDL
MODEL 2
REMARK VINA RESULT:     0.560      3.129      9.299
REMARK INTER + INTRA:           1.501
REMARK INTER:                   1.900
REMARK INTRA:                  -0.399
REMARK UNBOUND:                 0.762
REMARK SMILES CC[C@H](C=C[C@@H](C)[C@@H]1CC[C@H]2[C@@H]3CC=C4C[C@H](O)CC[C@]4(C)[C@H]3CC[C@]21C)C(C)C
REMARK SMILES IDX 6 1 7 2 5 3 4 4 3 5 2 6 1 7 28 8 29 9 30 10 8 11 9 12 26 13
REMARK SMILES IDX 10 14 11 15 25 16 27 17 12 18 24 19 23 20 13 21 21 22 14 23
REMARK SMILES IDX 15 24 20 25 22 26 16 27 19 28 17 29 18 30
REMARK H PARENT 18 31
REMARK Flexibility Score: inf
ROOT
ATOM      1  C   UNL     1      12.303  -2.632  17.216  1.00  0.00     0.012 C 
ATOM      2  C   UNL     1      12.010  -1.162  17.573  1.00  0.00     0.012 C 
ENDROOT
BRANCH   1   3
ATOM      3  C   UNL     1      11.041  -3.432  17.454  1.00  0.00    -0.028 C 
ATOM      4  C   UNL     1      10.023  -2.957  18.189  1.00  0.00    -0.027 C 
BRANCH   4   5
ATOM      5  C   UNL     1       8.767  -3.769  18.424  1.00  0.00     0.014 C 
BRANCH   5   6
ATOM      6  C   UNL     1       9.076  -4.974  19.346  1.00  0.00     0.004 C 
ATOM      7  C   UNL     1       7.807  -5.572  19.959  1.00  0.00     0.004 C 
ENDBRANCH   5   6
BRANCH   5   8
ATOM      8  C   UNL     1       7.629  -2.846  18.952  1.00  0.00    -0.011 C 
ATOM      9  C   UNL     1       6.535  -2.558  17.911  1.00  0.00     0.008 C 
ATOM     10  C   UNL     1       8.183  -1.529  19.519  1.00  0.00     0.008 C 
ENDBRANCH   5   8
ENDBRANCH   4   5
ENDBRANCH   1   3
BRANCH   1  11
ATOM     11  C   UNL     1      13.500  -3.303  17.983  1.00  0.00     0.002 C 
ATOM     12  C   UNL     1      13.209  -4.672  18.615  1.00  0.00     0.005 C 
ATOM     13  C   UNL     1      14.199  -2.483  19.103  1.00  0.00    -0.026 C 
ATOM     14  C   UNL     1      14.218  -4.838  19.759  1.00  0.00     0.005 C 
ATOM     15  C   UNL     1      15.081  -3.556  19.806  1.00  0.00    -0.001 C 
ATOM     16  C   UNL     1      15.023  -1.271  18.583  1.00  0.00     0.007 C 
ATOM     17  C   UNL     1      13.171  -1.924  20.123  1.00  0.00     0.012 C 
ATOM     18  C   UNL     1      16.480  -3.816  19.140  1.00  0.00     0.000 C 
ATOM     19  C   UNL     1      16.299  -1.658  17.852  1.00  0.00     0.005 C 
ATOM     20  C   UNL     1      17.211  -2.503  18.762  1.00  0.00     0.003 C 
ATOM     21  C   UNL     1      17.358  -4.640  20.107  1.00  0.00     0.031 C 
ATOM     22  C   UNL     1      18.642  -2.756  18.134  1.00  0.00    -0.008 C 
ATOM     23  C   UNL     1      18.800  -4.724  19.704  1.00  0.00    -0.027 C 
ATOM     24  C   UNL     1      19.419  -3.805  18.941  1.00  0.00    -0.065 C 
ATOM     25  C   UNL     1      19.442  -1.413  18.155  1.00  0.00     0.014 C 
ATOM     26  C   UNL     1      18.535  -3.264  16.669  1.00  0.00     0.016 C 
ATOM     27  C   UNL     1      20.923  -3.926  18.735  1.00  0.00     0.063 C 
ATOM     28  C   UNL     1      20.941  -1.564  17.854  1.00  0.00     0.033 C 
ATOM     29  C   UNL     1      21.608  -2.555  18.812  1.00  0.00     0.118 C 
BRANCH  29  30
ATOM     30  O   UNL     1      21.555  -2.057  20.124  1.00  0.00    -0.393 OA
ATOM     31  H   UNL     1      21.547  -1.066  20.057  1.00  0.00     0.210 HD
ENDBRANCH  29  30
ENDBRANCH   1  11
TORSDOF 6
ENDMDL
