MODEL 1
REMARK VINA RESULT:    -5.013      0.000      0.000
REMARK INTER + INTRA:          -5.500
REMARK INTER:                  -5.453
REMARK INTRA:                  -0.047
REMARK UNBOUND:                -0.047
REMARK SMILES COc1cc2ccc(=O)oc2cc1O
REMARK SMILES IDX 3 1 13 2 12 3 11 4 5 5 4 6 6 7 7 8 8 9 9 10 10 11 2 12 1 13
REMARK SMILES IDX 14 14
REMARK H PARENT 14 15
REMARK Flexibility Score: inf
ROOT
ATOM      1  C   UNL     1      -2.070   7.486   9.947  1.00  0.00     0.161 A 
ATOM      2  C   UNL     1      -1.762   8.804  10.338  1.00  0.00     0.161 A 
ATOM      3  C   UNL     1      -1.748   9.151  11.694  1.00  0.00     0.098 A 
ATOM      4  C   UNL     1      -2.039   8.197  12.672  1.00  0.00     0.142 A 
ATOM      5  C   UNL     1      -2.348   6.875  12.290  1.00  0.00     0.022 A 
ATOM      6  C   UNL     1      -2.363   6.522  10.933  1.00  0.00     0.062 A 
ATOM      7  C   UNL     1      -2.635   5.942  13.292  1.00  0.00     0.019 A 
ATOM      8  C   UNL     1      -2.608   6.343  14.628  1.00  0.00     0.094 A 
ATOM      9  C   UNL     1      -2.293   7.671  14.931  1.00  0.00     0.336 A 
ATOM     10  O   UNL     1      -2.263   8.051  16.130  1.00  0.00    -0.246 OA
ATOM     11  O   UNL     1      -2.024   8.537  13.959  1.00  0.00    -0.423 OA
ENDROOT
BRANCH   1  12
ATOM     12  O   UNL     1      -2.073   7.171   8.578  1.00  0.00    -0.493 OA
ATOM     13  C   UNL     1      -2.973   6.255   7.962  1.00  0.00     0.278 C 
ENDBRANCH   1  12
BRANCH   2  14
ATOM     14  O   UNL     1      -1.466   9.785   9.392  1.00  0.00    -0.504 OA
ATOM     15  H   UNL     1      -0.626  10.348   9.442  1.00  0.00     0.293 HD
ENDBRANCH   2  14
TORSDOF 2
ENDMDL
MODEL 2
REMARK VINA RESULT:    -4.992      1.853      4.931
REMARK INTER + INTRA:          -5.477
REMARK INTER:                  -5.414
REMARK INTRA:                  -0.063
REMARK UNBOUND:                -0.047
REMARK SMILES COc1cc2ccc(=O)oc2cc1O
REMARK SMILES IDX 3 1 13 2 12 3 11 4 5 5 4 6 6 7 7 8 8 9 9 10 10 11 2 12 1 13
REMARK SMILES IDX 14 14
REMARK H PARENT 14 15
REMARK Flexibility Score: inf
ROOT
ATOM      1  C   UNL     1      -1.839   8.525  11.408  1.00  0.00     0.161 A 
ATOM      2  C   UNL     1      -2.014   7.531  12.391  1.00  0.00     0.161 A 
ATOM      3  C   UNL     1      -2.363   6.228  12.020  1.00  0.00     0.098 A 
ATOM      4  C   UNL     1      -2.541   5.898  10.674  1.00  0.00     0.142 A 
ATOM      5  C   UNL     1      -2.367   6.887   9.683  1.00  0.00     0.022 A 
ATOM      6  C   UNL     1      -2.018   8.194  10.050  1.00  0.00     0.062 A 
ATOM      7  C   UNL     1      -2.553   6.527   8.344  1.00  0.00     0.019 A 
ATOM      8  C   UNL     1      -2.900   5.213   8.030  1.00  0.00     0.094 A 
ATOM      9  C   UNL     1      -3.055   4.287   9.066  1.00  0.00     0.336 A 
ATOM     10  O   UNL     1      -3.369   3.097   8.804  1.00  0.00    -0.246 OA
ATOM     11  O   UNL     1      -2.873   4.656  10.331  1.00  0.00    -0.423 OA
ENDROOT
BRANCH   1  12
ATOM     12  O   UNL     1      -1.488   9.823  11.815  1.00  0.00    -0.493 OA
ATOM     13  C   UNL     1      -2.356  10.951  11.757  1.00  0.00     0.278 C 
ENDBRANCH   1  12
BRANCH   2  14
ATOM     14  O   UNL     1      -1.846   7.821  13.745  1.00  0.00    -0.504 OA
ATOM     15  H   UNL     1      -1.341   7.205  14.370  1.00  0.00     0.293 HD
ENDBRANCH   2  14
TORSDOF 2
ENDMDL
MODEL 3
REMARK VINA RESULT:    -4.984      4.808      6.969
REMARK INTER + INTRA:          -5.468
REMARK INTER:                  -5.404
REMARK INTRA:                  -0.064
REMARK UNBOUND:                -0.047
REMARK SMILES COc1cc2ccc(=O)oc2cc1O
REMARK SMILES IDX 3 1 13 2 12 3 11 4 5 5 4 6 6 7 7 8 8 9 9 10 10 11 2 12 1 13
REMARK SMILES IDX 14 14
REMARK H PARENT 14 15
REMARK Flexibility Score: inf
ROOT
ATOM      1  C   UNL     1      -5.364   3.730  16.361  1.00  0.00     0.161 A 
ATOM      2  C   UNL     1      -4.869   5.039  16.197  1.00  0.00     0.161 A 
ATOM      3  C   UNL     1      -3.721   5.267  15.429  1.00  0.00     0.098 A 
ATOM      4  C   UNL     1      -3.055   4.202  14.819  1.00  0.00     0.142 A 
ATOM      5  C   UNL     1      -3.542   2.888  14.978  1.00  0.00     0.022 A 
ATOM      6  C   UNL     1      -4.692   2.655  15.746  1.00  0.00     0.062 A 
ATOM      7  C   UNL     1      -2.853   1.842  14.355  1.00  0.00     0.019 A 
ATOM      8  C   UNL     1      -1.714   2.125  13.602  1.00  0.00     0.094 A 
ATOM      9  C   UNL     1      -1.290   3.453  13.489  1.00  0.00     0.336 A 
ATOM     10  O   UNL     1      -0.264   3.729  12.814  1.00  0.00    -0.246 OA
ATOM     11  O   UNL     1      -1.963   4.428  14.091  1.00  0.00    -0.423 OA
ENDROOT
BRANCH   1  12
ATOM     12  O   UNL     1      -6.518   3.537  17.137  1.00  0.00    -0.493 OA
ATOM     13  C   UNL     1      -6.524   3.013  18.461  1.00  0.00     0.278 C 
ENDBRANCH   1  12
BRANCH   2  14
ATOM     14  O   UNL     1      -5.506   6.128  16.790  1.00  0.00    -0.504 OA
ATOM     15  H   UNL     1      -6.255   6.016  17.462  1.00  0.00     0.293 HD
ENDBRANCH   2  14
TORSDOF 2
ENDMDL
MODEL 4
REMARK VINA RESULT:    -4.832      1.753      3.004
REMARK INTER + INTRA:          -5.303
REMARK INTER:                  -5.259
REMARK INTRA:                  -0.044
REMARK UNBOUND:                -0.047
REMARK SMILES COc1cc2ccc(=O)oc2cc1O
REMARK SMILES IDX 3 1 13 2 12 3 11 4 5 5 4 6 6 7 7 8 8 9 9 10 10 11 2 12 1 13
REMARK SMILES IDX 14 14
REMARK H PARENT 14 15
REMARK Flexibility Score: inf
ROOT
ATOM      1  C   UNL     1      -1.606   9.104  11.454  1.00  0.00     0.161 A 
ATOM      2  C   UNL     1      -1.895   7.939  10.715  1.00  0.00     0.161 A 
ATOM      3  C   UNL     1      -2.323   6.779  11.369  1.00  0.00     0.098 A 
ATOM      4  C   UNL     1      -2.469   6.761  12.758  1.00  0.00     0.142 A 
ATOM      5  C   UNL     1      -2.182   7.922  13.506  1.00  0.00     0.022 A 
ATOM      6  C   UNL     1      -1.753   9.088  12.856  1.00  0.00     0.062 A 
ATOM      7  C   UNL     1      -2.337   7.874  14.896  1.00  0.00     0.019 A 
ATOM      8  C   UNL     1      -2.766   6.690  15.496  1.00  0.00     0.094 A 
ATOM      9  C   UNL     1      -3.032   5.579  14.690  1.00  0.00     0.336 A 
ATOM     10  O   UNL     1      -3.419   4.502  15.212  1.00  0.00    -0.246 OA
ATOM     11  O   UNL     1      -2.876   5.652  13.371  1.00  0.00    -0.423 OA
ENDROOT
BRANCH   1  12
ATOM     12  O   UNL     1      -1.180  10.252  10.766  1.00  0.00    -0.493 OA
ATOM     13  C   UNL     1      -0.506  11.352  11.370  1.00  0.00     0.278 C 
ENDBRANCH   1  12
BRANCH   2  14
ATOM     14  O   UNL     1      -1.762   7.917   9.327  1.00  0.00    -0.504 OA
ATOM     15  H   UNL     1      -1.759   8.763   8.771  1.00  0.00     0.293 HD
ENDBRANCH   2  14
TORSDOF 2
ENDMDL
MODEL 5
REMARK VINA RESULT:    -4.815      2.881      6.037
REMARK INTER + INTRA:          -5.284
REMARK INTER:                  -5.237
REMARK INTRA:                  -0.047
REMARK UNBOUND:                -0.047
REMARK SMILES COc1cc2ccc(=O)oc2cc1O
REMARK SMILES IDX 3 1 13 2 12 3 11 4 5 5 4 6 6 7 7 8 8 9 9 10 10 11 2 12 1 13
REMARK SMILES IDX 14 14
REMARK H PARENT 14 15
REMARK Flexibility Score: inf
ROOT
ATOM      1  C   UNL     1      -2.761   5.774  14.599  1.00  0.00     0.161 A 
ATOM      2  C   UNL     1      -3.285   4.475  14.754  1.00  0.00     0.161 A 
ATOM      3  C   UNL     1      -3.471   3.653  13.636  1.00  0.00     0.098 A 
ATOM      4  C   UNL     1      -3.140   4.110  12.358  1.00  0.00     0.142 A 
ATOM      5  C   UNL     1      -2.615   5.409  12.194  1.00  0.00     0.022 A 
ATOM      6  C   UNL     1      -2.426   6.236  13.310  1.00  0.00     0.062 A 
ATOM      7  C   UNL     1      -2.293   5.838  10.902  1.00  0.00     0.019 A 
ATOM      8  C   UNL     1      -2.500   4.978   9.823  1.00  0.00     0.094 A 
ATOM      9  C   UNL     1      -3.024   3.704  10.063  1.00  0.00     0.336 A 
ATOM     10  O   UNL     1      -3.218   2.914   9.103  1.00  0.00    -0.246 OA
ATOM     11  O   UNL     1      -3.321   3.321  11.302  1.00  0.00    -0.423 OA
ENDROOT
BRANCH   1  12
ATOM     12  O   UNL     1      -2.586   6.571  15.741  1.00  0.00    -0.493 OA
ATOM     13  C   UNL     1      -2.780   7.982  15.780  1.00  0.00     0.278 C 
ENDBRANCH   1  12
BRANCH   2  14
ATOM     14  O   UNL     1      -3.628   3.983  16.012  1.00  0.00    -0.504 OA
ATOM     15  H   UNL     1      -3.697   4.581  16.826  1.00  0.00     0.293 HD
ENDBRANCH   2  14
TORSDOF 2
ENDMDL
MODEL 6
REMARK VINA RESULT:    -4.755      4.958      6.368
REMARK INTER + INTRA:          -5.219
REMARK INTER:                  -5.163
REMARK INTRA:                  -0.057
REMARK UNBOUND:                -0.047
REMARK SMILES COc1cc2ccc(=O)oc2cc1O
REMARK SMILES IDX 3 1 13 2 12 3 11 4 5 5 4 6 6 7 7 8 8 9 9 10 10 11 2 12 1 13
REMARK SMILES IDX 14 14
REMARK H PARENT 14 15
REMARK Flexibility Score: inf
ROOT
ATOM      1  C   UNL     1      -1.838   3.174  14.081  1.00  0.00     0.161 A 
ATOM      2  C   UNL     1      -2.431   1.903  14.217  1.00  0.00     0.161 A 
ATOM      3  C   UNL     1      -3.650   1.763  14.890  1.00  0.00     0.098 A 
ATOM      4  C   UNL     1      -4.292   2.879  15.432  1.00  0.00     0.142 A 
ATOM      5  C   UNL     1      -3.707   4.156  15.300  1.00  0.00     0.022 A 
ATOM      6  C   UNL     1      -2.485   4.301  14.627  1.00  0.00     0.062 A 
ATOM      7  C   UNL     1      -4.373   5.254  15.854  1.00  0.00     0.019 A 
ATOM      8  C   UNL     1      -5.585   5.058  16.514  1.00  0.00     0.094 A 
ATOM      9  C   UNL     1      -6.105   3.763  16.605  1.00  0.00     0.336 A 
ATOM     10  O   UNL     1      -7.198   3.565  17.198  1.00  0.00    -0.246 OA
ATOM     11  O   UNL     1      -5.451   2.736  16.070  1.00  0.00    -0.423 OA
ENDROOT
BRANCH   1  12
ATOM     12  O   UNL     1      -0.615   3.279  13.399  1.00  0.00    -0.493 OA
ATOM     13  C   UNL     1      -0.486   3.537  12.004  1.00  0.00     0.278 C 
ENDBRANCH   1  12
BRANCH   2  14
ATOM     14  O   UNL     1      -1.821   0.765  13.690  1.00  0.00    -0.504 OA
ATOM     15  H   UNL     1      -0.968   0.381  14.077  1.00  0.00     0.293 HD
ENDBRANCH   2  14
TORSDOF 2
ENDMDL
MODEL 7
REMARK VINA RESULT:    -4.631      1.971      4.362
REMARK INTER + INTRA:          -5.084
REMARK INTER:                  -5.040
REMARK INTRA:                  -0.044
REMARK UNBOUND:                -0.047
REMARK SMILES COc1cc2ccc(=O)oc2cc1O
REMARK SMILES IDX 3 1 13 2 12 3 11 4 5 5 4 6 6 7 7 8 8 9 9 10 10 11 2 12 1 13
REMARK SMILES IDX 14 14
REMARK H PARENT 14 15
REMARK Flexibility Score: inf
ROOT
ATOM      1  C   UNL     1      -2.686   5.740  13.436  1.00  0.00     0.161 A 
ATOM      2  C   UNL     1      -2.557   6.633  14.518  1.00  0.00     0.161 A 
ATOM      3  C   UNL     1      -2.216   7.971  14.289  1.00  0.00     0.098 A 
ATOM      4  C   UNL     1      -2.000   8.435  12.989  1.00  0.00     0.142 A 
ATOM      5  C   UNL     1      -2.127   7.548  11.900  1.00  0.00     0.022 A 
ATOM      6  C   UNL     1      -2.469   6.207  12.123  1.00  0.00     0.062 A 
ATOM      7  C   UNL     1      -1.905   8.042  10.609  1.00  0.00     0.019 A 
ATOM      8  C   UNL     1      -1.567   9.384  10.439  1.00  0.00     0.094 A 
ATOM      9  C   UNL     1      -1.459  10.204  11.566  1.00  0.00     0.336 A 
ATOM     10  O   UNL     1      -1.155  11.418  11.433  1.00  0.00    -0.246 OA
ATOM     11  O   UNL     1      -1.676   9.709  12.782  1.00  0.00    -0.423 OA
ENDROOT
BRANCH   1  12
ATOM     12  O   UNL     1      -3.030   4.405  13.700  1.00  0.00    -0.493 OA
ATOM     13  C   UNL     1      -3.516   3.487  12.725  1.00  0.00     0.278 C 
ENDBRANCH   1  12
BRANCH   2  14
ATOM     14  O   UNL     1      -2.764   6.209  15.829  1.00  0.00    -0.504 OA
ATOM     15  H   UNL     1      -3.106   5.282  16.050  1.00  0.00     0.293 HD
ENDBRANCH   2  14
TORSDOF 2
ENDMDL
MODEL 8
REMARK VINA RESULT:    -4.607      2.967      5.490
REMARK INTER + INTRA:          -5.058
REMARK INTER:                  -4.993
REMARK INTRA:                  -0.065
REMARK UNBOUND:                -0.047
REMARK SMILES COc1cc2ccc(=O)oc2cc1O
REMARK SMILES IDX 3 1 13 2 12 3 11 4 5 5 4 6 6 7 7 8 8 9 9 10 10 11 2 12 1 13
REMARK SMILES IDX 14 14
REMARK H PARENT 14 15
REMARK Flexibility Score: inf
ROOT
ATOM      1  C   UNL     1      -3.559   4.023  14.934  1.00  0.00     0.161 A 
ATOM      2  C   UNL     1      -3.367   3.565  13.616  1.00  0.00     0.161 A 
ATOM      3  C   UNL     1      -2.870   4.432  12.635  1.00  0.00     0.098 A 
ATOM      4  C   UNL     1      -2.560   5.757  12.952  1.00  0.00     0.142 A 
ATOM      5  C   UNL     1      -2.749   6.223  14.270  1.00  0.00     0.022 A 
ATOM      6  C   UNL     1      -3.246   5.359  15.255  1.00  0.00     0.062 A 
ATOM      7  C   UNL     1      -2.430   7.555  14.557  1.00  0.00     0.019 A 
ATOM      8  C   UNL     1      -1.939   8.375  13.541  1.00  0.00     0.094 A 
ATOM      9  C   UNL     1      -1.777   7.843  12.258  1.00  0.00     0.336 A 
ATOM     10  O   UNL     1      -1.336   8.567  11.328  1.00  0.00    -0.246 OA
ATOM     11  O   UNL     1      -2.089   6.573  12.013  1.00  0.00    -0.423 OA
ENDROOT
BRANCH   1  12
ATOM     12  O   UNL     1      -4.057   3.127  15.894  1.00  0.00    -0.493 OA
ATOM     13  C   UNL     1      -5.401   3.112  16.364  1.00  0.00     0.278 C 
ENDBRANCH   1  12
BRANCH   2  14
ATOM     14  O   UNL     1      -3.664   2.251  13.260  1.00  0.00    -0.504 OA
ATOM     15  H   UNL     1      -3.003   1.494  13.386  1.00  0.00     0.293 HD
ENDBRANCH   2  14
TORSDOF 2
ENDMDL
MODEL 9
REMARK VINA RESULT:    -4.576      2.386      3.013
REMARK INTER + INTRA:          -5.024
REMARK INTER:                  -4.963
REMARK INTRA:                  -0.062
REMARK UNBOUND:                -0.047
REMARK SMILES COc1cc2ccc(=O)oc2cc1O
REMARK SMILES IDX 3 1 13 2 12 3 11 4 5 5 4 6 6 7 7 8 8 9 9 10 10 11 2 12 1 13
REMARK SMILES IDX 14 14
REMARK H PARENT 14 15
REMARK Flexibility Score: inf
ROOT
ATOM      1  C   UNL     1      -2.462   4.398   9.407  1.00  0.00     0.161 A 
ATOM      2  C   UNL     1      -2.000   5.700   9.683  1.00  0.00     0.161 A 
ATOM      3  C   UNL     1      -2.056   6.205  10.987  1.00  0.00     0.098 A 
ATOM      4  C   UNL     1      -2.570   5.426  12.026  1.00  0.00     0.142 A 
ATOM      5  C   UNL     1      -3.035   4.122  11.759  1.00  0.00     0.022 A 
ATOM      6  C   UNL     1      -2.980   3.611  10.455  1.00  0.00     0.062 A 
ATOM      7  C   UNL     1      -3.545   3.366  12.821  1.00  0.00     0.019 A 
ATOM      8  C   UNL     1      -3.578   3.919  14.101  1.00  0.00     0.094 A 
ATOM      9  C   UNL     1      -3.100   5.220  14.290  1.00  0.00     0.336 A 
ATOM     10  O   UNL     1      -3.122   5.737  15.437  1.00  0.00    -0.246 OA
ATOM     11  O   UNL     1      -2.621   5.916  13.263  1.00  0.00    -0.423 OA
ENDROOT
BRANCH   1  12
ATOM     12  O   UNL     1      -2.389   3.921   8.088  1.00  0.00    -0.493 OA
ATOM     13  C   UNL     1      -1.524   2.878   7.652  1.00  0.00     0.278 C 
ENDBRANCH   1  12
BRANCH   2  14
ATOM     14  O   UNL     1      -1.480   6.508   8.673  1.00  0.00    -0.504 OA
ATOM     15  H   UNL     1      -1.809   7.452   8.513  1.00  0.00     0.293 HD
ENDBRANCH   2  14
TORSDOF 2
ENDMDL
