MODEL 1
REMARK VINA RESULT:    -3.765      0.000      0.000
REMARK INTER + INTRA:          -6.554
REMARK INTER:                  -5.966
REMARK INTRA:                  -0.588
REMARK UNBOUND:                -0.588
REMARK SMILES CCCCCCCCCCCC(=O)[O-]
REMARK SMILES IDX 7 1 8 2 9 3 10 4 11 5 12 6 13 7 14 8 6 9 5 10 4 11 3 12 2 13
REMARK SMILES IDX 1 14
REMARK H PARENT
REMARK Flexibility Score: inf
ROOT
ATOM      1  C   UNL     1       4.379   4.792   1.609  1.00  0.00     0.000 C 
ENDROOT
BRANCH   1   2
ATOM      2  C   UNL     1       5.564   4.191   0.842  1.00  0.00     0.000 C 
BRANCH   2   3
ATOM      3  C   UNL     1       6.896   4.556   1.515  1.00  0.00     0.000 C 
BRANCH   3   4
ATOM      4  C   UNL     1       7.915   5.147   0.528  1.00  0.00     0.006 C 
BRANCH   4   5
ATOM      5  C   UNL     1       8.125   6.654   0.727  1.00  0.00     0.053 C 
BRANCH   5   6
ATOM      6  C   UNL     1       7.330   7.429  -0.276  1.00  0.00     0.041 C 
ATOM      7  O   UNL     1       7.745   7.548  -1.459  1.00  0.00    -0.550 OA
ATOM      8  O   UNL     1       6.152   8.061   0.108  1.00  0.00    -0.550 OA
ENDBRANCH   5   6
ENDBRANCH   4   5
ENDBRANCH   3   4
ENDBRANCH   2   3
ENDBRANCH   1   2
BRANCH   1   9
ATOM      9  C   UNL     1       3.947   6.130   0.991  1.00  0.00     0.000 C 
BRANCH   9  10
ATOM     10  C   UNL     1       3.202   7.028   1.992  1.00  0.00    -0.000 C 
BRANCH  10  11
ATOM     11  C   UNL     1       3.962   7.193   3.319  1.00  0.00    -0.000 C 
BRANCH  11  12
ATOM     12  C   UNL     1       3.030   7.522   4.496  1.00  0.00    -0.000 C 
BRANCH  12  13
ATOM     13  C   UNL     1       1.654   8.022   4.037  1.00  0.00    -0.003 C 
ATOM     14  C   UNL     1       0.683   8.116   5.211  1.00  0.00     0.004 C 
ENDBRANCH  12  13
ENDBRANCH  11  12
ENDBRANCH  10  11
ENDBRANCH   9  10
ENDBRANCH   1   9
TORSDOF 10
ENDMDL
MODEL 2
REMARK VINA RESULT:    -3.722      2.611      5.526
REMARK INTER + INTRA:          -6.486
REMARK INTER:                  -5.205
REMARK INTRA:                  -1.281
REMARK UNBOUND:                -0.588
REMARK SMILES CCCCCCCCCCCC(=O)[O-]
REMARK SMILES IDX 7 1 8 2 9 3 10 4 11 5 12 6 13 7 14 8 6 9 5 10 4 11 3 12 2 13
REMARK SMILES IDX 1 14
REMARK H PARENT
REMARK Flexibility Score: inf
ROOT
ATOM      1  C   UNL     1       5.583   3.988   1.027  1.00  0.00     0.000 C 
ENDROOT
BRANCH   1   2
ATOM      2  C   UNL     1       4.636   5.160   0.739  1.00  0.00     0.000 C 
BRANCH   2   3
ATOM      3  C   UNL     1       3.984   5.671   2.034  1.00  0.00     0.000 C 
BRANCH   3   4
ATOM      4  C   UNL     1       3.868   7.202   2.074  1.00  0.00     0.006 C 
BRANCH   4   5
ATOM      5  C   UNL     1       2.514   7.679   2.615  1.00  0.00     0.053 C 
BRANCH   5   6
ATOM      6  C   UNL     1       2.561   7.798   4.106  1.00  0.00     0.041 C 
ATOM      7  O   UNL     1       1.498   7.760   4.779  1.00  0.00    -0.550 OA
ATOM      8  O   UNL     1       3.777   8.001   4.750  1.00  0.00    -0.550 OA
ENDBRANCH   5   6
ENDBRANCH   4   5
ENDBRANCH   3   4
ENDBRANCH   2   3
ENDBRANCH   1   2
BRANCH   1   9
ATOM      9  C   UNL     1       7.049   4.404   0.827  1.00  0.00     0.000 C 
BRANCH   9  10
ATOM     10  C   UNL     1       7.664   5.024   2.091  1.00  0.00    -0.000 C 
BRANCH  10  11
ATOM     11  C   UNL     1       7.982   6.520   1.923  1.00  0.00    -0.000 C 
BRANCH  11  12
ATOM     12  C   UNL     1       7.862   6.989   0.465  1.00  0.00    -0.000 C 
BRANCH  12  13
ATOM     13  C   UNL     1       6.843   8.124   0.293  1.00  0.00    -0.003 C 
ATOM     14  C   UNL     1       6.248   8.122  -1.112  1.00  0.00     0.004 C 
ENDBRANCH  12  13
ENDBRANCH  11  12
ENDBRANCH  10  11
ENDBRANCH   9  10
ENDBRANCH   1   9
TORSDOF 10
ENDMDL
MODEL 3
REMARK VINA RESULT:    -3.361      2.843      5.382
REMARK INTER + INTRA:          -5.914
REMARK INTER:                  -4.560
REMARK INTRA:                  -1.354
REMARK UNBOUND:                -0.588
REMARK SMILES CCCCCCCCCCCC(=O)[O-]
REMARK SMILES IDX 7 1 8 2 9 3 10 4 11 5 12 6 13 7 14 8 6 9 5 10 4 11 3 12 2 13
REMARK SMILES IDX 1 14
REMARK H PARENT
REMARK Flexibility Score: inf
ROOT
ATOM      1  C   UNL     1       4.722   4.832   1.898  1.00  0.00     0.000 C 
ENDROOT
BRANCH   1   2
ATOM      2  C   UNL     1       3.658   5.690   1.202  1.00  0.00     0.000 C 
BRANCH   2   3
ATOM      3  C   UNL     1       4.215   7.079   0.851  1.00  0.00     0.000 C 
BRANCH   3   4
ATOM      4  C   UNL     1       3.924   8.125   1.938  1.00  0.00     0.006 C 
BRANCH   4   5
ATOM      5  C   UNL     1       4.919   8.058   3.104  1.00  0.00     0.053 C 
BRANCH   5   6
ATOM      6  C   UNL     1       4.202   7.776   4.386  1.00  0.00     0.041 C 
ATOM      7  O   UNL     1       4.714   8.112   5.486  1.00  0.00    -0.550 OA
ATOM      8  O   UNL     1       2.988   7.098   4.370  1.00  0.00    -0.550 OA
ENDBRANCH   5   6
ENDBRANCH   4   5
ENDBRANCH   3   4
ENDBRANCH   2   3
ENDBRANCH   1   2
BRANCH   1   9
ATOM      9  C   UNL     1       5.809   4.393   0.904  1.00  0.00     0.000 C 
BRANCH   9  10
ATOM     10  C   UNL     1       7.213   4.388   1.530  1.00  0.00    -0.000 C 
BRANCH  10  11
ATOM     11  C   UNL     1       8.119   5.492   0.960  1.00  0.00    -0.000 C 
BRANCH  11  12
ATOM     12  C   UNL     1       8.125   6.759   1.830  1.00  0.00    -0.000 C 
BRANCH  12  13
ATOM     13  C   UNL     1       7.993   8.044   1.000  1.00  0.00    -0.003 C 
ATOM     14  C   UNL     1       7.821   7.726  -0.482  1.00  0.00     0.004 C 
ENDBRANCH  12  13
ENDBRANCH  11  12
ENDBRANCH  10  11
ENDBRANCH   9  10
ENDBRANCH   1   9
TORSDOF 10
ENDMDL
MODEL 4
REMARK VINA RESULT:    -3.143      2.528      5.032
REMARK INTER + INTRA:          -5.568
REMARK INTER:                  -4.324
REMARK INTRA:                  -1.245
REMARK UNBOUND:                -0.588
REMARK SMILES CCCCCCCCCCCC(=O)[O-]
REMARK SMILES IDX 7 1 8 2 9 3 10 4 11 5 12 6 13 7 14 8 6 9 5 10 4 11 3 12 2 13
REMARK SMILES IDX 1 14
REMARK H PARENT
REMARK Flexibility Score: inf
ROOT
ATOM      1  C   UNL     1       8.125   5.876   1.811  1.00  0.00     0.000 C 
ENDROOT
BRANCH   1   2
ATOM      2  C   UNL     1       7.880   6.743   3.053  1.00  0.00     0.000 C 
BRANCH   2   3
ATOM      3  C   UNL     1       7.316   8.118   2.662  1.00  0.00     0.000 C 
BRANCH   3   4
ATOM      4  C   UNL     1       5.782   8.124   2.570  1.00  0.00     0.006 C 
BRANCH   4   5
ATOM      5  C   UNL     1       5.107   7.974   3.940  1.00  0.00     0.053 C 
BRANCH   5   6
ATOM      6  C   UNL     1       3.701   7.492   3.778  1.00  0.00     0.041 C 
ATOM      7  O   UNL     1       2.998   7.896   2.814  1.00  0.00    -0.550 OA
ATOM      8  O   UNL     1       3.147   6.633   4.721  1.00  0.00    -0.550 OA
ENDBRANCH   5   6
ENDBRANCH   4   5
ENDBRANCH   3   4
ENDBRANCH   2   3
ENDBRANCH   1   2
BRANCH   1   9
ATOM      9  C   UNL     1       7.629   4.439   2.037  1.00  0.00     0.000 C 
BRANCH   9  10
ATOM     10  C   UNL     1       6.499   4.047   1.072  1.00  0.00    -0.000 C 
BRANCH  10  11
ATOM     11  C   UNL     1       5.104   4.389   1.624  1.00  0.00    -0.000 C 
BRANCH  11  12
ATOM     12  C   UNL     1       4.338   5.373   0.726  1.00  0.00    -0.000 C 
BRANCH  12  13
ATOM     13  C   UNL     1       5.111   5.730  -0.551  1.00  0.00    -0.003 C 
ATOM     14  C   UNL     1       5.577   7.183  -0.523  1.00  0.00     0.004 C 
ENDBRANCH  12  13
ENDBRANCH  11  12
ENDBRANCH  10  11
ENDBRANCH   9  10
ENDBRANCH   1   9
TORSDOF 10
ENDMDL
MODEL 5
REMARK VINA RESULT:    -3.061     21.765     23.220
REMARK INTER + INTRA:          -5.438
REMARK INTER:                  -5.016
REMARK INTRA:                  -0.422
REMARK UNBOUND:                -0.588
REMARK SMILES CCCCCCCCCCCC(=O)[O-]
REMARK SMILES IDX 7 1 8 2 9 3 10 4 11 5 12 6 13 7 14 8 6 9 5 10 4 11 3 12 2 13
REMARK SMILES IDX 1 14
REMARK H PARENT
REMARK Flexibility Score: inf
ROOT
ATOM      1  C   UNL     1      -9.967 -10.347  -1.216  1.00  0.00     0.000 C 
ENDROOT
BRANCH   1   2
ATOM      2  C   UNL     1     -11.443  -9.985  -1.419  1.00  0.00     0.000 C 
BRANCH   2   3
ATOM      3  C   UNL     1     -11.907 -10.344  -2.840  1.00  0.00     0.000 C 
BRANCH   3   4
ATOM      4  C   UNL     1     -10.932 -11.287  -3.560  1.00  0.00     0.006 C 
BRANCH   4   5
ATOM      5  C   UNL     1     -10.354 -10.675  -4.842  1.00  0.00     0.053 C 
BRANCH   5   6
ATOM      6  C   UNL     1      -8.962 -11.170  -5.075  1.00  0.00     0.041 C 
ATOM      7  O   UNL     1      -8.722 -11.970  -6.019  1.00  0.00    -0.550 OA
ATOM      8  O   UNL     1      -7.934 -10.787  -4.221  1.00  0.00    -0.550 OA
ENDBRANCH   5   6
ENDBRANCH   4   5
ENDBRANCH   3   4
ENDBRANCH   2   3
ENDBRANCH   1   2
BRANCH   1   9
ATOM      9  C   UNL     1      -9.792 -11.286  -0.012  1.00  0.00     0.000 C 
BRANCH   9  10
ATOM     10  C   UNL     1      -8.327 -11.694   0.208  1.00  0.00    -0.000 C 
BRANCH  10  11
ATOM     11  C   UNL     1      -8.038 -12.100   1.664  1.00  0.00    -0.000 C 
BRANCH  11  12
ATOM     12  C   UNL     1      -6.605 -11.755   2.101  1.00  0.00    -0.000 C 
BRANCH  12  13
ATOM     13  C   UNL     1      -6.440 -11.748   3.627  1.00  0.00    -0.003 C 
ATOM     14  C   UNL     1      -5.309 -10.817   4.053  1.00  0.00     0.004 C 
ENDBRANCH  12  13
ENDBRANCH  11  12
ENDBRANCH  10  11
ENDBRANCH   9  10
ENDBRANCH   1   9
TORSDOF 10
ENDMDL
MODEL 6
REMARK VINA RESULT:    -3.013      1.451      1.983
REMARK INTER + INTRA:          -5.363
REMARK INTER:                  -4.555
REMARK INTRA:                  -0.808
REMARK UNBOUND:                -0.588
REMARK SMILES CCCCCCCCCCCC(=O)[O-]
REMARK SMILES IDX 7 1 8 2 9 3 10 4 11 5 12 6 13 7 14 8 6 9 5 10 4 11 3 12 2 13
REMARK SMILES IDX 1 14
REMARK H PARENT
REMARK Flexibility Score: inf
ROOT
ATOM      1  C   UNL     1       4.211   5.135   2.623  1.00  0.00     0.000 C 
ENDROOT
BRANCH   1   2
ATOM      2  C   UNL     1       5.081   4.409   1.590  1.00  0.00     0.000 C 
BRANCH   2   3
ATOM      3  C   UNL     1       5.707   5.404   0.601  1.00  0.00     0.000 C 
BRANCH   3   4
ATOM      4  C   UNL     1       7.154   5.043   0.234  1.00  0.00     0.006 C 
BRANCH   4   5
ATOM      5  C   UNL     1       8.116   5.177   1.422  1.00  0.00     0.053 C 
BRANCH   5   6
ATOM      6  C   UNL     1       8.111   6.580   1.942  1.00  0.00     0.041 C 
ATOM      7  O   UNL     1       8.058   6.797   3.181  1.00  0.00    -0.550 OA
ATOM      8  O   UNL     1       8.117   7.650   1.055  1.00  0.00    -0.550 OA
ENDBRANCH   5   6
ENDBRANCH   4   5
ENDBRANCH   3   4
ENDBRANCH   2   3
ENDBRANCH   1   2
BRANCH   1   9
ATOM      9  C   UNL     1       4.276   6.658   2.423  1.00  0.00     0.000 C 
BRANCH   9  10
ATOM     10  C   UNL     1       4.437   7.420   3.748  1.00  0.00    -0.000 C 
BRANCH  10  11
ATOM     11  C   UNL     1       3.088   7.736   4.416  1.00  0.00    -0.000 C 
BRANCH  11  12
ATOM     12  C   UNL     1       1.980   8.041   3.396  1.00  0.00    -0.000 C 
BRANCH  12  13
ATOM     13  C   UNL     1       0.590   8.125   4.042  1.00  0.00    -0.003 C 
ATOM     14  C   UNL     1       0.672   7.913   5.551  1.00  0.00     0.004 C 
ENDBRANCH  12  13
ENDBRANCH  11  12
ENDBRANCH  10  11
ENDBRANCH   9  10
ENDBRANCH   1   9
TORSDOF 10
ENDMDL
MODEL 7
REMARK VINA RESULT:    -2.693     21.676     22.943
REMARK INTER + INTRA:          -4.856
REMARK INTER:                  -4.229
REMARK INTRA:                  -0.627
REMARK UNBOUND:                -0.588
REMARK SMILES CCCCCCCCCCCC(=O)[O-]
REMARK SMILES IDX 7 1 8 2 9 3 10 4 11 5 12 6 13 7 14 8 6 9 5 10 4 11 3 12 2 13
REMARK SMILES IDX 1 14
REMARK H PARENT
REMARK Flexibility Score: inf
ROOT
ATOM      1  C   UNL     1     -10.453 -10.184  -3.344  1.00  0.00     0.000 C 
ENDROOT
BRANCH   1   2
ATOM      2  C   UNL     1     -10.931 -10.103  -4.799  1.00  0.00     0.000 C 
BRANCH   2   3
ATOM      3  C   UNL     1      -9.850 -10.617  -5.762  1.00  0.00     0.000 C 
BRANCH   3   4
ATOM      4  C   UNL     1      -8.511 -10.888  -5.058  1.00  0.00     0.006 C 
BRANCH   4   5
ATOM      5  C   UNL     1      -7.307 -10.720  -5.994  1.00  0.00     0.053 C 
BRANCH   5   6
ATOM      6  C   UNL     1      -6.808  -9.310  -5.953  1.00  0.00     0.041 C 
ATOM      7  O   UNL     1      -7.604  -8.350  -6.125  1.00  0.00    -0.550 OA
ATOM      8  O   UNL     1      -5.453  -9.056  -5.774  1.00  0.00    -0.550 OA
ENDBRANCH   5   6
ENDBRANCH   4   5
ENDBRANCH   3   4
ENDBRANCH   2   3
ENDBRANCH   1   2
BRANCH   1   9
ATOM      9  C   UNL     1     -11.638 -10.392  -2.387  1.00  0.00     0.000 C 
BRANCH   9  10
ATOM     10  C   UNL     1     -11.765  -9.264  -1.351  1.00  0.00    -0.000 C 
BRANCH  10  11
ATOM     11  C   UNL     1     -11.492  -9.745   0.084  1.00  0.00    -0.000 C 
BRANCH  11  12
ATOM     12  C   UNL     1     -11.470 -11.278   0.200  1.00  0.00    -0.000 C 
BRANCH  12  13
ATOM     13  C   UNL     1     -10.173 -11.802   0.832  1.00  0.00    -0.003 C 
ATOM     14  C   UNL     1      -8.988 -11.618  -0.112  1.00  0.00     0.004 C 
ENDBRANCH  12  13
ENDBRANCH  11  12
ENDBRANCH  10  11
ENDBRANCH   9  10
ENDBRANCH   1   9
TORSDOF 10
ENDMDL
MODEL 8
REMARK VINA RESULT:    -2.680     22.245     23.985
REMARK INTER + INTRA:          -4.835
REMARK INTER:                  -4.093
REMARK INTRA:                  -0.742
REMARK UNBOUND:                -0.588
REMARK SMILES CCCCCCCCCCCC(=O)[O-]
REMARK SMILES IDX 7 1 8 2 9 3 10 4 11 5 12 6 13 7 14 8 6 9 5 10 4 11 3 12 2 13
REMARK SMILES IDX 1 14
REMARK H PARENT
REMARK Flexibility Score: inf
ROOT
ATOM      1  C   UNL     1     -11.012  -9.889  -3.320  1.00  0.00     0.000 C 
ENDROOT
BRANCH   1   2
ATOM      2  C   UNL     1     -12.106  -9.934  -2.245  1.00  0.00     0.000 C 
BRANCH   2   3
ATOM      3  C   UNL     1     -11.685  -9.141  -0.998  1.00  0.00     0.000 C 
BRANCH   3   4
ATOM      4  C   UNL     1     -11.442 -10.043   0.222  1.00  0.00     0.006 C 
BRANCH   4   5
ATOM      5  C   UNL     1     -11.084 -11.483  -0.169  1.00  0.00     0.053 C 
BRANCH   5   6
ATOM      6  C   UNL     1      -9.607 -11.699  -0.070  1.00  0.00     0.041 C 
ATOM      7  O   UNL     1      -9.099 -12.125   1.001  1.00  0.00    -0.550 OA
ATOM      8  O   UNL     1      -8.784 -11.383  -1.144  1.00  0.00    -0.550 OA
ENDBRANCH   5   6
ENDBRANCH   4   5
ENDBRANCH   3   4
ENDBRANCH   2   3
ENDBRANCH   1   2
BRANCH   1   9
ATOM      9  C   UNL     1     -11.219 -11.000  -4.362  1.00  0.00     0.000 C 
BRANCH   9  10
ATOM     10  C   UNL     1      -9.968 -11.873  -4.549  1.00  0.00    -0.000 C 
BRANCH  10  11
ATOM     11  C   UNL     1      -9.261 -11.614  -5.890  1.00  0.00    -0.000 C 
BRANCH  11  12
ATOM     12  C   UNL     1      -7.743 -11.432  -5.733  1.00  0.00    -0.000 C 
BRANCH  12  13
ATOM     13  C   UNL     1      -7.382 -10.318  -4.740  1.00  0.00    -0.003 C 
ATOM     14  C   UNL     1      -6.230  -9.466  -5.265  1.00  0.00     0.004 C 
ENDBRANCH  12  13
ENDBRANCH  11  12
ENDBRANCH  10  11
ENDBRANCH   9  10
ENDBRANCH   1   9
TORSDOF 10
ENDMDL
MODEL 9
REMARK VINA RESULT:    -2.586      1.656      2.336
REMARK INTER + INTRA:          -4.685
REMARK INTER:                  -3.596
REMARK INTRA:                  -1.089
REMARK UNBOUND:                -0.588
REMARK SMILES CCCCCCCCCCCC(=O)[O-]
REMARK SMILES IDX 7 1 8 2 9 3 10 4 11 5 12 6 13 7 14 8 6 9 5 10 4 11 3 12 2 13
REMARK SMILES IDX 1 14
REMARK H PARENT
REMARK Flexibility Score: inf
ROOT
ATOM      1  C   UNL     1       4.125   5.381   0.342  1.00  0.00     0.000 C 
ENDROOT
BRANCH   1   2
ATOM      2  C   UNL     1       5.132   4.231   0.474  1.00  0.00     0.000 C 
BRANCH   2   3
ATOM      3  C   UNL     1       5.972   4.380   1.752  1.00  0.00     0.000 C 
BRANCH   3   4
ATOM      4  C   UNL     1       7.458   4.636   1.457  1.00  0.00     0.006 C 
BRANCH   4   5
ATOM      5  C   UNL     1       8.125   5.528   2.512  1.00  0.00     0.053 C 
BRANCH   5   6
ATOM      6  C   UNL     1       8.089   6.960   2.081  1.00  0.00     0.041 C 
ATOM      7  O   UNL     1       8.114   7.881   2.940  1.00  0.00    -0.550 OA
ATOM      8  O   UNL     1       7.979   7.279   0.733  1.00  0.00    -0.550 OA
ENDBRANCH   5   6
ENDBRANCH   4   5
ENDBRANCH   3   4
ENDBRANCH   2   3
ENDBRANCH   1   2
BRANCH   1   9
ATOM      9  C   UNL     1       4.839   6.700   0.007  1.00  0.00     0.000 C 
BRANCH   9  10
ATOM     10  C   UNL     1       4.178   7.914   0.678  1.00  0.00    -0.000 C 
BRANCH  10  11
ATOM     11  C   UNL     1       2.900   7.542   1.450  1.00  0.00    -0.000 C 
BRANCH  11  12
ATOM     12  C   UNL     1       2.960   7.957   2.928  1.00  0.00    -0.000 C 
BRANCH  12  13
ATOM     13  C   UNL     1       3.979   7.135   3.730  1.00  0.00    -0.003 C 
ATOM     14  C   UNL     1       4.859   8.037   4.590  1.00  0.00     0.004 C 
ENDBRANCH  12  13
ENDBRANCH  11  12
ENDBRANCH  10  11
ENDBRANCH   9  10
ENDBRANCH   1   9
TORSDOF 10
ENDMDL
