MODEL 1
REMARK VINA RESULT:    -3.291      0.000      0.000
REMARK INTER + INTRA:          -6.788
REMARK INTER:                  -5.985
REMARK INTRA:                  -0.803
REMARK UNBOUND:                -0.803
REMARK SMILES CCCCCCCCCCCCCCCC(=O)[O-]
REMARK SMILES IDX 9 1 10 2 11 3 12 4 13 5 14 6 15 7 16 8 17 9 18 10 8 11 7 12
REMARK SMILES IDX 6 13 5 14 4 15 3 16 2 17 1 18
REMARK H PARENT
REMARK Flexibility Score: inf
ROOT
ATOM      1  C   UNL     1      -5.658  36.920   1.698  1.00  0.00     0.000 C 
ENDROOT
BRANCH   1   2
ATOM      2  C   UNL     1      -4.231  36.925   1.128  1.00  0.00     0.000 C 
BRANCH   2   3
ATOM      3  C   UNL     1      -4.123  36.161  -0.203  1.00  0.00     0.000 C 
BRANCH   3   4
ATOM      4  C   UNL     1      -3.914  34.652  -0.002  1.00  0.00     0.000 C 
BRANCH   4   5
ATOM      5  C   UNL     1      -3.875  34.250   1.483  1.00  0.00     0.000 C 
BRANCH   5   6
ATOM      6  C   UNL     1      -5.176  33.576   1.946  1.00  0.00     0.006 C 
BRANCH   6   7
ATOM      7  C   UNL     1      -6.052  33.115   0.774  1.00  0.00     0.053 C 
BRANCH   7   8
ATOM      8  C   UNL     1      -7.270  32.408   1.279  1.00  0.00     0.041 C 
ATOM      9  O   UNL     1      -8.370  33.016   1.356  1.00  0.00    -0.550 OA
ATOM     10  O   UNL     1      -7.179  31.091   1.710  1.00  0.00    -0.550 OA
ENDBRANCH   7   8
ENDBRANCH   6   7
ENDBRANCH   5   6
ENDBRANCH   4   5
ENDBRANCH   3   4
ENDBRANCH   2   3
ENDBRANCH   1   2
BRANCH   1  11
ATOM     11  C   UNL     1      -6.731  36.760   0.610  1.00  0.00     0.000 C 
BRANCH  11  12
ATOM     12  C   UNL     1      -7.115  38.121   0.015  1.00  0.00    -0.000 C 
BRANCH  12  13
ATOM     13  C   UNL     1      -6.983  38.111  -1.513  1.00  0.00    -0.000 C 
BRANCH  13  14
ATOM     14  C   UNL     1      -8.286  37.649  -2.175  1.00  0.00    -0.000 C 
BRANCH  14  15
ATOM     15  C   UNL     1      -9.453  37.686  -1.181  1.00  0.00    -0.000 C 
BRANCH  15  16
ATOM     16  C   UNL     1     -10.053  36.286  -0.984  1.00  0.00    -0.000 C 
BRANCH  16  17
ATOM     17  C   UNL     1     -11.564  36.248  -1.264  1.00  0.00    -0.003 C 
ATOM     18  C   UNL     1     -11.892  36.332  -2.754  1.00  0.00     0.004 C 
ENDBRANCH  16  17
ENDBRANCH  15  16
ENDBRANCH  14  15
ENDBRANCH  13  14
ENDBRANCH  12  13
ENDBRANCH  11  12
ENDBRANCH   1  11
TORSDOF 14
ENDMDL
MODEL 2
REMARK VINA RESULT:    -3.226      1.317      2.675
REMARK INTER + INTRA:          -6.670
REMARK INTER:                  -5.485
REMARK INTRA:                  -1.186
REMARK UNBOUND:                -0.803
REMARK SMILES CCCCCCCCCCCCCCCC(=O)[O-]
REMARK SMILES IDX 9 1 10 2 11 3 12 4 13 5 14 6 15 7 16 8 17 9 18 10 8 11 7 12
REMARK SMILES IDX 6 13 5 14 4 15 3 16 2 17 1 18
REMARK H PARENT
REMARK Flexibility Score: inf
ROOT
ATOM      1  C   UNL     1      -4.180  35.167  -0.318  1.00  0.00     0.000 C 
ENDROOT
BRANCH   1   2
ATOM      2  C   UNL     1      -3.976  34.868   1.176  1.00  0.00     0.000 C 
BRANCH   2   3
ATOM      3  C   UNL     1      -5.059  33.937   1.746  1.00  0.00     0.000 C 
BRANCH   3   4
ATOM      4  C   UNL     1      -6.455  34.581   1.738  1.00  0.00     0.000 C 
BRANCH   4   5
ATOM      5  C   UNL     1      -7.486  33.755   0.949  1.00  0.00     0.000 C 
BRANCH   5   6
ATOM      6  C   UNL     1      -7.179  32.250   0.972  1.00  0.00     0.006 C 
BRANCH   6   7
ATOM      7  C   UNL     1      -7.966  31.504   2.057  1.00  0.00     0.053 C 
BRANCH   7   8
ATOM      8  C   UNL     1      -7.406  30.132   2.258  1.00  0.00     0.041 C 
ATOM      9  O   UNL     1      -6.788  29.556   1.324  1.00  0.00    -0.550 OA
ATOM     10  O   UNL     1      -7.609  29.469   3.461  1.00  0.00    -0.550 OA
ENDBRANCH   7   8
ENDBRANCH   6   7
ENDBRANCH   5   6
ENDBRANCH   4   5
ENDBRANCH   3   4
ENDBRANCH   2   3
ENDBRANCH   1   2
BRANCH   1  11
ATOM     11  C   UNL     1      -4.271  36.672  -0.615  1.00  0.00     0.000 C 
BRANCH  11  12
ATOM     12  C   UNL     1      -4.364  37.482   0.684  1.00  0.00    -0.000 C 
BRANCH  12  13
ATOM     13  C   UNL     1      -5.806  37.929   0.952  1.00  0.00    -0.000 C 
BRANCH  13  14
ATOM     14  C   UNL     1      -6.581  38.105  -0.359  1.00  0.00    -0.000 C 
BRANCH  14  15
ATOM     15  C   UNL     1      -7.519  36.917  -0.608  1.00  0.00    -0.000 C 
BRANCH  15  16
ATOM     16  C   UNL     1      -8.912  37.398  -1.040  1.00  0.00    -0.000 C 
BRANCH  16  17
ATOM     17  C   UNL     1      -9.984  36.305  -0.898  1.00  0.00    -0.003 C 
ATOM     18  C   UNL     1     -11.250  36.612  -1.698  1.00  0.00     0.004 C 
ENDBRANCH  16  17
ENDBRANCH  15  16
ENDBRANCH  14  15
ENDBRANCH  13  14
ENDBRANCH  12  13
ENDBRANCH  11  12
ENDBRANCH   1  11
TORSDOF 14
ENDMDL
MODEL 3
REMARK VINA RESULT:    -3.058      2.167      5.483
REMARK INTER + INTRA:          -6.363
REMARK INTER:                  -5.080
REMARK INTRA:                  -1.284
REMARK UNBOUND:                -0.803
REMARK SMILES CCCCCCCCCCCCCCCC(=O)[O-]
REMARK SMILES IDX 9 1 10 2 11 3 12 4 13 5 14 6 15 7 16 8 17 9 18 10 8 11 7 12
REMARK SMILES IDX 6 13 5 14 4 15 3 16 2 17 1 18
REMARK H PARENT
REMARK Flexibility Score: inf
ROOT
ATOM      1  C   UNL     1      -4.106  35.641  -0.416  1.00  0.00     0.000 C 
ENDROOT
BRANCH   1   2
ATOM      2  C   UNL     1      -4.379  37.082  -0.877  1.00  0.00     0.000 C 
BRANCH   2   3
ATOM      3  C   UNL     1      -4.824  37.998   0.275  1.00  0.00     0.000 C 
BRANCH   3   4
ATOM      4  C   UNL     1      -6.353  38.125   0.371  1.00  0.00     0.000 C 
BRANCH   4   5
ATOM      5  C   UNL     1      -7.061  37.794  -0.954  1.00  0.00     0.000 C 
BRANCH   5   6
ATOM      6  C   UNL     1      -8.303  36.911  -0.755  1.00  0.00     0.006 C 
BRANCH   6   7
ATOM      7  C   UNL     1      -9.578  37.551  -1.318  1.00  0.00     0.053 C 
BRANCH   7   8
ATOM      8  C   UNL     1     -10.588  36.498  -1.649  1.00  0.00     0.041 C 
ATOM      9  O   UNL     1     -11.099  36.448  -2.799  1.00  0.00    -0.550 OA
ATOM     10  O   UNL     1     -11.002  35.603  -0.671  1.00  0.00    -0.550 OA
ENDBRANCH   7   8
ENDBRANCH   6   7
ENDBRANCH   5   6
ENDBRANCH   4   5
ENDBRANCH   3   4
ENDBRANCH   2   3
ENDBRANCH   1   2
BRANCH   1  11
ATOM     11  C   UNL     1      -3.933  35.529   1.107  1.00  0.00     0.000 C 
BRANCH  11  12
ATOM     12  C   UNL     1      -4.726  34.339   1.662  1.00  0.00    -0.000 C 
BRANCH  12  13
ATOM     13  C   UNL     1      -6.222  34.665   1.746  1.00  0.00    -0.000 C 
BRANCH  13  14
ATOM     14  C   UNL     1      -6.997  33.993   0.606  1.00  0.00    -0.000 C 
BRANCH  14  15
ATOM     15  C   UNL     1      -7.781  32.778   1.115  1.00  0.00    -0.000 C 
BRANCH  15  16
ATOM     16  C   UNL     1      -6.841  31.599   1.406  1.00  0.00    -0.000 C 
BRANCH  16  17
ATOM     17  C   UNL     1      -7.594  30.268   1.563  1.00  0.00    -0.003 C 
ATOM     18  C   UNL     1      -7.814  29.882   3.025  1.00  0.00     0.004 C 
ENDBRANCH  16  17
ENDBRANCH  15  16
ENDBRANCH  14  15
ENDBRANCH  13  14
ENDBRANCH  12  13
ENDBRANCH  11  12
ENDBRANCH   1  11
TORSDOF 14
ENDMDL
MODEL 4
REMARK VINA RESULT:    -2.918      2.414      5.760
REMARK INTER + INTRA:          -6.109
REMARK INTER:                  -5.167
REMARK INTRA:                  -0.942
REMARK UNBOUND:                -0.803
REMARK SMILES CCCCCCCCCCCCCCCC(=O)[O-]
REMARK SMILES IDX 9 1 10 2 11 3 12 4 13 5 14 6 15 7 16 8 17 9 18 10 8 11 7 12
REMARK SMILES IDX 6 13 5 14 4 15 3 16 2 17 1 18
REMARK H PARENT
REMARK Flexibility Score: inf
ROOT
ATOM      1  C   UNL     1      -6.138  36.475   1.976  1.00  0.00     0.000 C 
ENDROOT
BRANCH   1   2
ATOM      2  C   UNL     1      -6.895  36.519   0.638  1.00  0.00     0.000 C 
BRANCH   2   3
ATOM      3  C   UNL     1      -7.142  37.955   0.146  1.00  0.00     0.000 C 
BRANCH   3   4
ATOM      4  C   UNL     1      -6.846  38.124  -1.353  1.00  0.00     0.000 C 
BRANCH   4   5
ATOM      5  C   UNL     1      -8.076  37.852  -2.236  1.00  0.00     0.000 C 
BRANCH   5   6
ATOM      6  C   UNL     1      -9.389  37.859  -1.438  1.00  0.00     0.006 C 
BRANCH   6   7
ATOM      7  C   UNL     1      -9.979  36.454  -1.263  1.00  0.00     0.053 C 
BRANCH   7   8
ATOM      8  C   UNL     1     -11.353  36.388  -1.853  1.00  0.00     0.041 C 
ATOM      9  O   UNL     1     -11.504  36.256  -3.096  1.00  0.00    -0.550 OA
ATOM     10  O   UNL     1     -12.467  36.522  -1.034  1.00  0.00    -0.550 OA
ENDBRANCH   7   8
ENDBRANCH   6   7
ENDBRANCH   5   6
ENDBRANCH   4   5
ENDBRANCH   3   4
ENDBRANCH   2   3
ENDBRANCH   1   2
BRANCH   1  11
ATOM     11  C   UNL     1      -4.616  36.365   1.793  1.00  0.00     0.000 C 
BRANCH  11  12
ATOM     12  C   UNL     1      -4.265  35.947   0.359  1.00  0.00    -0.000 C 
BRANCH  12  13
ATOM     13  C   UNL     1      -4.309  34.421   0.205  1.00  0.00    -0.000 C 
BRANCH  13  14
ATOM     14  C   UNL     1      -4.009  33.724   1.537  1.00  0.00    -0.000 C 
BRANCH  14  15
ATOM     15  C   UNL     1      -5.229  32.940   2.036  1.00  0.00    -0.000 C 
BRANCH  15  16
ATOM     16  C   UNL     1      -6.363  32.971   1.000  1.00  0.00    -0.000 C 
BRANCH  16  17
ATOM     17  C   UNL     1      -7.543  32.066   1.390  1.00  0.00    -0.003 C 
ATOM     18  C   UNL     1      -7.137  30.602   1.553  1.00  0.00     0.004 C 
ENDBRANCH  16  17
ENDBRANCH  15  16
ENDBRANCH  14  15
ENDBRANCH  13  14
ENDBRANCH  12  13
ENDBRANCH  11  12
ENDBRANCH   1  11
TORSDOF 14
ENDMDL
MODEL 5
REMARK VINA RESULT:    -2.661     11.947     15.824
REMARK INTER + INTRA:          -5.643
REMARK INTER:                  -5.030
REMARK INTRA:                  -0.613
REMARK UNBOUND:                -0.803
REMARK SMILES CCCCCCCCCCCCCCCC(=O)[O-]
REMARK SMILES IDX 9 1 10 2 11 3 12 4 13 5 14 6 15 7 16 8 17 9 18 10 8 11 7 12
REMARK SMILES IDX 6 13 5 14 4 15 3 16 2 17 1 18
REMARK H PARENT
REMARK Flexibility Score: inf
ROOT
ATOM      1  C   UNL     1     -18.356  33.509  -9.976  1.00  0.00     0.000 C 
ENDROOT
BRANCH   1   2
ATOM      2  C   UNL     1     -18.625  34.494 -11.124  1.00  0.00     0.000 C 
BRANCH   2   3
ATOM      3  C   UNL     1     -17.984  34.047 -12.449  1.00  0.00     0.000 C 
BRANCH   3   4
ATOM      4  C   UNL     1     -17.026  32.858 -12.269  1.00  0.00     0.000 C 
BRANCH   4   5
ATOM      5  C   UNL     1     -15.556  33.294 -12.137  1.00  0.00     0.000 C 
BRANCH   5   6
ATOM      6  C   UNL     1     -15.163  33.610 -10.686  1.00  0.00     0.006 C 
BRANCH   6   7
ATOM      7  C   UNL     1     -14.219  34.815 -10.579  1.00  0.00     0.053 C 
BRANCH   7   8
ATOM      8  C   UNL     1     -13.915  35.115  -9.146  1.00  0.00     0.041 C 
ATOM      9  O   UNL     1     -12.873  35.752  -8.838  1.00  0.00    -0.550 OA
ATOM     10  O   UNL     1     -14.757  34.649  -8.145  1.00  0.00    -0.550 OA
ENDBRANCH   7   8
ENDBRANCH   6   7
ENDBRANCH   5   6
ENDBRANCH   4   5
ENDBRANCH   3   4
ENDBRANCH   2   3
ENDBRANCH   1   2
BRANCH   1  11
ATOM     11  C   UNL     1     -18.984  33.960  -8.648  1.00  0.00     0.000 C 
BRANCH  11  12
ATOM     12  C   UNL     1     -20.391  33.372  -8.480  1.00  0.00    -0.000 C 
BRANCH  12  13
ATOM     13  C   UNL     1     -21.284  34.309  -7.657  1.00  0.00    -0.000 C 
BRANCH  13  14
ATOM     14  C   UNL     1     -22.589  33.611  -7.253  1.00  0.00    -0.000 C 
BRANCH  14  15
ATOM     15  C   UNL     1     -23.769  34.125  -8.087  1.00  0.00    -0.000 C 
BRANCH  15  16
ATOM     16  C   UNL     1     -24.100  35.582  -7.730  1.00  0.00    -0.000 C 
BRANCH  16  17
ATOM     17  C   UNL     1     -24.125  36.500  -8.963  1.00  0.00    -0.003 C 
ATOM     18  C   UNL     1     -23.808  37.956  -8.622  1.00  0.00     0.004 C 
ENDBRANCH  16  17
ENDBRANCH  15  16
ENDBRANCH  14  15
ENDBRANCH  13  14
ENDBRANCH  12  13
ENDBRANCH  11  12
ENDBRANCH   1  11
TORSDOF 14
ENDMDL
MODEL 6
REMARK VINA RESULT:    -2.660     11.463     15.217
REMARK INTER + INTRA:          -5.640
REMARK INTER:                  -5.600
REMARK INTRA:                  -0.040
REMARK UNBOUND:                -0.803
REMARK SMILES CCCCCCCCCCCCCCCC(=O)[O-]
REMARK SMILES IDX 9 1 10 2 11 3 12 4 13 5 14 6 15 7 16 8 17 9 18 10 8 11 7 12
REMARK SMILES IDX 6 13 5 14 4 15 3 16 2 17 1 18
REMARK H PARENT
REMARK Flexibility Score: inf
ROOT
ATOM      1  C   UNL     1     -18.573  33.897 -12.352  1.00  0.00     0.000 C 
ENDROOT
BRANCH   1   2
ATOM      2  C   UNL     1     -17.198  33.633 -12.984  1.00  0.00     0.000 C 
BRANCH   2   3
ATOM      3  C   UNL     1     -16.182  33.068 -11.977  1.00  0.00     0.000 C 
BRANCH   3   4
ATOM      4  C   UNL     1     -14.770  33.641 -12.179  1.00  0.00     0.000 C 
BRANCH   4   5
ATOM      5  C   UNL     1     -14.372  34.643 -11.081  1.00  0.00     0.000 C 
BRANCH   5   6
ATOM      6  C   UNL     1     -14.916  34.251  -9.699  1.00  0.00     0.006 C 
BRANCH   6   7
ATOM      7  C   UNL     1     -14.026  34.747  -8.552  1.00  0.00     0.053 C 
BRANCH   7   8
ATOM      8  C   UNL     1     -13.086  35.803  -9.040  1.00  0.00     0.041 C 
ATOM      9  O   UNL     1     -12.208  35.524  -9.899  1.00  0.00    -0.550 OA
ATOM     10  O   UNL     1     -13.148  37.085  -8.510  1.00  0.00    -0.550 OA
ENDBRANCH   7   8
ENDBRANCH   6   7
ENDBRANCH   5   6
ENDBRANCH   4   5
ENDBRANCH   3   4
ENDBRANCH   2   3
ENDBRANCH   1   2
BRANCH   1  11
ATOM     11  C   UNL     1     -18.473  34.439 -10.917  1.00  0.00     0.000 C 
BRANCH  11  12
ATOM     12  C   UNL     1     -18.666  33.314  -9.892  1.00  0.00    -0.000 C 
BRANCH  12  13
ATOM     13  C   UNL     1     -19.097  33.877  -8.532  1.00  0.00    -0.000 C 
BRANCH  13  14
ATOM     14  C   UNL     1     -20.373  33.189  -8.031  1.00  0.00    -0.000 C 
BRANCH  14  15
ATOM     15  C   UNL     1     -21.467  34.218  -7.719  1.00  0.00    -0.000 C 
BRANCH  15  16
ATOM     16  C   UNL     1     -22.743  33.528  -7.217  1.00  0.00    -0.000 C 
BRANCH  16  17
ATOM     17  C   UNL     1     -24.018  34.117  -7.843  1.00  0.00    -0.003 C 
ATOM     18  C   UNL     1     -23.946  35.634  -8.014  1.00  0.00     0.004 C 
ENDBRANCH  16  17
ENDBRANCH  15  16
ENDBRANCH  14  15
ENDBRANCH  13  14
ENDBRANCH  12  13
ENDBRANCH  11  12
ENDBRANCH   1  11
TORSDOF 14
ENDMDL
MODEL 7
REMARK VINA RESULT:    -2.047     11.019     15.673
REMARK INTER + INTRA:          -4.527
REMARK INTER:                  -3.696
REMARK INTRA:                  -0.830
REMARK UNBOUND:                -0.803
REMARK SMILES CCCCCCCCCCCCCCCC(=O)[O-]
REMARK SMILES IDX 9 1 10 2 11 3 12 4 13 5 14 6 15 7 16 8 17 9 18 10 8 11 7 12
REMARK SMILES IDX 6 13 5 14 4 15 3 16 2 17 1 18
REMARK H PARENT
REMARK Flexibility Score: inf
ROOT
ATOM      1  C   UNL     1     -17.514  33.527 -13.138  1.00  0.00     0.000 C 
ENDROOT
BRANCH   1   2
ATOM      2  C   UNL     1     -18.740  34.110 -12.417  1.00  0.00     0.000 C 
BRANCH   2   3
ATOM      3  C   UNL     1     -18.451  34.454 -10.945  1.00  0.00     0.000 C 
BRANCH   3   4
ATOM      4  C   UNL     1     -18.806  33.303  -9.990  1.00  0.00     0.000 C 
BRANCH   4   5
ATOM      5  C   UNL     1     -19.089  33.786  -8.557  1.00  0.00     0.000 C 
BRANCH   5   6
ATOM      6  C   UNL     1     -20.423  33.256  -8.008  1.00  0.00     0.006 C 
BRANCH   6   7
ATOM      7  C   UNL     1     -21.399  34.381  -7.641  1.00  0.00     0.053 C 
BRANCH   7   8
ATOM      8  C   UNL     1     -22.782  33.838  -7.470  1.00  0.00     0.041 C 
ATOM      9  O   UNL     1     -22.977  32.806  -6.776  1.00  0.00    -0.550 OA
ATOM     10  O   UNL     1     -23.851  34.444  -8.118  1.00  0.00    -0.550 OA
ENDBRANCH   7   8
ENDBRANCH   6   7
ENDBRANCH   5   6
ENDBRANCH   4   5
ENDBRANCH   3   4
ENDBRANCH   2   3
ENDBRANCH   1   2
BRANCH   1  11
ATOM     11  C   UNL     1     -16.435  33.028 -12.166  1.00  0.00     0.000 C 
BRANCH  11  12
ATOM     12  C   UNL     1     -15.058  33.590 -12.540  1.00  0.00    -0.000 C 
BRANCH  12  13
ATOM     13  C   UNL     1     -14.435  34.350 -11.362  1.00  0.00    -0.000 C 
BRANCH  13  14
ATOM     14  C   UNL     1     -15.162  34.025 -10.051  1.00  0.00    -0.000 C 
BRANCH  14  15
ATOM     15  C   UNL     1     -14.311  34.418  -8.837  1.00  0.00    -0.000 C 
BRANCH  15  16
ATOM     16  C   UNL     1     -13.202  35.401  -9.239  1.00  0.00    -0.000 C 
BRANCH  16  17
ATOM     17  C   UNL     1     -13.058  36.567  -8.248  1.00  0.00    -0.003 C 
ATOM     18  C   UNL     1     -13.480  36.190  -6.828  1.00  0.00     0.004 C 
ENDBRANCH  16  17
ENDBRANCH  15  16
ENDBRANCH  14  15
ENDBRANCH  13  14
ENDBRANCH  12  13
ENDBRANCH  11  12
ENDBRANCH   1  11
TORSDOF 14
ENDMDL
MODEL 8
REMARK VINA RESULT:    -0.790      1.808      4.393
REMARK INTER + INTRA:          -2.240
REMARK INTER:                  -0.658
REMARK INTRA:                  -1.582
REMARK UNBOUND:                -0.803
REMARK SMILES CCCCCCCCCCCCCCCC(=O)[O-]
REMARK SMILES IDX 9 1 10 2 11 3 12 4 13 5 14 6 15 7 16 8 17 9 18 10 8 11 7 12
REMARK SMILES IDX 6 13 5 14 4 15 3 16 2 17 1 18
REMARK H PARENT
REMARK Flexibility Score: inf
ROOT
ATOM      1  C   UNL     1      -9.018  37.377  -1.189  1.00  0.00     0.000 C 
ENDROOT
BRANCH   1   2
ATOM      2  C   UNL     1      -9.019  36.046  -0.420  1.00  0.00     0.000 C 
BRANCH   2   3
ATOM      3  C   UNL     1      -7.671  35.756   0.263  1.00  0.00     0.000 C 
BRANCH   3   4
ATOM      4  C   UNL     1      -7.174  34.325   0.004  1.00  0.00     0.000 C 
BRANCH   4   5
ATOM      5  C   UNL     1      -6.070  33.892   0.984  1.00  0.00     0.000 C 
BRANCH   5   6
ATOM      6  C   UNL     1      -6.486  32.695   1.852  1.00  0.00     0.006 C 
BRANCH   6   7
ATOM      7  C   UNL     1      -7.675  31.925   1.263  1.00  0.00     0.053 C 
BRANCH   7   8
ATOM      8  C   UNL     1      -7.522  30.458   1.511  1.00  0.00     0.041 C 
ATOM      9  O   UNL     1      -7.351  30.027   2.682  1.00  0.00    -0.550 OA
ATOM     10  O   UNL     1      -7.518  29.570   0.442  1.00  0.00    -0.550 OA
ENDBRANCH   7   8
ENDBRANCH   6   7
ENDBRANCH   5   6
ENDBRANCH   4   5
ENDBRANCH   3   4
ENDBRANCH   2   3
ENDBRANCH   1   2
BRANCH   1  11
ATOM     11  C   UNL     1      -7.679  38.123  -1.082  1.00  0.00     0.000 C 
BRANCH  11  12
ATOM     12  C   UNL     1      -6.918  38.077  -2.412  1.00  0.00    -0.000 C 
BRANCH  12  13
ATOM     13  C   UNL     1      -5.625  37.262  -2.280  1.00  0.00    -0.000 C 
BRANCH  13  14
ATOM     14  C   UNL     1      -4.485  38.125  -1.728  1.00  0.00    -0.000 C 
BRANCH  14  15
ATOM     15  C   UNL     1      -3.880  37.497  -0.466  1.00  0.00    -0.000 C 
BRANCH  15  16
ATOM     16  C   UNL     1      -4.558  38.045   0.799  1.00  0.00    -0.000 C 
BRANCH  16  17
ATOM     17  C   UNL     1      -4.494  37.058   1.977  1.00  0.00    -0.003 C 
ATOM     18  C   UNL     1      -4.914  37.693   3.302  1.00  0.00     0.004 C 
ENDBRANCH  16  17
ENDBRANCH  15  16
ENDBRANCH  14  15
ENDBRANCH  13  14
ENDBRANCH  12  13
ENDBRANCH  11  12
ENDBRANCH   1  11
TORSDOF 14
ENDMDL
