MODEL 1
REMARK VINA RESULT:    -4.560      0.000      0.000
REMARK INTER + INTRA:         -10.824
REMARK INTER:                  -8.293
REMARK INTRA:                  -2.531
REMARK UNBOUND:                -2.531
REMARK SMILES CCCCCCCCCCCCCCCC(=O)[O-]
REMARK SMILES IDX 9 1 10 2 11 3 12 4 13 5 14 6 15 7 16 8 17 9 18 10 8 11 7 12
REMARK SMILES IDX 6 13 5 14 4 15 3 16 2 17 1 18
REMARK H PARENT
REMARK Flexibility Score: inf
ROOT
ATOM      1  C   UNL     1      60.997  28.544  25.064  1.00  0.00     0.000 C 
ENDROOT
BRANCH   1   2
ATOM      2  C   UNL     1      62.238  28.924  24.247  1.00  0.00     0.000 C 
BRANCH   2   3
ATOM      3  C   UNL     1      63.241  29.709  25.104  1.00  0.00     0.000 C 
BRANCH   3   4
ATOM      4  C   UNL     1      64.703  29.331  24.810  1.00  0.00     0.000 C 
BRANCH   4   5
ATOM      5  C   UNL     1      65.303  28.264  25.747  1.00  0.00     0.000 C 
BRANCH   5   6
ATOM      6  C   UNL     1      64.872  26.813  25.450  1.00  0.00     0.006 C 
BRANCH   6   7
ATOM      7  C   UNL     1      65.238  26.319  24.042  1.00  0.00     0.053 C 
BRANCH   7   8
ATOM      8  C   UNL     1      64.026  25.930  23.252  1.00  0.00     0.041 C 
ATOM      9  O   UNL     1      63.807  26.453  22.129  1.00  0.00    -0.550 OA
ATOM     10  O   UNL     1      63.157  24.963  23.742  1.00  0.00    -0.550 OA
ENDBRANCH   7   8
ENDBRANCH   6   7
ENDBRANCH   5   6
ENDBRANCH   4   5
ENDBRANCH   3   4
ENDBRANCH   2   3
ENDBRANCH   1   2
BRANCH   1  11
ATOM     11  C   UNL     1      61.145  27.138  25.666  1.00  0.00     0.000 C 
BRANCH  11  12
ATOM     12  C   UNL     1      60.967  27.118  27.195  1.00  0.00    -0.000 C 
BRANCH  12  13
ATOM     13  C   UNL     1      62.272  27.239  28.005  1.00  0.00    -0.000 C 
BRANCH  13  14
ATOM     14  C   UNL     1      62.211  28.332  29.082  1.00  0.00    -0.000 C 
BRANCH  14  15
ATOM     15  C   UNL     1      61.855  29.692  28.464  1.00  0.00    -0.000 C 
BRANCH  15  16
ATOM     16  C   UNL     1      62.891  30.780  28.790  1.00  0.00    -0.000 C 
BRANCH  16  17
ATOM     17  C   UNL     1      64.298  30.207  29.016  1.00  0.00    -0.003 C 
ATOM     18  C   UNL     1      65.349  31.024  28.271  1.00  0.00     0.004 C 
ENDBRANCH  16  17
ENDBRANCH  15  16
ENDBRANCH  14  15
ENDBRANCH  13  14
ENDBRANCH  12  13
ENDBRANCH  11  12
ENDBRANCH   1  11
TORSDOF 14
ENDMDL
MODEL 2
REMARK VINA RESULT:    -4.439      1.392      1.720
REMARK INTER + INTRA:         -10.603
REMARK INTER:                  -8.538
REMARK INTRA:                  -2.065
REMARK UNBOUND:                -2.531
REMARK SMILES CCCCCCCCCCCCCCCC(=O)[O-]
REMARK SMILES IDX 9 1 10 2 11 3 12 4 13 5 14 6 15 7 16 8 17 9 18 10 8 11 7 12
REMARK SMILES IDX 6 13 5 14 4 15 3 16 2 17 1 18
REMARK H PARENT
REMARK Flexibility Score: inf
ROOT
ATOM      1  C   UNL     1      61.412  27.802  24.723  1.00  0.00     0.000 C 
ENDROOT
BRANCH   1   2
ATOM      2  C   UNL     1      62.257  29.080  24.717  1.00  0.00     0.000 C 
BRANCH   2   3
ATOM      3  C   UNL     1      63.700  28.784  24.285  1.00  0.00     0.000 C 
BRANCH   3   4
ATOM      4  C   UNL     1      64.534  28.122  25.396  1.00  0.00     0.000 C 
BRANCH   4   5
ATOM      5  C   UNL     1      64.901  26.646  25.145  1.00  0.00     0.000 C 
BRANCH   5   6
ATOM      6  C   UNL     1      64.546  26.110  23.743  1.00  0.00     0.006 C 
BRANCH   6   7
ATOM      7  C   UNL     1      65.741  25.545  22.960  1.00  0.00     0.053 C 
BRANCH   7   8
ATOM      8  C   UNL     1      66.033  26.346  21.728  1.00  0.00     0.041 C 
ATOM      9  O   UNL     1      65.815  27.586  21.712  1.00  0.00    -0.550 OA
ATOM     10  O   UNL     1      66.578  25.729  20.609  1.00  0.00    -0.550 OA
ENDBRANCH   7   8
ENDBRANCH   6   7
ENDBRANCH   5   6
ENDBRANCH   4   5
ENDBRANCH   3   4
ENDBRANCH   2   3
ENDBRANCH   1   2
BRANCH   1  11
ATOM     11  C   UNL     1      60.725  27.604  26.083  1.00  0.00     0.000 C 
BRANCH  11  12
ATOM     12  C   UNL     1      61.606  26.853  27.098  1.00  0.00    -0.000 C 
BRANCH  12  13
ATOM     13  C   UNL     1      62.111  27.703  28.279  1.00  0.00    -0.000 C 
BRANCH  13  14
ATOM     14  C   UNL     1      61.290  28.984  28.490  1.00  0.00    -0.000 C 
BRANCH  14  15
ATOM     15  C   UNL     1      62.188  30.140  28.956  1.00  0.00    -0.000 C 
BRANCH  15  16
ATOM     16  C   UNL     1      63.239  30.534  27.905  1.00  0.00    -0.000 C 
BRANCH  16  17
ATOM     17  C   UNL     1      64.678  30.367  28.416  1.00  0.00    -0.003 C 
ATOM     18  C   UNL     1      65.300  31.718  28.757  1.00  0.00     0.004 C 
ENDBRANCH  16  17
ENDBRANCH  15  16
ENDBRANCH  14  15
ENDBRANCH  13  14
ENDBRANCH  12  13
ENDBRANCH  11  12
ENDBRANCH   1  11
TORSDOF 14
ENDMDL
MODEL 3
REMARK VINA RESULT:    -4.395      2.782      5.732
REMARK INTER + INTRA:         -10.523
REMARK INTER:                  -8.164
REMARK INTRA:                  -2.359
REMARK UNBOUND:                -2.531
REMARK SMILES CCCCCCCCCCCCCCCC(=O)[O-]
REMARK SMILES IDX 9 1 10 2 11 3 12 4 13 5 14 6 15 7 16 8 17 9 18 10 8 11 7 12
REMARK SMILES IDX 6 13 5 14 4 15 3 16 2 17 1 18
REMARK H PARENT
REMARK Flexibility Score: inf
ROOT
ATOM      1  C   UNL     1      64.132  30.452  25.681  1.00  0.00     0.000 C 
ENDROOT
BRANCH   1   2
ATOM      2  C   UNL     1      62.645  30.132  25.490  1.00  0.00     0.000 C 
BRANCH   2   3
ATOM      3  C   UNL     1      62.439  29.145  24.332  1.00  0.00     0.000 C 
BRANCH   3   4
ATOM      4  C   UNL     1      61.553  27.947  24.716  1.00  0.00     0.000 C 
BRANCH   4   5
ATOM      5  C   UNL     1      61.108  27.911  26.192  1.00  0.00     0.000 C 
BRANCH   5   6
ATOM      6  C   UNL     1      61.782  26.824  27.054  1.00  0.00     0.006 C 
BRANCH   6   7
ATOM      7  C   UNL     1      61.702  27.075  28.567  1.00  0.00     0.053 C 
BRANCH   7   8
ATOM      8  C   UNL     1      61.529  28.529  28.885  1.00  0.00     0.041 C 
ATOM      9  O   UNL     1      60.385  28.994  29.125  1.00  0.00    -0.550 OA
ATOM     10  O   UNL     1      62.638  29.363  28.951  1.00  0.00    -0.550 OA
ENDBRANCH   7   8
ENDBRANCH   6   7
ENDBRANCH   5   6
ENDBRANCH   4   5
ENDBRANCH   3   4
ENDBRANCH   2   3
ENDBRANCH   1   2
BRANCH   1  11
ATOM     11  C   UNL     1      64.891  29.234  26.227  1.00  0.00     0.000 C 
BRANCH  11  12
ATOM     12  C   UNL     1      66.326  29.126  25.680  1.00  0.00    -0.000 C 
BRANCH  12  13
ATOM     13  C   UNL     1      66.501  29.567  24.215  1.00  0.00    -0.000 C 
BRANCH  13  14
ATOM     14  C   UNL     1      66.675  28.384  23.249  1.00  0.00    -0.000 C 
BRANCH  14  15
ATOM     15  C   UNL     1      65.427  28.206  22.370  1.00  0.00    -0.000 C 
BRANCH  15  16
ATOM     16  C   UNL     1      64.697  26.881  22.642  1.00  0.00    -0.000 C 
BRANCH  16  17
ATOM     17  C   UNL     1      65.411  26.016  23.691  1.00  0.00    -0.003 C 
ATOM     18  C   UNL     1      64.576  25.893  24.962  1.00  0.00     0.004 C 
ENDBRANCH  16  17
ENDBRANCH  15  16
ENDBRANCH  14  15
ENDBRANCH  13  14
ENDBRANCH  12  13
ENDBRANCH  11  12
ENDBRANCH   1  11
TORSDOF 14
ENDMDL
MODEL 4
REMARK VINA RESULT:    -4.382     11.610     14.529
REMARK INTER + INTRA:         -10.500
REMARK INTER:                  -8.793
REMARK INTRA:                  -1.707
REMARK UNBOUND:                -2.531
REMARK SMILES CCCCCCCCCCCCCCCC(=O)[O-]
REMARK SMILES IDX 9 1 10 2 11 3 12 4 13 5 14 6 15 7 16 8 17 9 18 10 8 11 7 12
REMARK SMILES IDX 6 13 5 14 4 15 3 16 2 17 1 18
REMARK H PARENT
REMARK Flexibility Score: inf
ROOT
ATOM      1  C   UNL     1      63.032  29.990  13.533  1.00  0.00     0.000 C 
ENDROOT
BRANCH   1   2
ATOM      2  C   UNL     1      62.541  31.009  12.499  1.00  0.00     0.000 C 
BRANCH   2   3
ATOM      3  C   UNL     1      62.222  32.356  13.163  1.00  0.00     0.000 C 
BRANCH   3   4
ATOM      4  C   UNL     1      60.718  32.557  13.418  1.00  0.00     0.000 C 
BRANCH   4   5
ATOM      5  C   UNL     1      60.374  33.437  14.636  1.00  0.00     0.000 C 
BRANCH   5   6
ATOM      6  C   UNL     1      61.295  33.254  15.859  1.00  0.00     0.006 C 
BRANCH   6   7
ATOM      7  C   UNL     1      61.059  34.269  16.988  1.00  0.00     0.053 C 
BRANCH   7   8
ATOM      8  C   UNL     1      62.244  34.384  17.896  1.00  0.00     0.041 C 
ATOM      9  O   UNL     1      62.254  33.788  19.005  1.00  0.00    -0.550 OA
ATOM     10  O   UNL     1      63.354  35.121  17.502  1.00  0.00    -0.550 OA
ENDBRANCH   7   8
ENDBRANCH   6   7
ENDBRANCH   5   6
ENDBRANCH   4   5
ENDBRANCH   3   4
ENDBRANCH   2   3
ENDBRANCH   1   2
BRANCH   1  11
ATOM     11  C   UNL     1      62.299  28.649  13.373  1.00  0.00     0.000 C 
BRANCH  11  12
ATOM     12  C   UNL     1      60.767  28.801  13.346  1.00  0.00    -0.000 C 
BRANCH  12  13
ATOM     13  C   UNL     1      60.075  28.214  12.101  1.00  0.00    -0.000 C 
BRANCH  13  14
ATOM     14  C   UNL     1      59.604  29.290  11.112  1.00  0.00    -0.000 C 
BRANCH  14  15
ATOM     15  C   UNL     1      59.640  28.763   9.670  1.00  0.00    -0.000 C 
BRANCH  15  16
ATOM     16  C   UNL     1      61.030  28.249   9.262  1.00  0.00    -0.000 C 
BRANCH  16  17
ATOM     17  C   UNL     1      62.056  29.381   9.105  1.00  0.00    -0.003 C 
ATOM     18  C   UNL     1      63.439  28.938   9.572  1.00  0.00     0.004 C 
ENDBRANCH  16  17
ENDBRANCH  15  16
ENDBRANCH  14  15
ENDBRANCH  13  14
ENDBRANCH  12  13
ENDBRANCH  11  12
ENDBRANCH   1  11
TORSDOF 14
ENDMDL
MODEL 5
REMARK VINA RESULT:    -4.355     12.346     15.038
REMARK INTER + INTRA:         -10.451
REMARK INTER:                  -8.477
REMARK INTRA:                  -1.974
REMARK UNBOUND:                -2.531
REMARK SMILES CCCCCCCCCCCCCCCC(=O)[O-]
REMARK SMILES IDX 9 1 10 2 11 3 12 4 13 5 14 6 15 7 16 8 17 9 18 10 8 11 7 12
REMARK SMILES IDX 6 13 5 14 4 15 3 16 2 17 1 18
REMARK H PARENT
REMARK Flexibility Score: inf
ROOT
ATOM      1  C   UNL     1      63.590  29.893  10.679  1.00  0.00     0.000 C 
ENDROOT
BRANCH   1   2
ATOM      2  C   UNL     1      64.053  31.269  10.185  1.00  0.00     0.000 C 
BRANCH   2   3
ATOM      3  C   UNL     1      64.396  32.190  11.364  1.00  0.00     0.000 C 
BRANCH   3   4
ATOM      4  C   UNL     1      63.828  31.686  12.702  1.00  0.00     0.000 C 
BRANCH   4   5
ATOM      5  C   UNL     1      62.805  32.625  13.372  1.00  0.00     0.000 C 
BRANCH   5   6
ATOM      6  C   UNL     1      61.338  32.405  12.950  1.00  0.00     0.006 C 
BRANCH   6   7
ATOM      7  C   UNL     1      60.305  33.022  13.906  1.00  0.00     0.053 C 
BRANCH   7   8
ATOM      8  C   UNL     1      60.584  32.671  15.335  1.00  0.00     0.041 C 
ATOM      9  O   UNL     1      60.957  33.560  16.144  1.00  0.00    -0.550 OA
ATOM     10  O   UNL     1      60.399  31.369  15.782  1.00  0.00    -0.550 OA
ENDBRANCH   7   8
ENDBRANCH   6   7
ENDBRANCH   5   6
ENDBRANCH   4   5
ENDBRANCH   3   4
ENDBRANCH   2   3
ENDBRANCH   1   2
BRANCH   1  11
ATOM     11  C   UNL     1      63.367  28.933   9.501  1.00  0.00     0.000 C 
BRANCH  11  12
ATOM     12  C   UNL     1      61.947  29.024   8.912  1.00  0.00    -0.000 C 
BRANCH  12  13
ATOM     13  C   UNL     1      60.942  28.000   9.472  1.00  0.00    -0.000 C 
BRANCH  13  14
ATOM     14  C   UNL     1      59.651  28.648   9.995  1.00  0.00    -0.000 C 
BRANCH  14  15
ATOM     15  C   UNL     1      59.963  29.694  11.076  1.00  0.00    -0.000 C 
BRANCH  15  16
ATOM     16  C   UNL     1      59.529  29.241  12.480  1.00  0.00    -0.000 C 
BRANCH  16  17
ATOM     17  C   UNL     1      60.418  28.121  13.041  1.00  0.00    -0.003 C 
ATOM     18  C   UNL     1      61.777  28.663  13.473  1.00  0.00     0.004 C 
ENDBRANCH  16  17
ENDBRANCH  15  16
ENDBRANCH  14  15
ENDBRANCH  13  14
ENDBRANCH  12  13
ENDBRANCH  11  12
ENDBRANCH   1  11
TORSDOF 14
ENDMDL
MODEL 6
REMARK VINA RESULT:    -4.353      1.765      3.207
REMARK INTER + INTRA:         -10.447
REMARK INTER:                  -8.408
REMARK INTRA:                  -2.039
REMARK UNBOUND:                -2.531
REMARK SMILES CCCCCCCCCCCCCCCC(=O)[O-]
REMARK SMILES IDX 9 1 10 2 11 3 12 4 13 5 14 6 15 7 16 8 17 9 18 10 8 11 7 12
REMARK SMILES IDX 6 13 5 14 4 15 3 16 2 17 1 18
REMARK H PARENT
REMARK Flexibility Score: inf
ROOT
ATOM      1  C   UNL     1      61.761  28.322  25.075  1.00  0.00     0.000 C 
ENDROOT
BRANCH   1   2
ATOM      2  C   UNL     1      62.382  26.980  24.668  1.00  0.00     0.000 C 
BRANCH   2   3
ATOM      3  C   UNL     1      63.517  26.587  25.625  1.00  0.00     0.000 C 
BRANCH   3   4
ATOM      4  C   UNL     1      64.857  26.362  24.903  1.00  0.00     0.000 C 
BRANCH   4   5
ATOM      5  C   UNL     1      65.670  27.641  24.622  1.00  0.00     0.000 C 
BRANCH   5   6
ATOM      6  C   UNL     1      66.322  27.711  23.226  1.00  0.00     0.006 C 
BRANCH   6   7
ATOM      7  C   UNL     1      65.494  27.061  22.106  1.00  0.00     0.053 C 
BRANCH   7   8
ATOM      8  C   UNL     1      66.244  25.959  21.423  1.00  0.00     0.041 C 
ATOM      9  O   UNL     1      66.378  24.841  21.984  1.00  0.00    -0.550 OA
ATOM     10  O   UNL     1      66.764  26.156  20.150  1.00  0.00    -0.550 OA
ENDBRANCH   7   8
ENDBRANCH   6   7
ENDBRANCH   5   6
ENDBRANCH   4   5
ENDBRANCH   3   4
ENDBRANCH   2   3
ENDBRANCH   1   2
BRANCH   1  11
ATOM     11  C   UNL     1      62.653  29.494  24.641  1.00  0.00     0.000 C 
BRANCH  11  12
ATOM     12  C   UNL     1      62.952  30.479  25.787  1.00  0.00    -0.000 C 
BRANCH  12  13
ATOM     13  C   UNL     1      64.139  30.090  26.688  1.00  0.00    -0.000 C 
BRANCH  13  14
ATOM     14  C   UNL     1      64.049  30.699  28.095  1.00  0.00    -0.000 C 
BRANCH  14  15
ATOM     15  C   UNL     1      62.639  30.527  28.678  1.00  0.00    -0.000 C 
BRANCH  15  16
ATOM     16  C   UNL     1      62.355  29.084  29.125  1.00  0.00    -0.000 C 
BRANCH  16  17
ATOM     17  C   UNL     1      60.975  28.585  28.670  1.00  0.00    -0.003 C 
ATOM     18  C   UNL     1      60.969  27.069  28.498  1.00  0.00     0.004 C 
ENDBRANCH  16  17
ENDBRANCH  15  16
ENDBRANCH  14  15
ENDBRANCH  13  14
ENDBRANCH  12  13
ENDBRANCH  11  12
ENDBRANCH   1  11
TORSDOF 14
ENDMDL
MODEL 7
REMARK VINA RESULT:    -4.345     11.261     14.245
REMARK INTER + INTRA:         -10.433
REMARK INTER:                  -8.751
REMARK INTRA:                  -1.682
REMARK UNBOUND:                -2.531
REMARK SMILES CCCCCCCCCCCCCCCC(=O)[O-]
REMARK SMILES IDX 9 1 10 2 11 3 12 4 13 5 14 6 15 7 16 8 17 9 18 10 8 11 7 12
REMARK SMILES IDX 6 13 5 14 4 15 3 16 2 17 1 18
REMARK H PARENT
REMARK Flexibility Score: inf
ROOT
ATOM      1  C   UNL     1      62.738  30.617  13.587  1.00  0.00     0.000 C 
ENDROOT
BRANCH   1   2
ATOM      2  C   UNL     1      62.299  31.892  12.858  1.00  0.00     0.000 C 
BRANCH   2   3
ATOM      3  C   UNL     1      60.770  32.022  12.850  1.00  0.00     0.000 C 
BRANCH   3   4
ATOM      4  C   UNL     1      60.220  32.705  14.115  1.00  0.00     0.000 C 
BRANCH   4   5
ATOM      5  C   UNL     1      61.263  33.481  14.943  1.00  0.00     0.000 C 
BRANCH   5   6
ATOM      6  C   UNL     1      61.335  33.095  16.435  1.00  0.00     0.006 C 
BRANCH   6   7
ATOM      7  C   UNL     1      61.482  34.289  17.391  1.00  0.00     0.053 C 
BRANCH   7   8
ATOM      8  C   UNL     1      61.562  33.853  18.822  1.00  0.00     0.041 C 
ATOM      9  O   UNL     1      60.544  33.393  19.403  1.00  0.00    -0.550 OA
ATOM     10  O   UNL     1      62.770  33.924  19.505  1.00  0.00    -0.550 OA
ENDBRANCH   7   8
ENDBRANCH   6   7
ENDBRANCH   5   6
ENDBRANCH   4   5
ENDBRANCH   3   4
ENDBRANCH   2   3
ENDBRANCH   1   2
BRANCH   1  11
ATOM     11  C   UNL     1      63.379  29.618  12.612  1.00  0.00     0.000 C 
BRANCH  11  12
ATOM     12  C   UNL     1      63.731  30.248  11.252  1.00  0.00    -0.000 C 
BRANCH  12  13
ATOM     13  C   UNL     1      63.198  29.487  10.023  1.00  0.00    -0.000 C 
BRANCH  13  14
ATOM     14  C   UNL     1      61.955  28.640  10.334  1.00  0.00    -0.000 C 
BRANCH  14  15
ATOM     15  C   UNL     1      60.669  29.407   9.992  1.00  0.00    -0.000 C 
BRANCH  15  16
ATOM     16  C   UNL     1      59.544  29.160  11.010  1.00  0.00    -0.000 C 
BRANCH  16  17
ATOM     17  C   UNL     1      60.007  28.322  12.211  1.00  0.00    -0.003 C 
ATOM     18  C   UNL     1      58.816  27.733  12.962  1.00  0.00     0.004 C 
ENDBRANCH  16  17
ENDBRANCH  15  16
ENDBRANCH  14  15
ENDBRANCH  13  14
ENDBRANCH  12  13
ENDBRANCH  11  12
ENDBRANCH   1  11
TORSDOF 14
ENDMDL
MODEL 8
REMARK VINA RESULT:    -4.290     12.329     15.062
REMARK INTER + INTRA:         -10.332
REMARK INTER:                  -8.434
REMARK INTRA:                  -1.898
REMARK UNBOUND:                -2.531
REMARK SMILES CCCCCCCCCCCCCCCC(=O)[O-]
REMARK SMILES IDX 9 1 10 2 11 3 12 4 13 5 14 6 15 7 16 8 17 9 18 10 8 11 7 12
REMARK SMILES IDX 6 13 5 14 4 15 3 16 2 17 1 18
REMARK H PARENT
REMARK Flexibility Score: inf
ROOT
ATOM      1  C   UNL     1      60.221  27.962  13.080  1.00  0.00     0.000 C 
ENDROOT
BRANCH   1   2
ATOM      2  C   UNL     1      61.118  29.178  13.339  1.00  0.00     0.000 C 
BRANCH   2   3
ATOM      3  C   UNL     1      62.598  28.771  13.375  1.00  0.00     0.000 C 
BRANCH   3   4
ATOM      4  C   UNL     1      63.524  29.922  13.808  1.00  0.00     0.000 C 
BRANCH   4   5
ATOM      5  C   UNL     1      62.838  31.047  14.607  1.00  0.00     0.000 C 
BRANCH   5   6
ATOM      6  C   UNL     1      62.710  32.394  13.867  1.00  0.00     0.006 C 
BRANCH   6   7
ATOM      7  C   UNL     1      61.327  32.647  13.247  1.00  0.00     0.053 C 
BRANCH   7   8
ATOM      8  C   UNL     1      60.264  32.801  14.291  1.00  0.00     0.041 C 
ATOM      9  O   UNL     1      59.245  32.062  14.272  1.00  0.00    -0.550 OA
ATOM     10  O   UNL     1      60.415  33.737  15.306  1.00  0.00    -0.550 OA
ENDBRANCH   7   8
ENDBRANCH   6   7
ENDBRANCH   5   6
ENDBRANCH   4   5
ENDBRANCH   3   4
ENDBRANCH   2   3
ENDBRANCH   1   2
BRANCH   1  11
ATOM     11  C   UNL     1      59.206  28.255  11.965  1.00  0.00     0.000 C 
BRANCH  11  12
ATOM     12  C   UNL     1      59.617  29.444  11.076  1.00  0.00    -0.000 C 
BRANCH  12  13
ATOM     13  C   UNL     1      59.675  29.141   9.567  1.00  0.00    -0.000 C 
BRANCH  13  14
ATOM     14  C   UNL     1      61.066  29.377   8.961  1.00  0.00    -0.000 C 
BRANCH  14  15
ATOM     15  C   UNL     1      62.149  28.649   9.772  1.00  0.00    -0.000 C 
BRANCH  15  16
ATOM     16  C   UNL     1      63.572  29.024   9.328  1.00  0.00    -0.000 C 
BRANCH  16  17
ATOM     17  C   UNL     1      63.750  30.536   9.127  1.00  0.00    -0.003 C 
ATOM     18  C   UNL     1      64.101  31.228  10.441  1.00  0.00     0.004 C 
ENDBRANCH  16  17
ENDBRANCH  15  16
ENDBRANCH  14  15
ENDBRANCH  13  14
ENDBRANCH  12  13
ENDBRANCH  11  12
ENDBRANCH   1  11
TORSDOF 14
ENDMDL
MODEL 9
REMARK VINA RESULT:    -4.240      2.000      2.724
REMARK INTER + INTRA:         -10.241
REMARK INTER:                  -8.230
REMARK INTRA:                  -2.011
REMARK UNBOUND:                -2.531
REMARK SMILES CCCCCCCCCCCCCCCC(=O)[O-]
REMARK SMILES IDX 9 1 10 2 11 3 12 4 13 5 14 6 15 7 16 8 17 9 18 10 8 11 7 12
REMARK SMILES IDX 6 13 5 14 4 15 3 16 2 17 1 18
REMARK H PARENT
REMARK Flexibility Score: inf
ROOT
ATOM      1  C   UNL     1      62.210  27.132  25.048  1.00  0.00     0.000 C 
ENDROOT
BRANCH   1   2
ATOM      2  C   UNL     1      63.250  26.361  25.869  1.00  0.00     0.000 C 
BRANCH   2   3
ATOM      3  C   UNL     1      64.610  26.344  25.157  1.00  0.00     0.000 C 
BRANCH   3   4
ATOM      4  C   UNL     1      64.622  27.184  23.868  1.00  0.00     0.000 C 
BRANCH   4   5
ATOM      5  C   UNL     1      65.832  28.127  23.714  1.00  0.00     0.000 C 
BRANCH   5   6
ATOM      6  C   UNL     1      66.798  27.773  22.565  1.00  0.00     0.006 C 
BRANCH   6   7
ATOM      7  C   UNL     1      66.108  27.483  21.223  1.00  0.00     0.053 C 
BRANCH   7   8
ATOM      8  C   UNL     1      66.385  26.093  20.739  1.00  0.00     0.041 C 
ATOM      9  O   UNL     1      66.486  25.144  21.559  1.00  0.00    -0.550 OA
ATOM     10  O   UNL     1      66.498  25.840  19.377  1.00  0.00    -0.550 OA
ENDBRANCH   7   8
ENDBRANCH   6   7
ENDBRANCH   5   6
ENDBRANCH   4   5
ENDBRANCH   3   4
ENDBRANCH   2   3
ENDBRANCH   1   2
BRANCH   1  11
ATOM     11  C   UNL     1      61.158  27.778  25.962  1.00  0.00     0.000 C 
BRANCH  11  12
ATOM     12  C   UNL     1      61.071  27.108  27.345  1.00  0.00    -0.000 C 
BRANCH  12  13
ATOM     13  C   UNL     1      61.017  28.080  28.539  1.00  0.00    -0.000 C 
BRANCH  13  14
ATOM     14  C   UNL     1      62.388  28.681  28.885  1.00  0.00    -0.000 C 
BRANCH  14  15
ATOM     15  C   UNL     1      62.430  30.180  28.553  1.00  0.00    -0.000 C 
BRANCH  15  16
ATOM     16  C   UNL     1      63.799  30.629  28.018  1.00  0.00    -0.000 C 
BRANCH  16  17
ATOM     17  C   UNL     1      64.212  29.876  26.745  1.00  0.00    -0.003 C 
ATOM     18  C   UNL     1      63.588  30.509  25.505  1.00  0.00     0.004 C 
ENDBRANCH  16  17
ENDBRANCH  15  16
ENDBRANCH  14  15
ENDBRANCH  13  14
ENDBRANCH  12  13
ENDBRANCH  11  12
ENDBRANCH   1  11
TORSDOF 14
ENDMDL
