MODEL 1
REMARK VINA RESULT:    -4.863      0.000      0.000
REMARK INTER + INTRA:          -6.112
REMARK INTER:                  -5.858
REMARK INTRA:                  -0.254
REMARK UNBOUND:                -0.254
REMARK SMILES O=c1c(O)c(-c2ccc(O)c(O)c2)oc2cc(O)cc(O)c12
REMARK SMILES IDX 5 1 3 2 2 3 1 4 22 5 20 6 19 7 17 8 16 9 15 10 14 11 6 12
REMARK SMILES IDX 7 13 8 14 9 15 13 16 11 17 10 18 12 20 4 22 21 24 18 26
REMARK H PARENT 10 19 12 21 4 23 21 25 18 27
REMARK Flexibility Score: inf
ROOT
ATOM      1  C   UNL     1      59.029  22.092  22.505  1.00  0.00     0.180 A 
ATOM      2  C   UNL     1      59.961  22.051  23.559  1.00  0.00     0.208 A 
ATOM      3  C   UNL     1      61.331  22.105  23.256  1.00  0.00     0.238 A 
ATOM      4  O   UNL     1      62.175  22.080  24.193  1.00  0.00    -0.285 OA
ATOM      5  C   UNL     1      61.744  22.180  21.910  1.00  0.00     0.111 A 
ATOM      6  C   UNL     1      63.104  22.234  21.519  1.00  0.00     0.134 A 
ATOM      7  C   UNL     1      63.434  22.298  20.158  1.00  0.00     0.093 A 
ATOM      8  C   UNL     1      62.436  22.307  19.181  1.00  0.00     0.123 A 
ATOM      9  C   UNL     1      61.091  22.254  19.561  1.00  0.00     0.094 A 
ATOM     10  C   UNL     1      60.741  22.191  20.913  1.00  0.00     0.146 A 
ATOM     11  O   UNL     1      59.456  22.147  21.247  1.00  0.00    -0.452 OA
ENDROOT
BRANCH   1  12
ATOM     12  C   UNL     1      57.568  22.057  22.745  1.00  0.00     0.025 A 
ATOM     13  C   UNL     1      56.918  20.877  23.138  1.00  0.00     0.016 A 
ATOM     14  C   UNL     1      55.544  20.875  23.381  1.00  0.00     0.051 A 
ATOM     15  C   UNL     1      54.794  22.049  23.253  1.00  0.00     0.157 A 
ATOM     16  C   UNL     1      56.822  23.241  22.637  1.00  0.00     0.062 A 
ATOM     17  C   UNL     1      55.443  23.250  22.880  1.00  0.00     0.158 A 
BRANCH  15  18
ATOM     18  O   UNL     1      53.423  21.980  23.508  1.00  0.00    -0.504 OA
ATOM     19  H   UNL     1      52.996  22.254  24.380  1.00  0.00     0.293 HD
ENDBRANCH  15  18
BRANCH  17  20
ATOM     20  O   UNL     1      54.764  24.462  22.741  1.00  0.00    -0.504 OA
ATOM     21  H   UNL     1      54.667  25.143  23.481  1.00  0.00     0.293 HD
ENDBRANCH  17  20
ENDBRANCH   1  12
BRANCH   2  22
ATOM     22  O   UNL     1      59.527  21.927  24.882  1.00  0.00    -0.502 OA
ATOM     23  H   UNL     1      59.155  22.711  25.405  1.00  0.00     0.293 HD
ENDBRANCH   2  22
BRANCH   6  24
ATOM     24  O   UNL     1      64.125  22.226  22.471  1.00  0.00    -0.507 OA
ATOM     25  H   UNL     1      64.115  21.587  23.258  1.00  0.00     0.293 HD
ENDBRANCH   6  24
BRANCH   8  26
ATOM     26  O   UNL     1      62.791  22.370  17.837  1.00  0.00    -0.508 OA
ATOM     27  H   UNL     1      63.760  22.439  17.547  1.00  0.00     0.293 HD
ENDBRANCH   8  26
TORSDOF 6
ENDMDL
MODEL 2
REMARK VINA RESULT:    -3.862      1.924      2.952
REMARK INTER + INTRA:          -4.906
REMARK INTER:                  -4.768
REMARK INTRA:                  -0.139
REMARK UNBOUND:                -0.254
REMARK SMILES O=c1c(O)c(-c2ccc(O)c(O)c2)oc2cc(O)cc(O)c12
REMARK SMILES IDX 5 1 3 2 2 3 1 4 22 5 20 6 19 7 17 8 16 9 15 10 14 11 6 12
REMARK SMILES IDX 7 13 8 14 9 15 13 16 11 17 10 18 12 20 4 22 21 24 18 26
REMARK H PARENT 10 19 12 21 4 23 21 25 18 27
REMARK Flexibility Score: inf
ROOT
ATOM      1  C   UNL     1      59.260  22.688  22.498  1.00  0.00     0.180 A 
ATOM      2  C   UNL     1      59.993  21.977  21.528  1.00  0.00     0.208 A 
ATOM      3  C   UNL     1      61.344  22.301  21.328  1.00  0.00     0.238 A 
ATOM      4  O   UNL     1      62.014  21.664  20.470  1.00  0.00    -0.285 OA
ATOM      5  C   UNL     1      61.932  23.338  22.081  1.00  0.00     0.111 A 
ATOM      6  C   UNL     1      63.285  23.729  21.937  1.00  0.00     0.134 A 
ATOM      7  C   UNL     1      63.793  24.778  22.718  1.00  0.00     0.093 A 
ATOM      8  C   UNL     1      62.977  25.442  23.637  1.00  0.00     0.123 A 
ATOM      9  C   UNL     1      61.640  25.060  23.784  1.00  0.00     0.094 A 
ATOM     10  C   UNL     1      61.115  24.017  23.016  1.00  0.00     0.146 A 
ATOM     11  O   UNL     1      59.843  23.670  23.179  1.00  0.00    -0.452 OA
ENDROOT
BRANCH   1  12
ATOM     12  C   UNL     1      57.837  22.392  22.781  1.00  0.00     0.025 A 
ATOM     13  C   UNL     1      57.425  21.123  23.217  1.00  0.00     0.016 A 
ATOM     14  C   UNL     1      56.082  20.875  23.499  1.00  0.00     0.051 A 
ATOM     15  C   UNL     1      55.125  21.887  23.367  1.00  0.00     0.157 A 
ATOM     16  C   UNL     1      56.883  23.416  22.669  1.00  0.00     0.062 A 
ATOM     17  C   UNL     1      55.532  23.177  22.950  1.00  0.00     0.158 A 
BRANCH  15  18
ATOM     18  O   UNL     1      53.797  21.574  23.663  1.00  0.00    -0.504 OA
ATOM     19  H   UNL     1      53.002  21.983  23.194  1.00  0.00     0.293 HD
ENDBRANCH  15  18
BRANCH  17  20
ATOM     20  O   UNL     1      54.638  24.240  22.805  1.00  0.00    -0.504 OA
ATOM     21  H   UNL     1      54.904  25.213  22.856  1.00  0.00     0.293 HD
ENDBRANCH  17  20
ENDBRANCH   1  12
BRANCH   2  22
ATOM     22  O   UNL     1      59.374  20.987  20.761  1.00  0.00    -0.502 OA
ATOM     23  H   UNL     1      58.377  20.812  20.804  1.00  0.00     0.293 HD
ENDBRANCH   2  22
BRANCH   6  24
ATOM     24  O   UNL     1      64.125  23.085  21.027  1.00  0.00    -0.507 OA
ATOM     25  H   UNL     1      63.871  22.201  20.602  1.00  0.00     0.293 HD
ENDBRANCH   6  24
BRANCH   8  26
ATOM     26  O   UNL     1      63.506  26.480  24.399  1.00  0.00    -0.508 OA
ATOM     27  H   UNL     1      64.501  26.547  24.586  1.00  0.00     0.293 HD
ENDBRANCH   8  26
TORSDOF 6
ENDMDL
MODEL 3
REMARK VINA RESULT:    -3.326      1.462      1.569
REMARK INTER + INTRA:          -4.261
REMARK INTER:                  -4.143
REMARK INTRA:                  -0.118
REMARK UNBOUND:                -0.254
REMARK SMILES O=c1c(O)c(-c2ccc(O)c(O)c2)oc2cc(O)cc(O)c12
REMARK SMILES IDX 5 1 3 2 2 3 1 4 22 5 20 6 19 7 17 8 16 9 15 10 14 11 6 12
REMARK SMILES IDX 7 13 8 14 9 15 13 16 11 17 10 18 12 20 4 22 21 24 18 26
REMARK H PARENT 10 19 12 21 4 23 21 25 18 27
REMARK Flexibility Score: inf
ROOT
ATOM      1  C   UNL     1      59.302  22.848  22.991  1.00  0.00     0.180 A 
ATOM      2  C   UNL     1      59.884  23.777  23.876  1.00  0.00     0.208 A 
ATOM      3  C   UNL     1      61.247  24.080  23.739  1.00  0.00     0.238 A 
ATOM      4  O   UNL     1      61.778  24.919  24.519  1.00  0.00    -0.285 OA
ATOM      5  C   UNL     1      62.007  23.440  22.739  1.00  0.00     0.111 A 
ATOM      6  C   UNL     1      63.387  23.686  22.537  1.00  0.00     0.134 A 
ATOM      7  C   UNL     1      64.075  23.001  21.526  1.00  0.00     0.093 A 
ATOM      8  C   UNL     1      63.415  22.076  20.714  1.00  0.00     0.123 A 
ATOM      9  C   UNL     1      62.052  21.829  20.908  1.00  0.00     0.094 A 
ATOM     10  C   UNL     1      61.348  22.502  21.910  1.00  0.00     0.146 A 
ATOM     11  O   UNL     1      60.053  22.253  22.070  1.00  0.00    -0.452 OA
ENDROOT
BRANCH   1  12
ATOM     12  C   UNL     1      57.866  22.490  23.060  1.00  0.00     0.025 A 
ATOM     13  C   UNL     1      57.451  21.183  23.359  1.00  0.00     0.016 A 
ATOM     14  C   UNL     1      56.093  20.875  23.442  1.00  0.00     0.051 A 
ATOM     15  C   UNL     1      55.123  21.863  23.242  1.00  0.00     0.157 A 
ATOM     16  C   UNL     1      56.896  23.488  22.881  1.00  0.00     0.062 A 
ATOM     17  C   UNL     1      55.530  23.189  22.962  1.00  0.00     0.158 A 
BRANCH  15  18
ATOM     18  O   UNL     1      53.781  21.490  23.335  1.00  0.00    -0.504 OA
ATOM     19  H   UNL     1      53.410  20.890  24.057  1.00  0.00     0.293 HD
ENDBRANCH  15  18
BRANCH  17  20
ATOM     20  O   UNL     1      54.622  24.230  22.761  1.00  0.00    -0.504 OA
ATOM     21  H   UNL     1      54.775  24.997  22.121  1.00  0.00     0.293 HD
ENDBRANCH  17  20
ENDBRANCH   1  12
BRANCH   2  22
ATOM     22  O   UNL     1      59.120  24.360  24.890  1.00  0.00    -0.502 OA
ATOM     23  H   UNL     1      59.256  24.136  25.868  1.00  0.00     0.293 HD
ENDBRANCH   2  22
BRANCH   6  24
ATOM     24  O   UNL     1      64.075  24.604  23.332  1.00  0.00    -0.507 OA
ATOM     25  H   UNL     1      65.022  24.893  23.114  1.00  0.00     0.293 HD
ENDBRANCH   6  24
BRANCH   8  26
ATOM     26  O   UNL     1      64.122  21.409  19.717  1.00  0.00    -0.508 OA
ATOM     27  H   UNL     1      64.506  20.483  19.869  1.00  0.00     0.293 HD
ENDBRANCH   8  26
TORSDOF 6
ENDMDL
MODEL 4
REMARK VINA RESULT:    -3.013      2.680      2.788
REMARK INTER + INTRA:          -3.883
REMARK INTER:                  -4.046
REMARK INTRA:                   0.164
REMARK UNBOUND:                -0.254
REMARK SMILES O=c1c(O)c(-c2ccc(O)c(O)c2)oc2cc(O)cc(O)c12
REMARK SMILES IDX 5 1 3 2 2 3 1 4 22 5 20 6 19 7 17 8 16 9 15 10 14 11 6 12
REMARK SMILES IDX 7 13 8 14 9 15 13 16 11 17 10 18 12 20 4 22 21 24 18 26
REMARK H PARENT 10 19 12 21 4 23 21 25 18 27
REMARK Flexibility Score: inf
ROOT
ATOM      1  C   UNL     1      59.335  22.714  23.931  1.00  0.00     0.180 A 
ATOM      2  C   UNL     1      60.026  21.967  24.905  1.00  0.00     0.208 A 
ATOM      3  C   UNL     1      61.356  22.305  25.201  1.00  0.00     0.238 A 
ATOM      4  O   UNL     1      61.981  21.651  26.080  1.00  0.00    -0.285 OA
ATOM      5  C   UNL     1      61.977  23.365  24.509  1.00  0.00     0.111 A 
ATOM      6  C   UNL     1      63.314  23.766  24.743  1.00  0.00     0.134 A 
ATOM      7  C   UNL     1      63.863  24.824  24.005  1.00  0.00     0.093 A 
ATOM      8  C   UNL     1      63.105  25.487  23.038  1.00  0.00     0.123 A 
ATOM      9  C   UNL     1      61.783  25.096  22.802  1.00  0.00     0.094 A 
ATOM     10  C   UNL     1      61.217  24.045  23.527  1.00  0.00     0.146 A 
ATOM     11  O   UNL     1      59.958  23.696  23.287  1.00  0.00    -0.452 OA
ENDROOT
BRANCH   1  12
ATOM     12  C   UNL     1      57.925  22.430  23.577  1.00  0.00     0.025 A 
ATOM     13  C   UNL     1      57.440  21.116  23.497  1.00  0.00     0.016 A 
ATOM     14  C   UNL     1      56.102  20.875  23.185  1.00  0.00     0.051 A 
ATOM     15  C   UNL     1      55.218  21.936  22.960  1.00  0.00     0.157 A 
ATOM     16  C   UNL     1      57.037  23.497  23.374  1.00  0.00     0.062 A 
ATOM     17  C   UNL     1      55.691  23.266  23.060  1.00  0.00     0.158 A 
BRANCH  15  18
ATOM     18  O   UNL     1      53.893  21.628  22.649  1.00  0.00    -0.504 OA
ATOM     19  H   UNL     1      53.498  21.699  21.722  1.00  0.00     0.293 HD
ENDBRANCH  15  18
BRANCH  17  20
ATOM     20  O   UNL     1      54.869  24.376  22.859  1.00  0.00    -0.504 OA
ATOM     21  H   UNL     1      55.211  25.320  22.750  1.00  0.00     0.293 HD
ENDBRANCH  17  20
ENDBRANCH   1  12
BRANCH   2  22
ATOM     22  O   UNL     1      59.403  20.891  25.543  1.00  0.00    -0.502 OA
ATOM     23  H   UNL     1      58.724  21.019  26.283  1.00  0.00     0.293 HD
ENDBRANCH   2  22
BRANCH   6  24
ATOM     24  O   UNL     1      64.098  23.122  25.703  1.00  0.00    -0.507 OA
ATOM     25  H   UNL     1      63.788  22.273  26.162  1.00  0.00     0.293 HD
ENDBRANCH   6  24
BRANCH   8  26
ATOM     26  O   UNL     1      63.674  26.534  22.318  1.00  0.00    -0.508 OA
ATOM     27  H   UNL     1      64.655  26.772  22.415  1.00  0.00     0.293 HD
ENDBRANCH   8  26
TORSDOF 6
ENDMDL
MODEL 5
REMARK VINA RESULT:    -2.112      1.507      6.575
REMARK INTER + INTRA:          -2.799
REMARK INTER:                  -2.589
REMARK INTRA:                  -0.209
REMARK UNBOUND:                -0.254
REMARK SMILES O=c1c(O)c(-c2ccc(O)c(O)c2)oc2cc(O)cc(O)c12
REMARK SMILES IDX 5 1 3 2 2 3 1 4 22 5 20 6 19 7 17 8 16 9 15 10 14 11 6 12
REMARK SMILES IDX 7 13 8 14 9 15 13 16 11 17 10 18 12 20 4 22 21 24 18 26
REMARK H PARENT 10 19 12 21 4 23 21 25 18 27
REMARK Flexibility Score: inf
ROOT
ATOM      1  C   UNL     1      60.262  22.526  22.065  1.00  0.00     0.180 A 
ATOM      2  C   UNL     1      60.596  23.248  23.228  1.00  0.00     0.208 A 
ATOM      3  C   UNL     1      59.583  23.553  24.150  1.00  0.00     0.238 A 
ATOM      4  O   UNL     1      59.872  24.190  25.200  1.00  0.00    -0.285 OA
ATOM      5  C   UNL     1      58.257  23.152  23.888  1.00  0.00     0.111 A 
ATOM      6  C   UNL     1      57.178  23.424  24.763  1.00  0.00     0.134 A 
ATOM      7  C   UNL     1      55.884  22.999  24.426  1.00  0.00     0.093 A 
ATOM      8  C   UNL     1      55.648  22.311  23.234  1.00  0.00     0.123 A 
ATOM      9  C   UNL     1      56.710  22.039  22.365  1.00  0.00     0.094 A 
ATOM     10  C   UNL     1      58.007  22.453  22.684  1.00  0.00     0.146 A 
ATOM     11  O   UNL     1      58.998  22.177  21.844  1.00  0.00    -0.452 OA
ENDROOT
BRANCH   1  12
ATOM     12  C   UNL     1      61.277  22.149  21.055  1.00  0.00     0.025 A 
ATOM     13  C   UNL     1      62.298  21.232  21.349  1.00  0.00     0.016 A 
ATOM     14  C   UNL     1      63.229  20.875  20.373  1.00  0.00     0.051 A 
ATOM     15  C   UNL     1      63.155  21.412  19.084  1.00  0.00     0.157 A 
ATOM     16  C   UNL     1      61.186  22.673  19.756  1.00  0.00     0.062 A 
ATOM     17  C   UNL     1      62.116  22.321  18.769  1.00  0.00     0.158 A 
BRANCH  15  18
ATOM     18  O   UNL     1      64.118  21.017  18.154  1.00  0.00    -0.504 OA
ATOM     19  H   UNL     1      63.922  20.449  17.343  1.00  0.00     0.293 HD
ENDBRANCH  15  18
BRANCH  17  20
ATOM     20  O   UNL     1      61.970  22.891  17.503  1.00  0.00    -0.504 OA
ATOM     21  H   UNL     1      61.841  22.357  16.655  1.00  0.00     0.293 HD
ENDBRANCH  17  20
ENDBRANCH   1  12
BRANCH   2  22
ATOM     22  O   UNL     1      61.909  23.676  23.440  1.00  0.00    -0.502 OA
ATOM     23  H   UNL     1      62.659  23.033  23.665  1.00  0.00     0.293 HD
ENDBRANCH   2  22
BRANCH   6  24
ATOM     24  O   UNL     1      57.381  24.110  25.961  1.00  0.00    -0.507 OA
ATOM     25  H   UNL     1      57.656  23.630  26.811  1.00  0.00     0.293 HD
ENDBRANCH   6  24
BRANCH   8  26
ATOM     26  O   UNL     1      54.354  21.901  22.923  1.00  0.00    -0.508 OA
ATOM     27  H   UNL     1      53.916  21.121  23.400  1.00  0.00     0.293 HD
ENDBRANCH   8  26
TORSDOF 6
ENDMDL
