MODEL 1
REMARK VINA RESULT:    -4.021      0.000      0.000
REMARK INTER + INTRA:          -4.021
REMARK INTER:                  -4.021
REMARK INTRA:                   0.000
REMARK UNBOUND:                 0.000
REMARK SMILES CC1(C)C(=O)[C@@]2(C)CC[C@@H]1C2
REMARK SMILES IDX 1 1 2 2 10 3 9 4 8 5 6 6 11 7 4 8 5 9 7 10 3 11
REMARK H PARENT
REMARK Flexibility Score: inf
ROOT
ATOM      1  C   UNL     1     137.840 137.571 130.656  1.00  0.00     0.020 C 
ATOM      2  C   UNL     1     139.113 138.446 130.675  1.00  0.00     0.027 C 
ATOM      3  C   UNL     1     138.875 139.941 130.256  1.00  0.00     0.003 C 
ATOM      4  C   UNL     1     138.049 140.030 128.948  1.00  0.00     0.005 C 
ATOM      5  C   UNL     1     139.020 139.475 127.882  1.00  0.00     0.015 C 
ATOM      6  C   UNL     1     140.308 139.235 128.694  1.00  0.00     0.027 C 
ATOM      7  C   UNL     1     140.241 140.356 129.711  1.00  0.00     0.019 C 
ATOM      8  C   UNL     1     140.069 138.050 129.588  1.00  0.00     0.144 C 
ATOM      9  O   UNL     1     140.518 136.926 129.415  1.00  0.00    -0.298 OA
ATOM     10  C   UNL     1     141.600 139.187 127.875  1.00  0.00     0.020 C 
ATOM     11  C   UNL     1     139.775 138.343 132.066  1.00  0.00     0.020 C 
ENDROOT
TORSDOF 0
ENDMDL
MODEL 2
REMARK VINA RESULT:    -3.973      2.827      3.892
REMARK INTER + INTRA:          -3.973
REMARK INTER:                  -3.973
REMARK INTRA:                   0.000
REMARK UNBOUND:                 0.000
REMARK SMILES CC1(C)C(=O)[C@@]2(C)CC[C@@H]1C2
REMARK SMILES IDX 1 1 2 2 10 3 9 4 8 5 6 6 11 7 4 8 5 9 7 10 3 11
REMARK H PARENT
REMARK Flexibility Score: inf
ROOT
ATOM      1  C   UNL     1     137.594 137.406 130.659  1.00  0.00     0.020 C 
ATOM      2  C   UNL     1     138.472 136.136 130.678  1.00  0.00     0.027 C 
ATOM      3  C   UNL     1     139.968 136.378 130.261  1.00  0.00     0.003 C 
ATOM      4  C   UNL     1     140.056 137.207 128.954  1.00  0.00     0.005 C 
ATOM      5  C   UNL     1     139.505 136.235 127.886  1.00  0.00     0.015 C 
ATOM      6  C   UNL     1     139.268 134.945 128.696  1.00  0.00     0.027 C 
ATOM      7  C   UNL     1     140.387 135.014 129.715  1.00  0.00     0.019 C 
ATOM      8  C   UNL     1     138.081 135.180 129.589  1.00  0.00     0.144 C 
ATOM      9  O   UNL     1     136.959 134.728 129.414  1.00  0.00    -0.298 OA
ATOM     10  C   UNL     1     139.226 133.654 127.876  1.00  0.00     0.020 C 
ATOM     11  C   UNL     1     138.370 135.472 132.068  1.00  0.00     0.020 C 
ENDROOT
TORSDOF 0
ENDMDL
MODEL 3
REMARK VINA RESULT:    -3.968      3.806      5.665
REMARK INTER + INTRA:          -3.968
REMARK INTER:                  -3.968
REMARK INTRA:                   0.000
REMARK UNBOUND:                 0.000
REMARK SMILES CC1(C)C(=O)[C@@]2(C)CC[C@@H]1C2
REMARK SMILES IDX 1 1 2 2 10 3 9 4 8 5 6 6 11 7 4 8 5 9 7 10 3 11
REMARK H PARENT
REMARK Flexibility Score: inf
ROOT
ATOM      1  C   UNL     1     137.308 137.418 130.797  1.00  0.00     0.020 C 
ATOM      2  C   UNL     1     136.025 136.558 130.754  1.00  0.00     0.027 C 
ATOM      3  C   UNL     1     136.255 135.079 130.275  1.00  0.00     0.003 C 
ATOM      4  C   UNL     1     137.107 135.037 128.981  1.00  0.00     0.005 C 
ATOM      5  C   UNL     1     136.163 135.648 127.921  1.00  0.00     0.015 C 
ATOM      6  C   UNL     1     134.861 135.867 128.717  1.00  0.00     0.027 C 
ATOM      7  C   UNL     1     134.896 134.704 129.686  1.00  0.00     0.019 C 
ATOM      8  C   UNL     1     135.095 137.011 129.666  1.00  0.00     0.144 C 
ATOM      9  O   UNL     1     134.662 138.146 129.532  1.00  0.00    -0.298 OA
ATOM     10  C   UNL     1     133.587 135.964 127.876  1.00  0.00     0.020 C 
ATOM     11  C   UNL     1     135.336 136.608 132.135  1.00  0.00     0.020 C 
ENDROOT
TORSDOF 0
ENDMDL
MODEL 4
REMARK VINA RESULT:    -3.923      2.717      4.112
REMARK INTER + INTRA:          -3.923
REMARK INTER:                  -3.923
REMARK INTRA:                   0.000
REMARK UNBOUND:                 0.000
REMARK SMILES CC1(C)C(=O)[C@@]2(C)CC[C@@H]1C2
REMARK SMILES IDX 1 1 2 2 10 3 9 4 8 5 6 6 11 7 4 8 5 9 7 10 3 11
REMARK H PARENT
REMARK Flexibility Score: inf
ROOT
ATOM      1  C   UNL     1     136.791 134.954 129.743  1.00  0.00     0.020 C 
ATOM      2  C   UNL     1     138.258 134.947 129.258  1.00  0.00     0.027 C 
ATOM      3  C   UNL     1     139.308 134.624 130.381  1.00  0.00     0.003 C 
ATOM      4  C   UNL     1     139.050 135.477 131.650  1.00  0.00     0.005 C 
ATOM      5  C   UNL     1     139.402 136.908 131.186  1.00  0.00     0.015 C 
ATOM      6  C   UNL     1     139.912 136.680 129.749  1.00  0.00     0.027 C 
ATOM      7  C   UNL     1     140.569 135.320 129.870  1.00  0.00     0.019 C 
ATOM      8  C   UNL     1     138.725 136.327 128.896  1.00  0.00     0.144 C 
ATOM      9  O   UNL     1     138.180 137.070 128.092  1.00  0.00    -0.298 OA
ATOM     10  C   UNL     1     140.815 137.782 129.191  1.00  0.00     0.020 C 
ATOM     11  C   UNL     1     138.390 133.980 128.061  1.00  0.00     0.020 C 
ENDROOT
TORSDOF 0
ENDMDL
MODEL 5
REMARK VINA RESULT:    -3.922      2.655      4.635
REMARK INTER + INTRA:          -3.922
REMARK INTER:                  -3.922
REMARK INTRA:                   0.000
REMARK UNBOUND:                 0.000
REMARK SMILES CC1(C)C(=O)[C@@]2(C)CC[C@@H]1C2
REMARK SMILES IDX 1 1 2 2 10 3 9 4 8 5 6 6 11 7 4 8 5 9 7 10 3 11
REMARK H PARENT
REMARK Flexibility Score: inf
ROOT
ATOM      1  C   UNL     1     138.454 140.275 129.750  1.00  0.00     0.020 C 
ATOM      2  C   UNL     1     136.980 140.250 129.288  1.00  0.00     0.027 C 
ATOM      3  C   UNL     1     135.944 140.599 130.417  1.00  0.00     0.003 C 
ATOM      4  C   UNL     1     136.232 139.791 131.709  1.00  0.00     0.005 C 
ATOM      5  C   UNL     1     135.889 138.341 131.298  1.00  0.00     0.015 C 
ATOM      6  C   UNL     1     135.354 138.517 129.863  1.00  0.00     0.027 C 
ATOM      7  C   UNL     1     134.684 139.872 129.950  1.00  0.00     0.019 C 
ATOM      8  C   UNL     1     136.523 138.854 128.979  1.00  0.00     0.144 C 
ATOM      9  O   UNL     1     137.064 138.091 128.192  1.00  0.00    -0.298 OA
ATOM     10  C   UNL     1     134.455 137.387 129.356  1.00  0.00     0.020 C 
ATOM     11  C   UNL     1     136.819 141.175 128.063  1.00  0.00     0.020 C 
ENDROOT
TORSDOF 0
ENDMDL
MODEL 6
REMARK VINA RESULT:    -3.895      2.672      4.491
REMARK INTER + INTRA:          -3.895
REMARK INTER:                  -3.895
REMARK INTRA:                   0.000
REMARK UNBOUND:                 0.000
REMARK SMILES CC1(C)C(=O)[C@@]2(C)CC[C@@H]1C2
REMARK SMILES IDX 1 1 2 2 10 3 9 4 8 5 6 6 11 7 4 8 5 9 7 10 3 11
REMARK H PARENT
REMARK Flexibility Score: inf
ROOT
ATOM      1  C   UNL     1     140.179 137.507 128.297  1.00  0.00     0.020 C 
ATOM      2  C   UNL     1     139.526 136.894 129.556  1.00  0.00     0.027 C 
ATOM      3  C   UNL     1     139.927 135.400 129.828  1.00  0.00     0.003 C 
ATOM      4  C   UNL     1     139.790 134.541 128.545  1.00  0.00     0.005 C 
ATOM      5  C   UNL     1     138.263 134.500 128.313  1.00  0.00     0.015 C 
ATOM      6  C   UNL     1     137.716 135.250 129.544  1.00  0.00     0.027 C 
ATOM      7  C   UNL     1     138.725 134.868 130.608  1.00  0.00     0.019 C 
ATOM      8  C   UNL     1     138.048 136.707 129.374  1.00  0.00     0.144 C 
ATOM      9  O   UNL     1     137.256 137.585 129.062  1.00  0.00    -0.298 OA
ATOM     10  C   UNL     1     136.260 134.947 129.903  1.00  0.00     0.020 C 
ATOM     11  C   UNL     1     139.829 137.795 130.772  1.00  0.00     0.020 C 
ENDROOT
TORSDOF 0
ENDMDL
MODEL 7
REMARK VINA RESULT:    -3.889      3.745      5.021
REMARK INTER + INTRA:          -3.889
REMARK INTER:                  -3.889
REMARK INTRA:                   0.000
REMARK UNBOUND:                 0.000
REMARK SMILES CC1(C)C(=O)[C@@]2(C)CC[C@@H]1C2
REMARK SMILES IDX 1 1 2 2 10 3 9 4 8 5 6 6 11 7 4 8 5 9 7 10 3 11
REMARK H PARENT
REMARK Flexibility Score: inf
ROOT
ATOM      1  C   UNL     1     137.536 135.050 128.293  1.00  0.00     0.020 C 
ATOM      2  C   UNL     1     136.900 135.710 129.537  1.00  0.00     0.027 C 
ATOM      3  C   UNL     1     135.401 135.309 129.785  1.00  0.00     0.003 C 
ATOM      4  C   UNL     1     134.566 135.439 128.485  1.00  0.00     0.005 C 
ATOM      5  C   UNL     1     134.528 136.965 128.245  1.00  0.00     0.015 C 
ATOM      6  C   UNL     1     135.255 137.519 129.485  1.00  0.00     0.027 C 
ATOM      7  C   UNL     1     134.855 136.516 130.548  1.00  0.00     0.019 C 
ATOM      8  C   UNL     1     136.715 137.187 129.343  1.00  0.00     0.144 C 
ATOM      9  O   UNL     1     137.598 137.977 129.042  1.00  0.00    -0.298 OA
ATOM     10  C   UNL     1     134.946 138.977 129.830  1.00  0.00     0.020 C 
ATOM     11  C   UNL     1     137.779 135.414 130.771  1.00  0.00     0.020 C 
ENDROOT
TORSDOF 0
ENDMDL
MODEL 8
REMARK VINA RESULT:    -3.875      2.364      3.435
REMARK INTER + INTRA:          -3.875
REMARK INTER:                  -3.875
REMARK INTRA:                   0.000
REMARK UNBOUND:                 0.000
REMARK SMILES CC1(C)C(=O)[C@@]2(C)CC[C@@H]1C2
REMARK SMILES IDX 1 1 2 2 10 3 9 4 8 5 6 6 11 7 4 8 5 9 7 10 3 11
REMARK H PARENT
REMARK Flexibility Score: inf
ROOT
ATOM      1  C   UNL     1     135.008 137.673 128.300  1.00  0.00     0.020 C 
ATOM      2  C   UNL     1     135.656 138.263 129.571  1.00  0.00     0.027 C 
ATOM      3  C   UNL     1     135.244 139.749 129.876  1.00  0.00     0.003 C 
ATOM      4  C   UNL     1     135.373 140.635 128.611  1.00  0.00     0.005 C 
ATOM      5  C   UNL     1     136.901 140.694 128.380  1.00  0.00     0.015 C 
ATOM      6  C   UNL     1     137.453 139.922 129.594  1.00  0.00     0.027 C 
ATOM      7  C   UNL     1     136.442 140.272 130.666  1.00  0.00     0.019 C 
ATOM      8  C   UNL     1     137.133 138.466 129.392  1.00  0.00     0.144 C 
ATOM      9  O   UNL     1     137.931 137.601 129.061  1.00  0.00    -0.298 OA
ATOM     10  C   UNL     1     138.908 140.227 129.959  1.00  0.00     0.020 C 
ATOM     11  C   UNL     1     135.360 137.334 130.768  1.00  0.00     0.020 C 
ENDROOT
TORSDOF 0
ENDMDL
MODEL 9
REMARK VINA RESULT:    -3.870      1.404      2.534
REMARK INTER + INTRA:          -3.870
REMARK INTER:                  -3.870
REMARK INTRA:                   0.000
REMARK UNBOUND:                 0.000
REMARK SMILES CC1(C)C(=O)[C@@]2(C)CC[C@@H]1C2
REMARK SMILES IDX 1 1 2 2 10 3 9 4 8 5 6 6 11 7 4 8 5 9 7 10 3 11
REMARK H PARENT
REMARK Flexibility Score: inf
ROOT
ATOM      1  C   UNL     1     137.697 140.189 128.353  1.00  0.00     0.020 C 
ATOM      2  C   UNL     1     138.329 139.566 129.618  1.00  0.00     0.027 C 
ATOM      3  C   UNL     1     139.841 139.936 129.832  1.00  0.00     0.003 C 
ATOM      4  C   UNL     1     140.657 139.729 128.531  1.00  0.00     0.005 C 
ATOM      5  C   UNL     1     140.651 138.193 128.356  1.00  0.00     0.015 C 
ATOM      6  C   UNL     1     139.924 137.713 129.627  1.00  0.00     0.027 C 
ATOM      7  C   UNL     1     140.363 138.749 130.641  1.00  0.00     0.019 C 
ATOM      8  C   UNL     1     138.471 138.078 129.485  1.00  0.00     0.144 C 
ATOM      9  O   UNL     1     137.564 137.300 129.228  1.00  0.00    -0.298 OA
ATOM     10  C   UNL     1     140.198 136.263 130.031  1.00  0.00     0.020 C 
ATOM     11  C   UNL     1     137.472 139.939 130.846  1.00  0.00     0.020 C 
ENDROOT
TORSDOF 0
ENDMDL
