MODEL 1
REMARK VINA RESULT:    -1.380      0.000      0.000
REMARK INTER + INTRA:          -4.872
REMARK INTER:                  -2.993
REMARK INTRA:                  -1.880
REMARK UNBOUND:                -1.880
REMARK SMILES CCCCCCCCCCCCCCCCCCCCCC(=O)[O-]
REMARK SMILES IDX 12 1 11 2 10 3 9 4 8 5 7 6 6 7 5 8 4 9 3 10 2 11 1 12 13 13
REMARK SMILES IDX 14 14 15 15 16 16 17 17 18 18 19 19 20 20 21 21 22 22 23 23
REMARK SMILES IDX 24 24
REMARK H PARENT
REMARK Flexibility Score: inf
ROOT
ATOM      1  C   UNL     1      35.391  28.284  16.897  1.00  0.00     0.000 C 
ENDROOT
BRANCH   1   2
ATOM      2  C   UNL     1      36.419  29.235  17.535  1.00  0.00     0.000 C 
BRANCH   2   3
ATOM      3  C   UNL     1      36.448  29.225  19.076  1.00  0.00     0.000 C 
BRANCH   3   4
ATOM      4  C   UNL     1      35.054  29.392  19.701  1.00  0.00    -0.000 C 
BRANCH   4   5
ATOM      5  C   UNL     1      34.913  28.661  21.048  1.00  0.00    -0.000 C 
BRANCH   5   6
ATOM      6  C   UNL     1      35.684  27.325  21.111  1.00  0.00    -0.000 C 
BRANCH   6   7
ATOM      7  C   UNL     1      36.277  27.065  22.504  1.00  0.00    -0.000 C 
BRANCH   7   8
ATOM      8  C   UNL     1      35.911  28.189  23.478  1.00  0.00    -0.000 C 
BRANCH   8   9
ATOM      9  C   UNL     1      37.098  28.538  24.389  1.00  0.00    -0.000 C 
BRANCH   9  10
ATOM     10  C   UNL     1      36.947  29.912  25.061  1.00  0.00    -0.000 C 
BRANCH  10  11
ATOM     11  C   UNL     1      36.184  30.919  24.188  1.00  0.00    -0.003 C 
ATOM     12  C   UNL     1      37.114  31.584  23.177  1.00  0.00     0.004 C 
ENDBRANCH  10  11
ENDBRANCH   9  10
ENDBRANCH   8   9
ENDBRANCH   7   8
ENDBRANCH   6   7
ENDBRANCH   5   6
ENDBRANCH   4   5
ENDBRANCH   3   4
ENDBRANCH   2   3
ENDBRANCH   1   2
BRANCH   1  13
ATOM     13  C   UNL     1      35.963  26.881  16.625  1.00  0.00     0.000 C 
BRANCH  13  14
ATOM     14  C   UNL     1      37.105  26.901  15.597  1.00  0.00     0.000 C 
BRANCH  14  15
ATOM     15  C   UNL     1      36.771  27.754  14.363  1.00  0.00     0.000 C 
BRANCH  15  16
ATOM     16  C   UNL     1      36.696  26.884  13.101  1.00  0.00     0.000 C 
BRANCH  16  17
ATOM     17  C   UNL     1      35.296  26.875  12.458  1.00  0.00     0.000 C 
BRANCH  17  18
ATOM     18  C   UNL     1      34.535  28.212  12.528  1.00  0.00     0.000 C 
BRANCH  18  19
ATOM     19  C   UNL     1      33.107  28.134  13.102  1.00  0.00     0.000 C 
BRANCH  19  20
ATOM     20  C   UNL     1      32.680  29.377  13.908  1.00  0.00     0.006 C 
BRANCH  20  21
ATOM     21  C   UNL     1      31.321  29.944  13.466  1.00  0.00     0.053 C 
BRANCH  21  22
ATOM     22  C   UNL     1      31.477  31.336  12.935  1.00  0.00     0.041 C 
ATOM     23  O   UNL     1      32.621  31.788  12.659  1.00  0.00    -0.550 OA
ATOM     24  O   UNL     1      30.358  32.140  12.760  1.00  0.00    -0.550 OA
ENDBRANCH  21  22
ENDBRANCH  20  21
ENDBRANCH  19  20
ENDBRANCH  18  19
ENDBRANCH  17  18
ENDBRANCH  16  17
ENDBRANCH  15  16
ENDBRANCH  14  15
ENDBRANCH  13  14
ENDBRANCH   1  13
TORSDOF 20
ENDMDL
MODEL 2
REMARK VINA RESULT:    -1.359      3.104      9.217
REMARK INTER + INTRA:          -4.828
REMARK INTER:                  -4.297
REMARK INTRA:                  -0.530
REMARK UNBOUND:                -1.880
REMARK SMILES CCCCCCCCCCCCCCCCCCCCCC(=O)[O-]
REMARK SMILES IDX 12 1 11 2 10 3 9 4 8 5 7 6 6 7 5 8 4 9 3 10 2 11 1 12 13 13
REMARK SMILES IDX 14 14 15 15 16 16 17 17 18 18 19 19 20 20 21 21 22 22 23 23
REMARK SMILES IDX 24 24
REMARK H PARENT
REMARK Flexibility Score: inf
ROOT
ATOM      1  C   UNL     1      34.444  28.836  18.299  1.00  0.00     0.000 C 
ENDROOT
BRANCH   1   2
ATOM      2  C   UNL     1      35.343  28.916  17.052  1.00  0.00     0.000 C 
BRANCH   2   3
ATOM      3  C   UNL     1      36.406  27.807  16.943  1.00  0.00     0.000 C 
BRANCH   3   4
ATOM      4  C   UNL     1      36.178  26.877  15.739  1.00  0.00    -0.000 C 
BRANCH   4   5
ATOM      5  C   UNL     1      35.943  27.646  14.428  1.00  0.00    -0.000 C 
BRANCH   5   6
ATOM      6  C   UNL     1      36.395  26.875  13.169  1.00  0.00    -0.000 C 
BRANCH   6   7
ATOM      7  C   UNL     1      35.557  27.243  11.935  1.00  0.00    -0.000 C 
BRANCH   7   8
ATOM      8  C   UNL     1      34.760  28.529  12.172  1.00  0.00    -0.000 C 
BRANCH   8   9
ATOM      9  C   UNL     1      33.248  28.257  12.134  1.00  0.00    -0.000 C 
BRANCH   9  10
ATOM     10  C   UNL     1      32.619  28.200  13.535  1.00  0.00    -0.000 C 
BRANCH  10  11
ATOM     11  C   UNL     1      32.516  29.583  14.195  1.00  0.00    -0.003 C 
ATOM     12  C   UNL     1      32.504  30.692  13.146  1.00  0.00     0.004 C 
ENDBRANCH  10  11
ENDBRANCH   9  10
ENDBRANCH   8   9
ENDBRANCH   7   8
ENDBRANCH   6   7
ENDBRANCH   5   6
ENDBRANCH   4   5
ENDBRANCH   3   4
ENDBRANCH   2   3
ENDBRANCH   1   2
BRANCH   1  13
ATOM     13  C   UNL     1      34.187  27.391  18.759  1.00  0.00     0.000 C 
BRANCH  13  14
ATOM     14  C   UNL     1      35.186  26.927  19.830  1.00  0.00     0.000 C 
BRANCH  14  15
ATOM     15  C   UNL     1      36.397  27.865  19.949  1.00  0.00     0.000 C 
BRANCH  15  16
ATOM     16  C   UNL     1      37.034  27.763  21.342  1.00  0.00     0.000 C 
BRANCH  16  17
ATOM     17  C   UNL     1      36.193  26.932  22.329  1.00  0.00     0.000 C 
BRANCH  17  18
ATOM     18  C   UNL     1      36.267  27.388  23.798  1.00  0.00     0.000 C 
BRANCH  18  19
ATOM     19  C   UNL     1      36.893  28.777  24.030  1.00  0.00     0.000 C 
BRANCH  19  20
ATOM     20  C   UNL     1      35.904  29.838  24.553  1.00  0.00     0.006 C 
BRANCH  20  21
ATOM     21  C   UNL     1      36.238  31.260  24.076  1.00  0.00     0.053 C 
BRANCH  21  22
ATOM     22  C   UNL     1      36.239  31.328  22.579  1.00  0.00     0.041 C 
ATOM     23  O   UNL     1      35.451  30.609  21.908  1.00  0.00    -0.550 OA
ATOM     24  O   UNL     1      37.123  32.177  21.924  1.00  0.00    -0.550 OA
ENDBRANCH  21  22
ENDBRANCH  20  21
ENDBRANCH  19  20
ENDBRANCH  18  19
ENDBRANCH  17  18
ENDBRANCH  16  17
ENDBRANCH  15  16
ENDBRANCH  14  15
ENDBRANCH  13  14
ENDBRANCH   1  13
TORSDOF 20
ENDMDL
MODEL 3
REMARK VINA RESULT:    -1.241      1.336      2.038
REMARK INTER + INTRA:          -4.572
REMARK INTER:                  -2.922
REMARK INTRA:                  -1.650
REMARK UNBOUND:                -1.880
REMARK SMILES CCCCCCCCCCCCCCCCCCCCCC(=O)[O-]
REMARK SMILES IDX 12 1 11 2 10 3 9 4 8 5 7 6 6 7 5 8 4 9 3 10 2 11 1 12 13 13
REMARK SMILES IDX 14 14 15 15 16 16 17 17 18 18 19 19 20 20 21 21 22 22 23 23
REMARK SMILES IDX 24 24
REMARK H PARENT
REMARK Flexibility Score: inf
ROOT
ATOM      1  C   UNL     1      35.328  29.072  16.746  1.00  0.00     0.000 C 
ENDROOT
BRANCH   1   2
ATOM      2  C   UNL     1      35.681  28.832  18.225  1.00  0.00     0.000 C 
BRANCH   2   3
ATOM      3  C   UNL     1      34.597  28.105  19.044  1.00  0.00     0.000 C 
BRANCH   3   4
ATOM      4  C   UNL     1      35.160  27.394  20.285  1.00  0.00    -0.000 C 
BRANCH   4   5
ATOM      5  C   UNL     1      36.613  27.798  20.594  1.00  0.00    -0.000 C 
BRANCH   5   6
ATOM      6  C   UNL     1      36.750  28.720  21.825  1.00  0.00    -0.000 C 
BRANCH   6   7
ATOM      7  C   UNL     1      37.124  30.157  21.430  1.00  0.00    -0.000 C 
BRANCH   7   8
ATOM      8  C   UNL     1      36.374  31.178  22.290  1.00  0.00    -0.000 C 
BRANCH   8   9
ATOM      9  C   UNL     1      36.772  31.052  23.769  1.00  0.00    -0.000 C 
BRANCH   9  10
ATOM     10  C   UNL     1      35.561  30.862  24.696  1.00  0.00    -0.000 C 
BRANCH  10  11
ATOM     11  C   UNL     1      35.355  29.397  25.109  1.00  0.00    -0.003 C 
ATOM     12  C   UNL     1      33.879  29.012  25.050  1.00  0.00     0.004 C 
ENDBRANCH  10  11
ENDBRANCH   9  10
ENDBRANCH   8   9
ENDBRANCH   7   8
ENDBRANCH   6   7
ENDBRANCH   5   6
ENDBRANCH   4   5
ENDBRANCH   3   4
ENDBRANCH   2   3
ENDBRANCH   1   2
BRANCH   1  13
ATOM     13  C   UNL     1      35.101  27.765  15.966  1.00  0.00     0.000 C 
BRANCH  13  14
ATOM     14  C   UNL     1      36.400  27.201  15.371  1.00  0.00     0.000 C 
BRANCH  14  15
ATOM     15  C   UNL     1      36.331  27.051  13.843  1.00  0.00     0.000 C 
BRANCH  15  16
ATOM     16  C   UNL     1      34.879  26.875  13.376  1.00  0.00     0.000 C 
BRANCH  16  17
ATOM     17  C   UNL     1      34.723  26.973  11.846  1.00  0.00     0.000 C 
BRANCH  17  18
ATOM     18  C   UNL     1      34.075  28.274  11.337  1.00  0.00     0.000 C 
BRANCH  18  19
ATOM     19  C   UNL     1      33.050  28.921  12.288  1.00  0.00     0.000 C 
BRANCH  19  20
ATOM     20  C   UNL     1      33.273  30.428  12.528  1.00  0.00     0.006 C 
BRANCH  20  21
ATOM     21  C   UNL     1      32.281  31.030  13.536  1.00  0.00     0.053 C 
BRANCH  21  22
ATOM     22  C   UNL     1      31.017  31.449  12.848  1.00  0.00     0.041 C 
ATOM     23  O   UNL     1      30.018  30.681  12.827  1.00  0.00    -0.550 OA
ATOM     24  O   UNL     1      30.949  32.685  12.216  1.00  0.00    -0.550 OA
ENDBRANCH  21  22
ENDBRANCH  20  21
ENDBRANCH  19  20
ENDBRANCH  18  19
ENDBRANCH  17  18
ENDBRANCH  16  17
ENDBRANCH  15  16
ENDBRANCH  14  15
ENDBRANCH  13  14
ENDBRANCH   1  13
TORSDOF 20
ENDMDL
MODEL 4
REMARK VINA RESULT:    -1.222      3.906      9.715
REMARK INTER + INTRA:          -4.531
REMARK INTER:                  -3.895
REMARK INTRA:                  -0.637
REMARK UNBOUND:                -1.880
REMARK SMILES CCCCCCCCCCCCCCCCCCCCCC(=O)[O-]
REMARK SMILES IDX 12 1 11 2 10 3 9 4 8 5 7 6 6 7 5 8 4 9 3 10 2 11 1 12 13 13
REMARK SMILES IDX 14 14 15 15 16 16 17 17 18 18 19 19 20 20 21 21 22 22 23 23
REMARK SMILES IDX 24 24
REMARK H PARENT
REMARK Flexibility Score: inf
ROOT
ATOM      1  C   UNL     1      35.158  26.914  15.903  1.00  0.00     0.000 C 
ENDROOT
BRANCH   1   2
ATOM      2  C   UNL     1      36.200  26.887  14.770  1.00  0.00     0.000 C 
BRANCH   2   3
ATOM      3  C   UNL     1      35.839  27.731  13.532  1.00  0.00     0.000 C 
BRANCH   3   4
ATOM      4  C   UNL     1      35.562  26.875  12.286  1.00  0.00    -0.000 C 
BRANCH   4   5
ATOM      5  C   UNL     1      34.242  27.248  11.588  1.00  0.00    -0.000 C 
BRANCH   5   6
ATOM      6  C   UNL     1      33.681  28.621  12.018  1.00  0.00    -0.000 C 
BRANCH   6   7
ATOM      7  C   UNL     1      33.066  28.577  13.425  1.00  0.00    -0.000 C 
BRANCH   7   8
ATOM      8  C   UNL     1      32.428  29.920  13.792  1.00  0.00    -0.000 C 
BRANCH   8   9
ATOM      9  C   UNL     1      32.555  30.924  12.635  1.00  0.00    -0.000 C 
BRANCH   9  10
ATOM     10  C   UNL     1      31.628  32.139  12.800  1.00  0.00    -0.000 C 
BRANCH  10  11
ATOM     11  C   UNL     1      30.180  31.742  13.122  1.00  0.00    -0.003 C 
ATOM     12  C   UNL     1      29.359  31.580  11.845  1.00  0.00     0.004 C 
ENDBRANCH  10  11
ENDBRANCH   9  10
ENDBRANCH   8   9
ENDBRANCH   7   8
ENDBRANCH   6   7
ENDBRANCH   5   6
ENDBRANCH   4   5
ENDBRANCH   3   4
ENDBRANCH   2   3
ENDBRANCH   1   2
BRANCH   1  13
ATOM     13  C   UNL     1      35.045  28.292  16.579  1.00  0.00     0.000 C 
BRANCH  13  14
ATOM     14  C   UNL     1      36.417  28.918  16.873  1.00  0.00     0.000 C 
BRANCH  14  15
ATOM     15  C   UNL     1      37.125  28.249  18.061  1.00  0.00     0.000 C 
BRANCH  15  16
ATOM     16  C   UNL     1      36.669  28.869  19.390  1.00  0.00     0.000 C 
BRANCH  16  17
ATOM     17  C   UNL     1      35.891  27.881  20.279  1.00  0.00     0.000 C 
BRANCH  17  18
ATOM     18  C   UNL     1      36.122  28.041  21.793  1.00  0.00     0.000 C 
BRANCH  18  19
ATOM     19  C   UNL     1      35.525  29.315  22.424  1.00  0.00     0.000 C 
BRANCH  19  20
ATOM     20  C   UNL     1      36.409  29.956  23.513  1.00  0.00     0.006 C 
BRANCH  20  21
ATOM     21  C   UNL     1      35.805  29.845  24.921  1.00  0.00     0.053 C 
BRANCH  21  22
ATOM     22  C   UNL     1      34.745  28.786  24.960  1.00  0.00     0.041 C 
ATOM     23  O   UNL     1      35.064  27.566  24.959  1.00  0.00    -0.550 OA
ATOM     24  O   UNL     1      33.404  29.148  24.981  1.00  0.00    -0.550 OA
ENDBRANCH  21  22
ENDBRANCH  20  21
ENDBRANCH  19  20
ENDBRANCH  18  19
ENDBRANCH  17  18
ENDBRANCH  16  17
ENDBRANCH  15  16
ENDBRANCH  14  15
ENDBRANCH  13  14
ENDBRANCH   1  13
TORSDOF 20
ENDMDL
MODEL 5
REMARK VINA RESULT:    -0.536      3.515      9.685
REMARK INTER + INTRA:          -3.042
REMARK INTER:                  -2.285
REMARK INTRA:                  -0.757
REMARK UNBOUND:                -1.880
REMARK SMILES CCCCCCCCCCCCCCCCCCCCCC(=O)[O-]
REMARK SMILES IDX 12 1 11 2 10 3 9 4 8 5 7 6 6 7 5 8 4 9 3 10 2 11 1 12 13 13
REMARK SMILES IDX 14 14 15 15 16 16 17 17 18 18 19 19 20 20 21 21 22 22 23 23
REMARK SMILES IDX 24 24
REMARK H PARENT
REMARK Flexibility Score: inf
ROOT
ATOM      1  C   UNL     1      36.541  27.307  15.447  1.00  0.00     0.000 C 
ENDROOT
BRANCH   1   2
ATOM      2  C   UNL     1      35.033  27.488  15.195  1.00  0.00     0.000 C 
BRANCH   2   3
ATOM      3  C   UNL     1      34.514  26.875  13.880  1.00  0.00     0.000 C 
BRANCH   3   4
ATOM      4  C   UNL     1      35.526  26.985  12.728  1.00  0.00    -0.000 C 
BRANCH   4   5
ATOM      5  C   UNL     1      34.850  27.116  11.352  1.00  0.00    -0.000 C 
BRANCH   5   6
ATOM      6  C   UNL     1      34.151  28.475  11.132  1.00  0.00    -0.000 C 
BRANCH   6   7
ATOM      7  C   UNL     1      32.989  28.691  12.113  1.00  0.00    -0.000 C 
BRANCH   7   8
ATOM      8  C   UNL     1      33.152  30.005  12.882  1.00  0.00    -0.000 C 
BRANCH   8   9
ATOM      9  C   UNL     1      31.787  30.649  13.170  1.00  0.00    -0.000 C 
BRANCH   9  10
ATOM     10  C   UNL     1      31.812  32.179  13.036  1.00  0.00    -0.000 C 
BRANCH  10  11
ATOM     11  C   UNL     1      30.442  32.765  12.665  1.00  0.00    -0.003 C 
ATOM     12  C   UNL     1      29.592  31.742  11.915  1.00  0.00     0.004 C 
ENDBRANCH  10  11
ENDBRANCH   9  10
ENDBRANCH   8   9
ENDBRANCH   7   8
ENDBRANCH   6   7
ENDBRANCH   5   6
ENDBRANCH   4   5
ENDBRANCH   3   4
ENDBRANCH   2   3
ENDBRANCH   1   2
BRANCH   1  13
ATOM     13  C   UNL     1      37.089  28.271  16.514  1.00  0.00     0.000 C 
BRANCH  13  14
ATOM     14  C   UNL     1      36.773  27.807  17.944  1.00  0.00     0.000 C 
BRANCH  14  15
ATOM     15  C   UNL     1      37.009  28.911  18.986  1.00  0.00     0.000 C 
BRANCH  15  16
ATOM     16  C   UNL     1      35.676  29.445  19.529  1.00  0.00     0.000 C 
BRANCH  16  17
ATOM     17  C   UNL     1      35.142  28.628  20.722  1.00  0.00     0.000 C 
BRANCH  17  18
ATOM     18  C   UNL     1      36.073  27.504  21.214  1.00  0.00     0.000 C 
BRANCH  18  19
ATOM     19  C   UNL     1      36.311  27.458  22.736  1.00  0.00     0.000 C 
BRANCH  19  20
ATOM     20  C   UNL     1      35.621  28.594  23.519  1.00  0.00     0.006 C 
BRANCH  20  21
ATOM     21  C   UNL     1      36.613  29.498  24.267  1.00  0.00     0.053 C 
BRANCH  21  22
ATOM     22  C   UNL     1      36.562  30.896  23.730  1.00  0.00     0.041 C 
ATOM     23  O   UNL     1      36.004  31.813  24.392  1.00  0.00    -0.550 OA
ATOM     24  O   UNL     1      37.118  31.183  22.489  1.00  0.00    -0.550 OA
ENDBRANCH  21  22
ENDBRANCH  20  21
ENDBRANCH  19  20
ENDBRANCH  18  19
ENDBRANCH  17  18
ENDBRANCH  16  17
ENDBRANCH  15  16
ENDBRANCH  14  15
ENDBRANCH  13  14
ENDBRANCH   1  13
TORSDOF 20
ENDMDL
MODEL 6
REMARK VINA RESULT:     0.028      1.281      1.582
REMARK INTER + INTRA:          -1.819
REMARK INTER:                  -1.134
REMARK INTRA:                  -0.685
REMARK UNBOUND:                -1.880
REMARK SMILES CCCCCCCCCCCCCCCCCCCCCC(=O)[O-]
REMARK SMILES IDX 12 1 11 2 10 3 9 4 8 5 7 6 6 7 5 8 4 9 3 10 2 11 1 12 13 13
REMARK SMILES IDX 14 14 15 15 16 16 17 17 18 18 19 19 20 20 21 21 22 22 23 23
REMARK SMILES IDX 24 24
REMARK H PARENT
REMARK Flexibility Score: inf
ROOT
ATOM      1  C   UNL     1      34.623  28.740  16.166  1.00  0.00     0.000 C 
ENDROOT
BRANCH   1   2
ATOM      2  C   UNL     1      36.013  29.008  16.773  1.00  0.00     0.000 C 
BRANCH   2   3
ATOM      3  C   UNL     1      36.254  28.372  18.155  1.00  0.00     0.000 C 
BRANCH   3   4
ATOM      4  C   UNL     1      37.071  29.275  19.094  1.00  0.00    -0.000 C 
BRANCH   4   5
ATOM      5  C   UNL     1      36.555  29.249  20.544  1.00  0.00    -0.000 C 
BRANCH   5   6
ATOM      6  C   UNL     1      35.309  28.359  20.741  1.00  0.00    -0.000 C 
BRANCH   6   7
ATOM      7  C   UNL     1      35.632  27.080  21.529  1.00  0.00    -0.000 C 
BRANCH   7   8
ATOM      8  C   UNL     1      35.991  27.403  22.982  1.00  0.00    -0.000 C 
BRANCH   8   9
ATOM      9  C   UNL     1      35.772  28.892  23.287  1.00  0.00    -0.000 C 
BRANCH   9  10
ATOM     10  C   UNL     1      35.283  29.140  24.723  1.00  0.00    -0.000 C 
BRANCH  10  11
ATOM     11  C   UNL     1      35.170  30.633  25.062  1.00  0.00    -0.003 C 
ATOM     12  C   UNL     1      36.359  31.414  24.509  1.00  0.00     0.004 C 
ENDBRANCH  10  11
ENDBRANCH   9  10
ENDBRANCH   8   9
ENDBRANCH   7   8
ENDBRANCH   6   7
ENDBRANCH   5   6
ENDBRANCH   4   5
ENDBRANCH   3   4
ENDBRANCH   2   3
ENDBRANCH   1   2
BRANCH   1  13
ATOM     13  C   UNL     1      34.609  27.530  15.216  1.00  0.00     0.000 C 
BRANCH  13  14
ATOM     14  C   UNL     1      36.019  27.122  14.761  1.00  0.00     0.000 C 
BRANCH  14  15
ATOM     15  C   UNL     1      36.290  27.484  13.292  1.00  0.00     0.000 C 
BRANCH  15  16
ATOM     16  C   UNL     1      35.222  26.875  12.372  1.00  0.00     0.000 C 
BRANCH  16  17
ATOM     17  C   UNL     1      34.432  27.936  11.583  1.00  0.00     0.000 C 
BRANCH  17  18
ATOM     18  C   UNL     1      34.184  29.259  12.332  1.00  0.00     0.000 C 
BRANCH  18  19
ATOM     19  C   UNL     1      32.717  29.543  12.709  1.00  0.00     0.000 C 
BRANCH  19  20
ATOM     20  C   UNL     1      32.533  30.699  13.713  1.00  0.00     0.006 C 
BRANCH  20  21
ATOM     21  C   UNL     1      31.912  31.954  13.080  1.00  0.00     0.053 C 
BRANCH  21  22
ATOM     22  C   UNL     1      30.474  31.715  12.736  1.00  0.00     0.041 C 
ATOM     23  O   UNL     1      29.894  30.662  13.117  1.00  0.00    -0.550 OA
ATOM     24  O   UNL     1      29.778  32.650  11.979  1.00  0.00    -0.550 OA
ENDBRANCH  21  22
ENDBRANCH  20  21
ENDBRANCH  19  20
ENDBRANCH  18  19
ENDBRANCH  17  18
ENDBRANCH  16  17
ENDBRANCH  15  16
ENDBRANCH  14  15
ENDBRANCH  13  14
ENDBRANCH   1  13
TORSDOF 20
ENDMDL
MODEL 7
REMARK VINA RESULT:     0.493      3.885      9.630
REMARK INTER + INTRA:          -0.810
REMARK INTER:                  -1.364
REMARK INTRA:                   0.554
REMARK UNBOUND:                -1.880
REMARK SMILES CCCCCCCCCCCCCCCCCCCCCC(=O)[O-]
REMARK SMILES IDX 12 1 11 2 10 3 9 4 8 5 7 6 6 7 5 8 4 9 3 10 2 11 1 12 13 13
REMARK SMILES IDX 14 14 15 15 16 16 17 17 18 18 19 19 20 20 21 21 22 22 23 23
REMARK SMILES IDX 24 24
REMARK H PARENT
REMARK Flexibility Score: inf
ROOT
ATOM      1  C   UNL     1      34.936  28.221  15.629  1.00  0.00     0.000 C 
ENDROOT
BRANCH   1   2
ATOM      2  C   UNL     1      33.694  27.992  14.748  1.00  0.00     0.000 C 
BRANCH   2   3
ATOM      3  C   UNL     1      33.854  26.906  13.666  1.00  0.00     0.000 C 
BRANCH   3   4
ATOM      4  C   UNL     1      35.264  26.875  13.055  1.00  0.00    -0.000 C 
BRANCH   4   5
ATOM      5  C   UNL     1      35.288  27.337  11.587  1.00  0.00    -0.000 C 
BRANCH   5   6
ATOM      6  C   UNL     1      34.083  28.221  11.197  1.00  0.00    -0.000 C 
BRANCH   6   7
ATOM      7  C   UNL     1      34.004  29.497  12.050  1.00  0.00    -0.000 C 
BRANCH   7   8
ATOM      8  C   UNL     1      32.598  29.690  12.626  1.00  0.00    -0.000 C 
BRANCH   8   9
ATOM      9  C   UNL     1      32.443  31.088  13.244  1.00  0.00    -0.000 C 
BRANCH   9  10
ATOM     10  C   UNL     1      31.401  31.949  12.513  1.00  0.00    -0.000 C 
BRANCH  10  11
ATOM     11  C   UNL     1      29.958  31.516  12.813  1.00  0.00    -0.003 C 
ATOM     12  C   UNL     1      28.990  32.074  11.774  1.00  0.00     0.004 C 
ENDBRANCH  10  11
ENDBRANCH   9  10
ENDBRANCH   8   9
ENDBRANCH   7   8
ENDBRANCH   6   7
ENDBRANCH   5   6
ENDBRANCH   4   5
ENDBRANCH   3   4
ENDBRANCH   2   3
ENDBRANCH   1   2
BRANCH   1  13
ATOM     13  C   UNL     1      34.772  29.406  16.596  1.00  0.00     0.000 C 
BRANCH  13  14
ATOM     14  C   UNL     1      35.220  29.065  18.026  1.00  0.00     0.000 C 
BRANCH  14  15
ATOM     15  C   UNL     1      35.673  27.604  18.167  1.00  0.00     0.000 C 
BRANCH  15  16
ATOM     16  C   UNL     1      37.088  27.524  18.758  1.00  0.00     0.000 C 
BRANCH  16  17
ATOM     17  C   UNL     1      37.120  26.888  20.161  1.00  0.00     0.000 C 
BRANCH  17  18
ATOM     18  C   UNL     1      37.104  27.887  21.333  1.00  0.00     0.000 C 
BRANCH  18  19
ATOM     19  C   UNL     1      36.838  29.355  20.949  1.00  0.00     0.000 C 
BRANCH  19  20
ATOM     20  C   UNL     1      35.740  30.040  21.788  1.00  0.00     0.006 C 
BRANCH  20  21
ATOM     21  C   UNL     1      36.067  30.082  23.289  1.00  0.00     0.053 C 
BRANCH  21  22
ATOM     22  C   UNL     1      35.406  28.946  24.007  1.00  0.00     0.041 C 
ATOM     23  O   UNL     1      34.201  29.034  24.366  1.00  0.00    -0.550 OA
ATOM     24  O   UNL     1      36.127  27.793  24.292  1.00  0.00    -0.550 OA
ENDBRANCH  21  22
ENDBRANCH  20  21
ENDBRANCH  19  20
ENDBRANCH  18  19
ENDBRANCH  17  18
ENDBRANCH  16  17
ENDBRANCH  15  16
ENDBRANCH  14  15
ENDBRANCH  13  14
ENDBRANCH   1  13
TORSDOF 20
ENDMDL
MODEL 8
REMARK VINA RESULT:     1.229      3.810      9.193
REMARK INTER + INTRA:           0.787
REMARK INTER:                   1.125
REMARK INTRA:                  -0.338
REMARK UNBOUND:                -1.880
REMARK SMILES CCCCCCCCCCCCCCCCCCCCCC(=O)[O-]
REMARK SMILES IDX 12 1 11 2 10 3 9 4 8 5 7 6 6 7 5 8 4 9 3 10 2 11 1 12 13 13
REMARK SMILES IDX 14 14 15 15 16 16 17 17 18 18 19 19 20 20 21 21 22 22 23 23
REMARK SMILES IDX 24 24
REMARK H PARENT
REMARK Flexibility Score: inf
ROOT
ATOM      1  C   UNL     1      35.757  26.903  14.150  1.00  0.00     0.000 C 
ENDROOT
BRANCH   1   2
ATOM      2  C   UNL     1      35.713  27.129  12.627  1.00  0.00     0.000 C 
BRANCH   2   3
ATOM      3  C   UNL     1      34.342  26.875  11.971  1.00  0.00     0.000 C 
BRANCH   3   4
ATOM      4  C   UNL     1      33.744  28.137  11.329  1.00  0.00    -0.000 C 
BRANCH   4   5
ATOM      5  C   UNL     1      34.191  29.432  12.030  1.00  0.00    -0.000 C 
BRANCH   5   6
ATOM      6  C   UNL     1      33.403  29.740  13.322  1.00  0.00    -0.000 C 
BRANCH   6   7
ATOM      7  C   UNL     1      32.620  28.517  13.824  1.00  0.00    -0.000 C 
BRANCH   7   8
ATOM      8  C   UNL     1      31.505  28.934  14.788  1.00  0.00    -0.000 C 
BRANCH   8   9
ATOM      9  C   UNL     1      30.316  29.541  14.027  1.00  0.00    -0.000 C 
BRANCH   9  10
ATOM     10  C   UNL     1      30.753  30.386  12.819  1.00  0.00    -0.000 C 
BRANCH  10  11
ATOM     11  C   UNL     1      30.146  31.796  12.831  1.00  0.00    -0.003 C 
ATOM     12  C   UNL     1      31.185  32.844  12.441  1.00  0.00     0.004 C 
ENDBRANCH  10  11
ENDBRANCH   9  10
ENDBRANCH   8   9
ENDBRANCH   7   8
ENDBRANCH   6   7
ENDBRANCH   5   6
ENDBRANCH   4   5
ENDBRANCH   3   4
ENDBRANCH   2   3
ENDBRANCH   1   2
BRANCH   1  13
ATOM     13  C   UNL     1      36.978  27.561  14.816  1.00  0.00     0.000 C 
BRANCH  13  14
ATOM     14  C   UNL     1      36.743  27.869  16.303  1.00  0.00     0.000 C 
BRANCH  14  15
ATOM     15  C   UNL     1      35.438  28.642  16.544  1.00  0.00     0.000 C 
BRANCH  15  16
ATOM     16  C   UNL     1      35.300  29.037  18.021  1.00  0.00     0.000 C 
BRANCH  16  17
ATOM     17  C   UNL     1      34.818  27.876  18.912  1.00  0.00     0.000 C 
BRANCH  17  18
ATOM     18  C   UNL     1      35.879  27.301  19.868  1.00  0.00     0.000 C 
BRANCH  18  19
ATOM     19  C   UNL     1      35.899  27.914  21.282  1.00  0.00     0.000 C 
BRANCH  19  20
ATOM     20  C   UNL     1      36.412  29.368  21.334  1.00  0.00     0.006 C 
BRANCH  20  21
ATOM     21  C   UNL     1      35.913  30.139  22.566  1.00  0.00     0.053 C 
BRANCH  21  22
ATOM     22  C   UNL     1      35.801  29.226  23.750  1.00  0.00     0.041 C 
ATOM     23  O   UNL     1      36.802  28.569  24.145  1.00  0.00    -0.550 OA
ATOM     24  O   UNL     1      34.585  29.091  24.408  1.00  0.00    -0.550 OA
ENDBRANCH  21  22
ENDBRANCH  20  21
ENDBRANCH  19  20
ENDBRANCH  18  19
ENDBRANCH  17  18
ENDBRANCH  16  17
ENDBRANCH  15  16
ENDBRANCH  14  15
ENDBRANCH  13  14
ENDBRANCH   1  13
TORSDOF 20
ENDMDL
