MODEL 1
REMARK VINA RESULT:    -5.911      0.000      0.000
REMARK INTER + INTRA:          -7.676
REMARK INTER:                  -7.293
REMARK INTRA:                  -0.383
REMARK UNBOUND:                -0.383
REMARK SMILES Oc1cc(O)c2cc(O)c(-c3cc(O)c(O)c(O)c3)[o+]c2c1
REMARK SMILES IDX 10 1 20 2 21 3 22 4 2 5 3 6 4 7 6 8 7 9 8 10 11 11 12 12
REMARK SMILES IDX 13 13 19 14 15 15 17 16 14 17 16 19 18 21 9 23 1 25 5 27
REMARK H PARENT 14 18 16 20 18 22 9 24 1 26 5 28
REMARK Flexibility Score: inf
ROOT
ATOM      1  C   UNL     1       6.995  10.699  35.818  1.00  0.00     0.402 A 
ATOM      2  O   UNL     1       8.090  10.528  36.552  1.00  0.00    -0.202 OA
ATOM      3  C   UNL     1       8.112  10.660  37.875  1.00  0.00     0.368 A 
ATOM      4  C   UNL     1       9.315  10.464  38.559  1.00  0.00     0.162 A 
ATOM      5  C   UNL     1       9.366  10.598  39.950  1.00  0.00     0.128 A 
ATOM      6  C   UNL     1       8.209  10.931  40.658  1.00  0.00     0.093 A 
ATOM      7  C   UNL     1       6.992  11.133  39.996  1.00  0.00     0.136 A 
ATOM      8  C   UNL     1       6.934  10.995  38.585  1.00  0.00     0.125 A 
ATOM      9  C   UNL     1       5.756  11.166  37.840  1.00  0.00     0.078 A 
ATOM     10  C   UNL     1       5.776  11.008  36.451  1.00  0.00     0.223 A 
ENDROOT
BRANCH   1  11
ATOM     11  C   UNL     1       7.101  10.534  34.351  1.00  0.00     0.091 A 
ATOM     12  C   UNL     1       7.070   9.245  33.797  1.00  0.00     0.068 A 
ATOM     13  C   UNL     1       7.190   9.062  32.413  1.00  0.00     0.162 A 
ATOM     14  C   UNL     1       7.292  11.639  33.503  1.00  0.00     0.068 A 
ATOM     15  C   UNL     1       7.358  10.168  31.570  1.00  0.00     0.200 A 
ATOM     16  C   UNL     1       7.414  11.461  32.117  1.00  0.00     0.162 A 
BRANCH  13  17
ATOM     17  O   UNL     1       7.143   7.780  31.866  1.00  0.00    -0.504 OA
ATOM     18  H   UNL     1       6.696   7.600  30.974  1.00  0.00     0.293 HD
ENDBRANCH  13  17
BRANCH  15  19
ATOM     19  O   UNL     1       7.472   9.966  30.194  1.00  0.00    -0.502 OA
ATOM     20  H   UNL     1       6.900   9.293  29.698  1.00  0.00     0.293 HD
ENDBRANCH  15  19
BRANCH  16  21
ATOM     21  O   UNL     1       7.596  12.564  31.284  1.00  0.00    -0.504 OA
ATOM     22  H   UNL     1       7.212  13.473  31.515  1.00  0.00     0.293 HD
ENDBRANCH  16  21
ENDBRANCH   1  11
BRANCH  10  23
ATOM     23  O   UNL     1       4.597  11.129  35.716  1.00  0.00    -0.500 OA
ATOM     24  H   UNL     1       4.009  11.951  35.783  1.00  0.00     0.294 HD
ENDBRANCH  10  23
BRANCH   5  25
ATOM     25  O   UNL     1      10.561  10.404  40.637  1.00  0.00    -0.507 OA
ATOM     26  H   UNL     1      10.700  10.769  41.573  1.00  0.00     0.293 HD
ENDBRANCH   5  25
BRANCH   7  27
ATOM     27  O   UNL     1       5.882  11.467  40.778  1.00  0.00    -0.507 OA
ATOM     28  H   UNL     1       5.785  11.240  41.757  1.00  0.00     0.293 HD
ENDBRANCH   7  27
TORSDOF 7
ENDMDL
MODEL 2
REMARK VINA RESULT:    -5.330      2.107      3.138
REMARK INTER + INTRA:          -6.959
REMARK INTER:                  -6.598
REMARK INTRA:                  -0.361
REMARK UNBOUND:                -0.383
REMARK SMILES Oc1cc(O)c2cc(O)c(-c3cc(O)c(O)c(O)c3)[o+]c2c1
REMARK SMILES IDX 10 1 20 2 21 3 22 4 2 5 3 6 4 7 6 8 7 9 8 10 11 11 12 12
REMARK SMILES IDX 13 13 19 14 15 15 17 16 14 17 16 19 18 21 9 23 1 25 5 27
REMARK H PARENT 14 18 16 20 18 22 9 24 1 26 5 28
REMARK Flexibility Score: inf
ROOT
ATOM      1  C   UNL     1       7.945  11.482  35.772  1.00  0.00     0.402 A 
ATOM      2  O   UNL     1       8.266  10.842  36.892  1.00  0.00    -0.202 OA
ATOM      3  C   UNL     1       9.030  11.371  37.843  1.00  0.00     0.368 A 
ATOM      4  C   UNL     1       9.316  10.617  38.984  1.00  0.00     0.162 A 
ATOM      5  C   UNL     1      10.118  11.149  39.998  1.00  0.00     0.128 A 
ATOM      6  C   UNL     1      10.636  12.439  39.869  1.00  0.00     0.093 A 
ATOM      7  C   UNL     1      10.364  13.215  38.736  1.00  0.00     0.136 A 
ATOM      8  C   UNL     1       9.549  12.681  37.705  1.00  0.00     0.125 A 
ATOM      9  C   UNL     1       9.213  13.390  36.540  1.00  0.00     0.078 A 
ATOM     10  C   UNL     1       8.399  12.799  35.569  1.00  0.00     0.223 A 
ENDROOT
BRANCH   1  11
ATOM     11  C   UNL     1       7.095  10.781  34.783  1.00  0.00     0.091 A 
ATOM     12  C   UNL     1       5.707  10.990  34.793  1.00  0.00     0.068 A 
ATOM     13  C   UNL     1       4.880  10.322  33.881  1.00  0.00     0.162 A 
ATOM     14  C   UNL     1       7.642   9.863  33.868  1.00  0.00     0.068 A 
ATOM     15  C   UNL     1       5.432   9.426  32.958  1.00  0.00     0.200 A 
ATOM     16  C   UNL     1       6.817   9.191  32.955  1.00  0.00     0.162 A 
BRANCH  13  17
ATOM     17  O   UNL     1       3.503  10.545  33.886  1.00  0.00    -0.504 OA
ATOM     18  H   UNL     1       2.939  10.365  34.710  1.00  0.00     0.293 HD
ENDBRANCH  13  17
BRANCH  15  19
ATOM     19  O   UNL     1       4.592   8.772  32.055  1.00  0.00    -0.502 OA
ATOM     20  H   UNL     1       3.583   8.806  32.136  1.00  0.00     0.293 HD
ENDBRANCH  15  19
BRANCH  16  21
ATOM     21  O   UNL     1       7.370   8.288  32.047  1.00  0.00    -0.504 OA
ATOM     22  H   UNL     1       7.989   7.544  32.349  1.00  0.00     0.293 HD
ENDBRANCH  16  21
ENDBRANCH   1  11
BRANCH  10  23
ATOM     23  O   UNL     1       8.025  13.520  34.436  1.00  0.00    -0.500 OA
ATOM     24  H   UNL     1       8.699  13.792  33.730  1.00  0.00     0.294 HD
ENDBRANCH  10  23
BRANCH   5  25
ATOM     25  O   UNL     1      10.407  10.403  41.138  1.00  0.00    -0.507 OA
ATOM     26  H   UNL     1      11.145   9.709  41.145  1.00  0.00     0.293 HD
ENDBRANCH   5  25
BRANCH   7  27
ATOM     27  O   UNL     1      10.924  14.495  38.683  1.00  0.00    -0.507 OA
ATOM     28  H   UNL     1      10.467  15.332  39.017  1.00  0.00     0.293 HD
ENDBRANCH   7  27
TORSDOF 7
ENDMDL
MODEL 3
REMARK VINA RESULT:    -5.190      6.354     10.927
REMARK INTER + INTRA:          -6.786
REMARK INTER:                  -6.538
REMARK INTRA:                  -0.248
REMARK UNBOUND:                -0.383
REMARK SMILES Oc1cc(O)c2cc(O)c(-c3cc(O)c(O)c(O)c3)[o+]c2c1
REMARK SMILES IDX 10 1 20 2 21 3 22 4 2 5 3 6 4 7 6 8 7 9 8 10 11 11 12 12
REMARK SMILES IDX 13 13 19 14 15 15 17 16 14 17 16 19 18 21 9 23 1 25 5 27
REMARK H PARENT 14 18 16 20 18 22 9 24 1 26 5 28
REMARK Flexibility Score: inf
ROOT
ATOM      1  C   UNL     1      11.171  14.246  43.673  1.00  0.00     0.402 A 
ATOM      2  O   UNL     1      11.123  13.199  42.855  1.00  0.00    -0.202 OA
ATOM      3  C   UNL     1       9.987  12.633  42.458  1.00  0.00     0.368 A 
ATOM      4  C   UNL     1      10.041  11.531  41.599  1.00  0.00     0.162 A 
ATOM      5  C   UNL     1       8.861  10.916  41.169  1.00  0.00     0.128 A 
ATOM      6  C   UNL     1       7.626  11.403  41.600  1.00  0.00     0.093 A 
ATOM      7  C   UNL     1       7.546  12.505  42.461  1.00  0.00     0.136 A 
ATOM      8  C   UNL     1       8.739  13.135  42.898  1.00  0.00     0.125 A 
ATOM      9  C   UNL     1       8.755  14.251  43.750  1.00  0.00     0.078 A 
ATOM     10  C   UNL     1       9.973  14.822  44.136  1.00  0.00     0.223 A 
ENDROOT
BRANCH   1  11
ATOM     11  C   UNL     1      12.499  14.781  44.051  1.00  0.00     0.091 A 
ATOM     12  C   UNL     1      13.357  15.266  43.052  1.00  0.00     0.068 A 
ATOM     13  C   UNL     1      14.627  15.758  43.382  1.00  0.00     0.162 A 
ATOM     14  C   UNL     1      12.944  14.760  45.385  1.00  0.00     0.068 A 
ATOM     15  C   UNL     1      15.057  15.755  44.714  1.00  0.00     0.200 A 
ATOM     16  C   UNL     1      14.214  15.249  45.719  1.00  0.00     0.162 A 
BRANCH  13  17
ATOM     17  O   UNL     1      15.470  16.252  42.387  1.00  0.00    -0.504 OA
ATOM     18  H   UNL     1      15.994  17.111  42.515  1.00  0.00     0.293 HD
ENDBRANCH  13  17
BRANCH  15  19
ATOM     19  O   UNL     1      16.323  16.252  45.024  1.00  0.00    -0.502 OA
ATOM     20  H   UNL     1      16.458  17.026  45.664  1.00  0.00     0.293 HD
ENDBRANCH  15  19
BRANCH  16  21
ATOM     21  O   UNL     1      14.644  15.231  47.046  1.00  0.00    -0.504 OA
ATOM     22  H   UNL     1      15.158  16.006  47.448  1.00  0.00     0.293 HD
ENDBRANCH  16  21
ENDBRANCH   1  11
BRANCH  10  23
ATOM     23  O   UNL     1       9.988  15.960  44.941  1.00  0.00    -0.500 OA
ATOM     24  H   UNL     1       9.710  16.868  44.586  1.00  0.00     0.294 HD
ENDBRANCH  10  23
BRANCH   5  25
ATOM     25  O   UNL     1       8.907   9.818  40.312  1.00  0.00    -0.507 OA
ATOM     26  H   UNL     1       9.731   9.232  40.244  1.00  0.00     0.293 HD
ENDBRANCH   5  25
BRANCH   7  27
ATOM     27  O   UNL     1       6.272  12.928  42.848  1.00  0.00    -0.507 OA
ATOM     28  H   UNL     1       5.622  13.410  42.243  1.00  0.00     0.293 HD
ENDBRANCH   7  27
TORSDOF 7
ENDMDL
MODEL 4
REMARK VINA RESULT:    -5.187      7.232     11.633
REMARK INTER + INTRA:          -6.782
REMARK INTER:                  -7.037
REMARK INTRA:                   0.255
REMARK UNBOUND:                -0.383
REMARK SMILES Oc1cc(O)c2cc(O)c(-c3cc(O)c(O)c(O)c3)[o+]c2c1
REMARK SMILES IDX 10 1 20 2 21 3 22 4 2 5 3 6 4 7 6 8 7 9 8 10 11 11 12 12
REMARK SMILES IDX 13 13 19 14 15 15 17 16 14 17 16 19 18 21 9 23 1 25 5 27
REMARK H PARENT 14 18 16 20 18 22 9 24 1 26 5 28
REMARK Flexibility Score: inf
ROOT
ATOM      1  C   UNL     1      12.774  15.488  41.471  1.00  0.00     0.402 A 
ATOM      2  O   UNL     1      13.293  16.371  40.622  1.00  0.00    -0.202 OA
ATOM      3  C   UNL     1      12.905  16.481  39.355  1.00  0.00     0.368 A 
ATOM      4  C   UNL     1      13.515  17.437  38.538  1.00  0.00     0.162 A 
ATOM      5  C   UNL     1      13.128  17.573  37.201  1.00  0.00     0.128 A 
ATOM      6  C   UNL     1      12.129  16.748  36.680  1.00  0.00     0.093 A 
ATOM      7  C   UNL     1      11.503  15.782  37.478  1.00  0.00     0.136 A 
ATOM      8  C   UNL     1      11.890  15.642  38.836  1.00  0.00     0.125 A 
ATOM      9  C   UNL     1      11.310  14.711  39.712  1.00  0.00     0.078 A 
ATOM     10  C   UNL     1      11.741  14.635  41.040  1.00  0.00     0.223 A 
ENDROOT
BRANCH   1  11
ATOM     11  C   UNL     1      13.297  15.456  42.855  1.00  0.00     0.091 A 
ATOM     12  C   UNL     1      12.442  15.100  43.909  1.00  0.00     0.068 A 
ATOM     13  C   UNL     1      12.908  15.082  45.230  1.00  0.00     0.162 A 
ATOM     14  C   UNL     1      14.621  15.831  43.145  1.00  0.00     0.068 A 
ATOM     15  C   UNL     1      14.233  15.436  45.511  1.00  0.00     0.200 A 
ATOM     16  C   UNL     1      15.092  15.817  44.466  1.00  0.00     0.162 A 
BRANCH  13  17
ATOM     17  O   UNL     1      12.058  14.713  46.271  1.00  0.00    -0.504 OA
ATOM     18  H   UNL     1      12.132  15.134  47.191  1.00  0.00     0.293 HD
ENDBRANCH  13  17
BRANCH  15  19
ATOM     19  O   UNL     1      14.681  15.409  46.833  1.00  0.00    -0.502 OA
ATOM     20  H   UNL     1      14.043  15.349  47.617  1.00  0.00     0.293 HD
ENDBRANCH  15  19
BRANCH  16  21
ATOM     21  O   UNL     1      16.409  16.184  44.743  1.00  0.00    -0.504 OA
ATOM     22  H   UNL     1      16.840  16.987  44.300  1.00  0.00     0.293 HD
ENDBRANCH  16  21
ENDBRANCH   1  11
BRANCH  10  23
ATOM     23  O   UNL     1      11.130  13.745  41.924  1.00  0.00    -0.500 OA
ATOM     24  H   UNL     1      11.042  12.759  41.711  1.00  0.00     0.294 HD
ENDBRANCH  10  23
BRANCH   5  25
ATOM     25  O   UNL     1      13.731  18.524  36.382  1.00  0.00    -0.507 OA
ATOM     26  H   UNL     1      14.523  18.293  35.794  1.00  0.00     0.293 HD
ENDBRANCH   5  25
BRANCH   7  27
ATOM     27  O   UNL     1      10.515  14.995  36.880  1.00  0.00    -0.507 OA
ATOM     28  H   UNL     1      10.601  14.567  35.969  1.00  0.00     0.293 HD
ENDBRANCH   7  27
TORSDOF 7
ENDMDL
MODEL 5
REMARK VINA RESULT:    -5.165      2.851      7.896
REMARK INTER + INTRA:          -6.755
REMARK INTER:                  -6.371
REMARK INTRA:                  -0.384
REMARK UNBOUND:                -0.383
REMARK SMILES Oc1cc(O)c2cc(O)c(-c3cc(O)c(O)c(O)c3)[o+]c2c1
REMARK SMILES IDX 10 1 20 2 21 3 22 4 2 5 3 6 4 7 6 8 7 9 8 10 11 11 12 12
REMARK SMILES IDX 13 13 19 14 15 15 17 16 14 17 16 19 18 21 9 23 1 25 5 27
REMARK H PARENT 14 18 16 20 18 22 9 24 1 26 5 28
REMARK Flexibility Score: inf
ROOT
ATOM      1  C   UNL     1       7.529  11.319  32.006  1.00  0.00     0.402 A 
ATOM      2  O   UNL     1       7.732  12.572  31.609  1.00  0.00    -0.202 OA
ATOM      3  C   UNL     1       8.485  12.892  30.560  1.00  0.00     0.368 A 
ATOM      4  C   UNL     1       8.642  14.239  30.223  1.00  0.00     0.162 A 
ATOM      5  C   UNL     1       9.430  14.604  29.126  1.00  0.00     0.128 A 
ATOM      6  C   UNL     1      10.062  13.618  28.366  1.00  0.00     0.093 A 
ATOM      7  C   UNL     1       9.919  12.261  28.684  1.00  0.00     0.136 A 
ATOM      8  C   UNL     1       9.120  11.885  29.794  1.00  0.00     0.125 A 
ATOM      9  C   UNL     1       8.910  10.551  30.178  1.00  0.00     0.078 A 
ATOM     10  C   UNL     1       8.103  10.258  31.282  1.00  0.00     0.223 A 
ENDROOT
BRANCH   1  11
ATOM     11  C   UNL     1       6.678  11.092  33.197  1.00  0.00     0.091 A 
ATOM     12  C   UNL     1       5.284  11.031  33.047  1.00  0.00     0.068 A 
ATOM     13  C   UNL     1       4.456  10.837  34.161  1.00  0.00     0.162 A 
ATOM     14  C   UNL     1       7.233  10.992  34.485  1.00  0.00     0.068 A 
ATOM     15  C   UNL     1       5.016  10.717  35.439  1.00  0.00     0.200 A 
ATOM     16  C   UNL     1       6.409  10.800  35.602  1.00  0.00     0.162 A 
BRANCH  13  17
ATOM     17  O   UNL     1       3.073  10.762  34.006  1.00  0.00    -0.504 OA
ATOM     18  H   UNL     1       2.644  10.703  33.089  1.00  0.00     0.293 HD
ENDBRANCH  13  17
BRANCH  15  19
ATOM     19  O   UNL     1       4.176  10.521  36.536  1.00  0.00    -0.502 OA
ATOM     20  H   UNL     1       3.887   9.598  36.836  1.00  0.00     0.293 HD
ENDBRANCH  15  19
BRANCH  16  21
ATOM     21  O   UNL     1       6.970  10.696  36.875  1.00  0.00    -0.504 OA
ATOM     22  H   UNL     1       6.977   9.819  37.382  1.00  0.00     0.293 HD
ENDBRANCH  16  21
ENDBRANCH   1  11
BRANCH  10  23
ATOM     23  O   UNL     1       7.855   8.932  31.634  1.00  0.00    -0.500 OA
ATOM     24  H   UNL     1       7.638   8.227  30.939  1.00  0.00     0.294 HD
ENDBRANCH  10  23
BRANCH   5  25
ATOM     25  O   UNL     1       9.591  15.944  28.784  1.00  0.00    -0.507 OA
ATOM     26  H   UNL     1       9.492  16.683  29.471  1.00  0.00     0.293 HD
ENDBRANCH   5  25
BRANCH   7  27
ATOM     27  O   UNL     1      10.587  11.337  27.875  1.00  0.00    -0.507 OA
ATOM     28  H   UNL     1      11.402  10.813  28.161  1.00  0.00     0.293 HD
ENDBRANCH   7  27
TORSDOF 7
ENDMDL
MODEL 6
REMARK VINA RESULT:    -5.150      5.516     10.265
REMARK INTER + INTRA:          -6.737
REMARK INTER:                  -6.402
REMARK INTRA:                  -0.334
REMARK UNBOUND:                -0.383
REMARK SMILES Oc1cc(O)c2cc(O)c(-c3cc(O)c(O)c(O)c3)[o+]c2c1
REMARK SMILES IDX 10 1 20 2 21 3 22 4 2 5 3 6 4 7 6 8 7 9 8 10 11 11 12 12
REMARK SMILES IDX 13 13 19 14 15 15 17 16 14 17 16 19 18 21 9 23 1 25 5 27
REMARK H PARENT 14 18 16 20 18 22 9 24 1 26 5 28
REMARK Flexibility Score: inf
ROOT
ATOM      1  C   UNL     1      11.364  13.972  42.027  1.00  0.00     0.402 A 
ATOM      2  O   UNL     1      11.067  14.150  40.743  1.00  0.00    -0.202 OA
ATOM      3  C   UNL     1      10.409  13.254  40.014  1.00  0.00     0.368 A 
ATOM      4  C   UNL     1      10.147  13.531  38.670  1.00  0.00     0.162 A 
ATOM      5  C   UNL     1       9.460  12.604  37.880  1.00  0.00     0.128 A 
ATOM      6  C   UNL     1       9.034  11.396  38.437  1.00  0.00     0.093 A 
ATOM      7  C   UNL     1       9.285  11.096  39.782  1.00  0.00     0.136 A 
ATOM      8  C   UNL     1       9.979  12.033  40.589  1.00  0.00     0.125 A 
ATOM      9  C   UNL     1      10.263  11.822  41.947  1.00  0.00     0.078 A 
ATOM     10  C   UNL     1      10.949  12.797  42.680  1.00  0.00     0.223 A 
ENDROOT
BRANCH   1  11
ATOM     11  C   UNL     1      12.110  15.042  42.729  1.00  0.00     0.091 A 
ATOM     12  C   UNL     1      13.501  15.131  42.571  1.00  0.00     0.068 A 
ATOM     13  C   UNL     1      14.232  16.121  43.240  1.00  0.00     0.162 A 
ATOM     14  C   UNL     1      11.461  15.938  43.597  1.00  0.00     0.068 A 
ATOM     15  C   UNL     1      13.578  17.025  44.087  1.00  0.00     0.200 A 
ATOM     16  C   UNL     1      12.188  16.929  44.270  1.00  0.00     0.162 A 
BRANCH  13  17
ATOM     17  O   UNL     1      15.613  16.214  43.069  1.00  0.00    -0.504 OA
ATOM     18  H   UNL     1      16.086  17.111  43.051  1.00  0.00     0.293 HD
ENDBRANCH  13  17
BRANCH  15  19
ATOM     19  O   UNL     1      14.322  18.006  44.743  1.00  0.00    -0.502 OA
ATOM     20  H   UNL     1      15.289  17.863  45.008  1.00  0.00     0.293 HD
ENDBRANCH  15  19
BRANCH  16  21
ATOM     21  O   UNL     1      11.534  17.818  45.124  1.00  0.00    -0.504 OA
ATOM     22  H   UNL     1      11.288  18.755  44.827  1.00  0.00     0.293 HD
ENDBRANCH  16  21
ENDBRANCH   1  11
BRANCH  10  23
ATOM     23  O   UNL     1      11.187  12.610  44.041  1.00  0.00    -0.500 OA
ATOM     24  H   UNL     1      11.964  12.051  44.375  1.00  0.00     0.294 HD
ENDBRANCH  10  23
BRANCH   5  25
ATOM     25  O   UNL     1       9.195  12.873  36.539  1.00  0.00    -0.507 OA
ATOM     26  H   UNL     1       9.935  13.114  35.890  1.00  0.00     0.293 HD
ENDBRANCH   5  25
BRANCH   7  27
ATOM     27  O   UNL     1       8.828   9.865  40.262  1.00  0.00    -0.507 OA
ATOM     28  H   UNL     1       9.145   9.433  41.118  1.00  0.00     0.293 HD
ENDBRANCH   7  27
TORSDOF 7
ENDMDL
MODEL 7
REMARK VINA RESULT:    -5.146      1.945      6.936
REMARK INTER + INTRA:          -6.732
REMARK INTER:                  -6.471
REMARK INTRA:                  -0.261
REMARK UNBOUND:                -0.383
REMARK SMILES Oc1cc(O)c2cc(O)c(-c3cc(O)c(O)c(O)c3)[o+]c2c1
REMARK SMILES IDX 10 1 20 2 21 3 22 4 2 5 3 6 4 7 6 8 7 9 8 10 11 11 12 12
REMARK SMILES IDX 13 13 19 14 15 15 17 16 14 17 16 19 18 21 9 23 1 25 5 27
REMARK H PARENT 14 18 16 20 18 22 9 24 1 26 5 28
REMARK Flexibility Score: inf
ROOT
ATOM      1  C   UNL     1       7.410  10.877  35.924  1.00  0.00     0.402 A 
ATOM      2  O   UNL     1       7.919  10.788  34.699  1.00  0.00    -0.202 OA
ATOM      3  C   UNL     1       7.225  10.358  33.649  1.00  0.00     0.368 A 
ATOM      4  C   UNL     1       7.850  10.296  32.400  1.00  0.00     0.162 A 
ATOM      5  C   UNL     1       7.144   9.845  31.280  1.00  0.00     0.128 A 
ATOM      6  C   UNL     1       5.810   9.455  31.411  1.00  0.00     0.093 A 
ATOM      7  C   UNL     1       5.162   9.509  32.651  1.00  0.00     0.136 A 
ATOM      8  C   UNL     1       5.872   9.967  33.790  1.00  0.00     0.125 A 
ATOM      9  C   UNL     1       5.300  10.066  35.068  1.00  0.00     0.078 A 
ATOM     10  C   UNL     1       6.063  10.533  36.144  1.00  0.00     0.223 A 
ENDROOT
BRANCH   1  11
ATOM     11  C   UNL     1       8.288  11.362  37.014  1.00  0.00     0.091 A 
ATOM     12  C   UNL     1       8.817  12.660  36.948  1.00  0.00     0.068 A 
ATOM     13  C   UNL     1       9.666  13.134  37.957  1.00  0.00     0.162 A 
ATOM     14  C   UNL     1       8.650  10.528  38.086  1.00  0.00     0.068 A 
ATOM     15  C   UNL     1      10.007  12.307  39.034  1.00  0.00     0.200 A 
ATOM     16  C   UNL     1       9.501  10.998  39.097  1.00  0.00     0.162 A 
BRANCH  13  17
ATOM     17  O   UNL     1      10.178  14.429  37.895  1.00  0.00    -0.504 OA
ATOM     18  H   UNL     1      11.103  14.617  37.524  1.00  0.00     0.293 HD
ENDBRANCH  13  17
BRANCH  15  19
ATOM     19  O   UNL     1      10.851  12.797  40.031  1.00  0.00    -0.502 OA
ATOM     20  H   UNL     1      11.026  12.288  40.889  1.00  0.00     0.293 HD
ENDBRANCH  15  19
BRANCH  16  21
ATOM     21  O   UNL     1       9.849  10.165  40.160  1.00  0.00    -0.504 OA
ATOM     22  H   UNL     1       9.472  10.307  41.090  1.00  0.00     0.293 HD
ENDBRANCH  16  21
ENDBRANCH   1  11
BRANCH  10  23
ATOM     23  O   UNL     1       5.482  10.679  37.403  1.00  0.00    -0.500 OA
ATOM     24  H   UNL     1       5.049   9.899  37.883  1.00  0.00     0.294 HD
ENDBRANCH  10  23
BRANCH   5  25
ATOM     25  O   UNL     1       7.761   9.781  30.033  1.00  0.00    -0.507 OA
ATOM     26  H   UNL     1       7.547  10.448  29.301  1.00  0.00     0.293 HD
ENDBRANCH   5  25
BRANCH   7  27
ATOM     27  O   UNL     1       3.826   9.098  32.697  1.00  0.00    -0.507 OA
ATOM     28  H   UNL     1       3.478   8.355  33.286  1.00  0.00     0.293 HD
ENDBRANCH   7  27
TORSDOF 7
ENDMDL
MODEL 8
REMARK VINA RESULT:    -5.089      4.102      7.790
REMARK INTER + INTRA:          -6.662
REMARK INTER:                  -7.133
REMARK INTRA:                   0.471
REMARK UNBOUND:                -0.383
REMARK SMILES Oc1cc(O)c2cc(O)c(-c3cc(O)c(O)c(O)c3)[o+]c2c1
REMARK SMILES IDX 10 1 20 2 21 3 22 4 2 5 3 6 4 7 6 8 7 9 8 10 11 11 12 12
REMARK SMILES IDX 13 13 19 14 15 15 17 16 14 17 16 19 18 21 9 23 1 25 5 27
REMARK H PARENT 14 18 16 20 18 22 9 24 1 26 5 28
REMARK Flexibility Score: inf
ROOT
ATOM      1  C   UNL     1       7.961  11.860  31.150  1.00  0.00     0.402 A 
ATOM      2  O   UNL     1       7.774  13.130  31.497  1.00  0.00    -0.202 OA
ATOM      3  C   UNL     1       8.305  14.153  30.835  1.00  0.00     0.368 A 
ATOM      4  C   UNL     1       8.053  15.454  31.279  1.00  0.00     0.162 A 
ATOM      5  C   UNL     1       8.602  16.549  30.603  1.00  0.00     0.128 A 
ATOM      6  C   UNL     1       9.406  16.340  29.480  1.00  0.00     0.093 A 
ATOM      7  C   UNL     1       9.673  15.046  29.016  1.00  0.00     0.136 A 
ATOM      8  C   UNL     1       9.117  13.932  29.696  1.00  0.00     0.125 A 
ATOM      9  C   UNL     1       9.320  12.602  29.295  1.00  0.00     0.078 A 
ATOM     10  C   UNL     1       8.734  11.555  30.014  1.00  0.00     0.223 A 
ENDROOT
BRANCH   1  11
ATOM     11  C   UNL     1       7.323  10.808  31.974  1.00  0.00     0.091 A 
ATOM     12  C   UNL     1       7.462   9.461  31.603  1.00  0.00     0.068 A 
ATOM     13  C   UNL     1       6.851   8.449  32.355  1.00  0.00     0.162 A 
ATOM     14  C   UNL     1       6.531  11.132  33.090  1.00  0.00     0.068 A 
ATOM     15  C   UNL     1       6.080   8.776  33.478  1.00  0.00     0.200 A 
ATOM     16  C   UNL     1       5.916  10.123  33.844  1.00  0.00     0.162 A 
BRANCH  13  17
ATOM     17  O   UNL     1       7.004   7.112  31.991  1.00  0.00    -0.504 OA
ATOM     18  H   UNL     1       7.291   6.846  31.055  1.00  0.00     0.293 HD
ENDBRANCH  13  17
BRANCH  15  19
ATOM     19  O   UNL     1       5.482   7.754  34.216  1.00  0.00    -0.502 OA
ATOM     20  H   UNL     1       4.937   7.021  33.778  1.00  0.00     0.293 HD
ENDBRANCH  15  19
BRANCH  16  21
ATOM     21  O   UNL     1       5.138  10.454  34.953  1.00  0.00    -0.504 OA
ATOM     22  H   UNL     1       5.026  11.415  35.254  1.00  0.00     0.293 HD
ENDBRANCH  16  21
ENDBRANCH   1  11
BRANCH  10  23
ATOM     23  O   UNL     1       8.895  10.238  29.588  1.00  0.00    -0.500 OA
ATOM     24  H   UNL     1       9.312  10.015  28.692  1.00  0.00     0.294 HD
ENDBRANCH  10  23
BRANCH   5  25
ATOM     25  O   UNL     1       8.355  17.848  31.039  1.00  0.00    -0.507 OA
ATOM     26  H   UNL     1       7.451  18.121  31.409  1.00  0.00     0.293 HD
ENDBRANCH   5  25
BRANCH   7  27
ATOM     27  O   UNL     1      10.490  14.923  27.888  1.00  0.00    -0.507 OA
ATOM     28  H   UNL     1      10.178  15.071  26.939  1.00  0.00     0.293 HD
ENDBRANCH   7  27
TORSDOF 7
ENDMDL
MODEL 9
REMARK VINA RESULT:    -4.967      8.883     12.856
REMARK INTER + INTRA:          -6.511
REMARK INTER:                  -6.219
REMARK INTRA:                  -0.292
REMARK UNBOUND:                -0.383
REMARK SMILES Oc1cc(O)c2cc(O)c(-c3cc(O)c(O)c(O)c3)[o+]c2c1
REMARK SMILES IDX 10 1 20 2 21 3 22 4 2 5 3 6 4 7 6 8 7 9 8 10 11 11 12 12
REMARK SMILES IDX 13 13 19 14 15 15 17 16 14 17 16 19 18 21 9 23 1 25 5 27
REMARK H PARENT 14 18 16 20 18 22 9 24 1 26 5 28
REMARK Flexibility Score: inf
ROOT
ATOM      1  C   UNL     1      13.700  17.928  41.338  1.00  0.00     0.402 A 
ATOM      2  O   UNL     1      13.386  17.088  40.356  1.00  0.00    -0.202 OA
ATOM      3  C   UNL     1      13.116  17.482  39.115  1.00  0.00     0.368 A 
ATOM      4  C   UNL     1      12.792  16.523  38.152  1.00  0.00     0.162 A 
ATOM      5  C   UNL     1      12.502  16.910  36.840  1.00  0.00     0.128 A 
ATOM      6  C   UNL     1      12.536  18.262  36.492  1.00  0.00     0.093 A 
ATOM      7  C   UNL     1      12.858  19.242  37.438  1.00  0.00     0.136 A 
ATOM      8  C   UNL     1      13.156  18.855  38.770  1.00  0.00     0.125 A 
ATOM      9  C   UNL     1      13.501  19.766  39.781  1.00  0.00     0.078 A 
ATOM     10  C   UNL     1      13.786  19.308  41.071  1.00  0.00     0.223 A 
ENDROOT
BRANCH   1  11
ATOM     11  C   UNL     1      13.969  17.367  42.681  1.00  0.00     0.091 A 
ATOM     12  C   UNL     1      15.291  17.302  43.150  1.00  0.00     0.068 A 
ATOM     13  C   UNL     1      15.573  16.756  44.409  1.00  0.00     0.162 A 
ATOM     14  C   UNL     1      12.934  16.844  43.476  1.00  0.00     0.068 A 
ATOM     15  C   UNL     1      14.536  16.256  45.206  1.00  0.00     0.200 A 
ATOM     16  C   UNL     1      13.213  16.296  44.736  1.00  0.00     0.162 A 
BRANCH  13  17
ATOM     17  O   UNL     1      16.886  16.707  44.876  1.00  0.00    -0.504 OA
ATOM     18  H   UNL     1      17.488  17.522  44.853  1.00  0.00     0.293 HD
ENDBRANCH  13  17
BRANCH  15  19
ATOM     19  O   UNL     1      14.836  15.719  46.459  1.00  0.00    -0.502 OA
ATOM     20  H   UNL     1      14.593  16.193  47.321  1.00  0.00     0.293 HD
ENDBRANCH  15  19
BRANCH  16  21
ATOM     21  O   UNL     1      12.178  15.786  45.520  1.00  0.00    -0.504 OA
ATOM     22  H   UNL     1      11.221  15.765  45.188  1.00  0.00     0.293 HD
ENDBRANCH  16  21
ENDBRANCH   1  11
BRANCH  10  23
ATOM     23  O   UNL     1      14.178  20.207  42.062  1.00  0.00    -0.500 OA
ATOM     24  H   UNL     1      14.403  21.171  41.848  1.00  0.00     0.294 HD
ENDBRANCH  10  23
BRANCH   5  25
ATOM     25  O   UNL     1      12.179  15.959  35.876  1.00  0.00    -0.507 OA
ATOM     26  H   UNL     1      11.480  15.245  36.047  1.00  0.00     0.293 HD
ENDBRANCH   5  25
BRANCH   7  27
ATOM     27  O   UNL     1      12.867  20.573  37.009  1.00  0.00    -0.507 OA
ATOM     28  H   UNL     1      12.691  21.367  37.608  1.00  0.00     0.293 HD
ENDBRANCH   7  27
TORSDOF 7
ENDMDL
