MODEL 1
REMARK VINA RESULT:     2.223      0.000      0.000
REMARK INTER + INTRA:           2.439
REMARK INTER:                   2.678
REMARK INTRA:                  -0.239
REMARK UNBOUND:                -0.239
REMARK SMILES O=c1c(O)c(-c2ccc(O)c(O)c2)oc2cc(O)cc(O)c12
REMARK SMILES IDX 5 1 3 2 2 3 1 4 22 5 20 6 19 7 17 8 16 9 15 10 14 11 6 12
REMARK SMILES IDX 7 13 8 14 9 15 13 16 11 17 10 18 12 20 4 22 21 24 18 26
REMARK H PARENT 10 19 12 21 4 23 21 25 18 27
REMARK Flexibility Score: inf
ROOT
ATOM      1  C   UNL     1       0.040  59.567  -5.764  1.00  0.00     0.180 A 
ATOM      2  C   UNL     1      -1.056  59.341  -6.615  1.00  0.00     0.208 A 
ATOM      3  C   UNL     1      -2.324  59.132  -6.051  1.00  0.00     0.238 A 
ATOM      4  O   UNL     1      -3.290  58.875  -6.816  1.00  0.00    -0.285 OA
ATOM      5  C   UNL     1      -2.486  59.169  -4.645  1.00  0.00     0.111 A 
ATOM      6  C   UNL     1      -3.732  59.010  -3.967  1.00  0.00     0.134 A 
ATOM      7  C   UNL     1      -3.754  58.934  -2.569  1.00  0.00     0.093 A 
ATOM      8  C   UNL     1      -2.581  59.076  -1.822  1.00  0.00     0.123 A 
ATOM      9  C   UNL     1      -1.368  59.291  -2.472  1.00  0.00     0.094 A 
ATOM     10  C   UNL     1      -1.310  59.335  -3.867  1.00  0.00     0.146 A 
ATOM     11  O   UNL     1      -0.132  59.531  -4.447  1.00  0.00    -0.452 OA
ENDROOT
BRANCH   1  12
ATOM     12  C   UNL     1       1.402  59.821  -6.284  1.00  0.00     0.025 A 
ATOM     13  C   UNL     1       2.417  58.877  -6.054  1.00  0.00     0.016 A 
ATOM     14  C   UNL     1       3.714  59.106  -6.518  1.00  0.00     0.051 A 
ATOM     15  C   UNL     1       4.023  60.283  -7.204  1.00  0.00     0.157 A 
ATOM     16  C   UNL     1       1.720  61.015  -6.955  1.00  0.00     0.062 A 
ATOM     17  C   UNL     1       3.022  61.247  -7.420  1.00  0.00     0.158 A 
BRANCH  15  18
ATOM     18  O   UNL     1       5.327  60.483  -7.657  1.00  0.00    -0.504 OA
ATOM     19  H   UNL     1       5.551  61.169  -8.368  1.00  0.00     0.293 HD
ENDBRANCH  15  18
BRANCH  17  20
ATOM     20  O   UNL     1       3.327  62.431  -8.090  1.00  0.00    -0.504 OA
ATOM     21  H   UNL     1       3.381  63.318  -7.603  1.00  0.00     0.293 HD
ENDBRANCH  17  20
ENDBRANCH   1  12
BRANCH   2  22
ATOM     22  O   UNL     1      -0.871  59.286  -7.999  1.00  0.00    -0.502 OA
ATOM     23  H   UNL     1       0.022  59.480  -8.436  1.00  0.00     0.293 HD
ENDBRANCH   2  22
BRANCH   6  24
ATOM     24  O   UNL     1      -4.969  58.950  -4.614  1.00  0.00    -0.507 OA
ATOM     25  H   UNL     1      -5.810  59.407  -4.291  1.00  0.00     0.293 HD
ENDBRANCH   6  24
BRANCH   8  26
ATOM     26  O   UNL     1      -2.614  59.015  -0.431  1.00  0.00    -0.508 OA
ATOM     27  H   UNL     1      -2.519  59.847   0.139  1.00  0.00     0.293 HD
ENDBRANCH   8  26
TORSDOF 6
ENDMDL
MODEL 2
REMARK VINA RESULT:     2.301      0.626      1.411
REMARK INTER + INTRA:           2.532
REMARK INTER:                   2.362
REMARK INTRA:                   0.170
REMARK UNBOUND:                -0.239
REMARK SMILES O=c1c(O)c(-c2ccc(O)c(O)c2)oc2cc(O)cc(O)c12
REMARK SMILES IDX 5 1 3 2 2 3 1 4 22 5 20 6 19 7 17 8 16 9 15 10 14 11 6 12
REMARK SMILES IDX 7 13 8 14 9 15 13 16 11 17 10 18 12 20 4 22 21 24 18 26
REMARK H PARENT 10 19 12 21 4 23 21 25 18 27
REMARK Flexibility Score: inf
ROOT
ATOM      1  C   UNL     1       0.040  59.561  -5.760  1.00  0.00     0.180 A 
ATOM      2  C   UNL     1      -1.049  59.342  -6.622  1.00  0.00     0.208 A 
ATOM      3  C   UNL     1      -2.321  59.126  -6.071  1.00  0.00     0.238 A 
ATOM      4  O   UNL     1      -3.281  58.876  -6.845  1.00  0.00    -0.285 OA
ATOM      5  C   UNL     1      -2.494  59.148  -4.665  1.00  0.00     0.111 A 
ATOM      6  C   UNL     1      -3.745  58.981  -3.999  1.00  0.00     0.134 A 
ATOM      7  C   UNL     1      -3.778  58.891  -2.602  1.00  0.00     0.093 A 
ATOM      8  C   UNL     1      -2.612  59.027  -1.845  1.00  0.00     0.123 A 
ATOM      9  C   UNL     1      -1.393  59.250  -2.483  1.00  0.00     0.094 A 
ATOM     10  C   UNL     1      -1.325  59.308  -3.877  1.00  0.00     0.146 A 
ATOM     11  O   UNL     1      -0.142  59.511  -4.445  1.00  0.00    -0.452 OA
ENDROOT
BRANCH   1  12
ATOM     12  C   UNL     1       1.406  59.821  -6.267  1.00  0.00     0.025 A 
ATOM     13  C   UNL     1       1.580  60.634  -7.399  1.00  0.00     0.016 A 
ATOM     14  C   UNL     1       2.858  60.876  -7.907  1.00  0.00     0.051 A 
ATOM     15  C   UNL     1       3.980  60.300  -7.304  1.00  0.00     0.157 A 
ATOM     16  C   UNL     1       2.534  59.225  -5.675  1.00  0.00     0.062 A 
ATOM     17  C   UNL     1       3.818  59.465  -6.184  1.00  0.00     0.158 A 
BRANCH  15  18
ATOM     18  O   UNL     1       5.244  60.561  -7.832  1.00  0.00    -0.504 OA
ATOM     19  H   UNL     1       5.976  60.999  -7.285  1.00  0.00     0.293 HD
ENDBRANCH  15  18
BRANCH  17  20
ATOM     20  O   UNL     1       4.931  58.876  -5.587  1.00  0.00    -0.504 OA
ATOM     21  H   UNL     1       5.575  58.300  -6.117  1.00  0.00     0.293 HD
ENDBRANCH  17  20
ENDBRANCH   1  12
BRANCH   2  22
ATOM     22  O   UNL     1      -0.853  59.301  -8.005  1.00  0.00    -0.502 OA
ATOM     23  H   UNL     1      -1.520  59.688  -8.661  1.00  0.00     0.293 HD
ENDBRANCH   2  22
BRANCH   6  24
ATOM     24  O   UNL     1      -4.978  58.927  -4.657  1.00  0.00    -0.507 OA
ATOM     25  H   UNL     1      -5.752  59.548  -4.477  1.00  0.00     0.293 HD
ENDBRANCH   6  24
BRANCH   8  26
ATOM     26  O   UNL     1      -2.655  58.952  -0.454  1.00  0.00    -0.508 OA
ATOM     27  H   UNL     1      -2.929  59.746   0.111  1.00  0.00     0.293 HD
ENDBRANCH   8  26
TORSDOF 6
ENDMDL
