MODEL 1
REMARK VINA RESULT:    -4.348      0.000      0.000
REMARK INTER + INTRA:         -16.265
REMARK INTER:                 -10.956
REMARK INTRA:                  -5.309
REMARK UNBOUND:                -5.309
REMARK SMILES CCCCCCCCCCCCCCCCCCCCCCCCCCCC(=O)[O-]
REMARK SMILES IDX 15 1 16 2 17 3 18 4 19 5 20 6 21 7 22 8 23 9 24 10 25 11
REMARK SMILES IDX 26 12 27 13 28 14 29 15 30 16 14 17 13 18 12 19 11 20 10 21
REMARK SMILES IDX 9 22 8 23 7 24 6 25 5 26 4 27 3 28 2 29 1 30
REMARK H PARENT
REMARK Flexibility Score: inf
ROOT
ATOM      1  C   UNL     1      45.007   0.853  24.584  1.00  0.00     0.000 C 
ENDROOT
BRANCH   1   2
ATOM      2  C   UNL     1      43.724   0.879  25.431  1.00  0.00     0.000 C 
BRANCH   2   3
ATOM      3  C   UNL     1      43.725   2.002  26.485  1.00  0.00     0.000 C 
BRANCH   3   4
ATOM      4  C   UNL     1      44.681   3.154  26.127  1.00  0.00     0.000 C 
BRANCH   4   5
ATOM      5  C   UNL     1      43.998   4.490  25.776  1.00  0.00     0.000 C 
BRANCH   5   6
ATOM      6  C   UNL     1      44.783   5.312  24.739  1.00  0.00     0.000 C 
BRANCH   6   7
ATOM      7  C   UNL     1      45.727   4.446  23.884  1.00  0.00     0.000 C 
BRANCH   7   8
ATOM      8  C   UNL     1      46.203   5.108  22.578  1.00  0.00     0.000 C 
BRANCH   8   9
ATOM      9  C   UNL     1      47.264   4.273  21.837  1.00  0.00     0.000 C 
BRANCH   9  10
ATOM     10  C   UNL     1      47.068   2.760  22.023  1.00  0.00     0.000 C 
BRANCH  10  11
ATOM     11  C   UNL     1      47.334   1.968  20.732  1.00  0.00     0.000 C 
BRANCH  11  12
ATOM     12  C   UNL     1      48.000   0.606  20.999  1.00  0.00     0.006 C 
BRANCH  12  13
ATOM     13  C   UNL     1      49.388   0.443  20.361  1.00  0.00     0.053 C 
BRANCH  13  14
ATOM     14  C   UNL     1      50.242  -0.530  21.115  1.00  0.00     0.041 C 
ATOM     15  O   UNL     1      51.106  -1.216  20.509  1.00  0.00    -0.550 OA
ATOM     16  O   UNL     1      50.071  -0.692  22.485  1.00  0.00    -0.550 OA
ENDBRANCH  13  14
ENDBRANCH  12  13
ENDBRANCH  11  12
ENDBRANCH  10  11
ENDBRANCH   9  10
ENDBRANCH   8   9
ENDBRANCH   7   8
ENDBRANCH   6   7
ENDBRANCH   5   6
ENDBRANCH   4   5
ENDBRANCH   3   4
ENDBRANCH   2   3
ENDBRANCH   1   2
BRANCH   1  17
ATOM     17  C   UNL     1      44.894   0.124  23.230  1.00  0.00     0.000 C 
BRANCH  17  18
ATOM     18  C   UNL     1      43.516  -0.525  22.972  1.00  0.00     0.000 C 
BRANCH  18  19
ATOM     19  C   UNL     1      43.268  -0.814  21.480  1.00  0.00     0.000 C 
BRANCH  19  20
ATOM     20  C   UNL     1      41.882  -0.350  21.004  1.00  0.00     0.000 C 
BRANCH  20  21
ATOM     21  C   UNL     1      41.460  -1.001  19.678  1.00  0.00     0.000 C 
BRANCH  21  22
ATOM     22  C   UNL     1      41.525  -0.020  18.493  1.00  0.00    -0.000 C 
BRANCH  22  23
ATOM     23  C   UNL     1      41.731   1.459  18.881  1.00  0.00    -0.000 C 
BRANCH  23  24
ATOM     24  C   UNL     1      43.097   2.062  18.500  1.00  0.00    -0.000 C 
BRANCH  24  25
ATOM     25  C   UNL     1      43.995   2.327  19.721  1.00  0.00    -0.000 C 
BRANCH  25  26
ATOM     26  C   UNL     1      43.820   3.744  20.298  1.00  0.00    -0.000 C 
BRANCH  26  27
ATOM     27  C   UNL     1      42.638   3.915  21.270  1.00  0.00    -0.000 C 
BRANCH  27  28
ATOM     28  C   UNL     1      42.752   3.018  22.516  1.00  0.00    -0.000 C 
BRANCH  28  29
ATOM     29  C   UNL     1      41.383   2.680  23.126  1.00  0.00    -0.003 C 
ATOM     30  C   UNL     1      40.813   3.822  23.965  1.00  0.00     0.004 C 
ENDBRANCH  28  29
ENDBRANCH  27  28
ENDBRANCH  26  27
ENDBRANCH  25  26
ENDBRANCH  24  25
ENDBRANCH  23  24
ENDBRANCH  22  23
ENDBRANCH  21  22
ENDBRANCH  20  21
ENDBRANCH  19  20
ENDBRANCH  18  19
ENDBRANCH  17  18
ENDBRANCH   1  17
TORSDOF 26
ENDMDL
MODEL 2
REMARK VINA RESULT:    -4.314      1.356      5.168
REMARK INTER + INTRA:         -16.181
REMARK INTER:                 -10.999
REMARK INTRA:                  -5.182
REMARK UNBOUND:                -5.309
REMARK SMILES CCCCCCCCCCCCCCCCCCCCCCCCCCCC(=O)[O-]
REMARK SMILES IDX 15 1 16 2 17 3 18 4 19 5 20 6 21 7 22 8 23 9 24 10 25 11
REMARK SMILES IDX 26 12 27 13 28 14 29 15 30 16 14 17 13 18 12 19 11 20 10 21
REMARK SMILES IDX 9 22 8 23 7 24 6 25 5 26 4 27 3 28 2 29 1 30
REMARK H PARENT
REMARK Flexibility Score: inf
ROOT
ATOM      1  C   UNL     1      41.386  -0.741  20.599  1.00  0.00     0.000 C 
ENDROOT
BRANCH   1   2
ATOM      2  C   UNL     1      41.101  -1.045  19.119  1.00  0.00     0.000 C 
BRANCH   2   3
ATOM      3  C   UNL     1      41.835  -0.090  18.159  1.00  0.00     0.000 C 
BRANCH   3   4
ATOM      4  C   UNL     1      41.324   1.359  18.255  1.00  0.00     0.000 C 
BRANCH   4   5
ATOM      5  C   UNL     1      42.377   2.447  17.965  1.00  0.00     0.000 C 
BRANCH   5   6
ATOM      6  C   UNL     1      43.776   1.871  17.687  1.00  0.00     0.000 C 
BRANCH   6   7
ATOM      7  C   UNL     1      44.908   2.826  18.107  1.00  0.00     0.000 C 
BRANCH   7   8
ATOM      8  C   UNL     1      44.698   3.516  19.468  1.00  0.00     0.000 C 
BRANCH   8   9
ATOM      9  C   UNL     1      45.911   3.370  20.405  1.00  0.00     0.000 C 
BRANCH   9  10
ATOM     10  C   UNL     1      46.836   2.209  20.005  1.00  0.00     0.000 C 
BRANCH  10  11
ATOM     11  C   UNL     1      47.251   1.345  21.208  1.00  0.00     0.000 C 
BRANCH  11  12
ATOM     12  C   UNL     1      48.760   1.044  21.229  1.00  0.00     0.006 C 
BRANCH  12  13
ATOM     13  C   UNL     1      49.142  -0.322  20.637  1.00  0.00     0.053 C 
BRANCH  13  14
ATOM     14  C   UNL     1      50.595  -0.390  20.276  1.00  0.00     0.041 C 
ATOM     15  O   UNL     1      51.141  -1.503  20.058  1.00  0.00    -0.550 OA
ATOM     16  O   UNL     1      51.349   0.775  20.197  1.00  0.00    -0.550 OA
ENDBRANCH  13  14
ENDBRANCH  12  13
ENDBRANCH  11  12
ENDBRANCH  10  11
ENDBRANCH   9  10
ENDBRANCH   8   9
ENDBRANCH   7   8
ENDBRANCH   6   7
ENDBRANCH   5   6
ENDBRANCH   4   5
ENDBRANCH   3   4
ENDBRANCH   2   3
ENDBRANCH   1   2
BRANCH   1  17
ATOM     17  C   UNL     1      42.875  -0.597  20.973  1.00  0.00     0.000 C 
BRANCH  17  18
ATOM     18  C   UNL     1      43.276   0.817  21.448  1.00  0.00     0.000 C 
BRANCH  18  19
ATOM     19  C   UNL     1      42.104   1.578  22.095  1.00  0.00     0.000 C 
BRANCH  19  20
ATOM     20  C   UNL     1      42.029   3.048  21.652  1.00  0.00     0.000 C 
BRANCH  20  21
ATOM     21  C   UNL     1      42.187   4.031  22.823  1.00  0.00     0.000 C 
BRANCH  21  22
ATOM     22  C   UNL     1      43.369   4.997  22.627  1.00  0.00    -0.000 C 
BRANCH  22  23
ATOM     23  C   UNL     1      44.554   4.782  23.592  1.00  0.00    -0.000 C 
BRANCH  23  24
ATOM     24  C   UNL     1      44.443   3.556  24.519  1.00  0.00    -0.000 C 
BRANCH  24  25
ATOM     25  C   UNL     1      45.210   2.333  23.988  1.00  0.00    -0.000 C 
BRANCH  25  26
ATOM     26  C   UNL     1      44.994   1.070  24.843  1.00  0.00    -0.000 C 
BRANCH  26  27
ATOM     27  C   UNL     1      43.715   1.070  25.700  1.00  0.00    -0.000 C 
BRANCH  27  28
ATOM     28  C   UNL     1      42.750  -0.073  25.336  1.00  0.00    -0.000 C 
BRANCH  28  29
ATOM     29  C   UNL     1      43.444  -1.208  24.568  1.00  0.00    -0.003 C 
ATOM     30  C   UNL     1      43.625  -2.468  25.413  1.00  0.00     0.004 C 
ENDBRANCH  28  29
ENDBRANCH  27  28
ENDBRANCH  26  27
ENDBRANCH  25  26
ENDBRANCH  24  25
ENDBRANCH  23  24
ENDBRANCH  22  23
ENDBRANCH  21  22
ENDBRANCH  20  21
ENDBRANCH  19  20
ENDBRANCH  18  19
ENDBRANCH  17  18
ENDBRANCH   1  17
TORSDOF 26
ENDMDL
MODEL 3
REMARK VINA RESULT:    -4.236      3.228      7.303
REMARK INTER + INTRA:         -15.983
REMARK INTER:                 -11.070
REMARK INTRA:                  -4.913
REMARK UNBOUND:                -5.309
REMARK SMILES CCCCCCCCCCCCCCCCCCCCCCCCCCCC(=O)[O-]
REMARK SMILES IDX 15 1 16 2 17 3 18 4 19 5 20 6 21 7 22 8 23 9 24 10 25 11
REMARK SMILES IDX 26 12 27 13 28 14 29 15 30 16 14 17 13 18 12 19 11 20 10 21
REMARK SMILES IDX 9 22 8 23 7 24 6 25 5 26 4 27 3 28 2 29 1 30
REMARK H PARENT
REMARK Flexibility Score: inf
ROOT
ATOM      1  C   UNL     1      46.617   1.700  21.263  1.00  0.00     0.000 C 
ENDROOT
BRANCH   1   2
ATOM      2  C   UNL     1      46.564   2.805  22.331  1.00  0.00     0.000 C 
BRANCH   2   3
ATOM      3  C   UNL     1      45.347   3.735  22.170  1.00  0.00     0.000 C 
BRANCH   3   4
ATOM      4  C   UNL     1      44.291   3.531  23.271  1.00  0.00     0.000 C 
BRANCH   4   5
ATOM      5  C   UNL     1      44.852   3.190  24.665  1.00  0.00     0.000 C 
BRANCH   5   6
ATOM      6  C   UNL     1      44.231   1.919  25.269  1.00  0.00     0.000 C 
BRANCH   6   7
ATOM      7  C   UNL     1      45.086   0.663  25.023  1.00  0.00     0.000 C 
BRANCH   7   8
ATOM      8  C   UNL     1      44.649  -0.190  23.818  1.00  0.00     0.000 C 
BRANCH   8   9
ATOM      9  C   UNL     1      43.128  -0.423  23.772  1.00  0.00     0.000 C 
BRANCH   9  10
ATOM     10  C   UNL     1      42.580  -0.506  22.338  1.00  0.00     0.000 C 
BRANCH  10  11
ATOM     11  C   UNL     1      43.241   0.514  21.395  1.00  0.00     0.000 C 
BRANCH  11  12
ATOM     12  C   UNL     1      42.283   1.646  20.984  1.00  0.00     0.006 C 
BRANCH  12  13
ATOM     13  C   UNL     1      42.766   2.481  19.788  1.00  0.00     0.053 C 
BRANCH  13  14
ATOM     14  C   UNL     1      42.387   1.858  18.478  1.00  0.00     0.041 C 
ATOM     15  O   UNL     1      43.251   1.707  17.576  1.00  0.00    -0.550 OA
ATOM     16  O   UNL     1      41.075   1.461  18.249  1.00  0.00    -0.550 OA
ENDBRANCH  13  14
ENDBRANCH  12  13
ENDBRANCH  11  12
ENDBRANCH  10  11
ENDBRANCH   9  10
ENDBRANCH   8   9
ENDBRANCH   7   8
ENDBRANCH   6   7
ENDBRANCH   5   6
ENDBRANCH   4   5
ENDBRANCH   3   4
ENDBRANCH   2   3
ENDBRANCH   1   2
BRANCH   1  17
ATOM     17  C   UNL     1      47.501   0.484  21.610  1.00  0.00     0.000 C 
BRANCH  17  18
ATOM     18  C   UNL     1      48.595   0.179  20.564  1.00  0.00     0.000 C 
BRANCH  18  19
ATOM     19  C   UNL     1      49.992   0.033  21.196  1.00  0.00     0.000 C 
BRANCH  19  20
ATOM     20  C   UNL     1      50.866  -1.011  20.481  1.00  0.00     0.000 C 
BRANCH  20  21
ATOM     21  C   UNL     1      52.345  -0.602  20.413  1.00  0.00     0.000 C 
BRANCH  21  22
ATOM     22  C   UNL     1      52.924  -0.717  18.991  1.00  0.00    -0.000 C 
BRANCH  22  23
ATOM     23  C   UNL     1      51.877  -0.697  17.857  1.00  0.00    -0.000 C 
BRANCH  23  24
ATOM     24  C   UNL     1      51.639   0.675  17.196  1.00  0.00    -0.000 C 
BRANCH  24  25
ATOM     25  C   UNL     1      50.251   1.257  17.511  1.00  0.00    -0.000 C 
BRANCH  25  26
ATOM     26  C   UNL     1      50.316   2.555  18.337  1.00  0.00    -0.000 C 
BRANCH  26  27
ATOM     27  C   UNL     1      51.677   2.842  18.999  1.00  0.00    -0.000 C 
BRANCH  27  28
ATOM     28  C   UNL     1      51.543   3.555  20.357  1.00  0.00    -0.000 C 
BRANCH  28  29
ATOM     29  C   UNL     1      50.100   3.553  20.884  1.00  0.00    -0.003 C 
ATOM     30  C   UNL     1      49.984   4.150  22.286  1.00  0.00     0.004 C 
ENDBRANCH  28  29
ENDBRANCH  27  28
ENDBRANCH  26  27
ENDBRANCH  25  26
ENDBRANCH  24  25
ENDBRANCH  23  24
ENDBRANCH  22  23
ENDBRANCH  21  22
ENDBRANCH  20  21
ENDBRANCH  19  20
ENDBRANCH  18  19
ENDBRANCH  17  18
ENDBRANCH   1  17
TORSDOF 26
ENDMDL
MODEL 4
REMARK VINA RESULT:    -4.206      1.730      3.542
REMARK INTER + INTRA:         -15.908
REMARK INTER:                 -10.605
REMARK INTRA:                  -5.302
REMARK UNBOUND:                -5.309
REMARK SMILES CCCCCCCCCCCCCCCCCCCCCCCCCCCC(=O)[O-]
REMARK SMILES IDX 15 1 16 2 17 3 18 4 19 5 20 6 21 7 22 8 23 9 24 10 25 11
REMARK SMILES IDX 26 12 27 13 28 14 29 15 30 16 14 17 13 18 12 19 11 20 10 21
REMARK SMILES IDX 9 22 8 23 7 24 6 25 5 26 4 27 3 28 2 29 1 30
REMARK H PARENT
REMARK Flexibility Score: inf
ROOT
ATOM      1  C   UNL     1      45.005   0.471  24.984  1.00  0.00     0.000 C 
ENDROOT
BRANCH   1   2
ATOM      2  C   UNL     1      44.244   1.797  25.152  1.00  0.00     0.000 C 
BRANCH   2   3
ATOM      3  C   UNL     1      44.898   2.964  24.390  1.00  0.00     0.000 C 
BRANCH   3   4
ATOM      4  C   UNL     1      43.873   3.994  23.883  1.00  0.00     0.000 C 
BRANCH   4   5
ATOM      5  C   UNL     1      42.528   3.406  23.414  1.00  0.00     0.000 C 
BRANCH   5   6
ATOM      6  C   UNL     1      42.456   3.209  21.890  1.00  0.00     0.000 C 
BRANCH   6   7
ATOM      7  C   UNL     1      43.279   4.254  21.115  1.00  0.00     0.000 C 
BRANCH   7   8
ATOM      8  C   UNL     1      44.326   3.665  20.151  1.00  0.00     0.000 C 
BRANCH   8   9
ATOM      9  C   UNL     1      44.737   2.228  20.522  1.00  0.00     0.000 C 
BRANCH   9  10
ATOM     10  C   UNL     1      46.233   2.103  20.855  1.00  0.00     0.000 C 
BRANCH  10  11
ATOM     11  C   UNL     1      46.533   0.905  21.773  1.00  0.00     0.000 C 
BRANCH  11  12
ATOM     12  C   UNL     1      47.884   0.240  21.454  1.00  0.00     0.006 C 
BRANCH  12  13
ATOM     13  C   UNL     1      48.575   0.782  20.193  1.00  0.00     0.053 C 
BRANCH  13  14
ATOM     14  C   UNL     1      49.999   0.323  20.093  1.00  0.00     0.041 C 
ATOM     15  O   UNL     1      50.486  -0.426  20.979  1.00  0.00    -0.550 OA
ATOM     16  O   UNL     1      50.792   0.739  19.030  1.00  0.00    -0.550 OA
ENDBRANCH  13  14
ENDBRANCH  12  13
ENDBRANCH  11  12
ENDBRANCH  10  11
ENDBRANCH   9  10
ENDBRANCH   8   9
ENDBRANCH   7   8
ENDBRANCH   6   7
ENDBRANCH   5   6
ENDBRANCH   4   5
ENDBRANCH   3   4
ENDBRANCH   2   3
ENDBRANCH   1   2
BRANCH   1  17
ATOM     17  C   UNL     1      44.202  -0.678  24.341  1.00  0.00     0.000 C 
BRANCH  17  18
ATOM     18  C   UNL     1      43.006  -0.212  23.482  1.00  0.00     0.000 C 
BRANCH  18  19
ATOM     19  C   UNL     1      43.158  -0.595  21.998  1.00  0.00     0.000 C 
BRANCH  19  20
ATOM     20  C   UNL     1      41.929  -0.219  21.154  1.00  0.00     0.000 C 
BRANCH  20  21
ATOM     21  C   UNL     1      41.755  -1.122  19.923  1.00  0.00     0.000 C 
BRANCH  21  22
ATOM     22  C   UNL     1      41.627  -0.318  18.616  1.00  0.00    -0.000 C 
BRANCH  22  23
ATOM     23  C   UNL     1      41.530   1.211  18.798  1.00  0.00    -0.000 C 
BRANCH  23  24
ATOM     24  C   UNL     1      42.098   2.055  17.641  1.00  0.00    -0.000 C 
BRANCH  24  25
ATOM     25  C   UNL     1      43.332   1.414  16.983  1.00  0.00    -0.000 C 
BRANCH  25  26
ATOM     26  C   UNL     1      43.872   2.231  15.794  1.00  0.00    -0.000 C 
BRANCH  26  27
ATOM     27  C   UNL     1      45.406   2.334  15.712  1.00  0.00    -0.000 C 
BRANCH  27  28
ATOM     28  C   UNL     1      46.091   2.164  17.080  1.00  0.00    -0.000 C 
BRANCH  28  29
ATOM     29  C   UNL     1      47.495   2.787  17.117  1.00  0.00    -0.003 C 
ATOM     30  C   UNL     1      47.590   3.972  18.078  1.00  0.00     0.004 C 
ENDBRANCH  28  29
ENDBRANCH  27  28
ENDBRANCH  26  27
ENDBRANCH  25  26
ENDBRANCH  24  25
ENDBRANCH  23  24
ENDBRANCH  22  23
ENDBRANCH  21  22
ENDBRANCH  20  21
ENDBRANCH  19  20
ENDBRANCH  18  19
ENDBRANCH  17  18
ENDBRANCH   1  17
TORSDOF 26
ENDMDL
MODEL 5
REMARK VINA RESULT:    -4.159      1.208      4.726
REMARK INTER + INTRA:         -15.790
REMARK INTER:                 -11.170
REMARK INTRA:                  -4.620
REMARK UNBOUND:                -5.309
REMARK SMILES CCCCCCCCCCCCCCCCCCCCCCCCCCCC(=O)[O-]
REMARK SMILES IDX 15 1 16 2 17 3 18 4 19 5 20 6 21 7 22 8 23 9 24 10 25 11
REMARK SMILES IDX 26 12 27 13 28 14 29 15 30 16 14 17 13 18 12 19 11 20 10 21
REMARK SMILES IDX 9 22 8 23 7 24 6 25 5 26 4 27 3 28 2 29 1 30
REMARK H PARENT
REMARK Flexibility Score: inf
ROOT
ATOM      1  C   UNL     1      41.733  -0.872  20.004  1.00  0.00     0.000 C 
ENDROOT
BRANCH   1   2
ATOM      2  C   UNL     1      41.490  -0.119  18.685  1.00  0.00     0.000 C 
BRANCH   2   3
ATOM      3  C   UNL     1      41.863   1.373  18.771  1.00  0.00     0.000 C 
BRANCH   3   4
ATOM      4  C   UNL     1      42.886   1.794  17.702  1.00  0.00     0.000 C 
BRANCH   4   5
ATOM      5  C   UNL     1      43.957   2.797  18.175  1.00  0.00     0.000 C 
BRANCH   5   6
ATOM      6  C   UNL     1      44.539   2.446  19.556  1.00  0.00     0.000 C 
BRANCH   6   7
ATOM      7  C   UNL     1      46.078   2.386  19.555  1.00  0.00     0.000 C 
BRANCH   7   8
ATOM      8  C   UNL     1      46.752   3.103  20.740  1.00  0.00     0.000 C 
BRANCH   8   9
ATOM      9  C   UNL     1      47.535   2.142  21.653  1.00  0.00     0.000 C 
BRANCH   9  10
ATOM     10  C   UNL     1      47.867   0.807  20.968  1.00  0.00     0.000 C 
BRANCH  10  11
ATOM     11  C   UNL     1      48.638  -0.153  21.890  1.00  0.00     0.000 C 
BRANCH  11  12
ATOM     12  C   UNL     1      50.124  -0.276  21.507  1.00  0.00     0.006 C 
BRANCH  12  13
ATOM     13  C   UNL     1      50.382  -0.382  19.996  1.00  0.00     0.053 C 
BRANCH  13  14
ATOM     14  C   UNL     1      51.843  -0.311  19.670  1.00  0.00     0.041 C 
ATOM     15  O   UNL     1      52.677  -0.957  20.356  1.00  0.00    -0.550 OA
ATOM     16  O   UNL     1      52.285   0.484  18.619  1.00  0.00    -0.550 OA
ENDBRANCH  13  14
ENDBRANCH  12  13
ENDBRANCH  11  12
ENDBRANCH  10  11
ENDBRANCH   9  10
ENDBRANCH   8   9
ENDBRANCH   7   8
ENDBRANCH   6   7
ENDBRANCH   5   6
ENDBRANCH   4   5
ENDBRANCH   3   4
ENDBRANCH   2   3
ENDBRANCH   1   2
BRANCH   1  17
ATOM     17  C   UNL     1      42.183  -0.001  21.194  1.00  0.00     0.000 C 
BRANCH  17  18
ATOM     18  C   UNL     1      43.472  -0.491  21.888  1.00  0.00     0.000 C 
BRANCH  18  19
ATOM     19  C   UNL     1      44.160   0.615  22.710  1.00  0.00     0.000 C 
BRANCH  19  20
ATOM     20  C   UNL     1      45.215   0.067  23.684  1.00  0.00     0.000 C 
BRANCH  20  21
ATOM     21  C   UNL     1      45.182   0.767  25.052  1.00  0.00     0.000 C 
BRANCH  21  22
ATOM     22  C   UNL     1      43.876   1.549  25.282  1.00  0.00    -0.000 C 
BRANCH  22  23
ATOM     23  C   UNL     1      44.054   3.067  25.499  1.00  0.00    -0.000 C 
BRANCH  23  24
ATOM     24  C   UNL     1      45.131   3.741  24.629  1.00  0.00    -0.000 C 
BRANCH  24  25
ATOM     25  C   UNL     1      44.586   4.237  23.278  1.00  0.00    -0.000 C 
BRANCH  25  26
ATOM     26  C   UNL     1      43.285   5.050  23.418  1.00  0.00    -0.000 C 
BRANCH  26  27
ATOM     27  C   UNL     1      42.270   4.863  22.275  1.00  0.00    -0.000 C 
BRANCH  27  28
ATOM     28  C   UNL     1      41.815   3.402  22.111  1.00  0.00    -0.000 C 
BRANCH  28  29
ATOM     29  C   UNL     1      41.113   2.859  23.364  1.00  0.00    -0.003 C 
ATOM     30  C   UNL     1      39.910   3.704  23.779  1.00  0.00     0.004 C 
ENDBRANCH  28  29
ENDBRANCH  27  28
ENDBRANCH  26  27
ENDBRANCH  25  26
ENDBRANCH  24  25
ENDBRANCH  23  24
ENDBRANCH  22  23
ENDBRANCH  21  22
ENDBRANCH  20  21
ENDBRANCH  19  20
ENDBRANCH  18  19
ENDBRANCH  17  18
ENDBRANCH   1  17
TORSDOF 26
ENDMDL
MODEL 6
REMARK VINA RESULT:    -4.154      1.637      4.894
REMARK INTER + INTRA:         -15.776
REMARK INTER:                 -10.987
REMARK INTRA:                  -4.788
REMARK UNBOUND:                -5.309
REMARK SMILES CCCCCCCCCCCCCCCCCCCCCCCCCCCC(=O)[O-]
REMARK SMILES IDX 15 1 16 2 17 3 18 4 19 5 20 6 21 7 22 8 23 9 24 10 25 11
REMARK SMILES IDX 26 12 27 13 28 14 29 15 30 16 14 17 13 18 12 19 11 20 10 21
REMARK SMILES IDX 9 22 8 23 7 24 6 25 5 26 4 27 3 28 2 29 1 30
REMARK H PARENT
REMARK Flexibility Score: inf
ROOT
ATOM      1  C   UNL     1      42.365  -0.165  21.171  1.00  0.00     0.000 C 
ENDROOT
BRANCH   1   2
ATOM      2  C   UNL     1      41.557  -1.288  20.499  1.00  0.00     0.000 C 
BRANCH   2   3
ATOM      3  C   UNL     1      41.128  -0.939  19.062  1.00  0.00     0.000 C 
BRANCH   3   4
ATOM      4  C   UNL     1      42.043   0.110  18.405  1.00  0.00     0.000 C 
BRANCH   4   5
ATOM      5  C   UNL     1      41.326   1.366  17.873  1.00  0.00     0.000 C 
BRANCH   5   6
ATOM      6  C   UNL     1      42.263   2.311  17.101  1.00  0.00     0.000 C 
BRANCH   6   7
ATOM      7  C   UNL     1      43.647   1.692  16.836  1.00  0.00     0.000 C 
BRANCH   7   8
ATOM      8  C   UNL     1      44.806   2.704  16.771  1.00  0.00     0.000 C 
BRANCH   8   9
ATOM      9  C   UNL     1      46.156   2.095  17.193  1.00  0.00     0.000 C 
BRANCH   9  10
ATOM     10  C   UNL     1      47.259   3.152  17.363  1.00  0.00     0.000 C 
BRANCH  10  11
ATOM     11  C   UNL     1      48.597   2.540  17.812  1.00  0.00     0.000 C 
BRANCH  11  12
ATOM     12  C   UNL     1      48.445   1.616  19.033  1.00  0.00     0.006 C 
BRANCH  12  13
ATOM     13  C   UNL     1      49.663   1.601  19.971  1.00  0.00     0.053 C 
BRANCH  13  14
ATOM     14  C   UNL     1      49.742   0.333  20.767  1.00  0.00     0.041 C 
ATOM     15  O   UNL     1      50.841  -0.268  20.890  1.00  0.00    -0.550 OA
ATOM     16  O   UNL     1      48.598  -0.193  21.356  1.00  0.00    -0.550 OA
ENDBRANCH  13  14
ENDBRANCH  12  13
ENDBRANCH  11  12
ENDBRANCH  10  11
ENDBRANCH   9  10
ENDBRANCH   8   9
ENDBRANCH   7   8
ENDBRANCH   6   7
ENDBRANCH   5   6
ENDBRANCH   4   5
ENDBRANCH   3   4
ENDBRANCH   2   3
ENDBRANCH   1   2
BRANCH   1  17
ATOM     17  C   UNL     1      43.410  -0.627  22.206  1.00  0.00     0.000 C 
BRANCH  17  18
ATOM     18  C   UNL     1      42.917  -0.583  23.669  1.00  0.00     0.000 C 
BRANCH  18  19
ATOM     19  C   UNL     1      44.011  -0.985  24.675  1.00  0.00     0.000 C 
BRANCH  19  20
ATOM     20  C   UNL     1      45.229  -0.048  24.641  1.00  0.00     0.000 C 
BRANCH  20  21
ATOM     21  C   UNL     1      44.872   1.404  24.993  1.00  0.00     0.000 C 
BRANCH  21  22
ATOM     22  C   UNL     1      45.058   2.362  23.802  1.00  0.00    -0.000 C 
BRANCH  22  23
ATOM     23  C   UNL     1      46.100   1.910  22.757  1.00  0.00    -0.000 C 
BRANCH  23  24
ATOM     24  C   UNL     1      45.657   2.021  21.286  1.00  0.00    -0.000 C 
BRANCH  24  25
ATOM     25  C   UNL     1      45.797   3.446  20.725  1.00  0.00    -0.000 C 
BRANCH  25  26
ATOM     26  C   UNL     1      44.462   4.028  20.222  1.00  0.00    -0.000 C 
BRANCH  26  27
ATOM     27  C   UNL     1      43.210   3.210  20.590  1.00  0.00    -0.000 C 
BRANCH  27  28
ATOM     28  C   UNL     1      42.337   3.898  21.655  1.00  0.00    -0.000 C 
BRANCH  28  29
ATOM     29  C   UNL     1      41.599   2.893  22.551  1.00  0.00    -0.003 C 
ATOM     30  C   UNL     1      40.907   3.559  23.740  1.00  0.00     0.004 C 
ENDBRANCH  28  29
ENDBRANCH  27  28
ENDBRANCH  26  27
ENDBRANCH  25  26
ENDBRANCH  24  25
ENDBRANCH  23  24
ENDBRANCH  22  23
ENDBRANCH  21  22
ENDBRANCH  20  21
ENDBRANCH  19  20
ENDBRANCH  18  19
ENDBRANCH  17  18
ENDBRANCH   1  17
TORSDOF 26
ENDMDL
MODEL 7
REMARK VINA RESULT:    -4.110      3.135      7.187
REMARK INTER + INTRA:         -15.666
REMARK INTER:                 -12.276
REMARK INTRA:                  -3.390
REMARK UNBOUND:                -5.309
REMARK SMILES CCCCCCCCCCCCCCCCCCCCCCCCCCCC(=O)[O-]
REMARK SMILES IDX 15 1 16 2 17 3 18 4 19 5 20 6 21 7 22 8 23 9 24 10 25 11
REMARK SMILES IDX 26 12 27 13 28 14 29 15 30 16 14 17 13 18 12 19 11 20 10 21
REMARK SMILES IDX 9 22 8 23 7 24 6 25 5 26 4 27 3 28 2 29 1 30
REMARK H PARENT
REMARK Flexibility Score: inf
ROOT
ATOM      1  C   UNL     1      44.134  -0.835  24.619  1.00  0.00     0.000 C 
ENDROOT
BRANCH   1   2
ATOM      2  C   UNL     1      42.982  -0.540  23.643  1.00  0.00     0.000 C 
BRANCH   2   3
ATOM      3  C   UNL     1      43.410  -0.630  22.166  1.00  0.00     0.000 C 
BRANCH   3   4
ATOM      4  C   UNL     1      42.424   0.074  21.217  1.00  0.00     0.000 C 
BRANCH   4   5
ATOM      5  C   UNL     1      41.550  -0.865  20.362  1.00  0.00     0.000 C 
BRANCH   5   6
ATOM      6  C   UNL     1      41.601  -0.533  18.861  1.00  0.00     0.000 C 
BRANCH   6   7
ATOM      7  C   UNL     1      41.463   0.975  18.580  1.00  0.00     0.000 C 
BRANCH   7   8
ATOM      8  C   UNL     1      42.395   1.514  17.479  1.00  0.00     0.000 C 
BRANCH   8   9
ATOM      9  C   UNL     1      43.624   2.250  18.045  1.00  0.00     0.000 C 
BRANCH   9  10
ATOM     10  C   UNL     1      44.566   2.769  16.947  1.00  0.00     0.000 C 
BRANCH  10  11
ATOM     11  C   UNL     1      45.906   2.013  16.914  1.00  0.00     0.000 C 
BRANCH  11  12
ATOM     12  C   UNL     1      46.164   1.325  15.562  1.00  0.00     0.006 C 
BRANCH  12  13
ATOM     13  C   UNL     1      45.241   0.132  15.271  1.00  0.00     0.053 C 
BRANCH  13  14
ATOM     14  C   UNL     1      45.692  -0.648  14.073  1.00  0.00     0.041 C 
ATOM     15  O   UNL     1      44.844  -1.141  13.284  1.00  0.00    -0.550 OA
ATOM     16  O   UNL     1      47.048  -0.843  13.838  1.00  0.00    -0.550 OA
ENDBRANCH  13  14
ENDBRANCH  12  13
ENDBRANCH  11  12
ENDBRANCH  10  11
ENDBRANCH   9  10
ENDBRANCH   8   9
ENDBRANCH   7   8
ENDBRANCH   6   7
ENDBRANCH   5   6
ENDBRANCH   4   5
ENDBRANCH   3   4
ENDBRANCH   2   3
ENDBRANCH   1   2
BRANCH   1  17
ATOM     17  C   UNL     1      45.305   0.168  24.586  1.00  0.00     0.000 C 
BRANCH  17  18
ATOM     18  C   UNL     1      44.870   1.647  24.493  1.00  0.00     0.000 C 
BRANCH  18  19
ATOM     19  C   UNL     1      45.576   2.402  23.352  1.00  0.00     0.000 C 
BRANCH  19  20
ATOM     20  C   UNL     1      46.354   1.468  22.409  1.00  0.00     0.000 C 
BRANCH  20  21
ATOM     21  C   UNL     1      46.055   1.737  20.926  1.00  0.00     0.000 C 
BRANCH  21  22
ATOM     22  C   UNL     1      46.668   3.059  20.431  1.00  0.00    -0.000 C 
BRANCH  22  23
ATOM     23  C   UNL     1      48.150   3.271  20.803  1.00  0.00    -0.000 C 
BRANCH  23  24
ATOM     24  C   UNL     1      49.161   2.412  20.019  1.00  0.00    -0.000 C 
BRANCH  24  25
ATOM     25  C   UNL     1      49.851   1.352  20.895  1.00  0.00    -0.000 C 
BRANCH  25  26
ATOM     26  C   UNL     1      49.362  -0.079  20.604  1.00  0.00    -0.000 C 
BRANCH  26  27
ATOM     27  C   UNL     1      50.467  -1.088  20.237  1.00  0.00    -0.000 C 
BRANCH  27  28
ATOM     28  C   UNL     1      51.881  -0.490  20.339  1.00  0.00    -0.000 C 
BRANCH  28  29
ATOM     29  C   UNL     1      52.669  -0.610  19.026  1.00  0.00    -0.003 C 
ATOM     30  C   UNL     1      51.785  -1.002  17.842  1.00  0.00     0.004 C 
ENDBRANCH  28  29
ENDBRANCH  27  28
ENDBRANCH  26  27
ENDBRANCH  25  26
ENDBRANCH  24  25
ENDBRANCH  23  24
ENDBRANCH  22  23
ENDBRANCH  21  22
ENDBRANCH  20  21
ENDBRANCH  19  20
ENDBRANCH  18  19
ENDBRANCH  17  18
ENDBRANCH   1  17
TORSDOF 26
ENDMDL
MODEL 8
REMARK VINA RESULT:    -4.108      3.281      7.270
REMARK INTER + INTRA:         -15.660
REMARK INTER:                 -11.972
REMARK INTRA:                  -3.688
REMARK UNBOUND:                -5.309
REMARK SMILES CCCCCCCCCCCCCCCCCCCCCCCCCCCC(=O)[O-]
REMARK SMILES IDX 15 1 16 2 17 3 18 4 19 5 20 6 21 7 22 8 23 9 24 10 25 11
REMARK SMILES IDX 26 12 27 13 28 14 29 15 30 16 14 17 13 18 12 19 11 20 10 21
REMARK SMILES IDX 9 22 8 23 7 24 6 25 5 26 4 27 3 28 2 29 1 30
REMARK H PARENT
REMARK Flexibility Score: inf
ROOT
ATOM      1  C   UNL     1      44.109   1.691  25.576  1.00  0.00     0.000 C 
ENDROOT
BRANCH   1   2
ATOM      2  C   UNL     1      45.085   0.982  24.622  1.00  0.00     0.000 C 
BRANCH   2   3
ATOM      3  C   UNL     1      44.758  -0.511  24.431  1.00  0.00     0.000 C 
BRANCH   3   4
ATOM      4  C   UNL     1      43.475  -0.740  23.613  1.00  0.00     0.000 C 
BRANCH   4   5
ATOM      5  C   UNL     1      43.619  -0.535  22.092  1.00  0.00     0.000 C 
BRANCH   5   6
ATOM      6  C   UNL     1      42.282  -0.221  21.399  1.00  0.00     0.000 C 
BRANCH   6   7
ATOM      7  C   UNL     1      41.876  -1.296  20.374  1.00  0.00     0.000 C 
BRANCH   7   8
ATOM      8  C   UNL     1      41.522  -0.754  18.976  1.00  0.00     0.000 C 
BRANCH   8   9
ATOM      9  C   UNL     1      41.548   0.784  18.909  1.00  0.00     0.000 C 
BRANCH   9  10
ATOM     10  C   UNL     1      41.550   1.318  17.467  1.00  0.00     0.000 C 
BRANCH  10  11
ATOM     11  C   UNL     1      42.653   2.363  17.227  1.00  0.00     0.000 C 
BRANCH  11  12
ATOM     12  C   UNL     1      43.871   1.780  16.489  1.00  0.00     0.006 C 
BRANCH  12  13
ATOM     13  C   UNL     1      43.516   0.825  15.337  1.00  0.00     0.053 C 
BRANCH  13  14
ATOM     14  C   UNL     1      43.541   1.517  14.008  1.00  0.00     0.041 C 
ATOM     15  O   UNL     1      44.347   2.460  13.800  1.00  0.00    -0.550 OA
ATOM     16  O   UNL     1      42.660   1.130  13.005  1.00  0.00    -0.550 OA
ENDBRANCH  13  14
ENDBRANCH  12  13
ENDBRANCH  11  12
ENDBRANCH  10  11
ENDBRANCH   9  10
ENDBRANCH   8   9
ENDBRANCH   7   8
ENDBRANCH   6   7
ENDBRANCH   5   6
ENDBRANCH   4   5
ENDBRANCH   3   4
ENDBRANCH   2   3
ENDBRANCH   1   2
BRANCH   1  17
ATOM     17  C   UNL     1      43.474   2.987  25.034  1.00  0.00     0.000 C 
BRANCH  17  18
ATOM     18  C   UNL     1      42.646   2.797  23.745  1.00  0.00     0.000 C 
BRANCH  18  19
ATOM     19  C   UNL     1      43.059   3.773  22.627  1.00  0.00     0.000 C 
BRANCH  19  20
ATOM     20  C   UNL     1      43.139   3.100  21.247  1.00  0.00     0.000 C 
BRANCH  20  21
ATOM     21  C   UNL     1      44.584   2.921  20.756  1.00  0.00     0.000 C 
BRANCH  21  22
ATOM     22  C   UNL     1      45.622   3.359  21.805  1.00  0.00    -0.000 C 
BRANCH  22  23
ATOM     23  C   UNL     1      46.944   2.564  21.788  1.00  0.00    -0.000 C 
BRANCH  23  24
ATOM     24  C   UNL     1      46.860   1.147  21.190  1.00  0.00    -0.000 C 
BRANCH  24  25
ATOM     25  C   UNL     1      47.875   0.174  21.814  1.00  0.00    -0.000 C 
BRANCH  25  26
ATOM     26  C   UNL     1      49.335   0.630  21.632  1.00  0.00    -0.000 C 
BRANCH  26  27
ATOM     27  C   UNL     1      50.289  -0.436  21.062  1.00  0.00    -0.000 C 
BRANCH  27  28
ATOM     28  C   UNL     1      51.006   0.025  19.781  1.00  0.00    -0.000 C 
BRANCH  28  29
ATOM     29  C   UNL     1      51.259  -1.129  18.799  1.00  0.00    -0.003 C 
ATOM     30  C   UNL     1      52.352  -0.809  17.781  1.00  0.00     0.004 C 
ENDBRANCH  28  29
ENDBRANCH  27  28
ENDBRANCH  26  27
ENDBRANCH  25  26
ENDBRANCH  24  25
ENDBRANCH  23  24
ENDBRANCH  22  23
ENDBRANCH  21  22
ENDBRANCH  20  21
ENDBRANCH  19  20
ENDBRANCH  18  19
ENDBRANCH  17  18
ENDBRANCH   1  17
TORSDOF 26
ENDMDL
MODEL 9
REMARK VINA RESULT:    -4.096      1.812      5.187
REMARK INTER + INTRA:         -15.630
REMARK INTER:                 -11.150
REMARK INTRA:                  -4.479
REMARK UNBOUND:                -5.309
REMARK SMILES CCCCCCCCCCCCCCCCCCCCCCCCCCCC(=O)[O-]
REMARK SMILES IDX 15 1 16 2 17 3 18 4 19 5 20 6 21 7 22 8 23 9 24 10 25 11
REMARK SMILES IDX 26 12 27 13 28 14 29 15 30 16 14 17 13 18 12 19 11 20 10 21
REMARK SMILES IDX 9 22 8 23 7 24 6 25 5 26 4 27 3 28 2 29 1 30
REMARK H PARENT
REMARK Flexibility Score: inf
ROOT
ATOM      1  C   UNL     1      42.004   0.103  18.359  1.00  0.00     0.000 C 
ENDROOT
BRANCH   1   2
ATOM      2  C   UNL     1      41.518   1.460  17.821  1.00  0.00     0.000 C 
BRANCH   2   3
ATOM      3  C   UNL     1      42.676   2.393  17.419  1.00  0.00     0.000 C 
BRANCH   3   4
ATOM      4  C   UNL     1      43.854   1.638  16.777  1.00  0.00     0.000 C 
BRANCH   4   5
ATOM      5  C   UNL     1      45.250   2.037  17.293  1.00  0.00     0.000 C 
BRANCH   5   6
ATOM      6  C   UNL     1      45.195   3.026  18.470  1.00  0.00     0.000 C 
BRANCH   6   7
ATOM      7  C   UNL     1      45.614   2.384  19.806  1.00  0.00     0.000 C 
BRANCH   7   8
ATOM      8  C   UNL     1      47.103   2.549  20.162  1.00  0.00     0.000 C 
BRANCH   8   9
ATOM      9  C   UNL     1      47.910   1.252  19.968  1.00  0.00     0.000 C 
BRANCH   9  10
ATOM     10  C   UNL     1      48.236   0.549  21.295  1.00  0.00     0.000 C 
BRANCH  10  11
ATOM     11  C   UNL     1      49.542  -0.262  21.228  1.00  0.00     0.000 C 
BRANCH  11  12
ATOM     12  C   UNL     1      50.259  -0.117  19.874  1.00  0.00     0.006 C 
BRANCH  12  13
ATOM     13  C   UNL     1      51.517  -0.987  19.726  1.00  0.00     0.053 C 
BRANCH  13  14
ATOM     14  C   UNL     1      52.323  -0.607  18.522  1.00  0.00     0.041 C 
ATOM     15  O   UNL     1      53.017   0.443  18.530  1.00  0.00    -0.550 OA
ATOM     16  O   UNL     1      52.295  -1.405  17.383  1.00  0.00    -0.550 OA
ENDBRANCH  13  14
ENDBRANCH  12  13
ENDBRANCH  11  12
ENDBRANCH  10  11
ENDBRANCH   9  10
ENDBRANCH   8   9
ENDBRANCH   7   8
ENDBRANCH   6   7
ENDBRANCH   5   6
ENDBRANCH   4   5
ENDBRANCH   3   4
ENDBRANCH   2   3
ENDBRANCH   1   2
BRANCH   1  17
ATOM     17  C   UNL     1      41.190  -0.474  19.535  1.00  0.00     0.000 C 
BRANCH  17  18
ATOM     18  C   UNL     1      41.996  -0.644  20.841  1.00  0.00     0.000 C 
BRANCH  18  19
ATOM     19  C   UNL     1      42.933   0.547  21.117  1.00  0.00     0.000 C 
BRANCH  19  20
ATOM     20  C   UNL     1      42.272   1.642  21.970  1.00  0.00     0.000 C 
BRANCH  20  21
ATOM     21  C   UNL     1      41.834   2.858  21.139  1.00  0.00     0.000 C 
BRANCH  21  22
ATOM     22  C   UNL     1      42.862   4.002  21.182  1.00  0.00    -0.000 C 
BRANCH  22  23
ATOM     23  C   UNL     1      43.320   4.417  22.596  1.00  0.00    -0.000 C 
BRANCH  23  24
ATOM     24  C   UNL     1      44.826   4.704  22.750  1.00  0.00    -0.000 C 
BRANCH  24  25
ATOM     25  C   UNL     1      45.434   4.052  24.004  1.00  0.00    -0.000 C 
BRANCH  25  26
ATOM     26  C   UNL     1      44.882   2.640  24.275  1.00  0.00    -0.000 C 
BRANCH  26  27
ATOM     27  C   UNL     1      45.548   1.510  23.469  1.00  0.00    -0.000 C 
BRANCH  27  28
ATOM     28  C   UNL     1      45.524   0.157  24.203  1.00  0.00    -0.000 C 
BRANCH  28  29
ATOM     29  C   UNL     1      44.253  -0.036  25.043  1.00  0.00    -0.003 C 
ATOM     30  C   UNL     1      43.328  -1.111  24.475  1.00  0.00     0.004 C 
ENDBRANCH  28  29
ENDBRANCH  27  28
ENDBRANCH  26  27
ENDBRANCH  25  26
ENDBRANCH  24  25
ENDBRANCH  23  24
ENDBRANCH  22  23
ENDBRANCH  21  22
ENDBRANCH  20  21
ENDBRANCH  19  20
ENDBRANCH  18  19
ENDBRANCH  17  18
ENDBRANCH   1  17
TORSDOF 26
ENDMDL
