MODEL 1
REMARK VINA RESULT:    -6.120      0.000      0.000
REMARK INTER + INTRA:          -7.488
REMARK INTER:                  -7.194
REMARK INTRA:                  -0.295
REMARK UNBOUND:                -0.295
REMARK SMILES O=c1cc(-c2ccc(O)c(O)c2)oc2cc(O)cc(O)c12
REMARK SMILES IDX 4 1 3 2 2 3 1 4 21 5 19 6 18 7 16 8 15 9 14 10 13 11 5 12
REMARK SMILES IDX 6 13 7 14 8 15 12 16 10 17 9 18 11 20 20 22 17 24
REMARK H PARENT 9 19 11 21 20 23 17 25
REMARK Flexibility Score: inf
ROOT
ATOM      1  C   UNL     1     -38.610  75.567 -26.428  1.00  0.00     0.138 A 
ATOM      2  C   UNL     1     -38.271  75.004 -27.667  1.00  0.00     0.100 A 
ATOM      3  C   UNL     1     -36.930  74.905 -28.036  1.00  0.00     0.197 A 
ATOM      4  O   UNL     1     -36.654  74.339 -29.125  1.00  0.00    -0.289 OA
ATOM      5  C   UNL     1     -35.923  75.402 -27.173  1.00  0.00     0.107 A 
ATOM      6  C   UNL     1     -34.526  75.392 -27.463  1.00  0.00     0.134 A 
ATOM      7  C   UNL     1     -33.615  75.805 -26.483  1.00  0.00     0.093 A 
ATOM      8  C   UNL     1     -34.053  76.284 -25.249  1.00  0.00     0.123 A 
ATOM      9  C   UNL     1     -35.420  76.350 -24.974  1.00  0.00     0.094 A 
ATOM     10  C   UNL     1     -36.352  75.912 -25.918  1.00  0.00     0.146 A 
ATOM     11  O   UNL     1     -37.644  75.976 -25.613  1.00  0.00    -0.456 OA
ENDROOT
BRANCH   1  12
ATOM     12  C   UNL     1     -40.022  75.698 -25.986  1.00  0.00     0.021 A 
ATOM     13  C   UNL     1     -40.356  76.246 -24.734  1.00  0.00     0.016 A 
ATOM     14  C   UNL     1     -41.693  76.348 -24.339  1.00  0.00     0.051 A 
ATOM     15  C   UNL     1     -42.715  75.901 -25.180  1.00  0.00     0.157 A 
ATOM     16  C   UNL     1     -41.055  75.237 -26.822  1.00  0.00     0.062 A 
ATOM     17  C   UNL     1     -42.397  75.341 -26.427  1.00  0.00     0.158 A 
BRANCH  15  18
ATOM     18  O   UNL     1     -44.039  76.018 -24.758  1.00  0.00    -0.504 OA
ATOM     19  H   UNL     1     -44.281  76.228 -23.796  1.00  0.00     0.293 HD
ENDBRANCH  15  18
BRANCH  17  20
ATOM     20  O   UNL     1     -43.412  74.889 -27.269  1.00  0.00    -0.504 OA
ATOM     21  H   UNL     1     -43.411  73.948 -27.645  1.00  0.00     0.293 HD
ENDBRANCH  17  20
ENDBRANCH   1  12
BRANCH   6  22
ATOM     22  O   UNL     1     -33.987  75.013 -28.696  1.00  0.00    -0.507 OA
ATOM     23  H   UNL     1     -33.960  74.068 -29.047  1.00  0.00     0.293 HD
ENDBRANCH   6  22
BRANCH   8  24
ATOM     24  O   UNL     1     -33.119  76.701 -24.303  1.00  0.00    -0.508 OA
ATOM     25  H   UNL     1     -32.123  76.596 -24.459  1.00  0.00     0.293 HD
ENDBRANCH   8  24
TORSDOF 5
ENDMDL
MODEL 2
REMARK VINA RESULT:    -5.976      1.355      7.485
REMARK INTER + INTRA:          -7.319
REMARK INTER:                  -7.024
REMARK INTRA:                  -0.295
REMARK UNBOUND:                -0.295
REMARK SMILES O=c1cc(-c2ccc(O)c(O)c2)oc2cc(O)cc(O)c12
REMARK SMILES IDX 4 1 3 2 2 3 1 4 21 5 19 6 18 7 16 8 15 9 14 10 13 11 5 12
REMARK SMILES IDX 6 13 7 14 8 15 12 16 10 17 9 18 11 20 20 22 17 24
REMARK H PARENT 9 19 11 21 20 23 17 25
REMARK Flexibility Score: inf
ROOT
ATOM      1  C   UNL     1     -37.788  75.970 -25.398  1.00  0.00     0.138 A 
ATOM      2  C   UNL     1     -38.050  76.472 -24.116  1.00  0.00     0.100 A 
ATOM      3  C   UNL     1     -39.369  76.611 -23.684  1.00  0.00     0.197 A 
ATOM      4  O   UNL     1     -39.570  77.005 -22.507  1.00  0.00    -0.289 OA
ATOM      5  C   UNL     1     -40.433  76.275 -24.555  1.00  0.00     0.107 A 
ATOM      6  C   UNL     1     -41.818  76.413 -24.238  1.00  0.00     0.134 A 
ATOM      7  C   UNL     1     -42.782  75.938 -25.136  1.00  0.00     0.093 A 
ATOM      8  C   UNL     1     -42.414  75.386 -26.362  1.00  0.00     0.123 A 
ATOM      9  C   UNL     1     -41.065  75.296 -26.706  1.00  0.00     0.094 A 
ATOM     10  C   UNL     1     -40.079  75.728 -25.818  1.00  0.00     0.146 A 
ATOM     11  O   UNL     1     -38.804  75.610 -26.176  1.00  0.00    -0.456 OA
ENDROOT
BRANCH   1  12
ATOM     12  C   UNL     1     -36.403  75.804 -25.908  1.00  0.00     0.021 A 
ATOM     13  C   UNL     1     -36.146  75.296 -27.195  1.00  0.00     0.016 A 
ATOM     14  C   UNL     1     -34.833  75.140 -27.646  1.00  0.00     0.051 A 
ATOM     15  C   UNL     1     -33.757  75.480 -26.822  1.00  0.00     0.157 A 
ATOM     16  C   UNL     1     -35.316  76.132 -25.079  1.00  0.00     0.062 A 
ATOM     17  C   UNL     1     -33.997  75.977 -25.532  1.00  0.00     0.158 A 
BRANCH  15  18
ATOM     18  O   UNL     1     -32.457  75.315 -27.301  1.00  0.00    -0.504 OA
ATOM     19  H   UNL     1     -31.752  74.806 -26.781  1.00  0.00     0.293 HD
ENDBRANCH  15  18
BRANCH  17  20
ATOM     20  O   UNL     1     -32.929  76.316 -24.703  1.00  0.00    -0.504 OA
ATOM     21  H   UNL     1     -32.608  75.694 -23.969  1.00  0.00     0.293 HD
ENDBRANCH  17  20
ENDBRANCH   1  12
BRANCH   6  22
ATOM     22  O   UNL     1     -42.295  77.027 -23.076  1.00  0.00    -0.507 OA
ATOM     23  H   UNL     1     -43.015  76.650 -22.479  1.00  0.00     0.293 HD
ENDBRANCH   6  22
BRANCH   8  24
ATOM     24  O   UNL     1     -43.402  74.939 -27.237  1.00  0.00    -0.508 OA
ATOM     25  H   UNL     1     -43.291  74.083 -27.769  1.00  0.00     0.293 HD
ENDBRANCH   8  24
TORSDOF 5
ENDMDL
MODEL 3
REMARK VINA RESULT:    -5.784      1.236      1.921
REMARK INTER + INTRA:          -7.093
REMARK INTER:                  -6.776
REMARK INTRA:                  -0.317
REMARK UNBOUND:                -0.295
REMARK SMILES O=c1cc(-c2ccc(O)c(O)c2)oc2cc(O)cc(O)c12
REMARK SMILES IDX 4 1 3 2 2 3 1 4 21 5 19 6 18 7 16 8 15 9 14 10 13 11 5 12
REMARK SMILES IDX 6 13 7 14 8 15 12 16 10 17 9 18 11 20 20 22 17 24
REMARK H PARENT 9 19 11 21 20 23 17 25
REMARK Flexibility Score: inf
ROOT
ATOM      1  C   UNL     1     -38.303  75.949 -25.974  1.00  0.00     0.138 A 
ATOM      2  C   UNL     1     -38.205  75.588 -27.325  1.00  0.00     0.100 A 
ATOM      3  C   UNL     1     -36.951  75.509 -27.930  1.00  0.00     0.197 A 
ATOM      4  O   UNL     1     -36.891  75.122 -29.125  1.00  0.00    -0.289 OA
ATOM      5  C   UNL     1     -35.789  75.826 -27.185  1.00  0.00     0.107 A 
ATOM      6  C   UNL     1     -34.462  75.820 -27.708  1.00  0.00     0.134 A 
ATOM      7  C   UNL     1     -33.380  76.036 -26.846  1.00  0.00     0.093 A 
ATOM      8  C   UNL     1     -33.580  76.319 -25.495  1.00  0.00     0.123 A 
ATOM      9  C   UNL     1     -34.877  76.381 -24.984  1.00  0.00     0.094 A 
ATOM     10  C   UNL     1     -35.975  76.135 -25.811  1.00  0.00     0.146 A 
ATOM     11  O   UNL     1     -37.194  76.188 -25.282  1.00  0.00    -0.456 OA
ENDROOT
BRANCH   1  12
ATOM     12  C   UNL     1     -39.613  76.050 -25.281  1.00  0.00     0.021 A 
ATOM     13  C   UNL     1     -40.828  76.013 -25.989  1.00  0.00     0.016 A 
ATOM     14  C   UNL     1     -42.046  76.120 -25.312  1.00  0.00     0.051 A 
ATOM     15  C   UNL     1     -42.073  76.272 -23.924  1.00  0.00     0.157 A 
ATOM     16  C   UNL     1     -39.646  76.216 -23.885  1.00  0.00     0.062 A 
ATOM     17  C   UNL     1     -40.869  76.322 -23.205  1.00  0.00     0.158 A 
BRANCH  15  18
ATOM     18  O   UNL     1     -43.305  76.374 -23.277  1.00  0.00    -0.504 OA
ATOM     19  H   UNL     1     -43.868  77.216 -23.322  1.00  0.00     0.293 HD
ENDBRANCH  15  18
BRANCH  17  20
ATOM     20  O   UNL     1     -40.888  76.477 -21.819  1.00  0.00    -0.504 OA
ATOM     21  H   UNL     1     -41.075  75.697 -21.200  1.00  0.00     0.293 HD
ENDBRANCH  17  20
ENDBRANCH   1  12
BRANCH   6  22
ATOM     22  O   UNL     1     -34.156  75.632 -29.059  1.00  0.00    -0.507 OA
ATOM     23  H   UNL     1     -34.676  75.044 -29.692  1.00  0.00     0.293 HD
ENDBRANCH   6  22
BRANCH   8  24
ATOM     24  O   UNL     1     -32.480  76.545 -24.670  1.00  0.00    -0.508 OA
ATOM     25  H   UNL     1     -31.898  77.368 -24.776  1.00  0.00     0.293 HD
ENDBRANCH   8  24
TORSDOF 5
ENDMDL
MODEL 4
REMARK VINA RESULT:    -5.589      1.812      7.024
REMARK INTER + INTRA:          -6.864
REMARK INTER:                  -6.546
REMARK INTRA:                  -0.318
REMARK UNBOUND:                -0.295
REMARK SMILES O=c1cc(-c2ccc(O)c(O)c2)oc2cc(O)cc(O)c12
REMARK SMILES IDX 4 1 3 2 2 3 1 4 21 5 19 6 18 7 16 8 15 9 14 10 13 11 5 12
REMARK SMILES IDX 6 13 7 14 8 15 12 16 10 17 9 18 11 20 20 22 17 24
REMARK H PARENT 9 19 11 21 20 23 17 25
REMARK Flexibility Score: inf
ROOT
ATOM      1  C   UNL     1     -37.276  76.011 -25.847  1.00  0.00     0.138 A 
ATOM      2  C   UNL     1     -38.295  75.738 -26.771  1.00  0.00     0.100 A 
ATOM      3  C   UNL     1     -39.627  75.754 -26.356  1.00  0.00     0.197 A 
ATOM      4  O   UNL     1     -40.520  75.568 -27.221  1.00  0.00    -0.289 OA
ATOM      5  C   UNL     1     -39.938  76.015 -25.000  1.00  0.00     0.107 A 
ATOM      6  C   UNL     1     -41.256  76.017 -24.454  1.00  0.00     0.134 A 
ATOM      7  C   UNL     1     -41.451  76.403 -23.122  1.00  0.00     0.093 A 
ATOM      8  C   UNL     1     -40.373  76.727 -22.301  1.00  0.00     0.123 A 
ATOM      9  C   UNL     1     -39.073  76.675 -22.808  1.00  0.00     0.094 A 
ATOM     10  C   UNL     1     -38.849  76.328 -24.142  1.00  0.00     0.146 A 
ATOM     11  O   UNL     1     -37.598  76.306 -24.592  1.00  0.00    -0.456 OA
ENDROOT
BRANCH   1  12
ATOM     12  C   UNL     1     -35.843  76.005 -26.235  1.00  0.00     0.021 A 
ATOM     13  C   UNL     1     -35.432  75.689 -27.544  1.00  0.00     0.016 A 
ATOM     14  C   UNL     1     -34.076  75.682 -27.878  1.00  0.00     0.051 A 
ATOM     15  C   UNL     1     -33.108  75.981 -26.916  1.00  0.00     0.157 A 
ATOM     16  C   UNL     1     -34.863  76.293 -25.268  1.00  0.00     0.062 A 
ATOM     17  C   UNL     1     -33.501  76.287 -25.604  1.00  0.00     0.158 A 
BRANCH  15  18
ATOM     18  O   UNL     1     -31.762  75.967 -27.281  1.00  0.00    -0.504 OA
ATOM     19  H   UNL     1     -31.024  76.206 -26.628  1.00  0.00     0.293 HD
ENDBRANCH  15  18
BRANCH  17  20
ATOM     20  O   UNL     1     -32.541  76.583 -24.637  1.00  0.00    -0.504 OA
ATOM     21  H   UNL     1     -32.720  76.444 -23.650  1.00  0.00     0.293 HD
ENDBRANCH  17  20
ENDBRANCH   1  12
BRANCH   6  22
ATOM     22  O   UNL     1     -42.396  75.628 -25.165  1.00  0.00    -0.507 OA
ATOM     23  H   UNL     1     -43.160  76.240 -25.409  1.00  0.00     0.293 HD
ENDBRANCH   6  22
BRANCH   8  24
ATOM     24  O   UNL     1     -40.603  77.091 -20.976  1.00  0.00    -0.508 OA
ATOM     25  H   UNL     1     -41.270  77.814 -20.733  1.00  0.00     0.293 HD
ENDBRANCH   8  24
TORSDOF 5
ENDMDL
MODEL 5
REMARK VINA RESULT:    -5.262      1.794      6.891
REMARK INTER + INTRA:          -6.479
REMARK INTER:                  -6.166
REMARK INTRA:                  -0.313
REMARK UNBOUND:                -0.295
REMARK SMILES O=c1cc(-c2ccc(O)c(O)c2)oc2cc(O)cc(O)c12
REMARK SMILES IDX 4 1 3 2 2 3 1 4 21 5 19 6 18 7 16 8 15 9 14 10 13 11 5 12
REMARK SMILES IDX 6 13 7 14 8 15 12 16 10 17 9 18 11 20 20 22 17 24
REMARK H PARENT 9 19 11 21 20 23 17 25
REMARK Flexibility Score: inf
ROOT
ATOM      1  C   UNL     1     -39.389  75.673 -26.092  1.00  0.00     0.138 A 
ATOM      2  C   UNL     1     -40.658  75.658 -26.688  1.00  0.00     0.100 A 
ATOM      3  C   UNL     1     -41.793  75.863 -25.904  1.00  0.00     0.197 A 
ATOM      4  O   UNL     1     -42.911  75.907 -26.477  1.00  0.00    -0.289 OA
ATOM      5  C   UNL     1     -41.658  76.050 -24.507  1.00  0.00     0.107 A 
ATOM      6  C   UNL     1     -42.747  76.227 -23.601  1.00  0.00     0.134 A 
ATOM      7  C   UNL     1     -42.486  76.520 -22.257  1.00  0.00     0.093 A 
ATOM      8  C   UNL     1     -41.180  76.583 -21.774  1.00  0.00     0.123 A 
ATOM      9  C   UNL     1     -40.108  76.358 -22.639  1.00  0.00     0.094 A 
ATOM     10  C   UNL     1     -40.334  76.098 -23.992  1.00  0.00     0.146 A 
ATOM     11  O   UNL     1     -39.286  75.905 -24.787  1.00  0.00    -0.456 OA
ENDROOT
BRANCH   1  12
ATOM     12  C   UNL     1     -38.149  75.459 -26.880  1.00  0.00     0.021 A 
ATOM     13  C   UNL     1     -38.133  75.583 -28.282  1.00  0.00     0.016 A 
ATOM     14  C   UNL     1     -36.954  75.367 -28.999  1.00  0.00     0.051 A 
ATOM     15  C   UNL     1     -35.775  75.019 -28.334  1.00  0.00     0.157 A 
ATOM     16  C   UNL     1     -36.962  75.096 -26.218  1.00  0.00     0.062 A 
ATOM     17  C   UNL     1     -35.778  74.881 -26.938  1.00  0.00     0.158 A 
BRANCH  15  18
ATOM     18  O   UNL     1     -34.614  74.811 -29.078  1.00  0.00    -0.504 OA
ATOM     19  H   UNL     1     -34.093  75.578 -29.487  1.00  0.00     0.293 HD
ENDBRANCH  15  18
BRANCH  17  20
ATOM     20  O   UNL     1     -34.606  74.530 -26.268  1.00  0.00    -0.504 OA
ATOM     21  H   UNL     1     -33.757  74.297 -26.769  1.00  0.00     0.293 HD
ENDBRANCH  17  20
ENDBRANCH   1  12
BRANCH   6  22
ATOM     22  O   UNL     1     -44.091  76.101 -23.963  1.00  0.00    -0.507 OA
ATOM     23  H   UNL     1     -44.810  76.777 -23.756  1.00  0.00     0.293 HD
ENDBRANCH   6  22
BRANCH   8  24
ATOM     24  O   UNL     1     -40.958  76.862 -20.427  1.00  0.00    -0.508 OA
ATOM     25  H   UNL     1     -40.085  77.263 -20.105  1.00  0.00     0.293 HD
ENDBRANCH   8  24
TORSDOF 5
ENDMDL
MODEL 6
REMARK VINA RESULT:    -5.202      2.542      3.527
REMARK INTER + INTRA:          -6.409
REMARK INTER:                  -6.091
REMARK INTRA:                  -0.318
REMARK UNBOUND:                -0.295
REMARK SMILES O=c1cc(-c2ccc(O)c(O)c2)oc2cc(O)cc(O)c12
REMARK SMILES IDX 4 1 3 2 2 3 1 4 21 5 19 6 18 7 16 8 15 9 14 10 13 11 5 12
REMARK SMILES IDX 6 13 7 14 8 15 12 16 10 17 9 18 11 20 20 22 17 24
REMARK H PARENT 9 19 11 21 20 23 17 25
REMARK Flexibility Score: inf
ROOT
ATOM      1  C   UNL     1     -39.021  76.182 -24.418  1.00  0.00     0.138 A 
ATOM      2  C   UNL     1     -39.568  76.005 -25.696  1.00  0.00     0.100 A 
ATOM      3  C   UNL     1     -38.722  75.808 -26.788  1.00  0.00     0.197 A 
ATOM      4  O   UNL     1     -39.244  75.589 -27.912  1.00  0.00    -0.289 OA
ATOM      5  C   UNL     1     -37.318  75.820 -26.602  1.00  0.00     0.107 A 
ATOM      6  C   UNL     1     -36.359  75.670 -27.648  1.00  0.00     0.134 A 
ATOM      7  C   UNL     1     -34.998  75.582 -27.328  1.00  0.00     0.093 A 
ATOM      8  C   UNL     1     -34.559  75.699 -26.010  1.00  0.00     0.123 A 
ATOM      9  C   UNL     1     -35.485  75.901 -24.985  1.00  0.00     0.094 A 
ATOM     10  C   UNL     1     -36.851  75.957 -25.268  1.00  0.00     0.146 A 
ATOM     11  O   UNL     1     -37.702  76.135 -24.262  1.00  0.00    -0.456 OA
ENDROOT
BRANCH   1  12
ATOM     12  C   UNL     1     -39.875  76.397 -23.222  1.00  0.00     0.021 A 
ATOM     13  C   UNL     1     -41.269  76.555 -23.328  1.00  0.00     0.016 A 
ATOM     14  C   UNL     1     -42.047  76.766 -22.187  1.00  0.00     0.051 A 
ATOM     15  C   UNL     1     -41.450  76.830 -20.925  1.00  0.00     0.157 A 
ATOM     16  C   UNL     1     -39.278  76.475 -21.951  1.00  0.00     0.062 A 
ATOM     17  C   UNL     1     -40.060  76.686 -20.805  1.00  0.00     0.158 A 
BRANCH  15  18
ATOM     18  O   UNL     1     -42.254  77.040 -19.805  1.00  0.00    -0.504 OA
ATOM     19  H   UNL     1     -41.878  77.035 -18.864  1.00  0.00     0.293 HD
ENDBRANCH  15  18
BRANCH  17  20
ATOM     20  O   UNL     1     -39.456  76.752 -19.549  1.00  0.00    -0.504 OA
ATOM     21  H   UNL     1     -39.018  77.602 -19.215  1.00  0.00     0.293 HD
ENDBRANCH  17  20
ENDBRANCH   1  12
BRANCH   6  22
ATOM     22  O   UNL     1     -36.685  75.628 -29.006  1.00  0.00    -0.507 OA
ATOM     23  H   UNL     1     -37.617  75.515 -29.373  1.00  0.00     0.293 HD
ENDBRANCH   6  22
BRANCH   8  24
ATOM     24  O   UNL     1     -33.196  75.622 -25.731  1.00  0.00    -0.508 OA
ATOM     25  H   UNL     1     -32.504  75.602 -26.470  1.00  0.00     0.293 HD
ENDBRANCH   8  24
TORSDOF 5
ENDMDL
MODEL 7
REMARK VINA RESULT:    -4.999      2.560      6.984
REMARK INTER + INTRA:          -6.171
REMARK INTER:                  -5.864
REMARK INTRA:                  -0.307
REMARK UNBOUND:                -0.295
REMARK SMILES O=c1cc(-c2ccc(O)c(O)c2)oc2cc(O)cc(O)c12
REMARK SMILES IDX 4 1 3 2 2 3 1 4 21 5 19 6 18 7 16 8 15 9 14 10 13 11 5 12
REMARK SMILES IDX 6 13 7 14 8 15 12 16 10 17 9 18 11 20 20 22 17 24
REMARK H PARENT 9 19 11 21 20 23 17 25
REMARK Flexibility Score: inf
ROOT
ATOM      1  C   UNL     1     -39.971  76.010 -25.026  1.00  0.00     0.138 A 
ATOM      2  C   UNL     1     -41.346  75.997 -25.298  1.00  0.00     0.100 A 
ATOM      3  C   UNL     1     -42.258  76.142 -24.253  1.00  0.00     0.197 A 
ATOM      4  O   UNL     1     -43.483  76.189 -24.536  1.00  0.00    -0.289 OA
ATOM      5  C   UNL     1     -41.790  76.269 -22.923  1.00  0.00     0.107 A 
ATOM      6  C   UNL     1     -42.628  76.381 -21.773  1.00  0.00     0.134 A 
ATOM      7  C   UNL     1     -42.051  76.619 -20.520  1.00  0.00     0.093 A 
ATOM      8  C   UNL     1     -40.667  76.687 -20.365  1.00  0.00     0.123 A 
ATOM      9  C   UNL     1     -39.835  76.524 -21.473  1.00  0.00     0.094 A 
ATOM     10  C   UNL     1     -40.381  76.321 -22.743  1.00  0.00     0.146 A 
ATOM     11  O   UNL     1     -39.556  76.186 -23.776  1.00  0.00    -0.456 OA
ENDROOT
BRANCH   1  12
ATOM     12  C   UNL     1     -38.957  75.859 -26.101  1.00  0.00     0.021 A 
ATOM     13  C   UNL     1     -39.218  76.256 -27.425  1.00  0.00     0.016 A 
ATOM     14  C   UNL     1     -38.249  76.093 -28.418  1.00  0.00     0.051 A 
ATOM     15  C   UNL     1     -37.010  75.526 -28.112  1.00  0.00     0.157 A 
ATOM     16  C   UNL     1     -37.712  75.277 -25.801  1.00  0.00     0.062 A 
ATOM     17  C   UNL     1     -36.739  75.114 -26.798  1.00  0.00     0.158 A 
BRANCH  15  18
ATOM     18  O   UNL     1     -36.063  75.378 -29.125  1.00  0.00    -0.504 OA
ATOM     19  H   UNL     1     -36.053  75.975 -29.943  1.00  0.00     0.293 HD
ENDBRANCH  15  18
BRANCH  17  20
ATOM     20  O   UNL     1     -35.505  74.544 -26.485  1.00  0.00    -0.504 OA
ATOM     21  H   UNL     1     -35.398  73.543 -26.364  1.00  0.00     0.293 HD
ENDBRANCH  17  20
ENDBRANCH   1  12
BRANCH   6  22
ATOM     22  O   UNL     1     -44.019  76.244 -21.805  1.00  0.00    -0.507 OA
ATOM     23  H   UNL     1     -44.666  76.804 -21.271  1.00  0.00     0.293 HD
ENDBRANCH   6  22
BRANCH   8  24
ATOM     24  O   UNL     1     -40.128  76.909 -19.099  1.00  0.00    -0.508 OA
ATOM     25  H   UNL     1     -40.473  76.419 -18.282  1.00  0.00     0.293 HD
ENDBRANCH   8  24
TORSDOF 5
ENDMDL
MODEL 8
REMARK VINA RESULT:    -4.873      4.325      6.728
REMARK INTER + INTRA:          -6.022
REMARK INTER:                  -5.754
REMARK INTRA:                  -0.268
REMARK UNBOUND:                -0.295
REMARK SMILES O=c1cc(-c2ccc(O)c(O)c2)oc2cc(O)cc(O)c12
REMARK SMILES IDX 4 1 3 2 2 3 1 4 21 5 19 6 18 7 16 8 15 9 14 10 13 11 5 12
REMARK SMILES IDX 6 13 7 14 8 15 12 16 10 17 9 18 11 20 20 22 17 24
REMARK H PARENT 9 19 11 21 20 23 17 25
REMARK Flexibility Score: inf
ROOT
ATOM      1  C   UNL     1     -39.647  76.120 -21.959  1.00  0.00     0.138 A 
ATOM      2  C   UNL     1     -41.007  75.993 -22.273  1.00  0.00     0.100 A 
ATOM      3  C   UNL     1     -41.419  76.072 -23.604  1.00  0.00     0.197 A 
ATOM      4  O   UNL     1     -42.636  75.892 -23.860  1.00  0.00    -0.289 OA
ATOM      5  C   UNL     1     -40.465  76.312 -24.622  1.00  0.00     0.107 A 
ATOM      6  C   UNL     1     -40.774  76.452 -26.009  1.00  0.00     0.134 A 
ATOM      7  C   UNL     1     -39.733  76.571 -26.939  1.00  0.00     0.093 A 
ATOM      8  C   UNL     1     -38.402  76.616 -26.528  1.00  0.00     0.123 A 
ATOM      9  C   UNL     1     -38.091  76.534 -25.170  1.00  0.00     0.094 A 
ATOM     10  C   UNL     1     -39.103  76.380 -24.221  1.00  0.00     0.146 A 
ATOM     11  O   UNL     1     -38.765  76.290 -22.939  1.00  0.00    -0.456 OA
ENDROOT
BRANCH   1  12
ATOM     12  C   UNL     1     -39.154  76.045 -20.560  1.00  0.00     0.021 A 
ATOM     13  C   UNL     1     -39.295  77.125 -19.668  1.00  0.00     0.016 A 
ATOM     14  C   UNL     1     -38.814  77.030 -18.360  1.00  0.00     0.051 A 
ATOM     15  C   UNL     1     -38.179  75.865 -17.921  1.00  0.00     0.157 A 
ATOM     16  C   UNL     1     -38.504  74.880 -20.117  1.00  0.00     0.062 A 
ATOM     17  C   UNL     1     -38.021  74.785 -18.802  1.00  0.00     0.158 A 
BRANCH  15  18
ATOM     18  O   UNL     1     -37.711  75.802 -16.609  1.00  0.00    -0.504 OA
ATOM     19  H   UNL     1     -37.412  74.930 -16.186  1.00  0.00     0.293 HD
ENDBRANCH  15  18
BRANCH  17  20
ATOM     20  O   UNL     1     -37.386  73.620 -18.373  1.00  0.00    -0.504 OA
ATOM     21  H   UNL     1     -37.768  73.050 -17.627  1.00  0.00     0.293 HD
ENDBRANCH  17  20
ENDBRANCH   1  12
BRANCH   6  22
ATOM     22  O   UNL     1     -42.075  76.506 -26.517  1.00  0.00    -0.507 OA
ATOM     23  H   UNL     1     -42.401  77.173 -27.199  1.00  0.00     0.293 HD
ENDBRANCH   6  22
BRANCH   8  24
ATOM     24  O   UNL     1     -37.394  76.751 -27.480  1.00  0.00    -0.508 OA
ATOM     25  H   UNL     1     -37.314  76.112 -28.263  1.00  0.00     0.293 HD
ENDBRANCH   8  24
TORSDOF 5
ENDMDL
