MODEL 1
REMARK VINA RESULT:    79.197      0.000      0.000
REMARK INTER + INTRA:         132.570
REMARK INTER:                 130.126
REMARK INTRA:                   2.444
REMARK UNBOUND:                 2.444
REMARK SMILES C[C@@H]1O[C@H](OC[C@H]2O[C@@H](Oc3c(-c4ccc(O)c(O)c4)oc4cc(O)cc(O)c4c3=O)[C@@H](O)[C@@H](O)[C@H]2O)[C@@H](O)[C@H](O)[C@H]1O
REMARK SMILES IDX 7 1 36 2 34 3 32 4 9 5 8 6 6 7 5 8 4 9 1 10 2 11 42 12 3 13
REMARK SMILES IDX 40 14 38 15 43 16 41 18 39 20 37 22 35 24 10 26 11 27 12 28
REMARK SMILES IDX 30 29 21 30 29 31 31 32 22 33 27 34 23 35 26 36 24 37 13 38
REMARK SMILES IDX 20 39 14 40 18 41 15 42 16 43 19 44 17 46 28 48 25 50 33 52
REMARK H PARENT 43 17 41 19 39 21 37 23 35 25 19 45 17 47 28 49 25 51 33 53
REMARK Flexibility Score: inf
ROOT
ATOM      1  C   UNL     1      15.955  95.062  -3.744  1.00  0.00     0.180 C 
ATOM      2  C   UNL     1      16.385  94.473  -2.323  1.00  0.00     0.177 C 
ATOM      3  C   UNL     1      15.362  94.666  -1.154  1.00  0.00     0.180 C 
ATOM      4  C   UNL     1      13.993  95.075  -1.660  1.00  0.00     0.214 C 
ATOM      5  C   UNL     1      14.224  96.226  -2.634  1.00  0.00     0.339 C 
ATOM      6  O   UNL     1      14.674  95.688  -3.844  1.00  0.00    -0.332 OA
ENDROOT
BRANCH   1   7
ATOM      7  C   UNL     1      16.032  94.010  -4.876  1.00  0.00     0.198 C 
BRANCH   7   8
ATOM      8  O   UNL     1      16.778  92.877  -4.445  1.00  0.00    -0.347 OA
BRANCH   8   9
ATOM      9  C   UNL     1      17.133  92.036  -5.532  1.00  0.00     0.281 C 
ATOM     10  C   UNL     1      20.020  92.326  -7.779  1.00  0.00     0.041 C 
ATOM     11  C   UNL     1      18.644  91.852  -7.292  1.00  0.00     0.150 C 
ATOM     12  C   UNL     1      18.579  90.299  -7.197  1.00  0.00     0.174 C 
ATOM     13  O   UNL     1      18.370  92.481  -6.050  1.00  0.00    -0.344 OA
ATOM     14  C   UNL     1      18.438  89.825  -5.737  1.00  0.00     0.179 C 
ATOM     15  C   UNL     1      17.293  90.588  -5.010  1.00  0.00     0.202 C 
BRANCH  12  16
ATOM     16  O   UNL     1      17.480  89.833  -7.946  1.00  0.00    -0.388 OA
ATOM     17  H   UNL     1      16.768  89.594  -7.296  1.00  0.00     0.211 HD
ENDBRANCH  12  16
BRANCH  14  18
ATOM     18  O   UNL     1      19.664  90.040  -5.082  1.00  0.00    -0.387 OA
ATOM     19  H   UNL     1      19.852  89.228  -4.528  1.00  0.00     0.211 HD
ENDBRANCH  14  18
BRANCH  15  20
ATOM     20  O   UNL     1      16.087  89.869  -5.109  1.00  0.00    -0.385 OA
ATOM     21  H   UNL     1      15.445  90.418  -5.616  1.00  0.00     0.211 HD
ENDBRANCH  15  20
ENDBRANCH   8   9
ENDBRANCH   7   8
ENDBRANCH   1   7
BRANCH   2  22
ATOM     22  O   UNL     1      16.769  93.115  -2.436  1.00  0.00    -0.387 OA
ATOM     23  H   UNL     1      17.758  93.092  -2.572  1.00  0.00     0.211 HD
ENDBRANCH   2  22
BRANCH   3  24
ATOM     24  O   UNL     1      15.238  93.522  -0.346  1.00  0.00    -0.387 OA
ATOM     25  H   UNL     1      15.811  93.665   0.444  1.00  0.00     0.211 HD
ENDBRANCH   3  24
BRANCH   5  26
ATOM     26  O   UNL     1      13.007  96.942  -2.875  1.00  0.00    -0.454 OA
BRANCH  26  27
ATOM     27  C   UNL     1      11.956  96.935  -1.945  1.00  0.00     0.214 A 
ATOM     28  C   UNL     1      11.726  98.035  -1.097  1.00  0.00     0.180 A 
ATOM     29  C   UNL     1      11.138  95.811  -1.822  1.00  0.00     0.239 A 
ATOM     30  O   UNL     1      10.780  97.979  -0.167  1.00  0.00    -0.452 OA
ATOM     31  C   UNL     1      10.150  95.770  -0.817  1.00  0.00     0.111 A 
ATOM     32  O   UNL     1      11.295  94.843  -2.617  1.00  0.00    -0.285 OA
ATOM     33  C   UNL     1       9.999  96.912   0.002  1.00  0.00     0.146 A 
ATOM     34  C   UNL     1       9.304  94.654  -0.599  1.00  0.00     0.134 A 
ATOM     35  C   UNL     1       9.007  96.950   0.986  1.00  0.00     0.094 A 
ATOM     36  C   UNL     1       8.297  94.721   0.376  1.00  0.00     0.093 A 
ATOM     37  C   UNL     1       8.144  95.862   1.166  1.00  0.00     0.123 A 
BRANCH  28  38
ATOM     38  C   UNL     1      12.520  99.278  -1.203  1.00  0.00     0.025 A 
ATOM     39  C   UNL     1      12.297 100.326  -0.300  1.00  0.00     0.062 A 
ATOM     40  C   UNL     1      13.430  99.460  -2.258  1.00  0.00     0.016 A 
ATOM     41  C   UNL     1      12.968 101.546  -0.446  1.00  0.00     0.158 A 
ATOM     42  C   UNL     1      14.086 100.683  -2.417  1.00  0.00     0.051 A 
ATOM     43  C   UNL     1      13.861 101.732  -1.518  1.00  0.00     0.157 A 
BRANCH  41  44
ATOM     44  O   UNL     1      12.720 102.569   0.470  1.00  0.00    -0.504 OA
ATOM     45  H   UNL     1      12.007 102.490   1.187  1.00  0.00     0.293 HD
ENDBRANCH  41  44
BRANCH  43  46
ATOM     46  O   UNL     1      14.495 102.959  -1.697  1.00  0.00    -0.504 OA
ATOM     47  H   UNL     1      14.096 103.682  -2.288  1.00  0.00     0.293 HD
ENDBRANCH  43  46
ENDBRANCH  28  38
BRANCH  34  48
ATOM     48  O   UNL     1       9.454  93.486  -1.350  1.00  0.00    -0.507 OA
ATOM     49  H   UNL     1       9.785  92.624  -0.941  1.00  0.00     0.293 HD
ENDBRANCH  34  48
BRANCH  37  50
ATOM     50  O   UNL     1       7.135  95.913   2.114  1.00  0.00    -0.508 OA
ATOM     51  H   UNL     1       6.231  95.490   1.947  1.00  0.00     0.293 HD
ENDBRANCH  37  50
ENDBRANCH  26  27
ENDBRANCH   5  26
BRANCH   4  52
ATOM     52  O   UNL     1      13.377  94.001  -2.331  1.00  0.00    -0.384 OA
ATOM     53  H   UNL     1      13.539  93.183  -1.786  1.00  0.00     0.211 HD
ENDBRANCH   4  52
TORSDOF 16
ENDMDL
MODEL 2
REMARK VINA RESULT:    80.955      2.994      8.457
REMARK INTER + INTRA:         135.457
REMARK INTER:                 135.153
REMARK INTRA:                   0.305
REMARK UNBOUND:                 2.444
REMARK SMILES C[C@@H]1O[C@H](OC[C@H]2O[C@@H](Oc3c(-c4ccc(O)c(O)c4)oc4cc(O)cc(O)c4c3=O)[C@@H](O)[C@@H](O)[C@H]2O)[C@@H](O)[C@H](O)[C@H]1O
REMARK SMILES IDX 7 1 36 2 34 3 32 4 9 5 8 6 6 7 5 8 4 9 1 10 2 11 42 12 3 13
REMARK SMILES IDX 40 14 38 15 43 16 41 18 39 20 37 22 35 24 10 26 11 27 12 28
REMARK SMILES IDX 30 29 21 30 29 31 31 32 22 33 27 34 23 35 26 36 24 37 13 38
REMARK SMILES IDX 20 39 14 40 18 41 15 42 16 43 19 44 17 46 28 48 25 50 33 52
REMARK H PARENT 43 17 41 19 39 21 37 23 35 25 19 45 17 47 28 49 25 51 33 53
REMARK Flexibility Score: inf
ROOT
ATOM      1  C   UNL     1       9.451  94.291   1.190  1.00  0.00     0.180 C 
ATOM      2  C   UNL     1       8.511  95.271   2.030  1.00  0.00     0.177 C 
ATOM      3  C   UNL     1       8.246  96.682   1.406  1.00  0.00     0.180 C 
ATOM      4  C   UNL     1       8.651  96.742  -0.054  1.00  0.00     0.214 C 
ATOM      5  C   UNL     1      10.057  96.155  -0.130  1.00  0.00     0.339 C 
ATOM      6  O   UNL     1       9.951  94.761  -0.063  1.00  0.00    -0.332 OA
ENDROOT
BRANCH   1   7
ATOM      7  C   UNL     1       8.797  92.913   0.927  1.00  0.00     0.198 C 
BRANCH   7   8
ATOM      8  O   UNL     1       9.796  91.902   0.846  1.00  0.00    -0.347 OA
BRANCH   8   9
ATOM      9  C   UNL     1       9.497  90.799   1.687  1.00  0.00     0.281 C 
ATOM     10  C   UNL     1      10.682  90.160   5.101  1.00  0.00     0.041 C 
ATOM     11  C   UNL     1      10.064  89.845   3.732  1.00  0.00     0.150 C 
ATOM     12  C   UNL     1       8.621  89.278   3.878  1.00  0.00     0.174 C 
ATOM     13  O   UNL     1      10.104  91.024   2.943  1.00  0.00    -0.344 OA
ATOM     14  C   UNL     1       7.569  90.248   3.305  1.00  0.00     0.179 C 
ATOM     15  C   UNL     1       7.963  90.715   1.873  1.00  0.00     0.202 C 
BRANCH  12  16
ATOM     16  O   UNL     1       8.536  88.045   3.201  1.00  0.00    -0.388 OA
ATOM     17  H   UNL     1       7.634  88.005   2.787  1.00  0.00     0.211 HD
ENDBRANCH  12  16
BRANCH  14  18
ATOM     18  O   UNL     1       7.467  91.351   4.171  1.00  0.00    -0.387 OA
ATOM     19  H   UNL     1       6.797  91.980   3.773  1.00  0.00     0.211 HD
ENDBRANCH  14  18
BRANCH  15  20
ATOM     20  O   UNL     1       7.372  89.881   0.907  1.00  0.00    -0.385 OA
ATOM     21  H   UNL     1       6.865  89.180   1.377  1.00  0.00     0.211 HD
ENDBRANCH  15  20
ENDBRANCH   8   9
ENDBRANCH   7   8
ENDBRANCH   1   7
BRANCH   2  22
ATOM     22  O   UNL     1       7.292  94.634   2.367  1.00  0.00    -0.387 OA
ATOM     23  H   UNL     1       7.517  93.749   2.772  1.00  0.00     0.211 HD
ENDBRANCH   2  22
BRANCH   3  24
ATOM     24  O   UNL     1       6.907  97.090   1.534  1.00  0.00    -0.387 OA
ATOM     25  H   UNL     1       6.488  96.985   0.647  1.00  0.00     0.211 HD
ENDBRANCH   3  24
BRANCH   5  26
ATOM     26  O   UNL     1      10.691  96.507  -1.365  1.00  0.00    -0.454 OA
BRANCH  26  27
ATOM     27  C   UNL     1      12.045  96.223  -1.602  1.00  0.00     0.214 A 
ATOM     28  C   UNL     1      13.007  97.250  -1.643  1.00  0.00     0.180 A 
ATOM     29  C   UNL     1      12.454  94.910  -1.838  1.00  0.00     0.239 A 
ATOM     30  O   UNL     1      14.269  96.974  -1.950  1.00  0.00    -0.452 OA
ATOM     31  C   UNL     1      13.797  94.645  -2.176  1.00  0.00     0.111 A 
ATOM     32  O   UNL     1      11.612  93.974  -1.743  1.00  0.00    -0.285 OA
ATOM     33  C   UNL     1      14.693  95.737  -2.211  1.00  0.00     0.146 A 
ATOM     34  C   UNL     1      14.286  93.347  -2.468  1.00  0.00     0.134 A 
ATOM     35  C   UNL     1      16.046  95.533  -2.496  1.00  0.00     0.094 A 
ATOM     36  C   UNL     1      15.653  93.158  -2.725  1.00  0.00     0.093 A 
ATOM     37  C   UNL     1      16.532  94.242  -2.738  1.00  0.00     0.123 A 
BRANCH  28  38
ATOM     38  C   UNL     1      12.657  98.657  -1.355  1.00  0.00     0.025 A 
ATOM     39  C   UNL     1      13.548  99.682  -1.698  1.00  0.00     0.062 A 
ATOM     40  C   UNL     1      11.480  98.974  -0.654  1.00  0.00     0.016 A 
ATOM     41  C   UNL     1      13.278 101.009  -1.344  1.00  0.00     0.158 A 
ATOM     42  C   UNL     1      11.218 100.295  -0.283  1.00  0.00     0.051 A 
ATOM     43  C   UNL     1      12.111 101.319  -0.622  1.00  0.00     0.157 A 
BRANCH  41  44
ATOM     44  O   UNL     1      14.191 102.004  -1.699  1.00  0.00    -0.504 OA
ATOM     45  H   UNL     1      13.905 102.963  -1.866  1.00  0.00     0.293 HD
ENDBRANCH  41  44
BRANCH  43  46
ATOM     46  O   UNL     1      11.860 102.630  -0.224  1.00  0.00    -0.504 OA
ATOM     47  H   UNL     1      11.640 103.357  -0.898  1.00  0.00     0.293 HD
ENDBRANCH  43  46
ENDBRANCH  28  38
BRANCH  34  48
ATOM     48  O   UNL     1      13.425  92.248  -2.495  1.00  0.00    -0.507 OA
ATOM     49  H   UNL     1      13.768  91.299  -2.513  1.00  0.00     0.293 HD
ENDBRANCH  34  48
BRANCH  37  50
ATOM     50  O   UNL     1      17.881  94.032  -2.982  1.00  0.00    -0.508 OA
ATOM     51  H   UNL     1      18.239  93.115  -3.211  1.00  0.00     0.293 HD
ENDBRANCH  37  50
ENDBRANCH  26  27
ENDBRANCH   5  26
BRANCH   4  52
ATOM     52  O   UNL     1       7.771  95.973  -0.839  1.00  0.00    -0.384 OA
ATOM     53  H   UNL     1       8.271  95.163  -1.133  1.00  0.00     0.211 HD
ENDBRANCH   4  52
TORSDOF 16
ENDMDL
MODEL 3
REMARK VINA RESULT:    81.066      3.205     11.399
REMARK INTER + INTRA:         135.640
REMARK INTER:                 134.993
REMARK INTRA:                   0.647
REMARK UNBOUND:                 2.444
REMARK SMILES C[C@@H]1O[C@H](OC[C@H]2O[C@@H](Oc3c(-c4ccc(O)c(O)c4)oc4cc(O)cc(O)c4c3=O)[C@@H](O)[C@@H](O)[C@H]2O)[C@@H](O)[C@H](O)[C@H]1O
REMARK SMILES IDX 7 1 36 2 34 3 32 4 9 5 8 6 6 7 5 8 4 9 1 10 2 11 42 12 3 13
REMARK SMILES IDX 40 14 38 15 43 16 41 18 39 20 37 22 35 24 10 26 11 27 12 28
REMARK SMILES IDX 30 29 21 30 29 31 31 32 22 33 27 34 23 35 26 36 24 37 13 38
REMARK SMILES IDX 20 39 14 40 18 41 15 42 16 43 19 44 17 46 28 48 25 50 33 52
REMARK H PARENT 43 17 41 19 39 21 37 23 35 25 19 45 17 47 28 49 25 51 33 53
REMARK Flexibility Score: inf
ROOT
ATOM      1  C   UNL     1      11.822 101.811   0.872  1.00  0.00     0.180 C 
ATOM      2  C   UNL     1      13.251 102.268   0.323  1.00  0.00     0.177 C 
ATOM      3  C   UNL     1      13.783 101.513  -0.941  1.00  0.00     0.180 C 
ATOM      4  C   UNL     1      12.691 100.714  -1.626  1.00  0.00     0.214 C 
ATOM      5  C   UNL     1      11.995  99.915  -0.528  1.00  0.00     0.339 C 
ATOM      6  O   UNL     1      11.136 100.779   0.161  1.00  0.00    -0.332 OA
ENDROOT
BRANCH   1   7
ATOM      7  C   UNL     1      10.832 102.991   1.021  1.00  0.00     0.198 C 
BRANCH   7   8
ATOM      8  O   UNL     1       9.752 102.622   1.871  1.00  0.00    -0.347 OA
BRANCH   8   9
ATOM      9  C   UNL     1       9.519 103.596   2.878  1.00  0.00     0.281 C 
ATOM     10  C   UNL     1      10.977 103.777   6.241  1.00  0.00     0.041 C 
ATOM     11  C   UNL     1       9.993 104.082   5.104  1.00  0.00     0.150 C 
ATOM     12  C   UNL     1       9.943 105.606   4.790  1.00  0.00     0.174 C 
ATOM     13  O   UNL     1      10.366 103.310   3.973  1.00  0.00    -0.344 OA
ATOM     14  C   UNL     1      10.510 105.917   3.390  1.00  0.00     0.179 C 
ATOM     15  C   UNL     1       9.875 104.992   2.313  1.00  0.00     0.202 C 
BRANCH  12  16
ATOM     16  O   UNL     1       8.608 106.052   4.861  1.00  0.00    -0.388 OA
ATOM     17  H   UNL     1       8.578 106.943   4.423  1.00  0.00     0.211 HD
ENDBRANCH  12  16
BRANCH  14  18
ATOM     18  O   UNL     1      11.905 105.740   3.429  1.00  0.00    -0.387 OA
ATOM     19  H   UNL     1      12.077 104.773   3.620  1.00  0.00     0.211 HD
ENDBRANCH  14  18
BRANCH  15  20
ATOM     20  O   UNL     1       8.752 105.613   1.735  1.00  0.00    -0.385 OA
ATOM     21  H   UNL     1       8.910 106.585   1.730  1.00  0.00     0.211 HD
ENDBRANCH  15  20
ENDBRANCH   8   9
ENDBRANCH   7   8
ENDBRANCH   1   7
BRANCH   2  22
ATOM     22  O   UNL     1      13.289 103.669   0.124  1.00  0.00    -0.387 OA
ATOM     23  H   UNL     1      14.224 103.913  -0.128  1.00  0.00     0.211 HD
ENDBRANCH   2  22
BRANCH   3  24
ATOM     24  O   UNL     1      14.386 102.374  -1.874  1.00  0.00    -0.387 OA
ATOM     25  H   UNL     1      14.871 103.061  -1.359  1.00  0.00     0.211 HD
ENDBRANCH   3  24
BRANCH   5  26
ATOM     26  O   UNL     1      11.221  98.849  -1.088  1.00  0.00    -0.454 OA
BRANCH  26  27
ATOM     27  C   UNL     1      11.787  97.591  -1.351  1.00  0.00     0.214 A 
ATOM     28  C   UNL     1      11.223  96.414  -0.822  1.00  0.00     0.180 A 
ATOM     29  C   UNL     1      12.949  97.493  -2.117  1.00  0.00     0.239 A 
ATOM     30  O   UNL     1      11.817  95.242  -1.012  1.00  0.00    -0.452 OA
ATOM     31  C   UNL     1      13.568  96.239  -2.291  1.00  0.00     0.111 A 
ATOM     32  O   UNL     1      13.429  98.534  -2.647  1.00  0.00    -0.285 OA
ATOM     33  C   UNL     1      12.944  95.111  -1.713  1.00  0.00     0.146 A 
ATOM     34  C   UNL     1      14.770  96.057  -3.022  1.00  0.00     0.134 A 
ATOM     35  C   UNL     1      13.485  93.835  -1.888  1.00  0.00     0.094 A 
ATOM     36  C   UNL     1      15.284  94.765  -3.210  1.00  0.00     0.093 A 
ATOM     37  C   UNL     1      14.647  93.656  -2.649  1.00  0.00     0.123 A 
BRANCH  28  38
ATOM     38  C   UNL     1       9.967  96.435  -0.043  1.00  0.00     0.025 A 
ATOM     39  C   UNL     1       9.569  95.296   0.669  1.00  0.00     0.062 A 
ATOM     40  C   UNL     1       9.116  97.553  -0.084  1.00  0.00     0.016 A 
ATOM     41  C   UNL     1       8.335  95.264   1.331  1.00  0.00     0.158 A 
ATOM     42  C   UNL     1       7.876  97.517   0.560  1.00  0.00     0.051 A 
ATOM     43  C   UNL     1       7.476  96.377   1.268  1.00  0.00     0.157 A 
BRANCH  41  44
ATOM     44  O   UNL     1       7.971  94.111   2.028  1.00  0.00    -0.504 OA
ATOM     45  H   UNL     1       7.497  94.151   2.924  1.00  0.00     0.293 HD
ENDBRANCH  41  44
BRANCH  43  46
ATOM     46  O   UNL     1       6.228  96.334   1.883  1.00  0.00    -0.504 OA
ATOM     47  H   UNL     1       5.416  95.948   1.411  1.00  0.00     0.293 HD
ENDBRANCH  43  46
ENDBRANCH  28  38
BRANCH  34  48
ATOM     48  O   UNL     1      15.448  97.150  -3.566  1.00  0.00    -0.507 OA
ATOM     49  H   UNL     1      16.040  97.746  -3.007  1.00  0.00     0.293 HD
ENDBRANCH  34  48
BRANCH  37  50
ATOM     50  O   UNL     1      15.164  92.387  -2.858  1.00  0.00    -0.508 OA
ATOM     51  H   UNL     1      14.794  91.778  -3.575  1.00  0.00     0.293 HD
ENDBRANCH  37  50
ENDBRANCH  26  27
ENDBRANCH   5  26
BRANCH   4  52
ATOM     52  O   UNL     1      11.767 101.578  -2.244  1.00  0.00    -0.384 OA
ATOM     53  H   UNL     1      12.289 102.320  -2.655  1.00  0.00     0.211 HD
ENDBRANCH   4  52
TORSDOF 16
ENDMDL
MODEL 4
REMARK VINA RESULT:    81.480      0.893      4.738
REMARK INTER + INTRA:         136.321
REMARK INTER:                 135.328
REMARK INTRA:                   0.992
REMARK UNBOUND:                 2.444
REMARK SMILES C[C@@H]1O[C@H](OC[C@H]2O[C@@H](Oc3c(-c4ccc(O)c(O)c4)oc4cc(O)cc(O)c4c3=O)[C@@H](O)[C@@H](O)[C@H]2O)[C@@H](O)[C@H](O)[C@H]1O
REMARK SMILES IDX 7 1 36 2 34 3 32 4 9 5 8 6 6 7 5 8 4 9 1 10 2 11 42 12 3 13
REMARK SMILES IDX 40 14 38 15 43 16 41 18 39 20 37 22 35 24 10 26 11 27 12 28
REMARK SMILES IDX 30 29 21 30 29 31 31 32 22 33 27 34 23 35 26 36 24 37 13 38
REMARK SMILES IDX 20 39 14 40 18 41 15 42 16 43 19 44 17 46 28 48 25 50 33 52
REMARK H PARENT 43 17 41 19 39 21 37 23 35 25 19 45 17 47 28 49 25 51 33 53
REMARK Flexibility Score: inf
ROOT
ATOM      1  C   UNL     1      15.762  95.021  -3.691  1.00  0.00     0.180 C 
ATOM      2  C   UNL     1      16.448  94.483  -2.353  1.00  0.00     0.177 C 
ATOM      3  C   UNL     1      15.603  94.608  -1.041  1.00  0.00     0.180 C 
ATOM      4  C   UNL     1      14.145  94.906  -1.332  1.00  0.00     0.214 C 
ATOM      5  C   UNL     1      14.136  96.061  -2.328  1.00  0.00     0.339 C 
ATOM      6  O   UNL     1      14.437  95.546  -3.594  1.00  0.00    -0.332 OA
ENDROOT
BRANCH   1   7
ATOM      7  C   UNL     1      15.748  93.967  -4.823  1.00  0.00     0.198 C 
BRANCH   7   8
ATOM      8  O   UNL     1      16.461  92.803  -4.420  1.00  0.00    -0.347 OA
BRANCH   8   9
ATOM      9  C   UNL     1      16.874  92.027  -5.535  1.00  0.00     0.281 C 
ATOM     10  C   UNL     1      19.859  92.467  -7.624  1.00  0.00     0.041 C 
ATOM     11  C   UNL     1      18.468  91.955  -7.230  1.00  0.00     0.150 C 
ATOM     12  C   UNL     1      18.414  90.399  -7.225  1.00  0.00     0.174 C 
ATOM     13  O   UNL     1      18.130  92.511  -5.968  1.00  0.00    -0.344 OA
ATOM     14  C   UNL     1      18.212  89.842  -5.802  1.00  0.00     0.179 C 
ATOM     15  C   UNL     1      17.026  90.553  -5.089  1.00  0.00     0.202 C 
BRANCH  12  16
ATOM     16  O   UNL     1      17.357  89.968  -8.050  1.00  0.00    -0.388 OA
ATOM     17  H   UNL     1      17.585  89.050  -8.355  1.00  0.00     0.211 HD
ENDBRANCH  12  16
BRANCH  14  18
ATOM     18  O   UNL     1      19.404  90.029  -5.080  1.00  0.00    -0.387 OA
ATOM     19  H   UNL     1      19.233  89.729  -4.140  1.00  0.00     0.211 HD
ENDBRANCH  14  18
BRANCH  15  20
ATOM     20  O   UNL     1      15.833  89.832  -5.284  1.00  0.00    -0.385 OA
ATOM     21  H   UNL     1      15.994  88.899  -5.016  1.00  0.00     0.211 HD
ENDBRANCH  15  20
ENDBRANCH   8   9
ENDBRANCH   7   8
ENDBRANCH   1   7
BRANCH   2  22
ATOM     22  O   UNL     1      16.914  93.157  -2.525  1.00  0.00    -0.387 OA
ATOM     23  H   UNL     1      17.805  93.091  -2.079  1.00  0.00     0.211 HD
ENDBRANCH   2  22
BRANCH   3  24
ATOM     24  O   UNL     1      15.692  93.467  -0.226  1.00  0.00    -0.387 OA
ATOM     25  H   UNL     1      16.277  93.701   0.533  1.00  0.00     0.211 HD
ENDBRANCH   3  24
BRANCH   5  26
ATOM     26  O   UNL     1      12.845  96.679  -2.380  1.00  0.00    -0.454 OA
BRANCH  26  27
ATOM     27  C   UNL     1      12.607  97.931  -1.790  1.00  0.00     0.214 A 
ATOM     28  C   UNL     1      11.474  98.152  -0.983  1.00  0.00     0.180 A 
ATOM     29  C   UNL     1      13.480  98.994  -2.027  1.00  0.00     0.239 A 
ATOM     30  O   UNL     1      11.221  99.363  -0.502  1.00  0.00    -0.452 OA
ATOM     31  C   UNL     1      13.180 100.273  -1.517  1.00  0.00     0.111 A 
ATOM     32  O   UNL     1      14.530  98.792  -2.698  1.00  0.00    -0.285 OA
ATOM     33  C   UNL     1      12.014 100.410  -0.731  1.00  0.00     0.146 A 
ATOM     34  C   UNL     1      13.992 101.413  -1.743  1.00  0.00     0.134 A 
ATOM     35  C   UNL     1      11.687 101.643  -0.159  1.00  0.00     0.094 A 
ATOM     36  C   UNL     1      13.661 102.636  -1.139  1.00  0.00     0.093 A 
ATOM     37  C   UNL     1      12.517 102.755  -0.348  1.00  0.00     0.123 A 
BRANCH  28  38
ATOM     38  C   UNL     1      10.533  97.063  -0.649  1.00  0.00     0.025 A 
ATOM     39  C   UNL     1       9.440  97.318   0.190  1.00  0.00     0.062 A 
ATOM     40  C   UNL     1      10.774  95.748  -1.083  1.00  0.00     0.016 A 
ATOM     41  C   UNL     1       8.596  96.279   0.597  1.00  0.00     0.158 A 
ATOM     42  C   UNL     1       9.944  94.706  -0.662  1.00  0.00     0.051 A 
ATOM     43  C   UNL     1       8.854  94.960   0.179  1.00  0.00     0.157 A 
BRANCH  41  44
ATOM     44  O   UNL     1       7.518  96.570   1.435  1.00  0.00    -0.504 OA
ATOM     45  H   UNL     1       6.999  97.439   1.363  1.00  0.00     0.293 HD
ENDBRANCH  41  44
BRANCH  43  46
ATOM     46  O   UNL     1       8.048  93.914   0.619  1.00  0.00    -0.504 OA
ATOM     47  H   UNL     1       8.225  93.441   1.500  1.00  0.00     0.293 HD
ENDBRANCH  43  46
ENDBRANCH  28  38
BRANCH  34  48
ATOM     48  O   UNL     1      15.124 101.334  -2.556  1.00  0.00    -0.507 OA
ATOM     49  H   UNL     1      16.040 101.603  -2.227  1.00  0.00     0.293 HD
ENDBRANCH  34  48
BRANCH  37  50
ATOM     50  O   UNL     1      12.215 103.968   0.250  1.00  0.00    -0.508 OA
ATOM     51  H   UNL     1      11.259 104.249   0.421  1.00  0.00     0.293 HD
ENDBRANCH  37  50
ENDBRANCH  26  27
ENDBRANCH   5  26
BRANCH   4  52
ATOM     52  O   UNL     1      13.520  93.781  -1.902  1.00  0.00    -0.384 OA
ATOM     53  H   UNL     1      13.556  93.894  -2.891  1.00  0.00     0.211 HD
ENDBRANCH   4  52
TORSDOF 16
ENDMDL
MODEL 5
REMARK VINA RESULT:    82.026      2.920      6.175
REMARK INTER + INTRA:         137.217
REMARK INTER:                 135.931
REMARK INTRA:                   1.286
REMARK UNBOUND:                 2.444
REMARK SMILES C[C@@H]1O[C@H](OC[C@H]2O[C@@H](Oc3c(-c4ccc(O)c(O)c4)oc4cc(O)cc(O)c4c3=O)[C@@H](O)[C@@H](O)[C@H]2O)[C@@H](O)[C@H](O)[C@H]1O
REMARK SMILES IDX 7 1 36 2 34 3 32 4 9 5 8 6 6 7 5 8 4 9 1 10 2 11 42 12 3 13
REMARK SMILES IDX 40 14 38 15 43 16 41 18 39 20 37 22 35 24 10 26 11 27 12 28
REMARK SMILES IDX 30 29 21 30 29 31 31 32 22 33 27 34 23 35 26 36 24 37 13 38
REMARK SMILES IDX 20 39 14 40 18 41 15 42 16 43 19 44 17 46 28 48 25 50 33 52
REMARK H PARENT 43 17 41 19 39 21 37 23 35 25 19 45 17 47 28 49 25 51 33 53
REMARK Flexibility Score: inf
ROOT
ATOM      1  C   UNL     1      15.820  95.872  -1.887  1.00  0.00     0.180 C 
ATOM      2  C   UNL     1      15.723  94.278  -1.834  1.00  0.00     0.177 C 
ATOM      3  C   UNL     1      14.322  93.657  -2.153  1.00  0.00     0.180 C 
ATOM      4  C   UNL     1      13.387  94.665  -2.792  1.00  0.00     0.214 C 
ATOM      5  C   UNL     1      13.458  95.920  -1.928  1.00  0.00     0.339 C 
ATOM      6  O   UNL     1      14.642  96.598  -2.241  1.00  0.00    -0.332 OA
ENDROOT
BRANCH   1   7
ATOM      7  C   UNL     1      16.954  96.373  -2.812  1.00  0.00     0.198 C 
BRANCH   7   8
ATOM      8  O   UNL     1      18.117  95.569  -2.645  1.00  0.00    -0.347 OA
BRANCH   8   9
ATOM      9  C   UNL     1      19.296  96.356  -2.581  1.00  0.00     0.281 C 
ATOM     10  C   UNL     1      21.471  96.956   0.314  1.00  0.00     0.041 C 
ATOM     11  C   UNL     1      20.870  97.184  -1.079  1.00  0.00     0.150 C 
ATOM     12  C   UNL     1      21.964  97.133  -2.186  1.00  0.00     0.174 C 
ATOM     13  O   UNL     1      19.847  96.222  -1.286  1.00  0.00    -0.344 OA
ATOM     14  C   UNL     1      21.777  95.916  -3.113  1.00  0.00     0.179 C 
ATOM     15  C   UNL     1      20.309  95.822  -3.621  1.00  0.00     0.202 C 
BRANCH  12  16
ATOM     16  O   UNL     1      21.909  98.315  -2.950  1.00  0.00    -0.388 OA
ATOM     17  H   UNL     1      22.792  98.413  -3.394  1.00  0.00     0.211 HD
ENDBRANCH  12  16
BRANCH  14  18
ATOM     18  O   UNL     1      22.125  94.756  -2.398  1.00  0.00    -0.387 OA
ATOM     19  H   UNL     1      23.011  94.928  -1.965  1.00  0.00     0.211 HD
ENDBRANCH  14  18
BRANCH  15  20
ATOM     20  O   UNL     1      20.175  96.484  -4.856  1.00  0.00    -0.385 OA
ATOM     21  H   UNL     1      20.954  96.252  -5.412  1.00  0.00     0.211 HD
ENDBRANCH  15  20
ENDBRANCH   8   9
ENDBRANCH   7   8
ENDBRANCH   1   7
BRANCH   2  22
ATOM     22  O   UNL     1      16.729  93.686  -2.636  1.00  0.00    -0.387 OA
ATOM     23  H   UNL     1      17.219  94.424  -3.097  1.00  0.00     0.211 HD
ENDBRANCH   2  22
BRANCH   3  24
ATOM     24  O   UNL     1      14.406  92.516  -2.969  1.00  0.00    -0.387 OA
ATOM     25  H   UNL     1      13.771  91.855  -2.605  1.00  0.00     0.211 HD
ENDBRANCH   3  24
BRANCH   5  26
ATOM     26  O   UNL     1      12.349  96.787  -2.197  1.00  0.00    -0.454 OA
BRANCH  26  27
ATOM     27  C   UNL     1      12.224  98.034  -1.565  1.00  0.00     0.214 A 
ATOM     28  C   UNL     1      11.175  98.289  -0.660  1.00  0.00     0.180 A 
ATOM     29  C   UNL     1      13.125  99.060  -1.855  1.00  0.00     0.239 A 
ATOM     30  O   UNL     1      11.023  99.499  -0.135  1.00  0.00    -0.452 OA
ATOM     31  C   UNL     1      12.932 100.339  -1.296  1.00  0.00     0.111 A 
ATOM     32  O   UNL     1      14.104  98.824  -2.617  1.00  0.00    -0.285 OA
ATOM     33  C   UNL     1      11.844 100.513  -0.411  1.00  0.00     0.146 A 
ATOM     34  C   UNL     1      13.777 101.445  -1.568  1.00  0.00     0.134 A 
ATOM     35  C   UNL     1      11.628 101.746   0.211  1.00  0.00     0.094 A 
ATOM     36  C   UNL     1      13.560 102.668  -0.914  1.00  0.00     0.093 A 
ATOM     37  C   UNL     1      12.493 102.821  -0.027  1.00  0.00     0.123 A 
BRANCH  28  38
ATOM     38  C   UNL     1      10.213  97.238  -0.268  1.00  0.00     0.025 A 
ATOM     39  C   UNL     1       9.090  97.572   0.500  1.00  0.00     0.062 A 
ATOM     40  C   UNL     1      10.461  95.889  -0.573  1.00  0.00     0.016 A 
ATOM     41  C   UNL     1       8.222  96.577   0.964  1.00  0.00     0.158 A 
ATOM     42  C   UNL     1       9.607  94.892  -0.095  1.00  0.00     0.051 A 
ATOM     43  C   UNL     1       8.487  95.225   0.675  1.00  0.00     0.157 A 
BRANCH  41  44
ATOM     44  O   UNL     1       7.114  96.946   1.728  1.00  0.00    -0.504 OA
ATOM     45  H   UNL     1       6.656  96.300   2.361  1.00  0.00     0.293 HD
ENDBRANCH  41  44
BRANCH  43  46
ATOM     46  O   UNL     1       7.655  94.226   1.175  1.00  0.00    -0.504 OA
ATOM     47  H   UNL     1       7.408  93.413   0.619  1.00  0.00     0.293 HD
ENDBRANCH  43  46
ENDBRANCH  28  38
BRANCH  34  48
ATOM     48  O   UNL     1      14.832 101.332  -2.476  1.00  0.00    -0.507 OA
ATOM     49  H   UNL     1      14.809 101.776  -3.382  1.00  0.00     0.293 HD
ENDBRANCH  34  48
BRANCH  37  50
ATOM     50  O   UNL     1      12.303 104.033   0.618  1.00  0.00    -0.508 OA
ATOM     51  H   UNL     1      12.532 104.910   0.171  1.00  0.00     0.293 HD
ENDBRANCH  37  50
ENDBRANCH  26  27
ENDBRANCH   5  26
BRANCH   4  52
ATOM     52  O   UNL     1      13.811  94.964  -4.101  1.00  0.00    -0.384 OA
ATOM     53  H   UNL     1      14.313  94.172  -4.435  1.00  0.00     0.211 HD
ENDBRANCH   4  52
TORSDOF 16
ENDMDL
