MODEL 1
REMARK VINA RESULT:    -3.259      0.000      0.000
REMARK INTER + INTRA:         -12.946
REMARK INTER:                  -8.214
REMARK INTRA:                  -4.732
REMARK UNBOUND:                -4.732
REMARK SMILES CCCCCCCCCCCCCCCCCCCCCCCCCCCC(=O)[O-]
REMARK SMILES IDX 15 1 16 2 17 3 18 4 19 5 20 6 21 7 22 8 23 9 24 10 25 11
REMARK SMILES IDX 26 12 27 13 28 14 29 15 30 16 14 17 13 18 12 19 11 20 10 21
REMARK SMILES IDX 9 22 8 23 7 24 6 25 5 26 4 27 3 28 2 29 1 30
REMARK H PARENT
REMARK Flexibility Score: inf
ROOT
ATOM      1  C   UNL     1      66.698  31.632  57.052  1.00  0.00     0.000 C 
ENDROOT
BRANCH   1   2
ATOM      2  C   UNL     1      67.993  32.447  56.856  1.00  0.00     0.000 C 
BRANCH   2   3
ATOM      3  C   UNL     1      68.033  33.308  55.580  1.00  0.00     0.000 C 
BRANCH   3   4
ATOM      4  C   UNL     1      68.223  34.802  55.879  1.00  0.00     0.000 C 
BRANCH   4   5
ATOM      5  C   UNL     1      68.979  35.009  57.201  1.00  0.00     0.000 C 
BRANCH   5   6
ATOM      6  C   UNL     1      70.094  36.061  57.074  1.00  0.00     0.000 C 
BRANCH   6   7
ATOM      7  C   UNL     1      70.737  36.054  55.676  1.00  0.00     0.000 C 
BRANCH   7   8
ATOM      8  C   UNL     1      72.272  36.068  55.730  1.00  0.00     0.000 C 
BRANCH   8   9
ATOM      9  C   UNL     1      72.890  34.680  55.481  1.00  0.00     0.000 C 
BRANCH   9  10
ATOM     10  C   UNL     1      71.834  33.651  55.025  1.00  0.00     0.000 C 
BRANCH  10  11
ATOM     11  C   UNL     1      71.647  32.473  56.000  1.00  0.00     0.000 C 
BRANCH  11  12
ATOM     12  C   UNL     1      71.991  32.833  57.451  1.00  0.00     0.006 C 
BRANCH  12  13
ATOM     13  C   UNL     1      71.367  31.834  58.432  1.00  0.00     0.053 C 
BRANCH  13  14
ATOM     14  C   UNL     1      71.691  32.208  59.845  1.00  0.00     0.041 C 
ATOM     15  O   UNL     1      71.696  33.419  60.197  1.00  0.00    -0.550 OA
ATOM     16  O   UNL     1      72.035  31.223  60.763  1.00  0.00    -0.550 OA
ENDBRANCH  13  14
ENDBRANCH  12  13
ENDBRANCH  11  12
ENDBRANCH  10  11
ENDBRANCH   9  10
ENDBRANCH   8   9
ENDBRANCH   7   8
ENDBRANCH   6   7
ENDBRANCH   5   6
ENDBRANCH   4   5
ENDBRANCH   3   4
ENDBRANCH   2   3
ENDBRANCH   1   2
BRANCH   1  17
ATOM     17  C   UNL     1      65.396  32.452  56.969  1.00  0.00     0.000 C 
BRANCH  17  18
ATOM     18  C   UNL     1      65.258  33.563  58.031  1.00  0.00     0.000 C 
BRANCH  18  19
ATOM     19  C   UNL     1      64.812  34.933  57.480  1.00  0.00     0.000 C 
BRANCH  19  20
ATOM     20  C   UNL     1      65.460  36.149  58.166  1.00  0.00     0.000 C 
BRANCH  20  21
ATOM     21  C   UNL     1      66.186  35.840  59.490  1.00  0.00     0.000 C 
BRANCH  21  22
ATOM     22  C   UNL     1      65.576  36.551  60.717  1.00  0.00    -0.000 C 
BRANCH  22  23
ATOM     23  C   UNL     1      64.364  35.799  61.297  1.00  0.00    -0.000 C 
BRANCH  23  24
ATOM     24  C   UNL     1      63.019  36.457  60.936  1.00  0.00    -0.000 C 
BRANCH  24  25
ATOM     25  C   UNL     1      62.033  35.560  60.166  1.00  0.00    -0.000 C 
BRANCH  25  26
ATOM     26  C   UNL     1      62.395  34.067  60.239  1.00  0.00    -0.000 C 
BRANCH  26  27
ATOM     27  C   UNL     1      61.469  33.185  59.383  1.00  0.00    -0.000 C 
BRANCH  27  28
ATOM     28  C   UNL     1      61.721  31.669  59.491  1.00  0.00    -0.000 C 
BRANCH  28  29
ATOM     29  C   UNL     1      61.075  31.042  60.733  1.00  0.00    -0.003 C 
ATOM     30  C   UNL     1      62.059  30.131  61.463  1.00  0.00     0.004 C 
ENDBRANCH  28  29
ENDBRANCH  27  28
ENDBRANCH  26  27
ENDBRANCH  25  26
ENDBRANCH  24  25
ENDBRANCH  23  24
ENDBRANCH  22  23
ENDBRANCH  21  22
ENDBRANCH  20  21
ENDBRANCH  19  20
ENDBRANCH  18  19
ENDBRANCH  17  18
ENDBRANCH   1  17
TORSDOF 26
ENDMDL
MODEL 2
REMARK VINA RESULT:    -3.231     10.186     13.210
REMARK INTER + INTRA:         -12.873
REMARK INTER:                  -7.478
REMARK INTRA:                  -5.395
REMARK UNBOUND:                -4.732
REMARK SMILES CCCCCCCCCCCCCCCCCCCCCCCCCCCC(=O)[O-]
REMARK SMILES IDX 15 1 16 2 17 3 18 4 19 5 20 6 21 7 22 8 23 9 24 10 25 11
REMARK SMILES IDX 26 12 27 13 28 14 29 15 30 16 14 17 13 18 12 19 11 20 10 21
REMARK SMILES IDX 9 22 8 23 7 24 6 25 5 26 4 27 3 28 2 29 1 30
REMARK H PARENT
REMARK Flexibility Score: inf
ROOT
ATOM      1  C   UNL     1      56.529  26.797  51.346  1.00  0.00     0.000 C 
ENDROOT
BRANCH   1   2
ATOM      2  C   UNL     1      57.046  28.236  51.541  1.00  0.00     0.000 C 
BRANCH   2   3
ATOM      3  C   UNL     1      57.449  28.964  50.245  1.00  0.00     0.000 C 
BRANCH   3   4
ATOM      4  C   UNL     1      58.923  29.392  50.240  1.00  0.00     0.000 C 
BRANCH   4   5
ATOM      5  C   UNL     1      59.575  29.112  48.876  1.00  0.00     0.000 C 
BRANCH   5   6
ATOM      6  C   UNL     1      60.658  28.024  48.963  1.00  0.00     0.000 C 
BRANCH   6   7
ATOM      7  C   UNL     1      60.128  26.733  49.611  1.00  0.00     0.000 C 
BRANCH   7   8
ATOM      8  C   UNL     1      60.947  26.307  50.839  1.00  0.00     0.000 C 
BRANCH   8   9
ATOM      9  C   UNL     1      60.315  26.765  52.166  1.00  0.00     0.000 C 
BRANCH   9  10
ATOM     10  C   UNL     1      61.072  27.961  52.783  1.00  0.00     0.000 C 
BRANCH  10  11
ATOM     11  C   UNL     1      62.481  28.177  52.200  1.00  0.00     0.000 C 
BRANCH  11  12
ATOM     12  C   UNL     1      62.929  29.644  52.238  1.00  0.00     0.006 C 
BRANCH  12  13
ATOM     13  C   UNL     1      62.069  30.510  51.312  1.00  0.00     0.053 C 
BRANCH  13  14
ATOM     14  C   UNL     1      62.830  30.883  50.078  1.00  0.00     0.041 C 
ATOM     15  O   UNL     1      62.608  31.983  49.502  1.00  0.00    -0.550 OA
ATOM     16  O   UNL     1      63.752  29.996  49.537  1.00  0.00    -0.550 OA
ENDBRANCH  13  14
ENDBRANCH  12  13
ENDBRANCH  11  12
ENDBRANCH  10  11
ENDBRANCH   9  10
ENDBRANCH   8   9
ENDBRANCH   7   8
ENDBRANCH   6   7
ENDBRANCH   5   6
ENDBRANCH   4   5
ENDBRANCH   3   4
ENDBRANCH   2   3
ENDBRANCH   1   2
BRANCH   1  17
ATOM     17  C   UNL     1      56.610  26.268  49.900  1.00  0.00     0.000 C 
BRANCH  17  18
ATOM     18  C   UNL     1      55.250  26.093  49.194  1.00  0.00     0.000 C 
BRANCH  18  19
ATOM     19  C   UNL     1      54.032  26.581  50.005  1.00  0.00     0.000 C 
BRANCH  19  20
ATOM     20  C   UNL     1      53.311  27.809  49.418  1.00  0.00     0.000 C 
BRANCH  20  21
ATOM     21  C   UNL     1      53.861  29.171  49.883  1.00  0.00     0.000 C 
BRANCH  21  22
ATOM     22  C   UNL     1      52.892  29.956  50.794  1.00  0.00    -0.000 C 
BRANCH  22  23
ATOM     23  C   UNL     1      53.366  30.010  52.257  1.00  0.00    -0.000 C 
BRANCH  23  24
ATOM     24  C   UNL     1      54.618  30.884  52.454  1.00  0.00    -0.000 C 
BRANCH  24  25
ATOM     25  C   UNL     1      55.119  31.001  53.905  1.00  0.00    -0.000 C 
BRANCH  25  26
ATOM     26  C   UNL     1      55.393  29.636  54.558  1.00  0.00    -0.000 C 
BRANCH  26  27
ATOM     27  C   UNL     1      56.864  29.457  54.972  1.00  0.00    -0.000 C 
BRANCH  27  28
ATOM     28  C   UNL     1      57.709  30.745  54.969  1.00  0.00    -0.000 C 
BRANCH  28  29
ATOM     29  C   UNL     1      58.807  30.738  53.896  1.00  0.00    -0.003 C 
ATOM     30  C   UNL     1      58.660  31.928  52.952  1.00  0.00     0.004 C 
ENDBRANCH  28  29
ENDBRANCH  27  28
ENDBRANCH  26  27
ENDBRANCH  25  26
ENDBRANCH  24  25
ENDBRANCH  23  24
ENDBRANCH  22  23
ENDBRANCH  21  22
ENDBRANCH  20  21
ENDBRANCH  19  20
ENDBRANCH  18  19
ENDBRANCH  17  18
ENDBRANCH   1  17
TORSDOF 26
ENDMDL
MODEL 3
REMARK VINA RESULT:    -3.185     11.229     14.779
REMARK INTER + INTRA:         -12.759
REMARK INTER:                  -7.484
REMARK INTRA:                  -5.275
REMARK UNBOUND:                -4.732
REMARK SMILES CCCCCCCCCCCCCCCCCCCCCCCCCCCC(=O)[O-]
REMARK SMILES IDX 15 1 16 2 17 3 18 4 19 5 20 6 21 7 22 8 23 9 24 10 25 11
REMARK SMILES IDX 26 12 27 13 28 14 29 15 30 16 14 17 13 18 12 19 11 20 10 21
REMARK SMILES IDX 9 22 8 23 7 24 6 25 5 26 4 27 3 28 2 29 1 30
REMARK H PARENT
REMARK Flexibility Score: inf
ROOT
ATOM      1  C   UNL     1      55.484  27.142  50.686  1.00  0.00     0.000 C 
ENDROOT
BRANCH   1   2
ATOM      2  C   UNL     1      54.938  28.414  50.007  1.00  0.00     0.000 C 
BRANCH   2   3
ATOM      3  C   UNL     1      53.406  28.565  50.046  1.00  0.00     0.000 C 
BRANCH   3   4
ATOM      4  C   UNL     1      52.959  29.984  50.427  1.00  0.00     0.000 C 
BRANCH   4   5
ATOM      5  C   UNL     1      54.037  30.697  51.259  1.00  0.00     0.000 C 
BRANCH   5   6
ATOM      6  C   UNL     1      53.611  30.884  52.725  1.00  0.00     0.000 C 
BRANCH   6   7
ATOM      7  C   UNL     1      53.899  29.632  53.574  1.00  0.00     0.000 C 
BRANCH   7   8
ATOM      8  C   UNL     1      55.397  29.300  53.648  1.00  0.00     0.000 C 
BRANCH   8   9
ATOM      9  C   UNL     1      56.059  29.816  54.937  1.00  0.00     0.000 C 
BRANCH   9  10
ATOM     10  C   UNL     1      57.125  30.894  54.648  1.00  0.00     0.000 C 
BRANCH  10  11
ATOM     11  C   UNL     1      56.545  32.303  54.425  1.00  0.00     0.000 C 
BRANCH  11  12
ATOM     12  C   UNL     1      56.855  32.869  53.033  1.00  0.00     0.006 C 
BRANCH  12  13
ATOM     13  C   UNL     1      58.129  33.720  53.052  1.00  0.00     0.053 C 
BRANCH  13  14
ATOM     14  C   UNL     1      57.813  35.151  52.751  1.00  0.00     0.041 C 
ATOM     15  O   UNL     1      58.476  36.077  53.294  1.00  0.00    -0.550 OA
ATOM     16  O   UNL     1      56.756  35.466  51.907  1.00  0.00    -0.550 OA
ENDBRANCH  13  14
ENDBRANCH  12  13
ENDBRANCH  11  12
ENDBRANCH  10  11
ENDBRANCH   9  10
ENDBRANCH   8   9
ENDBRANCH   7   8
ENDBRANCH   6   7
ENDBRANCH   5   6
ENDBRANCH   4   5
ENDBRANCH   3   4
ENDBRANCH   2   3
ENDBRANCH   1   2
BRANCH   1  17
ATOM     17  C   UNL     1      56.231  26.175  49.747  1.00  0.00     0.000 C 
BRANCH  17  18
ATOM     18  C   UNL     1      57.705  25.915  50.119  1.00  0.00     0.000 C 
BRANCH  18  19
ATOM     19  C   UNL     1      57.947  25.574  51.604  1.00  0.00     0.000 C 
BRANCH  19  20
ATOM     20  C   UNL     1      59.049  26.404  52.288  1.00  0.00     0.000 C 
BRANCH  20  21
ATOM     21  C   UNL     1      58.579  27.744  52.887  1.00  0.00     0.000 C 
BRANCH  21  22
ATOM     22  C   UNL     1      59.234  28.982  52.238  1.00  0.00    -0.000 C 
BRANCH  22  23
ATOM     23  C   UNL     1      58.283  29.725  51.283  1.00  0.00    -0.000 C 
BRANCH  23  24
ATOM     24  C   UNL     1      58.429  29.275  49.817  1.00  0.00    -0.000 C 
BRANCH  24  25
ATOM     25  C   UNL     1      59.850  29.386  49.233  1.00  0.00    -0.000 C 
BRANCH  25  26
ATOM     26  C   UNL     1      60.508  28.018  48.989  1.00  0.00    -0.000 C 
BRANCH  26  27
ATOM     27  C   UNL     1      61.829  27.845  49.759  1.00  0.00    -0.000 C 
BRANCH  27  28
ATOM     28  C   UNL     1      62.264  26.387  50.000  1.00  0.00    -0.000 C 
BRANCH  28  29
ATOM     29  C   UNL     1      61.200  25.367  49.574  1.00  0.00    -0.003 C 
ATOM     30  C   UNL     1      61.489  23.991  50.169  1.00  0.00     0.004 C 
ENDBRANCH  28  29
ENDBRANCH  27  28
ENDBRANCH  26  27
ENDBRANCH  25  26
ENDBRANCH  24  25
ENDBRANCH  23  24
ENDBRANCH  22  23
ENDBRANCH  21  22
ENDBRANCH  20  21
ENDBRANCH  19  20
ENDBRANCH  18  19
ENDBRANCH  17  18
ENDBRANCH   1  17
TORSDOF 26
ENDMDL
MODEL 4
REMARK VINA RESULT:    -3.184     10.548     13.486
REMARK INTER + INTRA:         -12.755
REMARK INTER:                  -8.072
REMARK INTRA:                  -4.683
REMARK UNBOUND:                -4.732
REMARK SMILES CCCCCCCCCCCCCCCCCCCCCCCCCCCC(=O)[O-]
REMARK SMILES IDX 15 1 16 2 17 3 18 4 19 5 20 6 21 7 22 8 23 9 24 10 25 11
REMARK SMILES IDX 26 12 27 13 28 14 29 15 30 16 14 17 13 18 12 19 11 20 10 21
REMARK SMILES IDX 9 22 8 23 7 24 6 25 5 26 4 27 3 28 2 29 1 30
REMARK H PARENT
REMARK Flexibility Score: inf
ROOT
ATOM      1  C   UNL     1      56.601  25.890  50.984  1.00  0.00     0.000 C 
ENDROOT
BRANCH   1   2
ATOM      2  C   UNL     1      55.926  26.472  52.242  1.00  0.00     0.000 C 
BRANCH   2   3
ATOM      3  C   UNL     1      56.783  27.475  53.036  1.00  0.00     0.000 C 
BRANCH   3   4
ATOM      4  C   UNL     1      58.246  27.505  52.569  1.00  0.00     0.000 C 
BRANCH   4   5
ATOM      5  C   UNL     1      58.790  28.942  52.553  1.00  0.00     0.000 C 
BRANCH   5   6
ATOM      6  C   UNL     1      58.209  29.771  51.395  1.00  0.00     0.000 C 
BRANCH   6   7
ATOM      7  C   UNL     1      58.399  29.074  50.036  1.00  0.00     0.000 C 
BRANCH   7   8
ATOM      8  C   UNL     1      59.765  29.376  49.401  1.00  0.00     0.000 C 
BRANCH   8   9
ATOM      9  C   UNL     1      60.450  28.120  48.835  1.00  0.00     0.000 C 
BRANCH   9  10
ATOM     10  C   UNL     1      59.765  26.822  49.315  1.00  0.00     0.000 C 
BRANCH  10  11
ATOM     11  C   UNL     1      60.748  25.711  49.728  1.00  0.00     0.000 C 
BRANCH  11  12
ATOM     12  C   UNL     1      61.728  26.152  50.823  1.00  0.00     0.006 C 
BRANCH  12  13
ATOM     13  C   UNL     1      63.181  25.952  50.378  1.00  0.00     0.053 C 
BRANCH  13  14
ATOM     14  C   UNL     1      63.773  27.245  49.909  1.00  0.00     0.041 C 
ATOM     15  O   UNL     1      63.952  27.453  48.679  1.00  0.00    -0.550 OA
ATOM     16  O   UNL     1      64.173  28.202  50.834  1.00  0.00    -0.550 OA
ENDBRANCH  13  14
ENDBRANCH  12  13
ENDBRANCH  11  12
ENDBRANCH  10  11
ENDBRANCH   9  10
ENDBRANCH   8   9
ENDBRANCH   7   8
ENDBRANCH   6   7
ENDBRANCH   5   6
ENDBRANCH   4   5
ENDBRANCH   3   4
ENDBRANCH   2   3
ENDBRANCH   1   2
BRANCH   1  17
ATOM     17  C   UNL     1      56.065  26.436  49.647  1.00  0.00     0.000 C 
BRANCH  17  18
ATOM     18  C   UNL     1      54.576  26.141  49.374  1.00  0.00     0.000 C 
BRANCH  18  19
ATOM     19  C   UNL     1      53.652  27.375  49.427  1.00  0.00     0.000 C 
BRANCH  19  20
ATOM     20  C   UNL     1      54.358  28.700  49.769  1.00  0.00     0.000 C 
BRANCH  20  21
ATOM     21  C   UNL     1      53.762  29.466  50.966  1.00  0.00     0.000 C 
BRANCH  21  22
ATOM     22  C   UNL     1      54.760  30.422  51.654  1.00  0.00    -0.000 C 
BRANCH  22  23
ATOM     23  C   UNL     1      54.066  31.616  52.335  1.00  0.00    -0.000 C 
BRANCH  23  24
ATOM     24  C   UNL     1      54.805  32.103  53.595  1.00  0.00    -0.000 C 
BRANCH  24  25
ATOM     25  C   UNL     1      55.988  31.227  54.045  1.00  0.00    -0.000 C 
BRANCH  25  26
ATOM     26  C   UNL     1      57.259  32.040  54.344  1.00  0.00    -0.000 C 
BRANCH  26  27
ATOM     27  C   UNL     1      57.616  33.025  53.217  1.00  0.00    -0.000 C 
BRANCH  27  28
ATOM     28  C   UNL     1      57.776  34.494  53.655  1.00  0.00    -0.000 C 
BRANCH  28  29
ATOM     29  C   UNL     1      57.496  35.490  52.522  1.00  0.00    -0.003 C 
ATOM     30  C   UNL     1      56.089  35.304  51.961  1.00  0.00     0.004 C 
ENDBRANCH  28  29
ENDBRANCH  27  28
ENDBRANCH  26  27
ENDBRANCH  25  26
ENDBRANCH  24  25
ENDBRANCH  23  24
ENDBRANCH  22  23
ENDBRANCH  21  22
ENDBRANCH  20  21
ENDBRANCH  19  20
ENDBRANCH  18  19
ENDBRANCH  17  18
ENDBRANCH   1  17
TORSDOF 26
ENDMDL
MODEL 5
REMARK VINA RESULT:    -3.176     13.313     16.782
REMARK INTER + INTRA:         -12.735
REMARK INTER:                  -9.274
REMARK INTRA:                  -3.461
REMARK UNBOUND:                -4.732
REMARK SMILES CCCCCCCCCCCCCCCCCCCCCCCCCCCC(=O)[O-]
REMARK SMILES IDX 15 1 16 2 17 3 18 4 19 5 20 6 21 7 22 8 23 9 24 10 25 11
REMARK SMILES IDX 26 12 27 13 28 14 29 15 30 16 14 17 13 18 12 19 11 20 10 21
REMARK SMILES IDX 9 22 8 23 7 24 6 25 5 26 4 27 3 28 2 29 1 30
REMARK H PARENT
REMARK Flexibility Score: inf
ROOT
ATOM      1  C   UNL     1      59.310  25.841  52.271  1.00  0.00     0.000 C 
ENDROOT
BRANCH   1   2
ATOM      2  C   UNL     1      58.881  25.263  50.908  1.00  0.00     0.000 C 
BRANCH   2   3
ATOM      3  C   UNL     1      59.463  25.988  49.681  1.00  0.00     0.000 C 
BRANCH   3   4
ATOM      4  C   UNL     1      60.446  27.104  50.063  1.00  0.00     0.000 C 
BRANCH   4   5
ATOM      5  C   UNL     1      60.439  28.228  49.014  1.00  0.00     0.000 C 
BRANCH   5   6
ATOM      6  C   UNL     1      59.327  29.259  49.275  1.00  0.00     0.000 C 
BRANCH   6   7
ATOM      7  C   UNL     1      59.066  29.456  50.779  1.00  0.00     0.000 C 
BRANCH   7   8
ATOM      8  C   UNL     1      57.592  29.243  51.156  1.00  0.00     0.000 C 
BRANCH   8   9
ATOM      9  C   UNL     1      56.856  28.305  50.182  1.00  0.00     0.000 C 
BRANCH   9  10
ATOM     10  C   UNL     1      55.506  27.822  50.754  1.00  0.00     0.000 C 
BRANCH  10  11
ATOM     11  C   UNL     1      54.368  27.778  49.718  1.00  0.00     0.000 C 
BRANCH  11  12
ATOM     12  C   UNL     1      53.444  29.001  49.788  1.00  0.00     0.006 C 
BRANCH  12  13
ATOM     13  C   UNL     1      54.103  30.151  50.557  1.00  0.00     0.053 C 
BRANCH  13  14
ATOM     14  C   UNL     1      53.350  30.445  51.816  1.00  0.00     0.041 C 
ATOM     15  O   UNL     1      53.180  31.637  52.192  1.00  0.00    -0.550 OA
ATOM     16  O   UNL     1      52.875  29.402  52.602  1.00  0.00    -0.550 OA
ENDBRANCH  13  14
ENDBRANCH  12  13
ENDBRANCH  11  12
ENDBRANCH  10  11
ENDBRANCH   9  10
ENDBRANCH   8   9
ENDBRANCH   7   8
ENDBRANCH   6   7
ENDBRANCH   5   6
ENDBRANCH   4   5
ENDBRANCH   3   4
ENDBRANCH   2   3
ENDBRANCH   1   2
BRANCH   1  17
ATOM     17  C   UNL     1      60.237  24.931  53.100  1.00  0.00     0.000 C 
BRANCH  17  18
ATOM     18  C   UNL     1      60.902  23.786  52.309  1.00  0.00     0.000 C 
BRANCH  18  19
ATOM     19  C   UNL     1      62.305  24.110  51.756  1.00  0.00     0.000 C 
BRANCH  19  20
ATOM     20  C   UNL     1      62.468  23.902  50.239  1.00  0.00     0.000 C 
BRANCH  20  21
ATOM     21  C   UNL     1      61.520  22.856  49.620  1.00  0.00     0.000 C 
BRANCH  21  22
ATOM     22  C   UNL     1      62.070  21.415  49.658  1.00  0.00    -0.000 C 
BRANCH  22  23
ATOM     23  C   UNL     1      60.972  20.366  49.909  1.00  0.00    -0.000 C 
BRANCH  23  24
ATOM     24  C   UNL     1      61.527  19.023  50.418  1.00  0.00    -0.000 C 
BRANCH  24  25
ATOM     25  C   UNL     1      60.706  17.780  50.026  1.00  0.00    -0.000 C 
BRANCH  25  26
ATOM     26  C   UNL     1      59.402  18.129  49.289  1.00  0.00    -0.000 C 
BRANCH  26  27
ATOM     27  C   UNL     1      58.145  17.700  50.066  1.00  0.00    -0.000 C 
BRANCH  27  28
ATOM     28  C   UNL     1      57.284  18.856  50.612  1.00  0.00    -0.000 C 
BRANCH  28  29
ATOM     29  C   UNL     1      57.882  19.506  51.867  1.00  0.00    -0.003 C 
ATOM     30  C   UNL     1      58.342  18.449  52.867  1.00  0.00     0.004 C 
ENDBRANCH  28  29
ENDBRANCH  27  28
ENDBRANCH  26  27
ENDBRANCH  25  26
ENDBRANCH  24  25
ENDBRANCH  23  24
ENDBRANCH  22  23
ENDBRANCH  21  22
ENDBRANCH  20  21
ENDBRANCH  19  20
ENDBRANCH  18  19
ENDBRANCH  17  18
ENDBRANCH   1  17
TORSDOF 26
ENDMDL
MODEL 6
REMARK VINA RESULT:    -3.151     12.417     15.775
REMARK INTER + INTRA:         -12.672
REMARK INTER:                  -8.525
REMARK INTRA:                  -4.147
REMARK UNBOUND:                -4.732
REMARK SMILES CCCCCCCCCCCCCCCCCCCCCCCCCCCC(=O)[O-]
REMARK SMILES IDX 15 1 16 2 17 3 18 4 19 5 20 6 21 7 22 8 23 9 24 10 25 11
REMARK SMILES IDX 26 12 27 13 28 14 29 15 30 16 14 17 13 18 12 19 11 20 10 21
REMARK SMILES IDX 9 22 8 23 7 24 6 25 5 26 4 27 3 28 2 29 1 30
REMARK H PARENT
REMARK Flexibility Score: inf
ROOT
ATOM      1  C   UNL     1      55.249  25.105  52.768  1.00  0.00     0.000 C 
ENDROOT
BRANCH   1   2
ATOM      2  C   UNL     1      55.049  26.492  53.410  1.00  0.00     0.000 C 
BRANCH   2   3
ATOM      3  C   UNL     1      56.348  27.250  53.739  1.00  0.00     0.000 C 
BRANCH   3   4
ATOM      4  C   UNL     1      57.545  26.312  53.951  1.00  0.00     0.000 C 
BRANCH   4   5
ATOM      5  C   UNL     1      58.862  26.999  53.555  1.00  0.00     0.000 C 
BRANCH   5   6
ATOM      6  C   UNL     1      59.723  26.117  52.635  1.00  0.00     0.000 C 
BRANCH   6   7
ATOM      7  C   UNL     1      58.868  25.155  51.792  1.00  0.00     0.000 C 
BRANCH   7   8
ATOM      8  C   UNL     1      59.587  24.684  50.519  1.00  0.00     0.000 C 
BRANCH   8   9
ATOM      9  C   UNL     1      60.563  23.522  50.780  1.00  0.00     0.000 C 
BRANCH   9  10
ATOM     10  C   UNL     1      61.282  23.071  49.491  1.00  0.00     0.000 C 
BRANCH  10  11
ATOM     11  C   UNL     1      61.544  21.555  49.419  1.00  0.00     0.000 C 
BRANCH  11  12
ATOM     12  C   UNL     1      60.717  20.753  50.432  1.00  0.00     0.006 C 
BRANCH  12  13
ATOM     13  C   UNL     1      60.748  19.255  50.110  1.00  0.00     0.053 C 
BRANCH  13  14
ATOM     14  C   UNL     1      59.473  18.596  50.533  1.00  0.00     0.041 C 
ATOM     15  O   UNL     1      59.495  17.622  51.333  1.00  0.00    -0.550 OA
ATOM     16  O   UNL     1      58.261  19.027  50.006  1.00  0.00    -0.550 OA
ENDBRANCH  13  14
ENDBRANCH  12  13
ENDBRANCH  11  12
ENDBRANCH  10  11
ENDBRANCH   9  10
ENDBRANCH   8   9
ENDBRANCH   7   8
ENDBRANCH   6   7
ENDBRANCH   5   6
ENDBRANCH   4   5
ENDBRANCH   3   4
ENDBRANCH   2   3
ENDBRANCH   1   2
BRANCH   1  17
ATOM     17  C   UNL     1      53.996  24.515  52.092  1.00  0.00     0.000 C 
BRANCH  17  18
ATOM     18  C   UNL     1      53.507  25.282  50.847  1.00  0.00     0.000 C 
BRANCH  18  19
ATOM     19  C   UNL     1      54.378  25.096  49.588  1.00  0.00     0.000 C 
BRANCH  19  20
ATOM     20  C   UNL     1      55.326  26.269  49.277  1.00  0.00     0.000 C 
BRANCH  20  21
ATOM     21  C   UNL     1      54.835  27.648  49.757  1.00  0.00     0.000 C 
BRANCH  21  22
ATOM     22  C   UNL     1      55.943  28.522  50.381  1.00  0.00    -0.000 C 
BRANCH  22  23
ATOM     23  C   UNL     1      57.353  27.951  50.146  1.00  0.00    -0.000 C 
BRANCH  23  24
ATOM     24  C   UNL     1      58.469  28.991  50.366  1.00  0.00    -0.000 C 
BRANCH  24  25
ATOM     25  C   UNL     1      59.432  29.184  49.180  1.00  0.00    -0.000 C 
BRANCH  25  26
ATOM     26  C   UNL     1      60.352  27.973  48.950  1.00  0.00    -0.000 C 
BRANCH  26  27
ATOM     27  C   UNL     1      61.747  28.157  49.573  1.00  0.00    -0.000 C 
BRANCH  27  28
ATOM     28  C   UNL     1      62.317  26.916  50.287  1.00  0.00    -0.000 C 
BRANCH  28  29
ATOM     29  C   UNL     1      63.627  26.415  49.665  1.00  0.00    -0.003 C 
ATOM     30  C   UNL     1      64.809  27.273  50.108  1.00  0.00     0.004 C 
ENDBRANCH  28  29
ENDBRANCH  27  28
ENDBRANCH  26  27
ENDBRANCH  25  26
ENDBRANCH  24  25
ENDBRANCH  23  24
ENDBRANCH  22  23
ENDBRANCH  21  22
ENDBRANCH  20  21
ENDBRANCH  19  20
ENDBRANCH  18  19
ENDBRANCH  17  18
ENDBRANCH   1  17
TORSDOF 26
ENDMDL
MODEL 7
REMARK VINA RESULT:    -3.137     11.647     15.015
REMARK INTER + INTRA:         -12.636
REMARK INTER:                  -6.623
REMARK INTRA:                  -6.013
REMARK UNBOUND:                -4.732
REMARK SMILES CCCCCCCCCCCCCCCCCCCCCCCCCCCC(=O)[O-]
REMARK SMILES IDX 15 1 16 2 17 3 18 4 19 5 20 6 21 7 22 8 23 9 24 10 25 11
REMARK SMILES IDX 26 12 27 13 28 14 29 15 30 16 14 17 13 18 12 19 11 20 10 21
REMARK SMILES IDX 9 22 8 23 7 24 6 25 5 26 4 27 3 28 2 29 1 30
REMARK H PARENT
REMARK Flexibility Score: inf
ROOT
ATOM      1  C   UNL     1      58.592  29.241  50.532  1.00  0.00     0.000 C 
ENDROOT
BRANCH   1   2
ATOM      2  C   UNL     1      57.076  28.963  50.497  1.00  0.00     0.000 C 
BRANCH   2   3
ATOM      3  C   UNL     1      56.665  27.543  50.927  1.00  0.00     0.000 C 
BRANCH   3   4
ATOM      4  C   UNL     1      56.421  26.609  49.733  1.00  0.00     0.000 C 
BRANCH   4   5
ATOM      5  C   UNL     1      55.037  25.945  49.824  1.00  0.00     0.000 C 
BRANCH   5   6
ATOM      6  C   UNL     1      53.981  26.885  50.431  1.00  0.00     0.000 C 
BRANCH   6   7
ATOM      7  C   UNL     1      53.308  27.762  49.360  1.00  0.00     0.000 C 
BRANCH   7   8
ATOM      8  C   UNL     1      53.260  29.246  49.755  1.00  0.00     0.000 C 
BRANCH   8   9
ATOM      9  C   UNL     1      53.494  29.471  51.260  1.00  0.00     0.000 C 
BRANCH   9  10
ATOM     10  C   UNL     1      53.924  30.921  51.567  1.00  0.00     0.000 C 
BRANCH  10  11
ATOM     11  C   UNL     1      54.521  31.112  52.974  1.00  0.00     0.000 C 
BRANCH  11  12
ATOM     12  C   UNL     1      55.992  31.547  52.950  1.00  0.00     0.006 C 
BRANCH  12  13
ATOM     13  C   UNL     1      56.244  32.700  53.927  1.00  0.00     0.053 C 
BRANCH  13  14
ATOM     14  C   UNL     1      56.933  32.205  55.161  1.00  0.00     0.041 C 
ATOM     15  O   UNL     1      58.188  32.085  55.184  1.00  0.00    -0.550 OA
ATOM     16  O   UNL     1      56.186  31.831  56.271  1.00  0.00    -0.550 OA
ENDBRANCH  13  14
ENDBRANCH  12  13
ENDBRANCH  11  12
ENDBRANCH  10  11
ENDBRANCH   9  10
ENDBRANCH   8   9
ENDBRANCH   7   8
ENDBRANCH   6   7
ENDBRANCH   5   6
ENDBRANCH   4   5
ENDBRANCH   3   4
ENDBRANCH   2   3
ENDBRANCH   1   2
BRANCH   1  17
ATOM     17  C   UNL     1      59.287  29.225  49.157  1.00  0.00     0.000 C 
BRANCH  17  18
ATOM     18  C   UNL     1      60.402  28.171  49.004  1.00  0.00     0.000 C 
BRANCH  18  19
ATOM     19  C   UNL     1      60.529  27.187  50.184  1.00  0.00     0.000 C 
BRANCH  19  20
ATOM     20  C   UNL     1      59.903  25.801  49.943  1.00  0.00     0.000 C 
BRANCH  20  21
ATOM     21  C   UNL     1      59.614  24.986  51.219  1.00  0.00     0.000 C 
BRANCH  21  22
ATOM     22  C   UNL     1      59.523  25.844  52.500  1.00  0.00    -0.000 C 
BRANCH  22  23
ATOM     23  C   UNL     1      58.617  25.215  53.573  1.00  0.00    -0.000 C 
BRANCH  23  24
ATOM     24  C   UNL     1      57.364  24.541  52.983  1.00  0.00    -0.000 C 
BRANCH  24  25
ATOM     25  C   UNL     1      56.151  24.464  53.929  1.00  0.00    -0.000 C 
BRANCH  25  26
ATOM     26  C   UNL     1      55.043  25.467  53.567  1.00  0.00    -0.000 C 
BRANCH  26  27
ATOM     27  C   UNL     1      54.861  26.564  54.631  1.00  0.00    -0.000 C 
BRANCH  27  28
ATOM     28  C   UNL     1      55.464  27.935  54.270  1.00  0.00    -0.000 C 
BRANCH  28  29
ATOM     29  C   UNL     1      56.699  28.286  55.110  1.00  0.00    -0.003 C 
ATOM     30  C   UNL     1      57.866  28.707  54.222  1.00  0.00     0.004 C 
ENDBRANCH  28  29
ENDBRANCH  27  28
ENDBRANCH  26  27
ENDBRANCH  25  26
ENDBRANCH  24  25
ENDBRANCH  23  24
ENDBRANCH  22  23
ENDBRANCH  21  22
ENDBRANCH  20  21
ENDBRANCH  19  20
ENDBRANCH  18  19
ENDBRANCH  17  18
ENDBRANCH   1  17
TORSDOF 26
ENDMDL
MODEL 8
REMARK VINA RESULT:    -3.124      4.004      7.421
REMARK INTER + INTRA:         -12.605
REMARK INTER:                  -6.556
REMARK INTRA:                  -6.048
REMARK UNBOUND:                -4.732
REMARK SMILES CCCCCCCCCCCCCCCCCCCCCCCCCCCC(=O)[O-]
REMARK SMILES IDX 15 1 16 2 17 3 18 4 19 5 20 6 21 7 22 8 23 9 24 10 25 11
REMARK SMILES IDX 26 12 27 13 28 14 29 15 30 16 14 17 13 18 12 19 11 20 10 21
REMARK SMILES IDX 9 22 8 23 7 24 6 25 5 26 4 27 3 28 2 29 1 30
REMARK H PARENT
REMARK Flexibility Score: inf
ROOT
ATOM      1  C   UNL     1      64.878  34.599  61.201  1.00  0.00     0.000 C 
ENDROOT
BRANCH   1   2
ATOM      2  C   UNL     1      64.264  36.012  61.148  1.00  0.00     0.000 C 
BRANCH   2   3
ATOM      3  C   UNL     1      64.226  36.652  59.748  1.00  0.00     0.000 C 
BRANCH   3   4
ATOM      4  C   UNL     1      62.795  36.898  59.248  1.00  0.00     0.000 C 
BRANCH   4   5
ATOM      5  C   UNL     1      61.777  36.743  60.388  1.00  0.00     0.000 C 
BRANCH   5   6
ATOM      6  C   UNL     1      60.636  35.778  60.021  1.00  0.00     0.000 C 
BRANCH   6   7
ATOM      7  C   UNL     1      60.995  34.895  58.813  1.00  0.00     0.000 C 
BRANCH   7   8
ATOM      8  C   UNL     1      59.863  34.821  57.777  1.00  0.00     0.000 C 
BRANCH   8   9
ATOM      9  C   UNL     1      60.381  34.623  56.341  1.00  0.00     0.000 C 
BRANCH   9  10
ATOM     10  C   UNL     1      61.451  35.669  55.963  1.00  0.00     0.000 C 
BRANCH  10  11
ATOM     11  C   UNL     1      62.733  35.064  55.363  1.00  0.00     0.000 C 
BRANCH  11  12
ATOM     12  C   UNL     1      63.735  34.600  56.429  1.00  0.00     0.006 C 
BRANCH  12  13
ATOM     13  C   UNL     1      64.874  33.789  55.802  1.00  0.00     0.053 C 
BRANCH  13  14
ATOM     14  C   UNL     1      66.204  34.341  56.210  1.00  0.00     0.041 C 
ATOM     15  O   UNL     1      66.308  35.046  57.251  1.00  0.00    -0.550 OA
ATOM     16  O   UNL     1      67.322  34.119  55.416  1.00  0.00    -0.550 OA
ENDBRANCH  13  14
ENDBRANCH  12  13
ENDBRANCH  11  12
ENDBRANCH  10  11
ENDBRANCH   9  10
ENDBRANCH   8   9
ENDBRANCH   7   8
ENDBRANCH   6   7
ENDBRANCH   5   6
ENDBRANCH   4   5
ENDBRANCH   3   4
ENDBRANCH   2   3
ENDBRANCH   1   2
BRANCH   1  17
ATOM     17  C   UNL     1      64.017  33.492  60.563  1.00  0.00     0.000 C 
BRANCH  17  18
ATOM     18  C   UNL     1      64.691  32.731  59.402  1.00  0.00     0.000 C 
BRANCH  18  19
ATOM     19  C   UNL     1      64.992  31.246  59.690  1.00  0.00     0.000 C 
BRANCH  19  20
ATOM     20  C   UNL     1      64.393  30.705  61.001  1.00  0.00     0.000 C 
BRANCH  20  21
ATOM     21  C   UNL     1      63.726  29.321  60.890  1.00  0.00     0.000 C 
BRANCH  21  22
ATOM     22  C   UNL     1      62.183  29.369  60.896  1.00  0.00    -0.000 C 
BRANCH  22  23
ATOM     23  C   UNL     1      61.634  30.729  61.363  1.00  0.00    -0.000 C 
BRANCH  23  24
ATOM     24  C   UNL     1      60.900  31.497  60.247  1.00  0.00    -0.000 C 
BRANCH  24  25
ATOM     25  C   UNL     1      60.913  30.820  58.864  1.00  0.00    -0.000 C 
BRANCH  25  26
ATOM     26  C   UNL     1      61.767  31.577  57.833  1.00  0.00    -0.000 C 
BRANCH  26  27
ATOM     27  C   UNL     1      62.383  30.648  56.772  1.00  0.00    -0.000 C 
BRANCH  27  28
ATOM     28  C   UNL     1      61.628  30.591  55.430  1.00  0.00    -0.000 C 
BRANCH  28  29
ATOM     29  C   UNL     1      62.121  31.636  54.420  1.00  0.00    -0.003 C 
ATOM     30  C   UNL     1      60.972  32.154  53.560  1.00  0.00     0.004 C 
ENDBRANCH  28  29
ENDBRANCH  27  28
ENDBRANCH  26  27
ENDBRANCH  25  26
ENDBRANCH  24  25
ENDBRANCH  23  24
ENDBRANCH  22  23
ENDBRANCH  21  22
ENDBRANCH  20  21
ENDBRANCH  19  20
ENDBRANCH  18  19
ENDBRANCH  17  18
ENDBRANCH   1  17
TORSDOF 26
ENDMDL
MODEL 9
REMARK VINA RESULT:    -3.082      4.032      7.070
REMARK INTER + INTRA:         -12.498
REMARK INTER:                  -7.646
REMARK INTRA:                  -4.851
REMARK UNBOUND:                -4.732
REMARK SMILES CCCCCCCCCCCCCCCCCCCCCCCCCCCC(=O)[O-]
REMARK SMILES IDX 15 1 16 2 17 3 18 4 19 5 20 6 21 7 22 8 23 9 24 10 25 11
REMARK SMILES IDX 26 12 27 13 28 14 29 15 30 16 14 17 13 18 12 19 11 20 10 21
REMARK SMILES IDX 9 22 8 23 7 24 6 25 5 26 4 27 3 28 2 29 1 30
REMARK H PARENT
REMARK Flexibility Score: inf
ROOT
ATOM      1  C   UNL     1      64.291  31.483  60.185  1.00  0.00     0.000 C 
ENDROOT
BRANCH   1   2
ATOM      2  C   UNL     1      62.834  31.574  60.682  1.00  0.00     0.000 C 
BRANCH   2   3
ATOM      3  C   UNL     1      62.308  30.312  61.389  1.00  0.00     0.000 C 
BRANCH   3   4
ATOM      4  C   UNL     1      61.143  29.652  60.636  1.00  0.00     0.000 C 
BRANCH   4   5
ATOM      5  C   UNL     1      61.524  28.243  60.156  1.00  0.00     0.000 C 
BRANCH   5   6
ATOM      6  C   UNL     1      62.830  27.743  60.798  1.00  0.00     0.000 C 
BRANCH   6   7
ATOM      7  C   UNL     1      63.623  26.827  59.849  1.00  0.00     0.000 C 
BRANCH   7   8
ATOM      8  C   UNL     1      65.015  27.385  59.514  1.00  0.00     0.000 C 
BRANCH   8   9
ATOM      9  C   UNL     1      65.673  28.103  60.706  1.00  0.00     0.000 C 
BRANCH   9  10
ATOM     10  C   UNL     1      67.049  28.696  60.335  1.00  0.00     0.000 C 
BRANCH  10  11
ATOM     11  C   UNL     1      68.138  28.462  61.398  1.00  0.00     0.000 C 
BRANCH  11  12
ATOM     12  C   UNL     1      69.405  27.810  60.828  1.00  0.00     0.006 C 
BRANCH  12  13
ATOM     13  C   UNL     1      69.998  28.652  59.693  1.00  0.00     0.053 C 
BRANCH  13  14
ATOM     14  C   UNL     1      71.275  29.300  60.127  1.00  0.00     0.041 C 
ATOM     15  O   UNL     1      72.262  29.350  59.344  1.00  0.00    -0.550 OA
ATOM     16  O   UNL     1      71.392  29.809  61.415  1.00  0.00    -0.550 OA
ENDBRANCH  13  14
ENDBRANCH  12  13
ENDBRANCH  11  12
ENDBRANCH  10  11
ENDBRANCH   9  10
ENDBRANCH   8   9
ENDBRANCH   7   8
ENDBRANCH   6   7
ENDBRANCH   5   6
ENDBRANCH   4   5
ENDBRANCH   3   4
ENDBRANCH   2   3
ENDBRANCH   1   2
BRANCH   1  17
ATOM     17  C   UNL     1      64.638  32.422  59.013  1.00  0.00     0.000 C 
BRANCH  17  18
ATOM     18  C   UNL     1      64.416  31.821  57.611  1.00  0.00     0.000 C 
BRANCH  18  19
ATOM     19  C   UNL     1      64.244  30.288  57.583  1.00  0.00     0.000 C 
BRANCH  19  20
ATOM     20  C   UNL     1      62.926  29.794  56.958  1.00  0.00     0.000 C 
BRANCH  20  21
ATOM     21  C   UNL     1      61.903  30.901  56.636  1.00  0.00     0.000 C 
BRANCH  21  22
ATOM     22  C   UNL     1      60.503  30.649  57.234  1.00  0.00    -0.000 C 
BRANCH  22  23
ATOM     23  C   UNL     1      59.988  31.839  58.064  1.00  0.00    -0.000 C 
BRANCH  23  24
ATOM     24  C   UNL     1      60.566  33.190  57.602  1.00  0.00    -0.000 C 
BRANCH  24  25
ATOM     25  C   UNL     1      61.234  34.032  58.705  1.00  0.00    -0.000 C 
BRANCH  25  26
ATOM     26  C   UNL     1      62.351  34.945  58.171  1.00  0.00    -0.000 C 
BRANCH  26  27
ATOM     27  C   UNL     1      62.613  36.160  59.078  1.00  0.00    -0.000 C 
BRANCH  27  28
ATOM     28  C   UNL     1      62.580  35.870  60.591  1.00  0.00    -0.000 C 
BRANCH  28  29
ATOM     29  C   UNL     1      63.879  36.269  61.305  1.00  0.00    -0.003 C 
ATOM     30  C   UNL     1      64.889  35.124  61.289  1.00  0.00     0.004 C 
ENDBRANCH  28  29
ENDBRANCH  27  28
ENDBRANCH  26  27
ENDBRANCH  25  26
ENDBRANCH  24  25
ENDBRANCH  23  24
ENDBRANCH  22  23
ENDBRANCH  21  22
ENDBRANCH  20  21
ENDBRANCH  19  20
ENDBRANCH  18  19
ENDBRANCH  17  18
ENDBRANCH   1  17
TORSDOF 26
ENDMDL
