MODEL 1
REMARK VINA RESULT:    -0.816      0.000      0.000
REMARK INTER + INTRA:          -2.852
REMARK INTER:                  -1.771
REMARK INTRA:                  -1.081
REMARK UNBOUND:                -1.081
REMARK SMILES CCCCCCCCCCCCCCCCCCCCCC(=O)[O-]
REMARK SMILES IDX 12 1 11 2 10 3 9 4 8 5 7 6 6 7 5 8 4 9 3 10 2 11 1 12 13 13
REMARK SMILES IDX 14 14 15 15 16 16 17 17 18 18 19 19 20 20 21 21 22 22 23 23
REMARK SMILES IDX 24 24
REMARK H PARENT
REMARK Flexibility Score: inf
ROOT
ATOM      1  C   UNL     1       1.309  21.129  16.020  1.00  0.00     0.000 C 
ENDROOT
BRANCH   1   2
ATOM      2  C   UNL     1      -0.192  20.806  15.945  1.00  0.00     0.000 C 
BRANCH   2   3
ATOM      3  C   UNL     1      -0.752  20.284  17.277  1.00  0.00     0.000 C 
BRANCH   3   4
ATOM      4  C   UNL     1      -2.288  20.247  17.246  1.00  0.00    -0.000 C 
BRANCH   4   5
ATOM      5  C   UNL     1      -2.856  20.405  15.827  1.00  0.00    -0.000 C 
BRANCH   5   6
ATOM      6  C   UNL     1      -4.378  20.184  15.767  1.00  0.00    -0.000 C 
BRANCH   6   7
ATOM      7  C   UNL     1      -5.083  21.197  14.850  1.00  0.00    -0.000 C 
BRANCH   7   8
ATOM      8  C   UNL     1      -6.582  20.894  14.679  1.00  0.00    -0.000 C 
BRANCH   8   9
ATOM      9  C   UNL     1      -7.225  20.338  15.960  1.00  0.00    -0.000 C 
BRANCH   9  10
ATOM     10  C   UNL     1      -7.863  21.439  16.824  1.00  0.00    -0.000 C 
BRANCH  10  11
ATOM     11  C   UNL     1      -7.913  21.063  18.314  1.00  0.00    -0.003 C 
ATOM     12  C   UNL     1      -6.559  20.608  18.857  1.00  0.00     0.004 C 
ENDBRANCH  10  11
ENDBRANCH   9  10
ENDBRANCH   8   9
ENDBRANCH   7   8
ENDBRANCH   6   7
ENDBRANCH   5   6
ENDBRANCH   4   5
ENDBRANCH   3   4
ENDBRANCH   2   3
ENDBRANCH   1   2
BRANCH   1  13
ATOM     13  C   UNL     1       2.189  19.875  15.891  1.00  0.00     0.000 C 
BRANCH  13  14
ATOM     14  C   UNL     1       3.592  20.184  15.342  1.00  0.00     0.000 C 
BRANCH  14  15
ATOM     15  C   UNL     1       4.381  21.198  16.197  1.00  0.00     0.000 C 
BRANCH  15  16
ATOM     16  C   UNL     1       5.901  20.973  16.109  1.00  0.00     0.000 C 
BRANCH  16  17
ATOM     17  C   UNL     1       6.338  20.363  14.765  1.00  0.00     0.000 C 
BRANCH  17  18
ATOM     18  C   UNL     1       7.858  20.161  14.603  1.00  0.00     0.000 C 
BRANCH  18  19
ATOM     19  C   UNL     1       8.516  20.994  13.489  1.00  0.00     0.000 C 
BRANCH  19  20
ATOM     20  C   UNL     1      10.049  20.862  13.472  1.00  0.00     0.006 C 
BRANCH  20  21
ATOM     21  C   UNL     1      10.749  22.224  13.572  1.00  0.00     0.053 C 
BRANCH  21  22
ATOM     22  C   UNL     1      10.949  22.859  12.229  1.00  0.00     0.041 C 
ATOM     23  O   UNL     1      10.926  24.113  12.112  1.00  0.00    -0.550 OA
ATOM     24  O   UNL     1      11.124  22.068  11.099  1.00  0.00    -0.550 OA
ENDBRANCH  21  22
ENDBRANCH  20  21
ENDBRANCH  19  20
ENDBRANCH  18  19
ENDBRANCH  17  18
ENDBRANCH  16  17
ENDBRANCH  15  16
ENDBRANCH  14  15
ENDBRANCH  13  14
ENDBRANCH   1  13
TORSDOF 20
ENDMDL
MODEL 2
REMARK VINA RESULT:    -0.447      5.771     13.943
REMARK INTER + INTRA:          -2.051
REMARK INTER:                  -1.184
REMARK INTRA:                  -0.867
REMARK UNBOUND:                -1.081
REMARK SMILES CCCCCCCCCCCCCCCCCCCCCC(=O)[O-]
REMARK SMILES IDX 12 1 11 2 10 3 9 4 8 5 7 6 6 7 5 8 4 9 3 10 2 11 1 12 13 13
REMARK SMILES IDX 14 14 15 15 16 16 17 17 18 18 19 19 20 20 21 21 22 22 23 23
REMARK SMILES IDX 24 24
REMARK H PARENT
REMARK Flexibility Score: inf
ROOT
ATOM      1  C   UNL     1      -0.205  20.831  15.942  1.00  0.00     0.000 C 
ENDROOT
BRANCH   1   2
ATOM      2  C   UNL     1       1.196  20.429  16.431  1.00  0.00     0.000 C 
BRANCH   2   3
ATOM      3  C   UNL     1       2.312  20.909  15.491  1.00  0.00     0.000 C 
BRANCH   3   4
ATOM      4  C   UNL     1       3.593  20.087  15.700  1.00  0.00    -0.000 C 
BRANCH   4   5
ATOM      5  C   UNL     1       4.829  20.743  15.065  1.00  0.00    -0.000 C 
BRANCH   5   6
ATOM      6  C   UNL     1       5.982  20.931  16.066  1.00  0.00    -0.000 C 
BRANCH   6   7
ATOM      7  C   UNL     1       7.256  20.182  15.642  1.00  0.00    -0.000 C 
BRANCH   7   8
ATOM      8  C   UNL     1       7.378  20.045  14.114  1.00  0.00    -0.000 C 
BRANCH   8   9
ATOM      9  C   UNL     1       8.833  19.882  13.647  1.00  0.00    -0.000 C 
BRANCH   9  10
ATOM     10  C   UNL     1       9.613  21.208  13.678  1.00  0.00    -0.000 C 
BRANCH  10  11
ATOM     11  C   UNL     1      10.746  21.201  14.717  1.00  0.00    -0.003 C 
ATOM     12  C   UNL     1      10.682  22.393  15.672  1.00  0.00     0.004 C 
ENDBRANCH  10  11
ENDBRANCH   9  10
ENDBRANCH   8   9
ENDBRANCH   7   8
ENDBRANCH   6   7
ENDBRANCH   5   6
ENDBRANCH   4   5
ENDBRANCH   3   4
ENDBRANCH   2   3
ENDBRANCH   1   2
BRANCH   1  13
ATOM     13  C   UNL     1      -1.302  19.881  16.450  1.00  0.00     0.000 C 
BRANCH  13  14
ATOM     14  C   UNL     1      -2.673  20.565  16.574  1.00  0.00     0.000 C 
BRANCH  14  15
ATOM     15  C   UNL     1      -3.657  20.190  15.446  1.00  0.00     0.000 C 
BRANCH  15  16
ATOM     16  C   UNL     1      -5.125  20.318  15.890  1.00  0.00     0.000 C 
BRANCH  16  17
ATOM     17  C   UNL     1      -5.973  21.156  14.916  1.00  0.00     0.000 C 
BRANCH  17  18
ATOM     18  C   UNL     1      -7.450  20.729  14.800  1.00  0.00     0.000 C 
BRANCH  18  19
ATOM     19  C   UNL     1      -8.138  20.379  16.132  1.00  0.00     0.000 C 
BRANCH  19  20
ATOM     20  C   UNL     1      -8.116  21.542  17.138  1.00  0.00     0.006 C 
BRANCH  20  21
ATOM     21  C   UNL     1      -8.517  21.096  18.550  1.00  0.00     0.053 C 
BRANCH  21  22
ATOM     22  C   UNL     1      -7.358  21.109  19.501  1.00  0.00     0.041 C 
ATOM     23  O   UNL     1      -6.202  20.827  19.092  1.00  0.00    -0.550 OA
ATOM     24  O   UNL     1      -7.559  21.396  20.846  1.00  0.00    -0.550 OA
ENDBRANCH  21  22
ENDBRANCH  20  21
ENDBRANCH  19  20
ENDBRANCH  18  19
ENDBRANCH  17  18
ENDBRANCH  16  17
ENDBRANCH  15  16
ENDBRANCH  14  15
ENDBRANCH  13  14
ENDBRANCH   1  13
TORSDOF 20
ENDMDL
MODEL 3
REMARK VINA RESULT:    -0.324      6.258     14.221
REMARK INTER + INTRA:          -1.784
REMARK INTER:                  -1.166
REMARK INTRA:                  -0.618
REMARK UNBOUND:                -1.081
REMARK SMILES CCCCCCCCCCCCCCCCCCCCCC(=O)[O-]
REMARK SMILES IDX 12 1 11 2 10 3 9 4 8 5 7 6 6 7 5 8 4 9 3 10 2 11 1 12 13 13
REMARK SMILES IDX 14 14 15 15 16 16 17 17 18 18 19 19 20 20 21 21 22 22 23 23
REMARK SMILES IDX 24 24
REMARK H PARENT
REMARK Flexibility Score: inf
ROOT
ATOM      1  C   UNL     1      -0.193  20.801  15.948  1.00  0.00     0.000 C 
ENDROOT
BRANCH   1   2
ATOM      2  C   UNL     1       1.176  20.384  16.510  1.00  0.00     0.000 C 
BRANCH   2   3
ATOM      3  C   UNL     1       2.334  20.722  15.559  1.00  0.00     0.000 C 
BRANCH   3   4
ATOM      4  C   UNL     1       3.587  19.906  15.914  1.00  0.00    -0.000 C 
BRANCH   4   5
ATOM      5  C   UNL     1       4.858  20.451  15.243  1.00  0.00    -0.000 C 
BRANCH   5   6
ATOM      6  C   UNL     1       5.978  20.759  16.253  1.00  0.00    -0.000 C 
BRANCH   6   7
ATOM      7  C   UNL     1       7.232  19.902  16.018  1.00  0.00    -0.000 C 
BRANCH   7   8
ATOM      8  C   UNL     1       8.291  20.627  15.168  1.00  0.00    -0.000 C 
BRANCH   8   9
ATOM      9  C   UNL     1       8.537  19.940  13.815  1.00  0.00    -0.000 C 
BRANCH   9  10
ATOM     10  C   UNL     1       8.901  20.941  12.704  1.00  0.00    -0.000 C 
BRANCH  10  11
ATOM     11  C   UNL     1      10.398  21.291  12.696  1.00  0.00    -0.003 C 
ATOM     12  C   UNL     1      11.046  21.090  11.326  1.00  0.00     0.004 C 
ENDBRANCH  10  11
ENDBRANCH   9  10
ENDBRANCH   8   9
ENDBRANCH   7   8
ENDBRANCH   6   7
ENDBRANCH   5   6
ENDBRANCH   4   5
ENDBRANCH   3   4
ENDBRANCH   2   3
ENDBRANCH   1   2
BRANCH   1  13
ATOM     13  C   UNL     1      -1.337  19.916  16.469  1.00  0.00     0.000 C 
BRANCH  13  14
ATOM     14  C   UNL     1      -2.694  20.639  16.476  1.00  0.00     0.000 C 
BRANCH  14  15
ATOM     15  C   UNL     1      -3.668  20.141  15.387  1.00  0.00     0.000 C 
BRANCH  15  16
ATOM     16  C   UNL     1      -5.140  20.326  15.794  1.00  0.00     0.000 C 
BRANCH  16  17
ATOM     17  C   UNL     1      -5.970  21.050  14.719  1.00  0.00     0.000 C 
BRANCH  17  18
ATOM     18  C   UNL     1      -7.473  20.703  14.711  1.00  0.00     0.000 C 
BRANCH  18  19
ATOM     19  C   UNL     1      -8.090  20.424  16.093  1.00  0.00     0.000 C 
BRANCH  19  20
ATOM     20  C   UNL     1      -7.985  21.627  17.046  1.00  0.00     0.006 C 
BRANCH  20  21
ATOM     21  C   UNL     1      -7.729  21.198  18.497  1.00  0.00     0.053 C 
BRANCH  21  22
ATOM     22  C   UNL     1      -8.404  22.102  19.484  1.00  0.00     0.041 C 
ATOM     23  O   UNL     1      -8.420  21.803  20.707  1.00  0.00    -0.550 OA
ATOM     24  O   UNL     1      -9.048  23.255  19.051  1.00  0.00    -0.550 OA
ENDBRANCH  21  22
ENDBRANCH  20  21
ENDBRANCH  19  20
ENDBRANCH  18  19
ENDBRANCH  17  18
ENDBRANCH  16  17
ENDBRANCH  15  16
ENDBRANCH  14  15
ENDBRANCH  13  14
ENDBRANCH   1  13
TORSDOF 20
ENDMDL
MODEL 4
REMARK VINA RESULT:    -0.025      1.350      2.583
REMARK INTER + INTRA:          -1.136
REMARK INTER:                   0.097
REMARK INTRA:                  -1.233
REMARK UNBOUND:                -1.081
REMARK SMILES CCCCCCCCCCCCCCCCCCCCCC(=O)[O-]
REMARK SMILES IDX 12 1 11 2 10 3 9 4 8 5 7 6 6 7 5 8 4 9 3 10 2 11 1 12 13 13
REMARK SMILES IDX 14 14 15 15 16 16 17 17 18 18 19 19 20 20 21 21 22 22 23 23
REMARK SMILES IDX 24 24
REMARK H PARENT
REMARK Flexibility Score: inf
ROOT
ATOM      1  C   UNL     1      -1.480  20.944  17.476  1.00  0.00     0.000 C 
ENDROOT
BRANCH   1   2
ATOM      2  C   UNL     1      -1.931  21.031  16.009  1.00  0.00     0.000 C 
BRANCH   2   3
ATOM      3  C   UNL     1      -3.283  20.344  15.764  1.00  0.00     0.000 C 
BRANCH   3   4
ATOM      4  C   UNL     1      -3.924  19.911  17.091  1.00  0.00    -0.000 C 
BRANCH   4   5
ATOM      5  C   UNL     1      -5.430  20.210  17.148  1.00  0.00    -0.000 C 
BRANCH   5   6
ATOM      6  C   UNL     1      -5.969  20.802  15.834  1.00  0.00    -0.000 C 
BRANCH   6   7
ATOM      7  C   UNL     1      -7.464  20.510  15.628  1.00  0.00    -0.000 C 
BRANCH   7   8
ATOM      8  C   UNL     1      -8.284  20.695  16.917  1.00  0.00    -0.000 C 
BRANCH   8   9
ATOM      9  C   UNL     1      -8.512  22.174  17.268  1.00  0.00    -0.000 C 
BRANCH   9  10
ATOM     10  C   UNL     1      -8.480  22.431  18.785  1.00  0.00    -0.000 C 
BRANCH  10  11
ATOM     11  C   UNL     1      -8.565  21.132  19.604  1.00  0.00    -0.003 C 
ATOM     12  C   UNL     1      -8.264  21.346  21.087  1.00  0.00     0.004 C 
ENDBRANCH  10  11
ENDBRANCH   9  10
ENDBRANCH   8   9
ENDBRANCH   7   8
ENDBRANCH   6   7
ENDBRANCH   5   6
ENDBRANCH   4   5
ENDBRANCH   3   4
ENDBRANCH   2   3
ENDBRANCH   1   2
BRANCH   1  13
ATOM     13  C   UNL     1      -0.203  20.105  17.651  1.00  0.00     0.000 C 
BRANCH  13  14
ATOM     14  C   UNL     1       0.545  19.875  16.327  1.00  0.00     0.000 C 
BRANCH  14  15
ATOM     15  C   UNL     1       1.785  20.778  16.151  1.00  0.00     0.000 C 
BRANCH  15  16
ATOM     16  C   UNL     1       2.966  20.026  15.515  1.00  0.00     0.000 C 
BRANCH  16  17
ATOM     17  C   UNL     1       4.305  20.769  15.676  1.00  0.00     0.000 C 
BRANCH  17  18
ATOM     18  C   UNL     1       5.560  19.875  15.615  1.00  0.00     0.000 C 
BRANCH  18  19
ATOM     19  C   UNL     1       6.364  19.961  14.305  1.00  0.00     0.000 C 
BRANCH  19  20
ATOM     20  C   UNL     1       7.866  20.193  14.542  1.00  0.00     0.006 C 
BRANCH  20  21
ATOM     21  C   UNL     1       8.399  21.395  13.751  1.00  0.00     0.053 C 
BRANCH  21  22
ATOM     22  C   UNL     1       9.844  21.237  13.383  1.00  0.00     0.041 C 
ATOM     23  O   UNL     1      10.455  22.172  12.801  1.00  0.00    -0.550 OA
ATOM     24  O   UNL     1      10.508  20.044  13.648  1.00  0.00    -0.550 OA
ENDBRANCH  21  22
ENDBRANCH  20  21
ENDBRANCH  19  20
ENDBRANCH  18  19
ENDBRANCH  17  18
ENDBRANCH  16  17
ENDBRANCH  15  16
ENDBRANCH  14  15
ENDBRANCH  13  14
ENDBRANCH   1  13
TORSDOF 20
ENDMDL
MODEL 5
REMARK VINA RESULT:     0.298      5.976     13.973
REMARK INTER + INTRA:          -0.436
REMARK INTER:                   0.371
REMARK INTRA:                  -0.807
REMARK UNBOUND:                -1.081
REMARK SMILES CCCCCCCCCCCCCCCCCCCCCC(=O)[O-]
REMARK SMILES IDX 12 1 11 2 10 3 9 4 8 5 7 6 6 7 5 8 4 9 3 10 2 11 1 12 13 13
REMARK SMILES IDX 14 14 15 15 16 16 17 17 18 18 19 19 20 20 21 21 22 22 23 23
REMARK SMILES IDX 24 24
REMARK H PARENT
REMARK Flexibility Score: inf
ROOT
ATOM      1  C   UNL     1       4.604  20.956  16.422  1.00  0.00     0.000 C 
ENDROOT
BRANCH   1   2
ATOM      2  C   UNL     1       5.826  20.913  15.490  1.00  0.00     0.000 C 
BRANCH   2   3
ATOM      3  C   UNL     1       6.915  19.950  15.985  1.00  0.00     0.000 C 
BRANCH   3   4
ATOM      4  C   UNL     1       8.106  19.927  15.014  1.00  0.00    -0.000 C 
BRANCH   4   5
ATOM      5  C   UNL     1       8.774  21.303  14.863  1.00  0.00    -0.000 C 
BRANCH   5   6
ATOM      6  C   UNL     1      10.244  21.205  14.420  1.00  0.00    -0.000 C 
BRANCH   6   7
ATOM      7  C   UNL     1      10.554  19.882  13.701  1.00  0.00    -0.000 C 
BRANCH   7   8
ATOM      8  C   UNL     1      10.650  20.049  12.174  1.00  0.00    -0.000 C 
BRANCH   8   9
ATOM      9  C   UNL     1       9.279  20.275  11.515  1.00  0.00    -0.000 C 
BRANCH   9  10
ATOM     10  C   UNL     1       9.274  19.898  10.024  1.00  0.00    -0.000 C 
BRANCH  10  11
ATOM     11  C   UNL     1      10.630  20.154   9.347  1.00  0.00    -0.003 C 
ATOM     12  C   UNL     1      10.727  21.544   8.720  1.00  0.00     0.004 C 
ENDBRANCH  10  11
ENDBRANCH   9  10
ENDBRANCH   8   9
ENDBRANCH   7   8
ENDBRANCH   6   7
ENDBRANCH   5   6
ENDBRANCH   4   5
ENDBRANCH   3   4
ENDBRANCH   2   3
ENDBRANCH   1   2
BRANCH   1  13
ATOM     13  C   UNL     1       3.555  19.889  16.067  1.00  0.00     0.000 C 
BRANCH  13  14
ATOM     14  C   UNL     1       2.257  20.493  15.505  1.00  0.00     0.000 C 
BRANCH  14  15
ATOM     15  C   UNL     1       1.005  20.157  16.341  1.00  0.00     0.000 C 
BRANCH  15  16
ATOM     16  C   UNL     1      -0.235  20.938  15.870  1.00  0.00     0.000 C 
BRANCH  16  17
ATOM     17  C   UNL     1      -1.449  20.746  16.797  1.00  0.00     0.000 C 
BRANCH  17  18
ATOM     18  C   UNL     1      -2.590  19.890  16.211  1.00  0.00     0.000 C 
BRANCH  18  19
ATOM     19  C   UNL     1      -3.856  20.669  15.812  1.00  0.00     0.000 C 
BRANCH  19  20
ATOM     20  C   UNL     1      -5.149  19.875  16.067  1.00  0.00     0.006 C 
BRANCH  20  21
ATOM     21  C   UNL     1      -6.386  20.583  15.499  1.00  0.00     0.053 C 
BRANCH  21  22
ATOM     22  C   UNL     1      -7.548  20.543  16.445  1.00  0.00     0.041 C 
ATOM     23  O   UNL     1      -8.658  20.085  16.065  1.00  0.00    -0.550 OA
ATOM     24  O   UNL     1      -7.419  21.045  17.735  1.00  0.00    -0.550 OA
ENDBRANCH  21  22
ENDBRANCH  20  21
ENDBRANCH  19  20
ENDBRANCH  18  19
ENDBRANCH  17  18
ENDBRANCH  16  17
ENDBRANCH  15  16
ENDBRANCH  14  15
ENDBRANCH  13  14
ENDBRANCH   1  13
TORSDOF 20
ENDMDL
MODEL 6
REMARK VINA RESULT:     0.464      1.975      3.994
REMARK INTER + INTRA:          -0.074
REMARK INTER:                   1.144
REMARK INTRA:                  -1.218
REMARK UNBOUND:                -1.081
REMARK SMILES CCCCCCCCCCCCCCCCCCCCCC(=O)[O-]
REMARK SMILES IDX 12 1 11 2 10 3 9 4 8 5 7 6 6 7 5 8 4 9 3 10 2 11 1 12 13 13
REMARK SMILES IDX 14 14 15 15 16 16 17 17 18 18 19 19 20 20 21 21 22 22 23 23
REMARK SMILES IDX 24 24
REMARK H PARENT
REMARK Flexibility Score: inf
ROOT
ATOM      1  C   UNL     1       4.643  21.321  16.344  1.00  0.00     0.000 C 
ENDROOT
BRANCH   1   2
ATOM      2  C   UNL     1       4.120  20.080  15.602  1.00  0.00     0.000 C 
BRANCH   2   3
ATOM      3  C   UNL     1       2.608  19.875  15.783  1.00  0.00     0.000 C 
BRANCH   3   4
ATOM      4  C   UNL     1       1.866  21.220  15.743  1.00  0.00    -0.000 C 
BRANCH   4   5
ATOM      5  C   UNL     1       0.345  21.063  15.887  1.00  0.00    -0.000 C 
BRANCH   5   6
ATOM      6  C   UNL     1      -0.165  21.456  17.285  1.00  0.00    -0.000 C 
BRANCH   6   7
ATOM      7  C   UNL     1      -1.535  20.838  17.606  1.00  0.00    -0.000 C 
BRANCH   7   8
ATOM      8  C   UNL     1      -2.252  20.311  16.351  1.00  0.00    -0.000 C 
BRANCH   8   9
ATOM      9  C   UNL     1      -3.762  20.600  16.364  1.00  0.00    -0.000 C 
BRANCH   9  10
ATOM     10  C   UNL     1      -4.487  20.005  15.145  1.00  0.00    -0.000 C 
BRANCH  10  11
ATOM     11  C   UNL     1      -5.427  21.016  14.467  1.00  0.00    -0.003 C 
ATOM     12  C   UNL     1      -6.836  21.003  15.058  1.00  0.00     0.004 C 
ENDBRANCH  10  11
ENDBRANCH   9  10
ENDBRANCH   8   9
ENDBRANCH   7   8
ENDBRANCH   6   7
ENDBRANCH   5   6
ENDBRANCH   4   5
ENDBRANCH   3   4
ENDBRANCH   2   3
ENDBRANCH   1   2
BRANCH   1  13
ATOM     13  C   UNL     1       6.170  21.465  16.247  1.00  0.00     0.000 C 
BRANCH  13  14
ATOM     14  C   UNL     1       6.894  20.110  16.185  1.00  0.00     0.000 C 
BRANCH  14  15
ATOM     15  C   UNL     1       8.002  20.048  15.113  1.00  0.00     0.000 C 
BRANCH  15  16
ATOM     16  C   UNL     1       8.252  21.417  14.456  1.00  0.00     0.000 C 
BRANCH  16  17
ATOM     17  C   UNL     1       9.252  21.346  13.288  1.00  0.00     0.000 C 
BRANCH  17  18
ATOM     18  C   UNL     1       9.942  19.978  13.101  1.00  0.00     0.000 C 
BRANCH  18  19
ATOM     19  C   UNL     1      11.111  19.965  12.101  1.00  0.00     0.000 C 
BRANCH  19  20
ATOM     20  C   UNL     1      10.815  20.774  10.826  1.00  0.00     0.006 C 
BRANCH  20  21
ATOM     21  C   UNL     1      10.412  19.875   9.650  1.00  0.00     0.053 C 
BRANCH  21  22
ATOM     22  C   UNL     1       8.985  20.084   9.238  1.00  0.00     0.041 C 
ATOM     23  O   UNL     1       8.067  20.050  10.099  1.00  0.00    -0.550 OA
ATOM     24  O   UNL     1       8.664  20.279   7.900  1.00  0.00    -0.550 OA
ENDBRANCH  21  22
ENDBRANCH  20  21
ENDBRANCH  19  20
ENDBRANCH  18  19
ENDBRANCH  17  18
ENDBRANCH  16  17
ENDBRANCH  15  16
ENDBRANCH  14  15
ENDBRANCH  13  14
ENDBRANCH   1  13
TORSDOF 20
ENDMDL
MODEL 7
REMARK VINA RESULT:     1.407      6.298     14.363
REMARK INTER + INTRA:           1.971
REMARK INTER:                   2.611
REMARK INTRA:                  -0.640
REMARK UNBOUND:                -1.081
REMARK SMILES CCCCCCCCCCCCCCCCCCCCCC(=O)[O-]
REMARK SMILES IDX 12 1 11 2 10 3 9 4 8 5 7 6 6 7 5 8 4 9 3 10 2 11 1 12 13 13
REMARK SMILES IDX 14 14 15 15 16 16 17 17 18 18 19 19 20 20 21 21 22 22 23 23
REMARK SMILES IDX 24 24
REMARK H PARENT
REMARK Flexibility Score: inf
ROOT
ATOM      1  C   UNL     1       0.863  21.112  15.198  1.00  0.00     0.000 C 
ENDROOT
BRANCH   1   2
ATOM      2  C   UNL     1       2.282  21.218  15.779  1.00  0.00     0.000 C 
BRANCH   2   3
ATOM      3  C   UNL     1       3.028  19.875  15.767  1.00  0.00     0.000 C 
BRANCH   3   4
ATOM      4  C   UNL     1       4.532  20.085  16.001  1.00  0.00    -0.000 C 
BRANCH   4   5
ATOM      5  C   UNL     1       5.300  20.371  14.701  1.00  0.00    -0.000 C 
BRANCH   5   6
ATOM      6  C   UNL     1       6.804  20.600  14.936  1.00  0.00    -0.000 C 
BRANCH   6   7
ATOM      7  C   UNL     1       7.644  20.316  13.681  1.00  0.00    -0.000 C 
BRANCH   7   8
ATOM      8  C   UNL     1       9.156  20.412  13.950  1.00  0.00    -0.000 C 
BRANCH   8   9
ATOM      9  C   UNL     1       9.983  20.515  12.658  1.00  0.00    -0.000 C 
BRANCH   9  10
ATOM     10  C   UNL     1      10.913  21.741  12.649  1.00  0.00    -0.000 C 
BRANCH  10  11
ATOM     11  C   UNL     1      10.877  22.498  11.312  1.00  0.00    -0.003 C 
ATOM     12  C   UNL     1      10.270  21.671  10.179  1.00  0.00     0.004 C 
ENDBRANCH  10  11
ENDBRANCH   9  10
ENDBRANCH   8   9
ENDBRANCH   7   8
ENDBRANCH   6   7
ENDBRANCH   5   6
ENDBRANCH   4   5
ENDBRANCH   3   4
ENDBRANCH   2   3
ENDBRANCH   1   2
BRANCH   1  13
ATOM     13  C   UNL     1      -0.226  21.328  16.261  1.00  0.00     0.000 C 
BRANCH  13  14
ATOM     14  C   UNL     1      -1.587  21.706  15.652  1.00  0.00     0.000 C 
BRANCH  14  15
ATOM     15  C   UNL     1      -2.680  20.637  15.867  1.00  0.00     0.000 C 
BRANCH  15  16
ATOM     16  C   UNL     1      -3.887  20.845  14.935  1.00  0.00     0.000 C 
BRANCH  16  17
ATOM     17  C   UNL     1      -5.110  20.005  15.346  1.00  0.00     0.000 C 
BRANCH  17  18
ATOM     18  C   UNL     1      -5.332  19.875  16.867  1.00  0.00     0.000 C 
BRANCH  18  19
ATOM     19  C   UNL     1      -6.749  20.225  17.355  1.00  0.00     0.000 C 
BRANCH  19  20
ATOM     20  C   UNL     1      -6.872  20.204  18.888  1.00  0.00     0.006 C 
BRANCH  20  21
ATOM     21  C   UNL     1      -8.312  20.453  19.358  1.00  0.00     0.053 C 
BRANCH  21  22
ATOM     22  C   UNL     1      -8.405  21.597  20.322  1.00  0.00     0.041 C 
ATOM     23  O   UNL     1      -8.750  22.739  19.918  1.00  0.00    -0.550 OA
ATOM     24  O   UNL     1      -8.075  21.414  21.660  1.00  0.00    -0.550 OA
ENDBRANCH  21  22
ENDBRANCH  20  21
ENDBRANCH  19  20
ENDBRANCH  18  19
ENDBRANCH  17  18
ENDBRANCH  16  17
ENDBRANCH  15  16
ENDBRANCH  14  15
ENDBRANCH  13  14
ENDBRANCH   1  13
TORSDOF 20
ENDMDL
MODEL 8
REMARK VINA RESULT:     1.453      1.565      3.819
REMARK INTER + INTRA:           2.072
REMARK INTER:                   1.715
REMARK INTRA:                   0.357
REMARK UNBOUND:                -1.081
REMARK SMILES CCCCCCCCCCCCCCCCCCCCCC(=O)[O-]
REMARK SMILES IDX 12 1 11 2 10 3 9 4 8 5 7 6 6 7 5 8 4 9 3 10 2 11 1 12 13 13
REMARK SMILES IDX 14 14 15 15 16 16 17 17 18 18 19 19 20 20 21 21 22 22 23 23
REMARK SMILES IDX 24 24
REMARK H PARENT
REMARK Flexibility Score: inf
ROOT
ATOM      1  C   UNL     1       4.953  21.374  16.142  1.00  0.00     0.000 C 
ENDROOT
BRANCH   1   2
ATOM      2  C   UNL     1       4.571  20.083  15.401  1.00  0.00     0.000 C 
BRANCH   2   3
ATOM      3  C   UNL     1       3.051  19.875  15.319  1.00  0.00     0.000 C 
BRANCH   3   4
ATOM      4  C   UNL     1       2.304  21.054  15.962  1.00  0.00    -0.000 C 
BRANCH   4   5
ATOM      5  C   UNL     1       0.791  20.806  16.074  1.00  0.00    -0.000 C 
BRANCH   5   6
ATOM      6  C   UNL     1       0.405  20.047  17.356  1.00  0.00    -0.000 C 
BRANCH   6   7
ATOM      7  C   UNL     1      -1.117  19.945  17.541  1.00  0.00    -0.000 C 
BRANCH   7   8
ATOM      8  C   UNL     1      -1.882  20.054  16.211  1.00  0.00    -0.000 C 
BRANCH   8   9
ATOM      9  C   UNL     1      -3.301  20.619  16.387  1.00  0.00    -0.000 C 
BRANCH   9  10
ATOM     10  C   UNL     1      -4.201  20.340  15.170  1.00  0.00    -0.000 C 
BRANCH  10  11
ATOM     11  C   UNL     1      -5.676  20.681  15.438  1.00  0.00    -0.003 C 
ATOM     12  C   UNL     1      -6.495  20.820  14.156  1.00  0.00     0.004 C 
ENDBRANCH  10  11
ENDBRANCH   9  10
ENDBRANCH   8   9
ENDBRANCH   7   8
ENDBRANCH   6   7
ENDBRANCH   5   6
ENDBRANCH   4   5
ENDBRANCH   3   4
ENDBRANCH   2   3
ENDBRANCH   1   2
BRANCH   1  13
ATOM     13  C   UNL     1       6.472  21.513  16.339  1.00  0.00     0.000 C 
BRANCH  13  14
ATOM     14  C   UNL     1       7.210  20.167  16.247  1.00  0.00     0.000 C 
BRANCH  14  15
ATOM     15  C   UNL     1       8.260  20.113  15.117  1.00  0.00     0.000 C 
BRANCH  15  16
ATOM     16  C   UNL     1       8.968  21.464  14.917  1.00  0.00     0.000 C 
BRANCH  16  17
ATOM     17  C   UNL     1       9.747  21.539  13.591  1.00  0.00     0.000 C 
BRANCH  17  18
ATOM     18  C   UNL     1       9.553  20.332  12.650  1.00  0.00     0.000 C 
BRANCH  18  19
ATOM     19  C   UNL     1       9.928  20.580  11.178  1.00  0.00     0.000 C 
BRANCH  19  20
ATOM     20  C   UNL     1      11.042  21.628  11.015  1.00  0.00     0.006 C 
BRANCH  20  21
ATOM     21  C   UNL     1      10.771  22.895  11.838  1.00  0.00     0.053 C 
BRANCH  21  22
ATOM     22  C   UNL     1      10.989  24.147  11.042  1.00  0.00     0.041 C 
ATOM     23  O   UNL     1      11.044  25.263  11.621  1.00  0.00    -0.550 OA
ATOM     24  O   UNL     1      11.095  24.086   9.657  1.00  0.00    -0.550 OA
ENDBRANCH  21  22
ENDBRANCH  20  21
ENDBRANCH  19  20
ENDBRANCH  18  19
ENDBRANCH  17  18
ENDBRANCH  16  17
ENDBRANCH  15  16
ENDBRANCH  14  15
ENDBRANCH  13  14
ENDBRANCH   1  13
TORSDOF 20
ENDMDL
