MODEL 1
REMARK VINA RESULT:    -2.576      0.000      0.000
REMARK INTER + INTRA:          -2.880
REMARK INTER:                  -2.802
REMARK INTRA:                  -0.078
REMARK UNBOUND:                -0.078
REMARK SMILES C[C@@H]1[C@@H](C)CC[C@@]2(C(=O)[O-])CC[C@]3(C)C(=CC[C@H]4[C@@]5(C)CC[C@H](O)C(C)(C)[C@@H]5CC[C@]43C)[C@@H]12
REMARK SMILES IDX 7 1 6 2 11 3 33 4 5 5 12 6 15 7 2 8 3 9 13 10 16 11 1 12
REMARK SMILES IDX 4 13 14 14 31 15 17 16 18 17 30 18 32 19 19 20 29 21 28 22
REMARK SMILES IDX 21 23 20 24 25 25 22 26 23 27 26 28 27 29 8 30 9 31 10 32
REMARK SMILES IDX 24 33
REMARK H PARENT 24 34
REMARK Flexibility Score: inf
ROOT
ATOM      1  C   UNL     1      20.475  39.095   5.910  1.00  0.00     0.017 C 
ATOM      2  C   UNL     1      20.129  39.802   7.257  1.00  0.00     0.014 C 
ATOM      3  C   UNL     1      19.163  39.032   5.065  1.00  0.00     0.014 C 
ATOM      4  C   UNL     1      21.688  39.852   5.196  1.00  0.00     0.030 C 
ATOM      5  C   UNL     1      21.391  40.158   8.036  1.00  0.00     0.004 C 
ATOM      6  C   UNL     1      19.120  40.071   3.945  1.00  0.00     0.013 C 
ATOM      7  C   UNL     1      21.596  39.833   3.659  1.00  0.00    -0.063 C 
ATOM      8  C   UNL     1      21.944  41.295   5.763  1.00  0.00    -0.003 C 
ATOM      9  C   UNL     1      22.199  41.263   7.312  1.00  0.00    -0.011 C 
ATOM     10  C   UNL     1      20.265  39.854   2.909  1.00  0.00    -0.006 C 
ATOM     11  C   UNL     1      22.727  39.766   2.929  1.00  0.00    -0.027 C 
ATOM     12  C   UNL     1      23.125  42.009   5.069  1.00  0.00     0.008 C 
ATOM     13  C   UNL     1      21.910  42.633   7.958  1.00  0.00     0.008 C 
ATOM     14  C   UNL     1      20.072  38.418   2.303  1.00  0.00     0.017 C 
ATOM     15  C   UNL     1      20.289  41.006   1.760  1.00  0.00    -0.020 C 
ATOM     16  C   UNL     1      22.703  39.957   1.439  1.00  0.00     0.032 C 
ATOM     17  C   UNL     1      21.745  41.121   1.050  1.00  0.00     0.006 C 
ATOM     18  C   UNL     1      19.108  40.749   0.753  1.00  0.00     0.008 C 
ATOM     19  C   UNL     1      19.997  42.394   2.416  1.00  0.00     0.012 C 
ATOM     20  C   UNL     1      21.801  41.560  -0.503  1.00  0.00    -0.025 C 
ATOM     21  C   UNL     1      19.251  41.435  -0.592  1.00  0.00     0.005 C 
ATOM     22  C   UNL     1      20.561  40.975  -1.266  1.00  0.00     0.003 C 
ATOM     23  C   UNL     1      23.091  41.028  -1.213  1.00  0.00     0.010 C 
ATOM     24  C   UNL     1      21.880  43.123  -0.561  1.00  0.00     0.012 C 
ATOM     25  C   UNL     1      20.552  41.081  -2.851  1.00  0.00    -0.006 C 
ATOM     26  C   UNL     1      23.123  41.282  -2.725  1.00  0.00     0.033 C 
ATOM     27  C   UNL     1      21.932  40.622  -3.423  1.00  0.00     0.120 C 
ATOM     28  C   UNL     1      19.494  40.090  -3.419  1.00  0.00     0.014 C 
ATOM     29  C   UNL     1      20.175  42.494  -3.375  1.00  0.00     0.014 C 
ENDROOT
BRANCH   1  30
ATOM     30  C   UNL     1      20.877  37.649   6.198  1.00  0.00     0.048 C 
ATOM     31  O   UNL     1      20.595  37.106   7.300  1.00  0.00    -0.550 OA
ATOM     32  O   UNL     1      21.649  36.934   5.282  1.00  0.00    -0.550 OA
ENDBRANCH   1  30
BRANCH  27  33
ATOM     33  O   UNL     1      22.018  40.899  -4.802  1.00  0.00    -0.393 OA
ATOM     34  H   UNL     1      22.952  41.172  -4.998  1.00  0.00     0.210 HD
ENDBRANCH  27  33
TORSDOF 2
ENDMDL
MODEL 2
REMARK VINA RESULT:    -1.992      3.011     10.004
REMARK INTER + INTRA:          -2.245
REMARK INTER:                  -2.017
REMARK INTRA:                  -0.228
REMARK UNBOUND:                -0.078
REMARK SMILES C[C@@H]1[C@@H](C)CC[C@@]2(C(=O)[O-])CC[C@]3(C)C(=CC[C@H]4[C@@]5(C)CC[C@H](O)C(C)(C)[C@@H]5CC[C@]43C)[C@@H]12
REMARK SMILES IDX 7 1 6 2 11 3 33 4 5 5 12 6 15 7 2 8 3 9 13 10 16 11 1 12
REMARK SMILES IDX 4 13 14 14 31 15 17 16 18 17 30 18 32 19 19 20 29 21 28 22
REMARK SMILES IDX 21 23 20 24 25 25 22 26 23 27 26 28 27 29 8 30 9 31 10 32
REMARK SMILES IDX 24 33
REMARK H PARENT 24 34
REMARK Flexibility Score: inf
ROOT
ATOM      1  C   UNL     1      20.041  41.220  -7.447  1.00  0.00     0.017 C 
ATOM      2  C   UNL     1      19.425  42.230  -8.465  1.00  0.00     0.014 C 
ATOM      3  C   UNL     1      21.296  41.902  -6.814  1.00  0.00     0.014 C 
ATOM      4  C   UNL     1      18.929  40.767  -6.391  1.00  0.00     0.030 C 
ATOM      5  C   UNL     1      18.047  41.772  -8.932  1.00  0.00     0.004 C 
ATOM      6  C   UNL     1      21.046  42.424  -5.400  1.00  0.00     0.013 C 
ATOM      7  C   UNL     1      19.500  40.499  -4.986  1.00  0.00    -0.063 C 
ATOM      8  C   UNL     1      17.676  41.715  -6.359  1.00  0.00    -0.003 C 
ATOM      9  C   UNL     1      17.016  41.838  -7.779  1.00  0.00    -0.011 C 
ATOM     10  C   UNL     1      20.685  41.273  -4.411  1.00  0.00    -0.006 C 
ATOM     11  C   UNL     1      18.958  39.525  -4.228  1.00  0.00    -0.027 C 
ATOM     12  C   UNL     1      16.608  41.258  -5.340  1.00  0.00     0.008 C 
ATOM     13  C   UNL     1      16.176  43.125  -7.898  1.00  0.00     0.008 C 
ATOM     14  C   UNL     1      21.901  40.279  -4.400  1.00  0.00     0.017 C 
ATOM     15  C   UNL     1      20.327  41.821  -2.922  1.00  0.00    -0.020 C 
ATOM     16  C   UNL     1      19.335  39.366  -2.782  1.00  0.00     0.032 C 
ATOM     17  C   UNL     1      19.434  40.755  -2.085  1.00  0.00     0.006 C 
ATOM     18  C   UNL     1      21.659  42.245  -2.199  1.00  0.00     0.008 C 
ATOM     19  C   UNL     1      19.474  43.125  -3.045  1.00  0.00     0.012 C 
ATOM     20  C   UNL     1      19.621  40.701  -0.481  1.00  0.00    -0.025 C 
ATOM     21  C   UNL     1      21.564  42.346  -0.688  1.00  0.00     0.005 C 
ATOM     22  C   UNL     1      21.118  40.987  -0.110  1.00  0.00     0.003 C 
ATOM     23  C   UNL     1      19.245  39.298   0.103  1.00  0.00     0.010 C 
ATOM     24  C   UNL     1      18.621  41.724   0.157  1.00  0.00     0.012 C 
ATOM     25  C   UNL     1      21.566  40.738   1.394  1.00  0.00    -0.006 C 
ATOM     26  C   UNL     1      19.549  39.140   1.597  1.00  0.00     0.033 C 
ATOM     27  C   UNL     1      21.036  39.353   1.885  1.00  0.00     0.120 C 
ATOM     28  C   UNL     1      23.120  40.657   1.453  1.00  0.00     0.014 C 
ATOM     29  C   UNL     1      21.136  41.874   2.363  1.00  0.00     0.014 C 
ENDROOT
BRANCH   1  30
ATOM     30  C   UNL     1      20.549  39.996  -8.207  1.00  0.00     0.048 C 
ATOM     31  O   UNL     1      21.603  40.053  -8.895  1.00  0.00    -0.550 OA
ATOM     32  O   UNL     1      19.801  38.819  -8.233  1.00  0.00    -0.550 OA
ENDBRANCH   1  30
BRANCH  27  33
ATOM     33  O   UNL     1      21.245  39.202   3.270  1.00  0.00    -0.393 OA
ATOM     34  H   UNL     1      20.729  39.911   3.734  1.00  0.00     0.210 HD
ENDBRANCH  27  33
TORSDOF 2
ENDMDL
MODEL 3
REMARK VINA RESULT:    -1.712      2.347      3.891
REMARK INTER + INTRA:          -1.940
REMARK INTER:                  -1.794
REMARK INTRA:                  -0.146
REMARK UNBOUND:                -0.078
REMARK SMILES C[C@@H]1[C@@H](C)CC[C@@]2(C(=O)[O-])CC[C@]3(C)C(=CC[C@H]4[C@@]5(C)CC[C@H](O)C(C)(C)[C@@H]5CC[C@]43C)[C@@H]12
REMARK SMILES IDX 7 1 6 2 11 3 33 4 5 5 12 6 15 7 2 8 3 9 13 10 16 11 1 12
REMARK SMILES IDX 4 13 14 14 31 15 17 16 18 17 30 18 32 19 19 20 29 21 28 22
REMARK SMILES IDX 21 23 20 24 25 25 22 26 23 27 26 28 27 29 8 30 9 31 10 32
REMARK SMILES IDX 24 33
REMARK H PARENT 24 34
REMARK Flexibility Score: inf
ROOT
ATOM      1  C   UNL     1      18.092  40.811   8.198  1.00  0.00     0.017 C 
ATOM      2  C   UNL     1      18.854  40.971   9.550  1.00  0.00     0.014 C 
ATOM      3  C   UNL     1      17.984  42.229   7.552  1.00  0.00     0.014 C 
ATOM      4  C   UNL     1      18.827  39.722   7.287  1.00  0.00     0.030 C 
ATOM      5  C   UNL     1      19.252  39.615  10.125  1.00  0.00     0.004 C 
ATOM      6  C   UNL     1      18.974  42.445   6.408  1.00  0.00     0.013 C 
ATOM      7  C   UNL     1      18.741  40.032   5.781  1.00  0.00    -0.063 C 
ATOM      8  C   UNL     1      20.295  39.407   7.751  1.00  0.00    -0.003 C 
ATOM      9  C   UNL     1      20.330  38.933   9.248  1.00  0.00    -0.011 C 
ATOM     10  C   UNL     1      18.722  41.457   5.228  1.00  0.00    -0.006 C 
ATOM     11  C   UNL     1      18.651  39.016   4.900  1.00  0.00    -0.027 C 
ATOM     12  C   UNL     1      20.986  38.347   6.866  1.00  0.00     0.008 C 
ATOM     13  C   UNL     1      21.724  39.146   9.872  1.00  0.00     0.008 C 
ATOM     14  C   UNL     1      17.259  41.715   4.717  1.00  0.00     0.017 C 
ATOM     15  C   UNL     1      19.823  41.612   4.041  1.00  0.00    -0.020 C 
ATOM     16  C   UNL     1      18.778  39.255   3.423  1.00  0.00     0.032 C 
ATOM     17  C   UNL     1      19.918  40.273   3.127  1.00  0.00     0.006 C 
ATOM     18  C   UNL     1      19.515  42.921   3.225  1.00  0.00     0.008 C 
ATOM     19  C   UNL     1      21.235  41.826   4.675  1.00  0.00     0.012 C 
ATOM     20  C   UNL     1      20.291  40.445   1.564  1.00  0.00    -0.025 C 
ATOM     21  C   UNL     1      20.144  42.980   1.846  1.00  0.00     0.005 C 
ATOM     22  C   UNL     1      19.665  41.773   1.012  1.00  0.00     0.003 C 
ATOM     23  C   UNL     1      19.738  39.263   0.700  1.00  0.00     0.010 C 
ATOM     24  C   UNL     1      21.851  40.396   1.431  1.00  0.00     0.012 C 
ATOM     25  C   UNL     1      19.703  42.009  -0.559  1.00  0.00    -0.006 C 
ATOM     26  C   UNL     1      19.927  39.450  -0.810  1.00  0.00     0.033 C 
ATOM     27  C   UNL     1      19.230  40.720  -1.303  1.00  0.00     0.120 C 
ATOM     28  C   UNL     1      18.682  43.125  -0.929  1.00  0.00     0.014 C 
ATOM     29  C   UNL     1      21.090  42.476  -1.081  1.00  0.00     0.014 C 
ENDROOT
BRANCH   1  30
ATOM     30  C   UNL     1      16.663  40.353   8.484  1.00  0.00     0.048 C 
ATOM     31  O   UNL     1      15.962  39.818   7.584  1.00  0.00    -0.550 OA
ATOM     32  O   UNL     1      16.074  40.609   9.723  1.00  0.00    -0.550 OA
ENDBRANCH   1  30
BRANCH  27  33
ATOM     33  O   UNL     1      19.449  40.834  -2.690  1.00  0.00    -0.393 OA
ATOM     34  H   UNL     1      20.356  40.482  -2.884  1.00  0.00     0.210 HD
ENDBRANCH  27  33
TORSDOF 2
ENDMDL
MODEL 4
REMARK VINA RESULT:     0.063      2.044      4.113
REMARK INTER + INTRA:          -0.010
REMARK INTER:                   0.215
REMARK INTRA:                  -0.225
REMARK UNBOUND:                -0.078
REMARK SMILES C[C@@H]1[C@@H](C)CC[C@@]2(C(=O)[O-])CC[C@]3(C)C(=CC[C@H]4[C@@]5(C)CC[C@H](O)C(C)(C)[C@@H]5CC[C@]43C)[C@@H]12
REMARK SMILES IDX 7 1 6 2 11 3 33 4 5 5 12 6 15 7 2 8 3 9 13 10 16 11 1 12
REMARK SMILES IDX 4 13 14 14 31 15 17 16 18 17 30 18 32 19 19 20 29 21 28 22
REMARK SMILES IDX 21 23 20 24 25 25 22 26 23 27 26 28 27 29 8 30 9 31 10 32
REMARK SMILES IDX 24 33
REMARK H PARENT 24 34
REMARK Flexibility Score: inf
ROOT
ATOM      1  C   UNL     1      20.466  39.923   8.613  1.00  0.00     0.017 C 
ATOM      2  C   UNL     1      21.426  39.389   9.721  1.00  0.00     0.014 C 
ATOM      3  C   UNL     1      21.077  41.252   8.067  1.00  0.00     0.014 C 
ATOM      4  C   UNL     1      20.235  38.794   7.505  1.00  0.00     0.030 C 
ATOM      5  C   UNL     1      21.066  37.962  10.125  1.00  0.00     0.004 C 
ATOM      6  C   UNL     1      21.759  41.086   6.710  1.00  0.00     0.013 C 
ATOM      7  C   UNL     1      20.051  39.365   6.086  1.00  0.00    -0.063 C 
ATOM      8  C   UNL     1      21.303  37.643   7.555  1.00  0.00    -0.003 C 
ATOM      9  C   UNL     1      21.350  36.968   8.972  1.00  0.00    -0.011 C 
ATOM     10  C   UNL     1      20.754  40.633   5.606  1.00  0.00    -0.006 C 
ATOM     11  C   UNL     1      19.216  38.746   5.228  1.00  0.00    -0.027 C 
ATOM     12  C   UNL     1      21.059  36.556   6.484  1.00  0.00     0.008 C 
ATOM     13  C   UNL     1      22.697  36.258   9.212  1.00  0.00     0.008 C 
ATOM     14  C   UNL     1      19.648  41.744   5.508  1.00  0.00     0.017 C 
ATOM     15  C   UNL     1      21.481  40.364   4.176  1.00  0.00    -0.020 C 
ATOM     16  C   UNL     1      19.165  39.135   3.778  1.00  0.00     0.032 C 
ATOM     17  C   UNL     1      20.599  39.386   3.225  1.00  0.00     0.006 C 
ATOM     18  C   UNL     1      21.838  41.746   3.514  1.00  0.00     0.008 C 
ATOM     19  C   UNL     1      22.846  39.642   4.420  1.00  0.00     0.012 C 
ATOM     20  C   UNL     1      20.686  39.601   1.626  1.00  0.00    -0.025 C 
ATOM     21  C   UNL     1      22.098  41.693   2.021  1.00  0.00     0.005 C 
ATOM     22  C   UNL     1      20.854  41.126   1.303  1.00  0.00     0.003 C 
ATOM     23  C   UNL     1      19.393  39.100   0.900  1.00  0.00     0.010 C 
ATOM     24  C   UNL     1      21.864  38.721   1.084  1.00  0.00     0.012 C 
ATOM     25  C   UNL     1      20.713  41.580  -0.213  1.00  0.00    -0.006 C 
ATOM     26  C   UNL     1      19.354  39.419  -0.599  1.00  0.00     0.033 C 
ATOM     27  C   UNL     1      19.444  40.925  -0.848  1.00  0.00     0.120 C 
ATOM     28  C   UNL     1      20.481  43.118  -0.263  1.00  0.00     0.014 C 
ATOM     29  C   UNL     1      21.977  41.285  -1.068  1.00  0.00     0.014 C 
ENDROOT
BRANCH   1  30
ATOM     30  C   UNL     1      19.127  40.290   9.252  1.00  0.00     0.048 C 
ATOM     31  O   UNL     1      18.113  39.560   9.093  1.00  0.00    -0.550 OA
ATOM     32  O   UNL     1      18.981  41.492   9.944  1.00  0.00    -0.550 OA
ENDBRANCH   1  30
BRANCH  27  33
ATOM     33  O   UNL     1      19.410  41.147  -2.239  1.00  0.00    -0.393 OA
ATOM     34  H   UNL     1      20.318  40.964  -2.597  1.00  0.00     0.210 HD
ENDBRANCH  27  33
TORSDOF 2
ENDMDL
