MODEL 1
REMARK VINA RESULT:    -2.446      0.000      0.000
REMARK INTER + INTRA:          -5.308
REMARK INTER:                  -3.876
REMARK INTRA:                  -1.432
REMARK UNBOUND:                -1.432
REMARK SMILES CCCCCCCCCCCC(=O)[O-]
REMARK SMILES IDX 7 1 8 2 9 3 10 4 11 5 12 6 13 7 14 8 6 9 5 10 4 11 3 12 2 13
REMARK SMILES IDX 1 14
REMARK H PARENT
REMARK Flexibility Score: inf
ROOT
ATOM      1  C   UNL     1       6.391  23.276   7.372  1.00  0.00     0.000 C 
ENDROOT
BRANCH   1   2
ATOM      2  C   UNL     1       5.130  22.412   7.528  1.00  0.00     0.000 C 
BRANCH   2   3
ATOM      3  C   UNL     1       3.881  23.180   7.078  1.00  0.00     0.000 C 
BRANCH   3   4
ATOM      4  C   UNL     1       2.776  22.215   6.621  1.00  0.00     0.006 C 
BRANCH   4   5
ATOM      5  C   UNL     1       1.395  22.884   6.597  1.00  0.00     0.053 C 
BRANCH   5   6
ATOM      6  C   UNL     1       0.711  22.696   5.277  1.00  0.00     0.041 C 
ATOM      7  O   UNL     1       1.192  21.911   4.419  1.00  0.00    -0.550 OA
ATOM      8  O   UNL     1      -0.477  23.365   5.010  1.00  0.00    -0.550 OA
ENDBRANCH   5   6
ENDBRANCH   4   5
ENDBRANCH   3   4
ENDBRANCH   2   3
ENDBRANCH   1   2
BRANCH   1   9
ATOM      9  C   UNL     1       6.099  24.639   6.721  1.00  0.00     0.000 C 
BRANCH   9  10
ATOM     10  C   UNL     1       7.092  24.983   5.599  1.00  0.00    -0.000 C 
BRANCH  10  11
ATOM     11  C   UNL     1       6.554  24.639   4.198  1.00  0.00    -0.000 C 
BRANCH  11  12
ATOM     12  C   UNL     1       5.016  24.621   4.070  1.00  0.00    -0.000 C 
BRANCH  12  13
ATOM     13  C   UNL     1       4.434  23.357   3.415  1.00  0.00    -0.003 C 
ATOM     14  C   UNL     1       5.223  22.093   3.753  1.00  0.00     0.004 C 
ENDBRANCH  12  13
ENDBRANCH  11  12
ENDBRANCH  10  11
ENDBRANCH   9  10
ENDBRANCH   1   9
TORSDOF 10
ENDMDL
MODEL 2
REMARK VINA RESULT:    -2.445      1.013      1.275
REMARK INTER + INTRA:          -5.306
REMARK INTER:                  -3.976
REMARK INTRA:                  -1.330
REMARK UNBOUND:                -1.432
REMARK SMILES CCCCCCCCCCCC(=O)[O-]
REMARK SMILES IDX 7 1 8 2 9 3 10 4 11 5 12 6 13 7 14 8 6 9 5 10 4 11 3 12 2 13
REMARK SMILES IDX 1 14
REMARK H PARENT
REMARK Flexibility Score: inf
ROOT
ATOM      1  C   UNL     1       4.595  23.472   7.096  1.00  0.00     0.000 C 
ENDROOT
BRANCH   1   2
ATOM      2  C   UNL     1       4.463  21.947   7.229  1.00  0.00     0.000 C 
BRANCH   2   3
ATOM      3  C   UNL     1       3.156  21.453   6.595  1.00  0.00     0.000 C 
BRANCH   3   4
ATOM      4  C   UNL     1       2.176  22.615   6.376  1.00  0.00     0.006 C 
BRANCH   4   5
ATOM      5  C   UNL     1       1.343  22.439   5.100  1.00  0.00     0.053 C 
BRANCH   5   6
ATOM      6  C   UNL     1      -0.084  22.843   5.308  1.00  0.00     0.041 C 
ATOM      7  O   UNL     1      -0.751  22.352   6.257  1.00  0.00    -0.550 OA
ATOM      8  O   UNL     1      -0.667  23.788   4.474  1.00  0.00    -0.550 OA
ENDBRANCH   5   6
ENDBRANCH   4   5
ENDBRANCH   3   4
ENDBRANCH   2   3
ENDBRANCH   1   2
BRANCH   1   9
ATOM      9  C   UNL     1       6.037  23.962   7.309  1.00  0.00     0.000 C 
BRANCH   9  10
ATOM     10  C   UNL     1       6.506  24.918   6.200  1.00  0.00    -0.000 C 
BRANCH  10  11
ATOM     11  C   UNL     1       6.432  24.288   4.797  1.00  0.00    -0.000 C 
BRANCH  11  12
ATOM     12  C   UNL     1       5.405  24.930   3.841  1.00  0.00    -0.000 C 
BRANCH  12  13
ATOM     13  C   UNL     1       4.265  24.001   3.393  1.00  0.00    -0.003 C 
ATOM     14  C   UNL     1       4.675  22.530   3.356  1.00  0.00     0.004 C 
ENDBRANCH  12  13
ENDBRANCH  11  12
ENDBRANCH  10  11
ENDBRANCH   9  10
ENDBRANCH   1   9
TORSDOF 10
ENDMDL
MODEL 3
REMARK VINA RESULT:    -2.444      1.053      2.878
REMARK INTER + INTRA:          -5.304
REMARK INTER:                  -3.842
REMARK INTRA:                  -1.462
REMARK UNBOUND:                -1.432
REMARK SMILES CCCCCCCCCCCC(=O)[O-]
REMARK SMILES IDX 7 1 8 2 9 3 10 4 11 5 12 6 13 7 14 8 6 9 5 10 4 11 3 12 2 13
REMARK SMILES IDX 1 14
REMARK H PARENT
REMARK Flexibility Score: inf
ROOT
ATOM      1  C   UNL     1       3.960  23.875   3.837  1.00  0.00     0.000 C 
ENDROOT
BRANCH   1   2
ATOM      2  C   UNL     1       4.167  22.368   4.056  1.00  0.00     0.000 C 
BRANCH   2   3
ATOM      3  C   UNL     1       3.229  21.840   5.150  1.00  0.00     0.000 C 
BRANCH   3   4
ATOM      4  C   UNL     1       2.532  22.995   5.884  1.00  0.00     0.006 C 
BRANCH   4   5
ATOM      5  C   UNL     1       1.368  22.510   6.757  1.00  0.00     0.053 C 
BRANCH   5   6
ATOM      6  C   UNL     1       0.068  22.531   6.012  1.00  0.00     0.041 C 
ATOM      7  O   UNL     1      -0.928  21.902   6.455  1.00  0.00    -0.550 OA
ATOM      8  O   UNL     1      -0.050  23.274   4.844  1.00  0.00    -0.550 OA
ENDBRANCH   5   6
ENDBRANCH   4   5
ENDBRANCH   3   4
ENDBRANCH   2   3
ENDBRANCH   1   2
BRANCH   1   9
ATOM      9  C   UNL     1       5.273  24.671   3.918  1.00  0.00     0.000 C 
BRANCH   9  10
ATOM     10  C   UNL     1       6.278  24.054   4.904  1.00  0.00    -0.000 C 
BRANCH  10  11
ATOM     11  C   UNL     1       6.321  24.791   6.255  1.00  0.00    -0.000 C 
BRANCH  11  12
ATOM     12  C   UNL     1       5.954  23.934   7.484  1.00  0.00    -0.000 C 
BRANCH  12  13
ATOM     13  C   UNL     1       6.166  22.421   7.309  1.00  0.00    -0.003 C 
ATOM     14  C   UNL     1       5.267  21.584   8.217  1.00  0.00     0.004 C 
ENDBRANCH  12  13
ENDBRANCH  11  12
ENDBRANCH  10  11
ENDBRANCH   9  10
ENDBRANCH   1   9
TORSDOF 10
ENDMDL
MODEL 4
REMARK VINA RESULT:    -2.378     23.847     25.101
REMARK INTER + INTRA:          -5.200
REMARK INTER:                  -4.451
REMARK INTRA:                  -0.749
REMARK UNBOUND:                -1.432
REMARK SMILES CCCCCCCCCCCC(=O)[O-]
REMARK SMILES IDX 7 1 8 2 9 3 10 4 11 5 12 6 13 7 14 8 6 9 5 10 4 11 3 12 2 13
REMARK SMILES IDX 1 14
REMARK H PARENT
REMARK Flexibility Score: inf
ROOT
ATOM      1  C   UNL     1      -7.556  39.563  19.319  1.00  0.00     0.000 C 
ENDROOT
BRANCH   1   2
ATOM      2  C   UNL     1      -7.861  40.494  20.503  1.00  0.00     0.000 C 
BRANCH   2   3
ATOM      3  C   UNL     1      -8.400  39.700  21.699  1.00  0.00     0.000 C 
BRANCH   3   4
ATOM      4  C   UNL     1      -9.931  39.800  21.782  1.00  0.00     0.006 C 
BRANCH   4   5
ATOM      5  C   UNL     1     -10.594  38.426  21.951  1.00  0.00     0.053 C 
BRANCH   5   6
ATOM      6  C   UNL     1     -11.255  37.969  20.687  1.00  0.00     0.041 C 
ATOM      7  O   UNL     1     -11.770  36.822  20.620  1.00  0.00    -0.550 OA
ATOM      8  O   UNL     1     -11.331  38.823  19.595  1.00  0.00    -0.550 OA
ENDBRANCH   5   6
ENDBRANCH   4   5
ENDBRANCH   3   4
ENDBRANCH   2   3
ENDBRANCH   1   2
BRANCH   1   9
ATOM      9  C   UNL     1      -8.330  39.949  18.047  1.00  0.00     0.000 C 
BRANCH   9  10
ATOM     10  C   UNL     1      -7.517  40.863  17.115  1.00  0.00    -0.000 C 
BRANCH  10  11
ATOM     11  C   UNL     1      -8.046  40.864  15.670  1.00  0.00    -0.000 C 
BRANCH  11  12
ATOM     12  C   UNL     1      -9.226  39.908  15.400  1.00  0.00    -0.000 C 
BRANCH  12  13
ATOM     13  C   UNL     1     -10.568  40.599  15.104  1.00  0.00    -0.003 C 
ATOM     14  C   UNL     1     -11.720  40.046  15.941  1.00  0.00     0.004 C 
ENDBRANCH  12  13
ENDBRANCH  11  12
ENDBRANCH  10  11
ENDBRANCH   9  10
ENDBRANCH   1   9
TORSDOF 10
ENDMDL
MODEL 5
REMARK VINA RESULT:    -2.316     23.699     25.275
REMARK INTER + INTRA:          -5.102
REMARK INTER:                  -4.175
REMARK INTRA:                  -0.927
REMARK UNBOUND:                -1.432
REMARK SMILES CCCCCCCCCCCC(=O)[O-]
REMARK SMILES IDX 7 1 8 2 9 3 10 4 11 5 12 6 13 7 14 8 6 9 5 10 4 11 3 12 2 13
REMARK SMILES IDX 1 14
REMARK H PARENT
REMARK Flexibility Score: inf
ROOT
ATOM      1  C   UNL     1      -8.470  39.479  18.188  1.00  0.00     0.000 C 
ENDROOT
BRANCH   1   2
ATOM      2  C   UNL     1      -8.399  40.859  17.517  1.00  0.00     0.000 C 
BRANCH   2   3
ATOM      3  C   UNL     1      -8.154  40.723  16.008  1.00  0.00     0.000 C 
BRANCH   3   4
ATOM      4  C   UNL     1      -9.241  39.859  15.350  1.00  0.00     0.006 C 
BRANCH   4   5
ATOM      5  C   UNL     1     -10.518  40.657  15.057  1.00  0.00     0.053 C 
BRANCH   5   6
ATOM      6  C   UNL     1     -11.713  40.062  15.737  1.00  0.00     0.041 C 
ATOM      7  O   UNL     1     -11.784  40.045  16.994  1.00  0.00    -0.550 OA
ATOM      8  O   UNL     1     -12.763  39.558  14.981  1.00  0.00    -0.550 OA
ENDBRANCH   5   6
ENDBRANCH   4   5
ENDBRANCH   3   4
ENDBRANCH   2   3
ENDBRANCH   1   2
BRANCH   1   9
ATOM      9  C   UNL     1      -7.667  39.415  19.498  1.00  0.00     0.000 C 
BRANCH   9  10
ATOM     10  C   UNL     1      -7.782  40.706  20.325  1.00  0.00    -0.000 C 
BRANCH  10  11
ATOM     11  C   UNL     1      -8.205  40.446  21.783  1.00  0.00    -0.000 C 
BRANCH  11  12
ATOM     12  C   UNL     1      -9.127  39.228  21.993  1.00  0.00    -0.000 C 
BRANCH  12  13
ATOM     13  C   UNL     1     -10.583  39.429  21.540  1.00  0.00    -0.003 C 
ATOM     14  C   UNL     1     -11.073  38.328  20.601  1.00  0.00     0.004 C 
ENDBRANCH  12  13
ENDBRANCH  11  12
ENDBRANCH  10  11
ENDBRANCH   9  10
ENDBRANCH   1   9
TORSDOF 10
ENDMDL
MODEL 6
REMARK VINA RESULT:    -2.307      1.423      3.269
REMARK INTER + INTRA:          -5.087
REMARK INTER:                  -3.929
REMARK INTRA:                  -1.158
REMARK UNBOUND:                -1.432
REMARK SMILES CCCCCCCCCCCC(=O)[O-]
REMARK SMILES IDX 7 1 8 2 9 3 10 4 11 5 12 6 13 7 14 8 6 9 5 10 4 11 3 12 2 13
REMARK SMILES IDX 1 14
REMARK H PARENT
REMARK Flexibility Score: inf
ROOT
ATOM      1  C   UNL     1       2.781  23.069   6.512  1.00  0.00     0.000 C 
ENDROOT
BRANCH   1   2
ATOM      2  C   UNL     1       1.284  22.976   6.846  1.00  0.00     0.000 C 
BRANCH   2   3
ATOM      3  C   UNL     1       0.659  21.724   6.217  1.00  0.00     0.000 C 
BRANCH   3   4
ATOM      4  C   UNL     1      -0.607  22.080   5.423  1.00  0.00     0.006 C 
BRANCH   4   5
ATOM      5  C   UNL     1      -0.428  23.353   4.585  1.00  0.00     0.053 C 
BRANCH   5   6
ATOM      6  C   UNL     1       0.266  23.071   3.288  1.00  0.00     0.041 C 
ATOM      7  O   UNL     1       0.082  21.975   2.695  1.00  0.00    -0.550 OA
ATOM      8  O   UNL     1       1.089  24.033   2.718  1.00  0.00    -0.550 OA
ENDBRANCH   5   6
ENDBRANCH   4   5
ENDBRANCH   3   4
ENDBRANCH   2   3
ENDBRANCH   1   2
BRANCH   1   9
ATOM      9  C   UNL     1       3.188  22.143   5.354  1.00  0.00     0.000 C 
BRANCH   9  10
ATOM     10  C   UNL     1       4.069  22.853   4.312  1.00  0.00    -0.000 C 
BRANCH  10  11
ATOM     11  C   UNL     1       4.471  24.276   4.739  1.00  0.00    -0.000 C 
BRANCH  11  12
ATOM     12  C   UNL     1       5.990  24.524   4.853  1.00  0.00    -0.000 C 
BRANCH  12  13
ATOM     13  C   UNL     1       6.478  24.940   6.251  1.00  0.00    -0.003 C 
ATOM     14  C   UNL     1       6.211  23.876   7.316  1.00  0.00     0.004 C 
ENDBRANCH  12  13
ENDBRANCH  11  12
ENDBRANCH  10  11
ENDBRANCH   9  10
ENDBRANCH   1   9
TORSDOF 10
ENDMDL
MODEL 7
REMARK VINA RESULT:    -2.282      2.816      5.249
REMARK INTER + INTRA:          -5.048
REMARK INTER:                  -3.458
REMARK INTRA:                  -1.590
REMARK UNBOUND:                -1.432
REMARK SMILES CCCCCCCCCCCC(=O)[O-]
REMARK SMILES IDX 7 1 8 2 9 3 10 4 11 5 12 6 13 7 14 8 6 9 5 10 4 11 3 12 2 13
REMARK SMILES IDX 1 14
REMARK H PARENT
REMARK Flexibility Score: inf
ROOT
ATOM      1  C   UNL     1       0.734  22.119   7.143  1.00  0.00     0.000 C 
ENDROOT
BRANCH   1   2
ATOM      2  C   UNL     1       1.642  20.988   6.636  1.00  0.00     0.000 C 
BRANCH   2   3
ATOM      3  C   UNL     1       2.957  21.549   6.080  1.00  0.00     0.000 C 
BRANCH   3   4
ATOM      4  C   UNL     1       3.057  23.062   6.323  1.00  0.00     0.006 C 
BRANCH   4   5
ATOM      5  C   UNL     1       4.103  23.727   5.418  1.00  0.00     0.053 C 
BRANCH   5   6
ATOM      6  C   UNL     1       5.312  24.158   6.191  1.00  0.00     0.041 C 
ATOM      7  O   UNL     1       5.435  23.844   7.404  1.00  0.00    -0.550 OA
ATOM      8  O   UNL     1       6.318  24.878   5.560  1.00  0.00    -0.550 OA
ENDBRANCH   5   6
ENDBRANCH   4   5
ENDBRANCH   3   4
ENDBRANCH   2   3
ENDBRANCH   1   2
BRANCH   1   9
ATOM      9  C   UNL     1      -0.708  22.001   6.622  1.00  0.00     0.000 C 
BRANCH   9  10
ATOM     10  C   UNL     1      -0.789  22.066   5.087  1.00  0.00    -0.000 C 
BRANCH  10  11
ATOM     11  C   UNL     1      -0.414  23.450   4.528  1.00  0.00    -0.000 C 
BRANCH  11  12
ATOM     12  C   UNL     1       0.515  23.432   3.296  1.00  0.00    -0.000 C 
BRANCH  12  13
ATOM     13  C   UNL     1       1.069  22.047   2.920  1.00  0.00    -0.003 C 
ATOM     14  C   UNL     1       2.505  22.101   2.402  1.00  0.00     0.004 C 
ENDBRANCH  12  13
ENDBRANCH  11  12
ENDBRANCH  10  11
ENDBRANCH   9  10
ENDBRANCH   1   9
TORSDOF 10
ENDMDL
MODEL 8
REMARK VINA RESULT:    -2.260      2.000      3.989
REMARK INTER + INTRA:          -5.013
REMARK INTER:                  -3.808
REMARK INTRA:                  -1.205
REMARK UNBOUND:                -1.432
REMARK SMILES CCCCCCCCCCCC(=O)[O-]
REMARK SMILES IDX 7 1 8 2 9 3 10 4 11 5 12 6 13 7 14 8 6 9 5 10 4 11 3 12 2 13
REMARK SMILES IDX 1 14
REMARK H PARENT
REMARK Flexibility Score: inf
ROOT
ATOM      1  C   UNL     1       6.153  24.634   6.668  1.00  0.00     0.000 C 
ENDROOT
BRANCH   1   2
ATOM      2  C   UNL     1       7.088  25.001   5.504  1.00  0.00     0.000 C 
BRANCH   2   3
ATOM      3  C   UNL     1       6.368  24.857   4.157  1.00  0.00     0.000 C 
BRANCH   3   4
ATOM      4  C   UNL     1       4.859  24.654   4.358  1.00  0.00     0.006 C 
BRANCH   4   5
ATOM      5  C   UNL     1       4.165  24.153   3.085  1.00  0.00     0.053 C 
BRANCH   5   6
ATOM      6  C   UNL     1       3.285  25.204   2.481  1.00  0.00     0.041 C 
ATOM      7  O   UNL     1       3.767  26.315   2.137  1.00  0.00    -0.550 OA
ATOM      8  O   UNL     1       1.937  24.943   2.269  1.00  0.00    -0.550 OA
ENDBRANCH   5   6
ENDBRANCH   4   5
ENDBRANCH   3   4
ENDBRANCH   2   3
ENDBRANCH   1   2
BRANCH   1   9
ATOM      9  C   UNL     1       6.726  23.520   7.559  1.00  0.00     0.000 C 
BRANCH   9  10
ATOM     10  C   UNL     1       6.127  22.141   7.239  1.00  0.00    -0.000 C 
BRANCH  10  11
ATOM     11  C   UNL     1       4.657  22.011   7.678  1.00  0.00    -0.000 C 
BRANCH  11  12
ATOM     12  C   UNL     1       3.641  21.836   6.531  1.00  0.00    -0.000 C 
BRANCH  12  13
ATOM     13  C   UNL     1       2.458  22.819   6.555  1.00  0.00    -0.003 C 
ATOM     14  C   UNL     1       1.486  22.610   5.395  1.00  0.00     0.004 C 
ENDBRANCH  12  13
ENDBRANCH  11  12
ENDBRANCH  10  11
ENDBRANCH   9  10
ENDBRANCH   1   9
TORSDOF 10
ENDMDL
MODEL 9
REMARK VINA RESULT:    -2.240      1.947      4.251
REMARK INTER + INTRA:          -4.981
REMARK INTER:                  -3.856
REMARK INTRA:                  -1.125
REMARK UNBOUND:                -1.432
REMARK SMILES CCCCCCCCCCCC(=O)[O-]
REMARK SMILES IDX 7 1 8 2 9 3 10 4 11 5 12 6 13 7 14 8 6 9 5 10 4 11 3 12 2 13
REMARK SMILES IDX 1 14
REMARK H PARENT
REMARK Flexibility Score: inf
ROOT
ATOM      1  C   UNL     1       0.752  22.342   7.140  1.00  0.00     0.000 C 
ENDROOT
BRANCH   1   2
ATOM      2  C   UNL     1      -0.655  22.021   6.610  1.00  0.00     0.000 C 
BRANCH   2   3
ATOM      3  C   UNL     1      -0.626  21.771   5.097  1.00  0.00     0.000 C 
BRANCH   3   4
ATOM      4  C   UNL     1      -0.189  23.033   4.338  1.00  0.00     0.006 C 
BRANCH   4   5
ATOM      5  C   UNL     1       0.982  22.761   3.385  1.00  0.00     0.053 C 
BRANCH   5   6
ATOM      6  C   UNL     1       1.362  23.985   2.609  1.00  0.00     0.041 C 
ATOM      7  O   UNL     1       2.492  24.063   2.058  1.00  0.00    -0.550 OA
ATOM      8  O   UNL     1       0.454  25.026   2.466  1.00  0.00    -0.550 OA
ENDBRANCH   5   6
ENDBRANCH   4   5
ENDBRANCH   3   4
ENDBRANCH   2   3
ENDBRANCH   1   2
BRANCH   1   9
ATOM      9  C   UNL     1       1.744  21.187   6.926  1.00  0.00     0.000 C 
BRANCH   9  10
ATOM     10  C   UNL     1       3.085  21.661   6.343  1.00  0.00    -0.000 C 
BRANCH  10  11
ATOM     11  C   UNL     1       3.274  23.185   6.441  1.00  0.00    -0.000 C 
BRANCH  11  12
ATOM     12  C   UNL     1       4.132  23.815   5.324  1.00  0.00    -0.000 C 
BRANCH  12  13
ATOM     13  C   UNL     1       5.565  24.191   5.738  1.00  0.00    -0.003 C 
ATOM     14  C   UNL     1       5.805  24.056   7.241  1.00  0.00     0.004 C 
ENDBRANCH  12  13
ENDBRANCH  11  12
ENDBRANCH  10  11
ENDBRANCH   9  10
ENDBRANCH   1   9
TORSDOF 10
ENDMDL
