MODEL 1
REMARK VINA RESULT:    -4.856      0.000      0.000
REMARK INTER + INTRA:          -9.891
REMARK INTER:                  -8.263
REMARK INTRA:                  -1.628
REMARK UNBOUND:                -1.628
REMARK SMILES CCCCCCCCCCCCCC(=O)[O-]
REMARK SMILES IDX 8 1 9 2 10 3 11 4 12 5 13 6 14 7 15 8 16 9 7 10 6 11 5 12
REMARK SMILES IDX 4 13 3 14 2 15 1 16
REMARK H PARENT
REMARK Flexibility Score: inf
ROOT
ATOM      1  C   UNL     1     159.157 157.027 149.595  1.00  0.00     0.000 C 
ENDROOT
BRANCH   1   2
ATOM      2  C   UNL     1     160.474 157.444 150.274  1.00  0.00     0.000 C 
BRANCH   2   3
ATOM      3  C   UNL     1     160.255 158.145 151.622  1.00  0.00     0.000 C 
BRANCH   3   4
ATOM      4  C   UNL     1     159.244 159.290 151.488  1.00  0.00     0.000 C 
BRANCH   4   5
ATOM      5  C   UNL     1     159.657 160.493 152.345  1.00  0.00     0.006 C 
BRANCH   5   6
ATOM      6  C   UNL     1     158.950 160.469 153.703  1.00  0.00     0.053 C 
BRANCH   6   7
ATOM      7  C   UNL     1     157.944 161.572 153.789  1.00  0.00     0.041 C 
ATOM      8  O   UNL     1     157.879 162.444 152.883  1.00  0.00    -0.550 OA
ATOM      9  O   UNL     1     157.043 161.611 154.847  1.00  0.00    -0.550 OA
ENDBRANCH   6   7
ENDBRANCH   5   6
ENDBRANCH   4   5
ENDBRANCH   3   4
ENDBRANCH   2   3
ENDBRANCH   1   2
BRANCH   1  10
ATOM     10  C   UNL     1     158.950 157.587 148.173  1.00  0.00     0.000 C 
BRANCH  10  11
ATOM     11  C   UNL     1     159.931 158.697 147.758  1.00  0.00    -0.000 C 
BRANCH  11  12
ATOM     12  C   UNL     1     159.231 160.030 147.454  1.00  0.00    -0.000 C 
BRANCH  12  13
ATOM     13  C   UNL     1     159.913 161.189 148.191  1.00  0.00    -0.000 C 
BRANCH  13  14
ATOM     14  C   UNL     1     161.239 160.738 148.817  1.00  0.00    -0.000 C 
BRANCH  14  15
ATOM     15  C   UNL     1     161.867 161.865 149.645  1.00  0.00    -0.003 C 
ATOM     16  C   UNL     1     161.320 163.227 149.227  1.00  0.00     0.004 C 
ENDBRANCH  14  15
ENDBRANCH  13  14
ENDBRANCH  12  13
ENDBRANCH  11  12
ENDBRANCH  10  11
ENDBRANCH   1  10
TORSDOF 12
ENDMDL
MODEL 2
REMARK VINA RESULT:    -4.822      2.749      3.156
REMARK INTER + INTRA:          -9.833
REMARK INTER:                  -8.050
REMARK INTRA:                  -1.783
REMARK UNBOUND:                -1.628
REMARK SMILES CCCCCCCCCCCCCC(=O)[O-]
REMARK SMILES IDX 8 1 9 2 10 3 11 4 12 5 13 6 14 7 15 8 16 9 7 10 6 11 5 12
REMARK SMILES IDX 4 13 3 14 2 15 1 16
REMARK H PARENT
REMARK Flexibility Score: inf
ROOT
ATOM      1  C   UNL     1     159.826 157.334 148.904  1.00  0.00     0.000 C 
ENDROOT
BRANCH   1   2
ATOM      2  C   UNL     1     159.295 157.411 150.347  1.00  0.00     0.000 C 
BRANCH   2   3
ATOM      3  C   UNL     1     158.491 158.691 150.620  1.00  0.00     0.000 C 
BRANCH   3   4
ATOM      4  C   UNL     1     158.958 159.368 151.914  1.00  0.00     0.000 C 
BRANCH   4   5
ATOM      5  C   UNL     1     160.477 159.246 152.083  1.00  0.00     0.006 C 
BRANCH   5   6
ATOM      6  C   UNL     1     160.862 159.186 153.564  1.00  0.00     0.053 C 
BRANCH   6   7
ATOM      7  C   UNL     1     161.715 157.988 153.835  1.00  0.00     0.041 C 
ATOM      8  O   UNL     1     161.739 157.028 153.021  1.00  0.00    -0.550 OA
ATOM      9  O   UNL     1     162.524 157.952 154.965  1.00  0.00    -0.550 OA
ENDBRANCH   6   7
ENDBRANCH   5   6
ENDBRANCH   4   5
ENDBRANCH   3   4
ENDBRANCH   2   3
ENDBRANCH   1   2
BRANCH   1  10
ATOM     10  C   UNL     1     159.263 158.400 147.943  1.00  0.00     0.000 C 
BRANCH  10  11
ATOM     11  C   UNL     1     160.301 159.388 147.382  1.00  0.00    -0.000 C 
BRANCH  11  12
ATOM     12  C   UNL     1     160.058 160.834 147.840  1.00  0.00    -0.000 C 
BRANCH  12  13
ATOM     13  C   UNL     1     160.998 161.209 148.992  1.00  0.00    -0.000 C 
BRANCH  13  14
ATOM     14  C   UNL     1     160.498 162.459 149.725  1.00  0.00    -0.000 C 
BRANCH  14  15
ATOM     15  C   UNL     1     158.986 162.386 149.968  1.00  0.00    -0.003 C 
ATOM     16  C   UNL     1     158.631 162.837 151.382  1.00  0.00     0.004 C 
ENDBRANCH  14  15
ENDBRANCH  13  14
ENDBRANCH  12  13
ENDBRANCH  11  12
ENDBRANCH  10  11
ENDBRANCH   1  10
TORSDOF 12
ENDMDL
MODEL 3
REMARK VINA RESULT:    -4.818      2.655      4.470
REMARK INTER + INTRA:          -9.826
REMARK INTER:                  -8.090
REMARK INTRA:                  -1.736
REMARK UNBOUND:                -1.628
REMARK SMILES CCCCCCCCCCCCCC(=O)[O-]
REMARK SMILES IDX 8 1 9 2 10 3 11 4 12 5 13 6 14 7 15 8 16 9 7 10 6 11 5 12
REMARK SMILES IDX 4 13 3 14 2 15 1 16
REMARK H PARENT
REMARK Flexibility Score: inf
ROOT
ATOM      1  C   UNL     1     161.038 161.344 148.760  1.00  0.00     0.000 C 
ENDROOT
BRANCH   1   2
ATOM      2  C   UNL     1     160.697 161.653 150.229  1.00  0.00     0.000 C 
BRANCH   2   3
ATOM      3  C   UNL     1     159.238 161.332 150.583  1.00  0.00     0.000 C 
BRANCH   3   4
ATOM      4  C   UNL     1     159.160 160.286 151.702  1.00  0.00     0.000 C 
BRANCH   4   5
ATOM      5  C   UNL     1     160.561 159.864 152.159  1.00  0.00     0.006 C 
BRANCH   5   6
ATOM      6  C   UNL     1     160.510 159.187 153.532  1.00  0.00     0.053 C 
BRANCH   6   7
ATOM      7  C   UNL     1     161.442 158.018 153.574  1.00  0.00     0.041 C 
ATOM      8  O   UNL     1     162.287 157.913 154.502  1.00  0.00    -0.550 OA
ATOM      9  O   UNL     1     161.347 157.017 152.614  1.00  0.00    -0.550 OA
ENDBRANCH   6   7
ENDBRANCH   5   6
ENDBRANCH   4   5
ENDBRANCH   3   4
ENDBRANCH   2   3
ENDBRANCH   1   2
BRANCH   1  10
ATOM     10  C   UNL     1     159.840 160.922 147.885  1.00  0.00     0.000 C 
BRANCH  10  11
ATOM     11  C   UNL     1     160.053 159.640 147.061  1.00  0.00    -0.000 C 
BRANCH  11  12
ATOM     12  C   UNL     1     159.303 158.429 147.638  1.00  0.00    -0.000 C 
BRANCH  12  13
ATOM     13  C   UNL     1     160.054 157.841 148.838  1.00  0.00    -0.000 C 
BRANCH  13  14
ATOM     14  C   UNL     1     159.085 157.159 149.813  1.00  0.00    -0.000 C 
BRANCH  14  15
ATOM     15  C   UNL     1     157.651 157.659 149.602  1.00  0.00    -0.003 C 
ATOM     16  C   UNL     1     156.633 156.574 149.938  1.00  0.00     0.004 C 
ENDBRANCH  14  15
ENDBRANCH  13  14
ENDBRANCH  12  13
ENDBRANCH  11  12
ENDBRANCH  10  11
ENDBRANCH   1  10
TORSDOF 12
ENDMDL
MODEL 4
REMARK VINA RESULT:    -4.806      3.113      5.448
REMARK INTER + INTRA:          -9.805
REMARK INTER:                  -8.094
REMARK INTRA:                  -1.712
REMARK UNBOUND:                -1.628
REMARK SMILES CCCCCCCCCCCCCC(=O)[O-]
REMARK SMILES IDX 8 1 9 2 10 3 11 4 12 5 13 6 14 7 15 8 16 9 7 10 6 11 5 12
REMARK SMILES IDX 4 13 3 14 2 15 1 16
REMARK H PARENT
REMARK Flexibility Score: inf
ROOT
ATOM      1  C   UNL     1     159.329 161.610 151.703  1.00  0.00     0.000 C 
ENDROOT
BRANCH   1   2
ATOM      2  C   UNL     1     158.774 161.931 150.303  1.00  0.00     0.000 C 
BRANCH   2   3
ATOM      3  C   UNL     1     159.869 162.328 149.303  1.00  0.00     0.000 C 
BRANCH   3   4
ATOM      4  C   UNL     1     161.252 161.885 149.797  1.00  0.00     0.000 C 
BRANCH   4   5
ATOM      5  C   UNL     1     162.296 162.984 149.570  1.00  0.00     0.006 C 
BRANCH   5   6
ATOM      6  C   UNL     1     163.644 162.596 150.184  1.00  0.00     0.053 C 
BRANCH   6   7
ATOM      7  C   UNL     1     164.531 163.795 150.302  1.00  0.00     0.041 C 
ATOM      8  O   UNL     1     165.171 164.211 149.301  1.00  0.00    -0.550 OA
ATOM      9  O   UNL     1     164.613 164.482 151.507  1.00  0.00    -0.550 OA
ENDBRANCH   6   7
ENDBRANCH   5   6
ENDBRANCH   4   5
ENDBRANCH   3   4
ENDBRANCH   2   3
ENDBRANCH   1   2
BRANCH   1  10
ATOM     10  C   UNL     1     159.022 160.189 152.218  1.00  0.00     0.000 C 
BRANCH  10  11
ATOM     11  C   UNL     1     160.165 159.173 152.053  1.00  0.00    -0.000 C 
BRANCH  11  12
ATOM     12  C   UNL     1     160.090 158.399 150.727  1.00  0.00    -0.000 C 
BRANCH  12  13
ATOM     13  C   UNL     1     158.633 158.173 150.307  1.00  0.00    -0.000 C 
BRANCH  13  14
ATOM     14  C   UNL     1     158.440 158.466 148.814  1.00  0.00    -0.000 C 
BRANCH  14  15
ATOM     15  C   UNL     1     159.786 158.499 148.081  1.00  0.00    -0.003 C 
ATOM     16  C   UNL     1     159.771 159.517 146.945  1.00  0.00     0.004 C 
ENDBRANCH  14  15
ENDBRANCH  13  14
ENDBRANCH  12  13
ENDBRANCH  11  12
ENDBRANCH  10  11
ENDBRANCH   1  10
TORSDOF 12
ENDMDL
MODEL 5
REMARK VINA RESULT:    -4.764      1.283      3.712
REMARK INTER + INTRA:          -9.734
REMARK INTER:                  -8.250
REMARK INTRA:                  -1.484
REMARK UNBOUND:                -1.628
REMARK SMILES CCCCCCCCCCCCCC(=O)[O-]
REMARK SMILES IDX 8 1 9 2 10 3 11 4 12 5 13 6 14 7 15 8 16 9 7 10 6 11 5 12
REMARK SMILES IDX 4 13 3 14 2 15 1 16
REMARK H PARENT
REMARK Flexibility Score: inf
ROOT
ATOM      1  C   UNL     1     159.979 162.092 148.919  1.00  0.00     0.000 C 
ENDROOT
BRANCH   1   2
ATOM      2  C   UNL     1     160.260 161.920 150.423  1.00  0.00     0.000 C 
BRANCH   2   3
ATOM      3  C   UNL     1     161.133 160.695 150.731  1.00  0.00     0.000 C 
BRANCH   3   4
ATOM      4  C   UNL     1     160.492 159.822 151.817  1.00  0.00     0.000 C 
BRANCH   4   5
ATOM      5  C   UNL     1     159.011 160.171 152.001  1.00  0.00     0.006 C 
BRANCH   5   6
ATOM      6  C   UNL     1     158.642 160.233 153.486  1.00  0.00     0.053 C 
BRANCH   6   7
ATOM      7  C   UNL     1     157.890 161.491 153.786  1.00  0.00     0.041 C 
ATOM      8  O   UNL     1     157.918 162.456 152.978  1.00  0.00    -0.550 OA
ATOM      9  O   UNL     1     157.117 161.581 154.938  1.00  0.00    -0.550 OA
ENDBRANCH   6   7
ENDBRANCH   5   6
ENDBRANCH   4   5
ENDBRANCH   3   4
ENDBRANCH   2   3
ENDBRANCH   1   2
BRANCH   1  10
ATOM     10  C   UNL     1     160.382 160.893 148.037  1.00  0.00     0.000 C 
BRANCH  10  11
ATOM     11  C   UNL     1     159.209 160.129 147.398  1.00  0.00    -0.000 C 
BRANCH  11  12
ATOM     12  C   UNL     1     159.465 158.618 147.297  1.00  0.00    -0.000 C 
BRANCH  12  13
ATOM     13  C   UNL     1     159.478 157.970 148.686  1.00  0.00    -0.000 C 
BRANCH  13  14
ATOM     14  C   UNL     1     158.095 158.050 149.344  1.00  0.00    -0.000 C 
BRANCH  14  15
ATOM     15  C   UNL     1     157.506 156.650 149.557  1.00  0.00    -0.003 C 
ATOM     16  C   UNL     1     156.071 156.727 150.068  1.00  0.00     0.004 C 
ENDBRANCH  14  15
ENDBRANCH  13  14
ENDBRANCH  12  13
ENDBRANCH  11  12
ENDBRANCH  10  11
ENDBRANCH   1  10
TORSDOF 12
ENDMDL
MODEL 6
REMARK VINA RESULT:    -4.746      1.433      3.335
REMARK INTER + INTRA:          -9.704
REMARK INTER:                  -7.816
REMARK INTRA:                  -1.888
REMARK UNBOUND:                -1.628
REMARK SMILES CCCCCCCCCCCCCC(=O)[O-]
REMARK SMILES IDX 8 1 9 2 10 3 11 4 12 5 13 6 14 7 15 8 16 9 7 10 6 11 5 12
REMARK SMILES IDX 4 13 3 14 2 15 1 16
REMARK H PARENT
REMARK Flexibility Score: inf
ROOT
ATOM      1  C   UNL     1     159.604 160.784 147.753  1.00  0.00     0.000 C 
ENDROOT
BRANCH   1   2
ATOM      2  C   UNL     1     160.811 161.338 148.531  1.00  0.00     0.000 C 
BRANCH   2   3
ATOM      3  C   UNL     1     160.419 161.955 149.881  1.00  0.00     0.000 C 
BRANCH   3   4
ATOM      4  C   UNL     1     158.913 162.236 149.941  1.00  0.00     0.000 C 
BRANCH   4   5
ATOM      5  C   UNL     1     158.475 162.592 151.366  1.00  0.00     0.006 C 
BRANCH   5   6
ATOM      6  C   UNL     1     159.040 161.594 152.380  1.00  0.00     0.053 C 
BRANCH   6   7
ATOM      7  C   UNL     1     158.013 161.263 153.417  1.00  0.00     0.041 C 
ATOM      8  O   UNL     1     157.351 162.180 153.970  1.00  0.00    -0.550 OA
ATOM      9  O   UNL     1     157.753 159.936 153.739  1.00  0.00    -0.550 OA
ENDBRANCH   6   7
ENDBRANCH   5   6
ENDBRANCH   4   5
ENDBRANCH   3   4
ENDBRANCH   2   3
ENDBRANCH   1   2
BRANCH   1  10
ATOM     10  C   UNL     1     159.792 159.365 147.178  1.00  0.00     0.000 C 
BRANCH  10  11
ATOM     11  C   UNL     1     159.475 158.218 148.153  1.00  0.00    -0.000 C 
BRANCH  11  12
ATOM     12  C   UNL     1     158.266 158.516 149.054  1.00  0.00    -0.000 C 
BRANCH  12  13
ATOM     13  C   UNL     1     158.625 158.328 150.533  1.00  0.00    -0.000 C 
BRANCH  13  14
ATOM     14  C   UNL     1     160.139 158.442 150.751  1.00  0.00    -0.000 C 
BRANCH  14  15
ATOM     15  C   UNL     1     160.567 157.705 152.025  1.00  0.00    -0.003 C 
ATOM     16  C   UNL     1     161.076 158.681 153.082  1.00  0.00     0.004 C 
ENDBRANCH  14  15
ENDBRANCH  13  14
ENDBRANCH  12  13
ENDBRANCH  11  12
ENDBRANCH  10  11
ENDBRANCH   1  10
TORSDOF 12
ENDMDL
MODEL 7
REMARK VINA RESULT:    -4.685      3.327      5.090
REMARK INTER + INTRA:          -9.600
REMARK INTER:                  -7.966
REMARK INTRA:                  -1.634
REMARK UNBOUND:                -1.628
REMARK SMILES CCCCCCCCCCCCCC(=O)[O-]
REMARK SMILES IDX 8 1 9 2 10 3 11 4 12 5 13 6 14 7 15 8 16 9 7 10 6 11 5 12
REMARK SMILES IDX 4 13 3 14 2 15 1 16
REMARK H PARENT
REMARK Flexibility Score: inf
ROOT
ATOM      1  C   UNL     1     159.216 160.280 147.749  1.00  0.00     0.000 C 
ENDROOT
BRANCH   1   2
ATOM      2  C   UNL     1     159.854 158.927 147.384  1.00  0.00     0.000 C 
BRANCH   2   3
ATOM      3  C   UNL     1     159.534 157.822 148.402  1.00  0.00     0.000 C 
BRANCH   3   4
ATOM      4  C   UNL     1     158.174 158.065 149.068  1.00  0.00     0.000 C 
BRANCH   4   5
ATOM      5  C   UNL     1     157.478 156.739 149.399  1.00  0.00     0.006 C 
BRANCH   5   6
ATOM      6  C   UNL     1     156.263 156.968 150.301  1.00  0.00     0.053 C 
BRANCH   6   7
ATOM      7  C   UNL     1     155.276 155.854 150.143  1.00  0.00     0.041 C 
ATOM      8  O   UNL     1     155.514 154.720 150.635  1.00  0.00    -0.550 OA
ATOM      9  O   UNL     1     154.070 156.082 149.492  1.00  0.00    -0.550 OA
ENDBRANCH   6   7
ENDBRANCH   5   6
ENDBRANCH   4   5
ENDBRANCH   3   4
ENDBRANCH   2   3
ENDBRANCH   1   2
BRANCH   1  10
ATOM     10  C   UNL     1     160.217 161.427 148.000  1.00  0.00     0.000 C 
BRANCH  10  11
ATOM     11  C   UNL     1     160.319 161.896 149.463  1.00  0.00    -0.000 C 
BRANCH  11  12
ATOM     12  C   UNL     1     159.008 161.716 150.241  1.00  0.00    -0.000 C 
BRANCH  12  13
ATOM     13  C   UNL     1     159.242 160.929 151.536  1.00  0.00    -0.000 C 
BRANCH  13  14
ATOM     14  C   UNL     1     160.367 159.902 151.360  1.00  0.00    -0.000 C 
BRANCH  14  15
ATOM     15  C   UNL     1     160.201 158.733 152.338  1.00  0.00    -0.003 C 
ATOM     16  C   UNL     1     160.741 157.435 151.744  1.00  0.00     0.004 C 
ENDBRANCH  14  15
ENDBRANCH  13  14
ENDBRANCH  12  13
ENDBRANCH  11  12
ENDBRANCH  10  11
ENDBRANCH   1  10
TORSDOF 12
ENDMDL
MODEL 8
REMARK VINA RESULT:    -4.671      3.098      5.240
REMARK INTER + INTRA:          -9.576
REMARK INTER:                  -7.906
REMARK INTRA:                  -1.670
REMARK UNBOUND:                -1.628
REMARK SMILES CCCCCCCCCCCCCC(=O)[O-]
REMARK SMILES IDX 8 1 9 2 10 3 11 4 12 5 13 6 14 7 15 8 16 9 7 10 6 11 5 12
REMARK SMILES IDX 4 13 3 14 2 15 1 16
REMARK H PARENT
REMARK Flexibility Score: inf
ROOT
ATOM      1  C   UNL     1     158.773 160.359 148.132  1.00  0.00     0.000 C 
ENDROOT
BRANCH   1   2
ATOM      2  C   UNL     1     159.658 161.452 148.757  1.00  0.00     0.000 C 
BRANCH   2   3
ATOM      3  C   UNL     1     161.152 161.100 148.729  1.00  0.00     0.000 C 
BRANCH   3   4
ATOM      4  C   UNL     1     161.860 161.606 149.992  1.00  0.00     0.000 C 
BRANCH   4   5
ATOM      5  C   UNL     1     162.672 162.873 149.698  1.00  0.00     0.006 C 
BRANCH   5   6
ATOM      6  C   UNL     1     164.055 162.803 150.350  1.00  0.00     0.053 C 
BRANCH   6   7
ATOM      7  C   UNL     1     164.677 164.162 150.408  1.00  0.00     0.041 C 
ATOM      8  O   UNL     1     164.646 164.830 151.475  1.00  0.00    -0.550 OA
ATOM      9  O   UNL     1     165.334 164.675 149.295  1.00  0.00    -0.550 OA
ENDBRANCH   6   7
ENDBRANCH   5   6
ENDBRANCH   4   5
ENDBRANCH   3   4
ENDBRANCH   2   3
ENDBRANCH   1   2
BRANCH   1  10
ATOM     10  C   UNL     1     159.540 159.189 147.482  1.00  0.00     0.000 C 
BRANCH  10  11
ATOM     11  C   UNL     1     159.482 157.860 148.256  1.00  0.00    -0.000 C 
BRANCH  11  12
ATOM     12  C   UNL     1     159.129 158.047 149.739  1.00  0.00    -0.000 C 
BRANCH  12  13
ATOM     13  C   UNL     1     160.383 157.954 150.617  1.00  0.00    -0.000 C 
BRANCH  13  14
ATOM     14  C   UNL     1     160.240 158.821 151.874  1.00  0.00    -0.000 C 
BRANCH  14  15
ATOM     15  C   UNL     1     158.898 159.562 151.881  1.00  0.00    -0.003 C 
ATOM     16  C   UNL     1     159.048 160.969 152.452  1.00  0.00     0.004 C 
ENDBRANCH  14  15
ENDBRANCH  13  14
ENDBRANCH  12  13
ENDBRANCH  11  12
ENDBRANCH  10  11
ENDBRANCH   1  10
TORSDOF 12
ENDMDL
MODEL 9
REMARK VINA RESULT:    -4.652      2.763      4.849
REMARK INTER + INTRA:          -9.544
REMARK INTER:                  -7.638
REMARK INTRA:                  -1.906
REMARK UNBOUND:                -1.628
REMARK SMILES CCCCCCCCCCCCCC(=O)[O-]
REMARK SMILES IDX 8 1 9 2 10 3 11 4 12 5 13 6 14 7 15 8 16 9 7 10 6 11 5 12
REMARK SMILES IDX 4 13 3 14 2 15 1 16
REMARK H PARENT
REMARK Flexibility Score: inf
ROOT
ATOM      1  C   UNL     1     160.752 160.764 148.275  1.00  0.00     0.000 C 
ENDROOT
BRANCH   1   2
ATOM      2  C   UNL     1     159.690 159.997 147.466  1.00  0.00     0.000 C 
BRANCH   2   3
ATOM      3  C   UNL     1     159.593 158.517 147.862  1.00  0.00     0.000 C 
BRANCH   3   4
ATOM      4  C   UNL     1     160.329 158.251 149.181  1.00  0.00     0.000 C 
BRANCH   4   5
ATOM      5  C   UNL     1     159.419 157.533 150.185  1.00  0.00     0.006 C 
BRANCH   5   6
ATOM      6  C   UNL     1     157.990 158.080 150.119  1.00  0.00     0.053 C 
BRANCH   6   7
ATOM      7  C   UNL     1     157.010 156.963 149.945  1.00  0.00     0.041 C 
ATOM      8  O   UNL     1     157.346 155.913 149.338  1.00  0.00    -0.550 OA
ATOM      9  O   UNL     1     155.738 157.062 150.497  1.00  0.00    -0.550 OA
ENDBRANCH   6   7
ENDBRANCH   5   6
ENDBRANCH   4   5
ENDBRANCH   3   4
ENDBRANCH   2   3
ENDBRANCH   1   2
BRANCH   1  10
ATOM     10  C   UNL     1     160.360 162.204 148.668  1.00  0.00     0.000 C 
BRANCH  10  11
ATOM     11  C   UNL     1     159.474 162.320 149.920  1.00  0.00    -0.000 C 
BRANCH  11  12
ATOM     12  C   UNL     1     160.011 161.509 151.109  1.00  0.00    -0.000 C 
BRANCH  12  13
ATOM     13  C   UNL     1     158.876 161.116 152.062  1.00  0.00    -0.000 C 
BRANCH  13  14
ATOM     14  C   UNL     1     159.367 160.124 153.123  1.00  0.00    -0.000 C 
BRANCH  14  15
ATOM     15  C   UNL     1     160.817 159.703 152.854  1.00  0.00    -0.003 C 
ATOM     16  C   UNL     1     161.099 158.309 153.406  1.00  0.00     0.004 C 
ENDBRANCH  14  15
ENDBRANCH  13  14
ENDBRANCH  12  13
ENDBRANCH  11  12
ENDBRANCH  10  11
ENDBRANCH   1  10
TORSDOF 12
ENDMDL
