MODEL 1
REMARK VINA RESULT:    40.419      0.000      0.000
REMARK INTER + INTRA:          55.319
REMARK INTER:                  55.777
REMARK INTRA:                  -0.458
REMARK UNBOUND:                -0.458
REMARK SMILES CC[C@@H](CC[C@H](C)[C@H]1CC[C@@H]2[C@H]3CC=C4C[C@@H](O)CC[C@@]4(C)[C@H]3CC[C@@]21C)C(C)C
REMARK SMILES IDX 5 1 4 2 3 3 2 4 1 5 28 6 29 7 30 8 6 9 7 10 8 11 9 12 26 13
REMARK SMILES IDX 10 14 11 15 25 16 27 17 12 18 24 19 23 20 13 21 21 22 14 23
REMARK SMILES IDX 15 24 20 25 22 26 16 27 19 28 17 29 18 30
REMARK H PARENT 18 31
REMARK Flexibility Score: inf
ROOT
ATOM      1  C   UNL     1       2.288  63.325  -6.750  1.00  0.00     0.004 C 
ENDROOT
BRANCH   1   2
ATOM      2  C   UNL     1       2.737  62.232  -7.751  1.00  0.00     0.004 C 
BRANCH   2   3
ATOM      3  C   UNL     1       3.509  61.018  -7.149  1.00  0.00    -0.009 C 
BRANCH   3   4
ATOM      4  C   UNL     1       4.585  60.465  -8.125  1.00  0.00     0.000 C 
ATOM      5  C   UNL     1       5.137  59.084  -7.760  1.00  0.00     0.004 C 
ENDBRANCH   3   4
BRANCH   3   6
ATOM      6  C   UNL     1       2.520  59.909  -6.641  1.00  0.00    -0.014 C 
ATOM      7  C   UNL     1       1.600  60.415  -5.512  1.00  0.00     0.007 C 
ATOM      8  C   UNL     1       1.638  59.360  -7.780  1.00  0.00     0.007 C 
ENDBRANCH   3   6
ENDBRANCH   2   3
ENDBRANCH   1   2
BRANCH   1   9
ATOM      9  C   UNL     1       2.213  64.785  -7.298  1.00  0.00    -0.011 C 
ATOM     10  C   UNL     1       3.608  65.234  -7.798  1.00  0.00     0.008 C 
BRANCH   9  11
ATOM     11  C   UNL     1       1.681  65.763  -6.178  1.00  0.00    -0.002 C 
ATOM     12  C   UNL     1       2.779  66.395  -5.314  1.00  0.00     0.005 C 
ATOM     13  C   UNL     1       0.738  66.972  -6.591  1.00  0.00    -0.026 C 
ATOM     14  C   UNL     1       2.111  67.571  -4.639  1.00  0.00     0.005 C 
ATOM     15  C   UNL     1       1.274  68.186  -5.750  1.00  0.00    -0.001 C 
ATOM     16  C   UNL     1      -0.735  66.602  -6.244  1.00  0.00     0.007 C 
ATOM     17  C   UNL     1       0.832  67.352  -8.090  1.00  0.00     0.012 C 
ATOM     18  C   UNL     1       0.250  69.253  -5.230  1.00  0.00     0.000 C 
ATOM     19  C   UNL     1      -1.644  67.808  -6.042  1.00  0.00     0.005 C 
ATOM     20  C   UNL     1      -1.132  68.657  -4.862  1.00  0.00     0.003 C 
ATOM     21  C   UNL     1       0.152  70.475  -6.194  1.00  0.00     0.031 C 
ATOM     22  C   UNL     1      -2.134  69.781  -4.412  1.00  0.00    -0.008 C 
ATOM     23  C   UNL     1      -1.191  71.167  -6.258  1.00  0.00    -0.027 C 
ATOM     24  C   UNL     1      -2.253  70.818  -5.510  1.00  0.00    -0.065 C 
ATOM     25  C   UNL     1      -3.539  69.190  -4.017  1.00  0.00     0.014 C 
ATOM     26  C   UNL     1      -1.582  70.510  -3.154  1.00  0.00     0.016 C 
ATOM     27  C   UNL     1      -3.612  71.384  -5.818  1.00  0.00     0.063 C 
ATOM     28  C   UNL     1      -4.647  69.166  -5.107  1.00  0.00     0.033 C 
ATOM     29  C   UNL     1      -4.532  70.228  -6.224  1.00  0.00     0.118 C 
BRANCH  29  30
ATOM     30  O   UNL     1      -4.055  69.620  -7.400  1.00  0.00    -0.393 OA
ATOM     31  H   UNL     1      -3.066  69.713  -7.393  1.00  0.00     0.210 HD
ENDBRANCH  29  30
ENDBRANCH   9  11
ENDBRANCH   1   9
TORSDOF 7
ENDMDL
MODEL 2
REMARK VINA RESULT:    42.751      1.313      2.426
REMARK INTER + INTRA:          58.538
REMARK INTER:                  59.092
REMARK INTRA:                  -0.554
REMARK UNBOUND:                -0.458
REMARK SMILES CC[C@@H](CC[C@H](C)[C@H]1CC[C@@H]2[C@H]3CC=C4C[C@@H](O)CC[C@@]4(C)[C@H]3CC[C@@]21C)C(C)C
REMARK SMILES IDX 5 1 4 2 3 3 2 4 1 5 28 6 29 7 30 8 6 9 7 10 8 11 9 12 26 13
REMARK SMILES IDX 10 14 11 15 25 16 27 17 12 18 24 19 23 20 13 21 21 22 14 23
REMARK SMILES IDX 15 24 20 25 22 26 16 27 19 28 17 29 18 30
REMARK H PARENT 18 31
REMARK Flexibility Score: inf
ROOT
ATOM      1  C   UNL     1       3.244  65.211  -6.030  1.00  0.00     0.004 C 
ENDROOT
BRANCH   1   2
ATOM      2  C   UNL     1       2.689  64.409  -7.233  1.00  0.00     0.004 C 
BRANCH   2   3
ATOM      3  C   UNL     1       2.345  62.911  -6.967  1.00  0.00    -0.009 C 
BRANCH   3   4
ATOM      4  C   UNL     1       2.574  62.512  -5.483  1.00  0.00     0.000 C 
ATOM      5  C   UNL     1       1.530  61.550  -4.907  1.00  0.00     0.004 C 
ENDBRANCH   3   4
BRANCH   3   6
ATOM      6  C   UNL     1       3.095  61.967  -7.975  1.00  0.00    -0.014 C 
ATOM      7  C   UNL     1       4.584  62.332  -8.125  1.00  0.00     0.007 C 
ATOM      8  C   UNL     1       2.994  60.486  -7.558  1.00  0.00     0.007 C 
ENDBRANCH   3   6
ENDBRANCH   2   3
ENDBRANCH   1   2
BRANCH   1   9
ATOM      9  C   UNL     1       2.884  66.729  -5.976  1.00  0.00    -0.011 C 
ATOM     10  C   UNL     1       4.021  67.518  -5.285  1.00  0.00     0.008 C 
BRANCH   9  11
ATOM     11  C   UNL     1       1.517  66.940  -5.216  1.00  0.00    -0.002 C 
ATOM     12  C   UNL     1       1.639  66.973  -3.688  1.00  0.00     0.005 C 
ATOM     13  C   UNL     1       0.614  68.195  -5.581  1.00  0.00    -0.026 C 
ATOM     14  C   UNL     1       0.348  67.597  -3.209  1.00  0.00     0.005 C 
ATOM     15  C   UNL     1       0.123  68.736  -4.190  1.00  0.00    -0.001 C 
ATOM     16  C   UNL     1      -0.559  67.722  -6.493  1.00  0.00     0.007 C 
ATOM     17  C   UNL     1       1.387  69.334  -6.291  1.00  0.00     0.012 C 
ATOM     18  C   UNL     1      -1.312  69.361  -4.089  1.00  0.00     0.000 C 
ATOM     19  C   UNL     1      -1.778  68.636  -6.453  1.00  0.00     0.005 C 
ATOM     20  C   UNL     1      -2.348  68.686  -5.023  1.00  0.00     0.003 C 
ATOM     21  C   UNL     1      -1.275  70.914  -4.235  1.00  0.00     0.031 C 
ATOM     22  C   UNL     1      -3.747  69.397  -4.925  1.00  0.00    -0.008 C 
ATOM     23  C   UNL     1      -2.493  71.552  -4.866  1.00  0.00    -0.027 C 
ATOM     24  C   UNL     1      -3.587  70.869  -5.248  1.00  0.00    -0.065 C 
ATOM     25  C   UNL     1      -4.817  68.712  -5.855  1.00  0.00     0.014 C 
ATOM     26  C   UNL     1      -4.288  69.304  -3.471  1.00  0.00     0.016 C 
ATOM     27  C   UNL     1      -4.635  71.536  -6.094  1.00  0.00     0.063 C 
ATOM     28  C   UNL     1      -5.034  69.312  -7.273  1.00  0.00     0.033 C 
ATOM     29  C   UNL     1      -4.697  70.810  -7.442  1.00  0.00     0.118 C 
BRANCH  29  30
ATOM     30  O   UNL     1      -3.469  70.940  -8.118  1.00  0.00    -0.393 OA
ATOM     31  H   UNL     1      -3.116  71.844  -7.905  1.00  0.00     0.210 HD
ENDBRANCH  29  30
ENDBRANCH   9  11
ENDBRANCH   1   9
TORSDOF 7
ENDMDL
MODEL 3
REMARK VINA RESULT:    42.925      0.507      1.515
REMARK INTER + INTRA:          58.779
REMARK INTER:                  59.473
REMARK INTRA:                  -0.694
REMARK UNBOUND:                -0.458
REMARK SMILES CC[C@@H](CC[C@H](C)[C@H]1CC[C@@H]2[C@H]3CC=C4C[C@@H](O)CC[C@@]4(C)[C@H]3CC[C@@]21C)C(C)C
REMARK SMILES IDX 5 1 4 2 3 3 2 4 1 5 28 6 29 7 30 8 6 9 7 10 8 11 9 12 26 13
REMARK SMILES IDX 10 14 11 15 25 16 27 17 12 18 24 19 23 20 13 21 21 22 14 23
REMARK SMILES IDX 15 24 20 25 22 26 16 27 19 28 17 29 18 30
REMARK H PARENT 18 31
REMARK Flexibility Score: inf
ROOT
ATOM      1  C   UNL     1       2.382  63.289  -6.677  1.00  0.00     0.004 C 
ENDROOT
BRANCH   1   2
ATOM      2  C   UNL     1       2.715  62.153  -7.675  1.00  0.00     0.004 C 
BRANCH   2   3
ATOM      3  C   UNL     1       2.426  60.699  -7.189  1.00  0.00    -0.009 C 
BRANCH   3   4
ATOM      4  C   UNL     1       1.993  60.653  -5.698  1.00  0.00     0.000 C 
ATOM      5  C   UNL     1       0.608  60.050  -5.447  1.00  0.00     0.004 C 
ENDBRANCH   3   4
BRANCH   3   6
ATOM      6  C   UNL     1       3.633  59.743  -7.503  1.00  0.00    -0.014 C 
ATOM      7  C   UNL     1       4.828  60.491  -8.125  1.00  0.00     0.007 C 
ATOM      8  C   UNL     1       4.123  59.003  -6.242  1.00  0.00     0.007 C 
ENDBRANCH   3   6
ENDBRANCH   2   3
ENDBRANCH   1   2
BRANCH   1   9
ATOM      9  C   UNL     1       2.104  64.697  -7.290  1.00  0.00    -0.011 C 
ATOM     10  C   UNL     1       3.386  65.243  -7.963  1.00  0.00     0.008 C 
BRANCH   9  11
ATOM     11  C   UNL     1       1.594  65.689  -6.173  1.00  0.00    -0.002 C 
ATOM     12  C   UNL     1       2.706  66.299  -5.312  1.00  0.00     0.005 C 
ATOM     13  C   UNL     1       0.678  66.918  -6.589  1.00  0.00    -0.026 C 
ATOM     14  C   UNL     1       2.065  67.492  -4.640  1.00  0.00     0.005 C 
ATOM     15  C   UNL     1       1.241  68.122  -5.751  1.00  0.00    -0.001 C 
ATOM     16  C   UNL     1      -0.803  66.582  -6.240  1.00  0.00     0.007 C 
ATOM     17  C   UNL     1       0.779  67.292  -8.089  1.00  0.00     0.012 C 
ATOM     18  C   UNL     1       0.242  69.214  -5.234  1.00  0.00     0.000 C 
ATOM     19  C   UNL     1      -1.684  67.809  -6.040  1.00  0.00     0.005 C 
ATOM     20  C   UNL     1      -1.153  68.649  -4.863  1.00  0.00     0.003 C 
ATOM     21  C   UNL     1       0.170  70.435  -6.201  1.00  0.00     0.031 C 
ATOM     22  C   UNL     1      -2.129  69.797  -4.416  1.00  0.00    -0.008 C 
ATOM     23  C   UNL     1      -1.157  71.156  -6.266  1.00  0.00    -0.027 C 
ATOM     24  C   UNL     1      -2.226  70.833  -5.517  1.00  0.00    -0.065 C 
ATOM     25  C   UNL     1      -3.547  69.238  -4.018  1.00  0.00     0.014 C 
ATOM     26  C   UNL     1      -1.560  70.516  -3.160  1.00  0.00     0.016 C 
ATOM     27  C   UNL     1      -3.572  71.428  -5.826  1.00  0.00     0.063 C 
ATOM     28  C   UNL     1      -4.655  69.236  -5.107  1.00  0.00     0.033 C 
ATOM     29  C   UNL     1      -4.518  70.292  -6.227  1.00  0.00     0.118 C 
BRANCH  29  30
ATOM     30  O   UNL     1      -4.056  69.670  -7.402  1.00  0.00    -0.393 OA
ATOM     31  H   UNL     1      -4.702  68.948  -7.621  1.00  0.00     0.210 HD
ENDBRANCH  29  30
ENDBRANCH   9  11
ENDBRANCH   1   9
TORSDOF 7
ENDMDL
