MODEL 1
REMARK VINA RESULT:    -4.674      0.000      0.000
REMARK INTER + INTRA:          -5.759
REMARK INTER:                  -5.493
REMARK INTRA:                  -0.266
REMARK UNBOUND:                -0.266
REMARK SMILES O=c1cc(-c2ccc(O)c(O)c2)oc2cc(O)cc(O)c12
REMARK SMILES IDX 4 1 3 2 2 3 1 4 21 5 19 6 18 7 16 8 15 9 14 10 13 11 5 12
REMARK SMILES IDX 6 13 7 14 8 15 12 16 10 17 9 18 11 20 20 22 17 24
REMARK H PARENT 9 19 11 21 20 23 17 25
REMARK Flexibility Score: inf
ROOT
ATOM      1  C   UNL     1     -26.177  51.239  42.094  1.00  0.00     0.138 A 
ATOM      2  C   UNL     1     -25.206  51.928  41.349  1.00  0.00     0.100 A 
ATOM      3  C   UNL     1     -24.805  53.203  41.754  1.00  0.00     0.197 A 
ATOM      4  O   UNL     1     -23.932  53.812  41.081  1.00  0.00    -0.289 OA
ATOM      5  C   UNL     1     -25.379  53.778  42.906  1.00  0.00     0.107 A 
ATOM      6  C   UNL     1     -25.030  55.064  43.385  1.00  0.00     0.134 A 
ATOM      7  C   UNL     1     -25.644  55.563  44.544  1.00  0.00     0.093 A 
ATOM      8  C   UNL     1     -26.595  54.804  45.230  1.00  0.00     0.123 A 
ATOM      9  C   UNL     1     -26.943  53.534  44.762  1.00  0.00     0.094 A 
ATOM     10  C   UNL     1     -26.343  53.018  43.609  1.00  0.00     0.146 A 
ATOM     11  O   UNL     1     -26.692  51.808  43.182  1.00  0.00    -0.456 OA
ENDROOT
BRANCH   1  12
ATOM     12  C   UNL     1     -26.641  49.882  41.711  1.00  0.00     0.021 A 
ATOM     13  C   UNL     1     -26.493  48.779  42.573  1.00  0.00     0.016 A 
ATOM     14  C   UNL     1     -26.929  47.511  42.182  1.00  0.00     0.051 A 
ATOM     15  C   UNL     1     -27.512  47.318  40.926  1.00  0.00     0.157 A 
ATOM     16  C   UNL     1     -27.214  49.679  40.443  1.00  0.00     0.062 A 
ATOM     17  C   UNL     1     -27.655  48.406  40.050  1.00  0.00     0.158 A 
BRANCH  15  18
ATOM     18  O   UNL     1     -27.939  46.040  40.566  1.00  0.00    -0.504 OA
ATOM     19  H   UNL     1     -27.640  45.597  39.705  1.00  0.00     0.293 HD
ENDBRANCH  15  18
BRANCH  17  20
ATOM     20  O   UNL     1     -28.231  48.221  38.795  1.00  0.00    -0.504 OA
ATOM     21  H   UNL     1     -28.804  48.936  38.363  1.00  0.00     0.293 HD
ENDBRANCH  17  20
ENDBRANCH   1  12
BRANCH   6  22
ATOM     22  O   UNL     1     -24.084  55.845  42.722  1.00  0.00    -0.507 OA
ATOM     23  H   UNL     1     -23.987  55.823  41.713  1.00  0.00     0.293 HD
ENDBRANCH   6  22
BRANCH   8  24
ATOM     24  O   UNL     1     -27.188  55.324  46.379  1.00  0.00    -0.508 OA
ATOM     25  H   UNL     1     -27.229  54.793  47.241  1.00  0.00     0.293 HD
ENDBRANCH   8  24
TORSDOF 5
ENDMDL
MODEL 2
REMARK VINA RESULT:    -4.512      1.632      7.328
REMARK INTER + INTRA:          -5.569
REMARK INTER:                  -5.300
REMARK INTRA:                  -0.269
REMARK UNBOUND:                -0.266
REMARK SMILES O=c1cc(-c2ccc(O)c(O)c2)oc2cc(O)cc(O)c12
REMARK SMILES IDX 4 1 3 2 2 3 1 4 21 5 19 6 18 7 16 8 15 9 14 10 13 11 5 12
REMARK SMILES IDX 6 13 7 14 8 15 12 16 10 17 9 18 11 20 20 22 17 24
REMARK H PARENT 9 19 11 21 20 23 17 25
REMARK Flexibility Score: inf
ROOT
ATOM      1  C   UNL     1     -25.918  51.946  43.797  1.00  0.00     0.138 A 
ATOM      2  C   UNL     1     -25.699  50.858  44.658  1.00  0.00     0.100 A 
ATOM      3  C   UNL     1     -25.805  49.557  44.163  1.00  0.00     0.197 A 
ATOM      4  O   UNL     1     -25.605  48.588  44.943  1.00  0.00    -0.289 OA
ATOM      5  C   UNL     1     -26.126  49.355  42.805  1.00  0.00     0.107 A 
ATOM      6  C   UNL     1     -26.253  48.071  42.223  1.00  0.00     0.134 A 
ATOM      7  C   UNL     1     -26.571  47.954  40.861  1.00  0.00     0.093 A 
ATOM      8  C   UNL     1     -26.761  49.092  40.074  1.00  0.00     0.123 A 
ATOM      9  C   UNL     1     -26.637  50.363  40.644  1.00  0.00     0.094 A 
ATOM     10  C   UNL     1     -26.322  50.501  41.999  1.00  0.00     0.146 A 
ATOM     11  O   UNL     1     -26.211  51.720  42.518  1.00  0.00    -0.456 OA
ENDROOT
BRANCH   1  12
ATOM     12  C   UNL     1     -25.818  53.351  44.268  1.00  0.00     0.021 A 
ATOM     13  C   UNL     1     -24.958  54.279  43.651  1.00  0.00     0.016 A 
ATOM     14  C   UNL     1     -24.877  55.591  44.122  1.00  0.00     0.051 A 
ATOM     15  C   UNL     1     -25.644  56.000  45.217  1.00  0.00     0.157 A 
ATOM     16  C   UNL     1     -26.577  53.763  45.378  1.00  0.00     0.062 A 
ATOM     17  C   UNL     1     -26.498  55.082  45.851  1.00  0.00     0.158 A 
BRANCH  15  18
ATOM     18  O   UNL     1     -25.542  57.317  45.663  1.00  0.00    -0.504 OA
ATOM     19  H   UNL     1     -26.355  57.910  45.778  1.00  0.00     0.293 HD
ENDBRANCH  15  18
BRANCH  17  20
ATOM     20  O   UNL     1     -27.262  55.480  46.946  1.00  0.00    -0.504 OA
ATOM     21  H   UNL     1     -28.237  55.218  47.036  1.00  0.00     0.293 HD
ENDBRANCH  17  20
ENDBRANCH   1  12
BRANCH   6  22
ATOM     22  O   UNL     1     -26.068  46.916  42.984  1.00  0.00    -0.507 OA
ATOM     23  H   UNL     1     -26.846  46.330  43.263  1.00  0.00     0.293 HD
ENDBRANCH   6  22
BRANCH   8  24
ATOM     24  O   UNL     1     -27.075  48.947  38.724  1.00  0.00    -0.508 OA
ATOM     25  H   UNL     1     -26.539  49.415  38.003  1.00  0.00     0.293 HD
ENDBRANCH   8  24
TORSDOF 5
ENDMDL
MODEL 3
REMARK VINA RESULT:    -4.262      8.466      9.470
REMARK INTER + INTRA:          -5.276
REMARK INTER:                  -4.965
REMARK INTRA:                  -0.311
REMARK UNBOUND:                -0.266
REMARK SMILES O=c1cc(-c2ccc(O)c(O)c2)oc2cc(O)cc(O)c12
REMARK SMILES IDX 4 1 3 2 2 3 1 4 21 5 19 6 18 7 16 8 15 9 14 10 13 11 5 12
REMARK SMILES IDX 6 13 7 14 8 15 12 16 10 17 9 18 11 20 20 22 17 24
REMARK H PARENT 9 19 11 21 20 23 17 25
REMARK Flexibility Score: inf
ROOT
ATOM      1  C   UNL     1     -27.518  54.787  33.343  1.00  0.00     0.138 A 
ATOM      2  C   UNL     1     -27.785  55.711  32.320  1.00  0.00     0.100 A 
ATOM      3  C   UNL     1     -27.914  57.066  32.632  1.00  0.00     0.197 A 
ATOM      4  O   UNL     1     -28.152  57.887  31.706  1.00  0.00    -0.289 OA
ATOM      5  C   UNL     1     -27.771  57.487  33.970  1.00  0.00     0.107 A 
ATOM      6  C   UNL     1     -27.887  58.838  34.372  1.00  0.00     0.134 A 
ATOM      7  C   UNL     1     -27.726  59.177  35.724  1.00  0.00     0.093 A 
ATOM      8  C   UNL     1     -27.451  58.194  36.677  1.00  0.00     0.123 A 
ATOM      9  C   UNL     1     -27.335  56.856  36.285  1.00  0.00     0.094 A 
ATOM     10  C   UNL     1     -27.493  56.498  34.943  1.00  0.00     0.146 A 
ATOM     11  O   UNL     1     -27.380  55.220  34.595  1.00  0.00    -0.456 OA
ENDROOT
BRANCH   1  12
ATOM     12  C   UNL     1     -27.370  53.335  33.070  1.00  0.00     0.021 A 
ATOM     13  C   UNL     1     -27.026  52.855  31.791  1.00  0.00     0.016 A 
ATOM     14  C   UNL     1     -26.904  51.483  31.560  1.00  0.00     0.051 A 
ATOM     15  C   UNL     1     -27.128  50.568  32.593  1.00  0.00     0.157 A 
ATOM     16  C   UNL     1     -27.607  52.410  34.100  1.00  0.00     0.062 A 
ATOM     17  C   UNL     1     -27.483  51.032  33.869  1.00  0.00     0.158 A 
BRANCH  15  18
ATOM     18  O   UNL     1     -26.996  49.204  32.331  1.00  0.00    -0.504 OA
ATOM     19  H   UNL     1     -26.539  48.574  32.979  1.00  0.00     0.293 HD
ENDBRANCH  15  18
BRANCH  17  20
ATOM     20  O   UNL     1     -27.711  50.125  34.903  1.00  0.00    -0.504 OA
ATOM     21  H   UNL     1     -27.677  50.408  35.875  1.00  0.00     0.293 HD
ENDBRANCH  17  20
ENDBRANCH   1  12
BRANCH   6  22
ATOM     22  O   UNL     1     -28.161  59.843  33.444  1.00  0.00    -0.507 OA
ATOM     23  H   UNL     1     -27.431  60.443  33.076  1.00  0.00     0.293 HD
ENDBRANCH   6  22
BRANCH   8  24
ATOM     24  O   UNL     1     -27.294  58.557  38.013  1.00  0.00    -0.508 OA
ATOM     25  H   UNL     1     -28.092  58.733  38.611  1.00  0.00     0.293 HD
ENDBRANCH   8  24
TORSDOF 5
ENDMDL
MODEL 4
REMARK VINA RESULT:    -4.230      2.085      2.696
REMARK INTER + INTRA:          -5.238
REMARK INTER:                  -4.925
REMARK INTRA:                  -0.313
REMARK UNBOUND:                -0.266
REMARK SMILES O=c1cc(-c2ccc(O)c(O)c2)oc2cc(O)cc(O)c12
REMARK SMILES IDX 4 1 3 2 2 3 1 4 21 5 19 6 18 7 16 8 15 9 14 10 13 11 5 12
REMARK SMILES IDX 6 13 7 14 8 15 12 16 10 17 9 18 11 20 20 22 17 24
REMARK H PARENT 9 19 11 21 20 23 17 25
REMARK Flexibility Score: inf
ROOT
ATOM      1  C   UNL     1     -25.938  49.948  43.230  1.00  0.00     0.138 A 
ATOM      2  C   UNL     1     -24.899  49.550  44.087  1.00  0.00     0.100 A 
ATOM      3  C   UNL     1     -24.498  50.396  45.123  1.00  0.00     0.197 A 
ATOM      4  O   UNL     1     -23.566  50.029  45.887  1.00  0.00    -0.289 OA
ATOM      5  C   UNL     1     -25.145  51.637  45.295  1.00  0.00     0.107 A 
ATOM      6  C   UNL     1     -24.801  52.554  46.317  1.00  0.00     0.134 A 
ATOM      7  C   UNL     1     -25.497  53.767  46.425  1.00  0.00     0.093 A 
ATOM      8  C   UNL     1     -26.527  54.079  45.534  1.00  0.00     0.123 A 
ATOM      9  C   UNL     1     -26.871  53.177  44.523  1.00  0.00     0.094 A 
ATOM     10  C   UNL     1     -26.189  51.963  44.398  1.00  0.00     0.146 A 
ATOM     11  O   UNL     1     -26.533  51.122  43.427  1.00  0.00    -0.456 OA
ENDROOT
BRANCH   1  12
ATOM     12  C   UNL     1     -26.406  49.089  42.114  1.00  0.00     0.021 A 
ATOM     13  C   UNL     1     -26.141  47.706  42.083  1.00  0.00     0.016 A 
ATOM     14  C   UNL     1     -26.584  46.924  41.015  1.00  0.00     0.051 A 
ATOM     15  C   UNL     1     -27.291  47.504  39.957  1.00  0.00     0.157 A 
ATOM     16  C   UNL     1     -27.104  49.669  41.040  1.00  0.00     0.062 A 
ATOM     17  C   UNL     1     -27.552  48.883  39.968  1.00  0.00     0.158 A 
BRANCH  15  18
ATOM     18  O   UNL     1     -27.722  46.695  38.905  1.00  0.00    -0.504 OA
ATOM     19  H   UNL     1     -27.707  47.012  37.943  1.00  0.00     0.293 HD
ENDBRANCH  15  18
BRANCH  17  20
ATOM     20  O   UNL     1     -28.252  49.469  38.915  1.00  0.00    -0.504 OA
ATOM     21  H   UNL     1     -28.672  50.387  39.002  1.00  0.00     0.293 HD
ENDBRANCH  17  20
ENDBRANCH   1  12
BRANCH   6  22
ATOM     22  O   UNL     1     -23.778  52.270  47.222  1.00  0.00    -0.507 OA
ATOM     23  H   UNL     1     -22.947  52.847  47.286  1.00  0.00     0.293 HD
ENDBRANCH   6  22
BRANCH   8  24
ATOM     24  O   UNL     1     -27.203  55.290  45.665  1.00  0.00    -0.508 OA
ATOM     25  H   UNL     1     -28.160  55.400  45.351  1.00  0.00     0.293 HD
ENDBRANCH   8  24
TORSDOF 5
ENDMDL
MODEL 5
REMARK VINA RESULT:    -4.208      2.403      7.327
REMARK INTER + INTRA:          -5.212
REMARK INTER:                  -4.934
REMARK INTRA:                  -0.277
REMARK UNBOUND:                -0.266
REMARK SMILES O=c1cc(-c2ccc(O)c(O)c2)oc2cc(O)cc(O)c12
REMARK SMILES IDX 4 1 3 2 2 3 1 4 21 5 19 6 18 7 16 8 15 9 14 10 13 11 5 12
REMARK SMILES IDX 6 13 7 14 8 15 12 16 10 17 9 18 11 20 20 22 17 24
REMARK H PARENT 9 19 11 21 20 23 17 25
REMARK Flexibility Score: inf
ROOT
ATOM      1  C   UNL     1     -25.835  53.164  45.198  1.00  0.00     0.138 A 
ATOM      2  C   UNL     1     -25.946  53.824  43.963  1.00  0.00     0.100 A 
ATOM      3  C   UNL     1     -26.031  53.075  42.788  1.00  0.00     0.197 A 
ATOM      4  O   UNL     1     -26.132  53.676  41.685  1.00  0.00    -0.289 OA
ATOM      5  C   UNL     1     -26.009  51.667  42.858  1.00  0.00     0.107 A 
ATOM      6  C   UNL     1     -26.090  50.834  41.717  1.00  0.00     0.134 A 
ATOM      7  C   UNL     1     -26.066  49.439  41.873  1.00  0.00     0.093 A 
ATOM      8  C   UNL     1     -25.964  48.865  43.142  1.00  0.00     0.123 A 
ATOM      9  C   UNL     1     -25.884  49.684  44.273  1.00  0.00     0.094 A 
ATOM     10  C   UNL     1     -25.905  51.076  44.139  1.00  0.00     0.146 A 
ATOM     11  O   UNL     1     -25.825  51.833  45.229  1.00  0.00    -0.456 OA
ENDROOT
BRANCH   1  12
ATOM     12  C   UNL     1     -25.741  53.909  46.479  1.00  0.00     0.021 A 
ATOM     13  C   UNL     1     -24.856  53.514  47.501  1.00  0.00     0.016 A 
ATOM     14  C   UNL     1     -24.797  54.228  48.700  1.00  0.00     0.051 A 
ATOM     15  C   UNL     1     -25.620  55.339  48.905  1.00  0.00     0.157 A 
ATOM     16  C   UNL     1     -26.576  55.018  46.696  1.00  0.00     0.062 A 
ATOM     17  C   UNL     1     -26.516  55.737  47.899  1.00  0.00     0.158 A 
BRANCH  15  18
ATOM     18  O   UNL     1     -25.536  56.032  50.112  1.00  0.00    -0.504 OA
ATOM     19  H   UNL     1     -25.369  57.030  50.149  1.00  0.00     0.293 HD
ENDBRANCH  15  18
BRANCH  17  20
ATOM     20  O   UNL     1     -27.342  56.842  48.098  1.00  0.00    -0.504 OA
ATOM     21  H   UNL     1     -28.169  56.995  47.533  1.00  0.00     0.293 HD
ENDBRANCH  17  20
ENDBRANCH   1  12
BRANCH   6  22
ATOM     22  O   UNL     1     -26.193  51.378  40.437  1.00  0.00    -0.507 OA
ATOM     23  H   UNL     1     -26.704  50.909  39.698  1.00  0.00     0.293 HD
ENDBRANCH   6  22
BRANCH   8  24
ATOM     24  O   UNL     1     -25.944  47.478  43.268  1.00  0.00    -0.508 OA
ATOM     25  H   UNL     1     -25.745  47.029  44.154  1.00  0.00     0.293 HD
ENDBRANCH   8  24
TORSDOF 5
ENDMDL
MODEL 6
REMARK VINA RESULT:    -4.171      1.933      7.080
REMARK INTER + INTRA:          -5.168
REMARK INTER:                  -4.882
REMARK INTRA:                  -0.286
REMARK UNBOUND:                -0.266
REMARK SMILES O=c1cc(-c2ccc(O)c(O)c2)oc2cc(O)cc(O)c12
REMARK SMILES IDX 4 1 3 2 2 3 1 4 21 5 19 6 18 7 16 8 15 9 14 10 13 11 5 12
REMARK SMILES IDX 6 13 7 14 8 15 12 16 10 17 9 18 11 20 20 22 17 24
REMARK H PARENT 9 19 11 21 20 23 17 25
REMARK Flexibility Score: inf
ROOT
ATOM      1  C   UNL     1     -25.957  51.962  43.531  1.00  0.00     0.138 A 
ATOM      2  C   UNL     1     -26.237  51.713  42.177  1.00  0.00     0.100 A 
ATOM      3  C   UNL     1     -26.329  50.396  41.725  1.00  0.00     0.197 A 
ATOM      4  O   UNL     1     -26.582  50.183  40.509  1.00  0.00    -0.289 OA
ATOM      5  C   UNL     1     -26.141  49.335  42.633  1.00  0.00     0.107 A 
ATOM      6  C   UNL     1     -26.215  47.972  42.258  1.00  0.00     0.134 A 
ATOM      7  C   UNL     1     -26.022  46.974  43.225  1.00  0.00     0.093 A 
ATOM      8  C   UNL     1     -25.758  47.311  44.554  1.00  0.00     0.123 A 
ATOM      9  C   UNL     1     -25.683  48.655  44.931  1.00  0.00     0.094 A 
ATOM     10  C   UNL     1     -25.872  49.665  43.982  1.00  0.00     0.146 A 
ATOM     11  O   UNL     1     -25.795  50.937  44.364  1.00  0.00    -0.456 OA
ENDROOT
BRANCH   1  12
ATOM     12  C   UNL     1     -25.849  53.342  44.068  1.00  0.00     0.021 A 
ATOM     13  C   UNL     1     -24.981  54.292  43.498  1.00  0.00     0.016 A 
ATOM     14  C   UNL     1     -24.892  55.580  44.030  1.00  0.00     0.051 A 
ATOM     15  C   UNL     1     -25.660  55.942  45.142  1.00  0.00     0.157 A 
ATOM     16  C   UNL     1     -26.608  53.707  45.194  1.00  0.00     0.062 A 
ATOM     17  C   UNL     1     -26.521  55.001  45.729  1.00  0.00     0.158 A 
BRANCH  15  18
ATOM     18  O   UNL     1     -25.551  57.236  45.649  1.00  0.00    -0.504 OA
ATOM     19  H   UNL     1     -25.509  58.049  45.046  1.00  0.00     0.293 HD
ENDBRANCH  15  18
BRANCH  17  20
ATOM     20  O   UNL     1     -27.286  55.353  46.839  1.00  0.00    -0.504 OA
ATOM     21  H   UNL     1     -26.862  55.725  47.680  1.00  0.00     0.293 HD
ENDBRANCH  17  20
ENDBRANCH   1  12
BRANCH   6  22
ATOM     22  O   UNL     1     -26.479  47.604  40.938  1.00  0.00    -0.507 OA
ATOM     23  H   UNL     1     -27.030  48.189  40.321  1.00  0.00     0.293 HD
ENDBRANCH   6  22
BRANCH   8  24
ATOM     24  O   UNL     1     -25.571  46.300  45.494  1.00  0.00    -0.508 OA
ATOM     25  H   UNL     1     -26.059  45.415  45.425  1.00  0.00     0.293 HD
ENDBRANCH   8  24
TORSDOF 5
ENDMDL
MODEL 7
REMARK VINA RESULT:    -4.134      1.522      7.204
REMARK INTER + INTRA:          -5.125
REMARK INTER:                  -4.835
REMARK INTRA:                  -0.289
REMARK UNBOUND:                -0.266
REMARK SMILES O=c1cc(-c2ccc(O)c(O)c2)oc2cc(O)cc(O)c12
REMARK SMILES IDX 4 1 3 2 2 3 1 4 21 5 19 6 18 7 16 8 15 9 14 10 13 11 5 12
REMARK SMILES IDX 6 13 7 14 8 15 12 16 10 17 9 18 11 20 20 22 17 24
REMARK H PARENT 9 19 11 21 20 23 17 25
REMARK Flexibility Score: inf
ROOT
ATOM      1  C   UNL     1     -26.010  51.567  43.574  1.00  0.00     0.138 A 
ATOM      2  C   UNL     1     -25.767  50.456  44.398  1.00  0.00     0.100 A 
ATOM      3  C   UNL     1     -25.847  49.170  43.861  1.00  0.00     0.197 A 
ATOM      4  O   UNL     1     -25.626  48.180  44.609  1.00  0.00    -0.289 OA
ATOM      5  C   UNL     1     -26.169  49.005  42.499  1.00  0.00     0.107 A 
ATOM      6  C   UNL     1     -26.272  47.738  41.876  1.00  0.00     0.134 A 
ATOM      7  C   UNL     1     -26.591  47.659  40.512  1.00  0.00     0.093 A 
ATOM      8  C   UNL     1     -26.807  48.817  39.762  1.00  0.00     0.123 A 
ATOM      9  C   UNL     1     -26.706  50.072  40.372  1.00  0.00     0.094 A 
ATOM     10  C   UNL     1     -26.390  50.172  41.731  1.00  0.00     0.146 A 
ATOM     11  O   UNL     1     -26.301  51.376  42.289  1.00  0.00    -0.456 OA
ENDROOT
BRANCH   1  12
ATOM     12  C   UNL     1     -25.937  52.957  44.090  1.00  0.00     0.021 A 
ATOM     13  C   UNL     1     -26.618  53.349  45.258  1.00  0.00     0.016 A 
ATOM     14  C   UNL     1     -26.540  54.666  45.715  1.00  0.00     0.051 A 
ATOM     15  C   UNL     1     -25.790  55.616  45.015  1.00  0.00     0.157 A 
ATOM     16  C   UNL     1     -25.195  53.919  43.382  1.00  0.00     0.062 A 
ATOM     17  C   UNL     1     -25.115  55.242  43.842  1.00  0.00     0.158 A 
BRANCH  15  18
ATOM     18  O   UNL     1     -25.730  56.923  45.498  1.00  0.00    -0.504 OA
ATOM     19  H   UNL     1     -25.010  57.572  45.204  1.00  0.00     0.293 HD
ENDBRANCH  15  18
BRANCH  17  20
ATOM     20  O   UNL     1     -24.368  56.184  43.136  1.00  0.00    -0.504 OA
ATOM     21  H   UNL     1     -23.405  56.386  43.376  1.00  0.00     0.293 HD
ENDBRANCH  17  20
ENDBRANCH   1  12
BRANCH   6  22
ATOM     22  O   UNL     1     -26.061  46.563  42.598  1.00  0.00    -0.507 OA
ATOM     23  H   UNL     1     -25.172  46.078  42.580  1.00  0.00     0.293 HD
ENDBRANCH   6  22
BRANCH   8  24
ATOM     24  O   UNL     1     -27.121  48.711  38.409  1.00  0.00    -0.508 OA
ATOM     25  H   UNL     1     -27.940  48.205  38.093  1.00  0.00     0.293 HD
ENDBRANCH   8  24
TORSDOF 5
ENDMDL
MODEL 8
REMARK VINA RESULT:    -4.083      1.581      6.865
REMARK INTER + INTRA:          -5.065
REMARK INTER:                  -4.771
REMARK INTRA:                  -0.295
REMARK UNBOUND:                -0.266
REMARK SMILES O=c1cc(-c2ccc(O)c(O)c2)oc2cc(O)cc(O)c12
REMARK SMILES IDX 4 1 3 2 2 3 1 4 21 5 19 6 18 7 16 8 15 9 14 10 13 11 5 12
REMARK SMILES IDX 6 13 7 14 8 15 12 16 10 17 9 18 11 20 20 22 17 24
REMARK H PARENT 9 19 11 21 20 23 17 25
REMARK Flexibility Score: inf
ROOT
ATOM      1  C   UNL     1     -25.765  51.758  41.880  1.00  0.00     0.138 A 
ATOM      2  C   UNL     1     -24.821  51.877  40.847  1.00  0.00     0.100 A 
ATOM      3  C   UNL     1     -24.710  50.863  39.895  1.00  0.00     0.197 A 
ATOM      4  O   UNL     1     -23.861  50.980  38.972  1.00  0.00    -0.289 OA
ATOM      5  C   UNL     1     -25.550  49.734  39.982  1.00  0.00     0.107 A 
ATOM      6  C   UNL     1     -25.504  48.661  39.060  1.00  0.00     0.134 A 
ATOM      7  C   UNL     1     -26.379  47.575  39.213  1.00  0.00     0.093 A 
ATOM      8  C   UNL     1     -27.297  47.542  40.265  1.00  0.00     0.123 A 
ATOM      9  C   UNL     1     -27.348  48.599  41.179  1.00  0.00     0.094 A 
ATOM     10  C   UNL     1     -26.483  49.691  41.045  1.00  0.00     0.146 A 
ATOM     11  O   UNL     1     -26.549  50.683  41.927  1.00  0.00    -0.456 OA
ENDROOT
BRANCH   1  12
ATOM     12  C   UNL     1     -25.927  52.806  42.919  1.00  0.00     0.021 A 
ATOM     13  C   UNL     1     -26.824  52.650  43.993  1.00  0.00     0.016 A 
ATOM     14  C   UNL     1     -26.964  53.657  44.951  1.00  0.00     0.051 A 
ATOM     15  C   UNL     1     -26.219  54.836  44.853  1.00  0.00     0.157 A 
ATOM     16  C   UNL     1     -25.192  53.999  42.818  1.00  0.00     0.062 A 
ATOM     17  C   UNL     1     -25.330  55.011  43.781  1.00  0.00     0.158 A 
BRANCH  15  18
ATOM     18  O   UNL     1     -26.380  55.822  45.826  1.00  0.00    -0.504 OA
ATOM     19  H   UNL     1     -26.009  56.758  45.709  1.00  0.00     0.293 HD
ENDBRANCH  15  18
BRANCH  17  20
ATOM     20  O   UNL     1     -24.587  56.185  43.674  1.00  0.00    -0.504 OA
ATOM     21  H   UNL     1     -24.030  56.388  42.853  1.00  0.00     0.293 HD
ENDBRANCH  17  20
ENDBRANCH   1  12
BRANCH   6  22
ATOM     22  O   UNL     1     -24.598  48.666  37.998  1.00  0.00    -0.507 OA
ATOM     23  H   UNL     1     -23.839  49.336  37.947  1.00  0.00     0.293 HD
ENDBRANCH   6  22
BRANCH   8  24
ATOM     24  O   UNL     1     -28.155  46.453  40.393  1.00  0.00    -0.508 OA
ATOM     25  H   UNL     1     -29.151  46.541  40.233  1.00  0.00     0.293 HD
ENDBRANCH   8  24
TORSDOF 5
ENDMDL
