MODEL 1
REMARK VINA RESULT:    -2.598      0.000      0.000
REMARK INTER + INTRA:         -10.657
REMARK INTER:                  -5.940
REMARK INTRA:                  -4.717
REMARK UNBOUND:                -4.717
REMARK SMILES CCCCCCCCCCCCCCCCCCCCCCCC(=O)[O-]
REMARK SMILES IDX 13 1 14 2 15 3 16 4 17 5 18 6 19 7 20 8 21 9 22 10 23 11
REMARK SMILES IDX 24 12 25 13 26 14 12 15 11 16 10 17 9 18 8 19 7 20 6 21 5 22
REMARK SMILES IDX 4 23 3 24 2 25 1 26
REMARK H PARENT
REMARK Flexibility Score: inf
ROOT
ATOM      1  C   UNL     1      99.683  63.529 228.357  1.00  0.00     0.000 C 
ENDROOT
BRANCH   1   2
ATOM      2  C   UNL     1      98.737  62.855 229.373  1.00  0.00     0.000 C 
BRANCH   2   3
ATOM      3  C   UNL     1      97.728  61.884 228.734  1.00  0.00     0.000 C 
BRANCH   3   4
ATOM      4  C   UNL     1      98.076  60.406 228.986  1.00  0.00     0.000 C 
BRANCH   4   5
ATOM      5  C   UNL     1      98.127  59.585 227.686  1.00  0.00     0.000 C 
BRANCH   5   6
ATOM      6  C   UNL     1      99.562  59.176 227.310  1.00  0.00     0.000 C 
BRANCH   6   7
ATOM      7  C   UNL     1     100.578  59.495 228.419  1.00  0.00     0.000 C 
BRANCH   7   8
ATOM      8  C   UNL     1     101.632  60.523 227.979  1.00  0.00     0.000 C 
BRANCH   8   9
ATOM      9  C   UNL     1     101.608  60.727 226.459  1.00  0.00     0.000 C 
BRANCH   9  10
ATOM     10  C   UNL     1     102.778  61.606 226.003  1.00  0.00     0.006 C 
BRANCH  10  11
ATOM     11  C   UNL     1     103.001  62.772 226.969  1.00  0.00     0.053 C 
BRANCH  11  12
ATOM     12  C   UNL     1     103.891  63.807 226.353  1.00  0.00     0.041 C 
ATOM     13  O   UNL     1     104.787  63.465 225.533  1.00  0.00    -0.550 OA
ATOM     14  O   UNL     1     103.753  65.146 226.707  1.00  0.00    -0.550 OA
ENDBRANCH  11  12
ENDBRANCH  10  11
ENDBRANCH   9  10
ENDBRANCH   8   9
ENDBRANCH   7   8
ENDBRANCH   6   7
ENDBRANCH   5   6
ENDBRANCH   4   5
ENDBRANCH   3   4
ENDBRANCH   2   3
ENDBRANCH   1   2
BRANCH   1  15
ATOM     15  C   UNL     1      99.221  63.323 226.905  1.00  0.00     0.000 C 
BRANCH  15  16
ATOM     16  C   UNL     1      99.834  64.383 225.978  1.00  0.00     0.000 C 
BRANCH  16  17
ATOM     17  C   UNL     1      98.772  65.173 225.188  1.00  0.00     0.000 C 
BRANCH  17  18
ATOM     18  C   UNL     1      97.379  64.514 225.124  1.00  0.00    -0.000 C 
BRANCH  18  19
ATOM     19  C   UNL     1      96.250  65.294 225.824  1.00  0.00    -0.000 C 
BRANCH  19  20
ATOM     20  C   UNL     1      96.172  65.049 227.346  1.00  0.00    -0.000 C 
BRANCH  20  21
ATOM     21  C   UNL     1      96.270  66.347 228.161  1.00  0.00    -0.000 C 
BRANCH  21  22
ATOM     22  C   UNL     1      97.323  66.222 229.269  1.00  0.00    -0.000 C 
BRANCH  22  23
ATOM     23  C   UNL     1      98.351  67.362 229.182  1.00  0.00    -0.000 C 
BRANCH  23  24
ATOM     24  C   UNL     1      98.728  67.713 227.734  1.00  0.00    -0.000 C 
BRANCH  24  25
ATOM     25  C   UNL     1     100.234  67.968 227.562  1.00  0.00    -0.003 C 
ATOM     26  C   UNL     1     101.058  66.936 228.326  1.00  0.00     0.004 C 
ENDBRANCH  24  25
ENDBRANCH  23  24
ENDBRANCH  22  23
ENDBRANCH  21  22
ENDBRANCH  20  21
ENDBRANCH  19  20
ENDBRANCH  18  19
ENDBRANCH  17  18
ENDBRANCH  16  17
ENDBRANCH  15  16
ENDBRANCH   1  15
TORSDOF 22
ENDMDL
MODEL 2
REMARK VINA RESULT:    -2.574      3.437      5.602
REMARK INTER + INTRA:         -10.600
REMARK INTER:                  -5.995
REMARK INTRA:                  -4.605
REMARK UNBOUND:                -4.717
REMARK SMILES CCCCCCCCCCCCCCCCCCCCCCCC(=O)[O-]
REMARK SMILES IDX 13 1 14 2 15 3 16 4 17 5 18 6 19 7 20 8 21 9 22 10 23 11
REMARK SMILES IDX 24 12 25 13 26 14 12 15 11 16 10 17 9 18 8 19 7 20 6 21 5 22
REMARK SMILES IDX 4 23 3 24 2 25 1 26
REMARK H PARENT
REMARK Flexibility Score: inf
ROOT
ATOM      1  C   UNL     1      96.311  64.962 226.018  1.00  0.00     0.000 C 
ENDROOT
BRANCH   1   2
ATOM      2  C   UNL     1      97.343  64.733 227.141  1.00  0.00     0.000 C 
BRANCH   2   3
ATOM      3  C   UNL     1      98.183  63.455 226.965  1.00  0.00     0.000 C 
BRANCH   3   4
ATOM      4  C   UNL     1      98.773  62.937 228.289  1.00  0.00     0.000 C 
BRANCH   4   5
ATOM      5  C   UNL     1     100.305  63.061 228.337  1.00  0.00     0.000 C 
BRANCH   5   6
ATOM      6  C   UNL     1     100.765  64.509 228.585  1.00  0.00     0.000 C 
BRANCH   6   7
ATOM      7  C   UNL     1     101.318  64.719 230.004  1.00  0.00     0.000 C 
BRANCH   7   8
ATOM      8  C   UNL     1     100.277  65.317 230.964  1.00  0.00     0.000 C 
BRANCH   8   9
ATOM      9  C   UNL     1      99.171  66.051 230.194  1.00  0.00     0.000 C 
BRANCH   9  10
ATOM     10  C   UNL     1      98.117  66.618 231.154  1.00  0.00     0.006 C 
BRANCH  10  11
ATOM     11  C   UNL     1      97.207  67.623 230.442  1.00  0.00     0.053 C 
BRANCH  11  12
ATOM     12  C   UNL     1      96.021  66.932 229.845  1.00  0.00     0.041 C 
ATOM     13  O   UNL     1      95.463  67.407 228.817  1.00  0.00    -0.550 OA
ATOM     14  O   UNL     1      95.510  65.783 230.439  1.00  0.00    -0.550 OA
ENDBRANCH  11  12
ENDBRANCH  10  11
ENDBRANCH   9  10
ENDBRANCH   8   9
ENDBRANCH   7   8
ENDBRANCH   6   7
ENDBRANCH   5   6
ENDBRANCH   4   5
ENDBRANCH   3   4
ENDBRANCH   2   3
ENDBRANCH   1   2
BRANCH   1  15
ATOM     15  C   UNL     1      96.962  64.986 224.625  1.00  0.00     0.000 C 
BRANCH  15  16
ATOM     16  C   UNL     1      96.063  65.711 223.612  1.00  0.00     0.000 C 
BRANCH  16  17
ATOM     17  C   UNL     1      95.048  66.657 224.282  1.00  0.00     0.000 C 
BRANCH  17  18
ATOM     18  C   UNL     1      95.436  68.149 224.269  1.00  0.00    -0.000 C 
BRANCH  18  19
ATOM     19  C   UNL     1      96.108  68.664 225.556  1.00  0.00    -0.000 C 
BRANCH  19  20
ATOM     20  C   UNL     1      97.650  68.590 225.528  1.00  0.00    -0.000 C 
BRANCH  20  21
ATOM     21  C   UNL     1      98.260  68.415 226.927  1.00  0.00    -0.000 C 
BRANCH  21  22
ATOM     22  C   UNL     1      99.556  67.596 226.862  1.00  0.00    -0.000 C 
BRANCH  22  23
ATOM     23  C   UNL     1      99.845  67.135 225.425  1.00  0.00    -0.000 C 
BRANCH  23  24
ATOM     24  C   UNL     1     101.067  66.208 225.332  1.00  0.00    -0.000 C 
BRANCH  24  25
ATOM     25  C   UNL     1     100.706  64.807 224.813  1.00  0.00    -0.003 C 
ATOM     26  C   UNL     1     101.878  63.843 224.973  1.00  0.00     0.004 C 
ENDBRANCH  24  25
ENDBRANCH  23  24
ENDBRANCH  22  23
ENDBRANCH  21  22
ENDBRANCH  20  21
ENDBRANCH  19  20
ENDBRANCH  18  19
ENDBRANCH  17  18
ENDBRANCH  16  17
ENDBRANCH  15  16
ENDBRANCH   1  15
TORSDOF 22
ENDMDL
MODEL 3
REMARK VINA RESULT:    -2.564      1.531      5.749
REMARK INTER + INTRA:         -10.578
REMARK INTER:                  -5.505
REMARK INTRA:                  -5.073
REMARK UNBOUND:                -4.717
REMARK SMILES CCCCCCCCCCCCCCCCCCCCCCCC(=O)[O-]
REMARK SMILES IDX 13 1 14 2 15 3 16 4 17 5 18 6 19 7 20 8 21 9 22 10 23 11
REMARK SMILES IDX 24 12 25 13 26 14 12 15 11 16 10 17 9 18 8 19 7 20 6 21 5 22
REMARK SMILES IDX 4 23 3 24 2 25 1 26
REMARK H PARENT
REMARK Flexibility Score: inf
ROOT
ATOM      1  C   UNL     1      99.360  65.232 230.311  1.00  0.00     0.000 C 
ENDROOT
BRANCH   1   2
ATOM      2  C   UNL     1      99.668  65.730 228.884  1.00  0.00     0.000 C 
BRANCH   2   3
ATOM      3  C   UNL     1      98.904  67.007 228.491  1.00  0.00     0.000 C 
BRANCH   3   4
ATOM      4  C   UNL     1      97.573  67.168 229.248  1.00  0.00     0.000 C 
BRANCH   4   5
ATOM      5  C   UNL     1      96.376  66.617 228.455  1.00  0.00     0.000 C 
BRANCH   5   6
ATOM      6  C   UNL     1      96.432  67.011 226.967  1.00  0.00     0.000 C 
BRANCH   6   7
ATOM      7  C   UNL     1      95.809  65.946 226.050  1.00  0.00     0.000 C 
BRANCH   7   8
ATOM      8  C   UNL     1      96.840  65.287 225.121  1.00  0.00     0.000 C 
BRANCH   8   9
ATOM      9  C   UNL     1      97.700  64.269 225.882  1.00  0.00     0.000 C 
BRANCH   9  10
ATOM     10  C   UNL     1      99.171  64.369 225.462  1.00  0.00     0.006 C 
BRANCH  10  11
ATOM     11  C   UNL     1      99.536  65.803 225.068  1.00  0.00     0.053 C 
BRANCH  11  12
ATOM     12  C   UNL     1     101.022  65.972 225.003  1.00  0.00     0.041 C 
ATOM     13  O   UNL     1     101.697  65.320 224.160  1.00  0.00    -0.550 OA
ATOM     14  O   UNL     1     101.667  66.824 225.894  1.00  0.00    -0.550 OA
ENDBRANCH  11  12
ENDBRANCH  10  11
ENDBRANCH   9  10
ENDBRANCH   8   9
ENDBRANCH   7   8
ENDBRANCH   6   7
ENDBRANCH   5   6
ENDBRANCH   4   5
ENDBRANCH   3   4
ENDBRANCH   2   3
ENDBRANCH   1   2
BRANCH   1  15
ATOM     15  C   UNL     1      99.014  63.735 230.345  1.00  0.00     0.000 C 
BRANCH  15  16
ATOM     16  C   UNL     1      97.887  63.409 229.353  1.00  0.00     0.000 C 
BRANCH  16  17
ATOM     17  C   UNL     1      97.922  61.946 228.868  1.00  0.00     0.000 C 
BRANCH  17  18
ATOM     18  C   UNL     1      99.103  61.592 227.942  1.00  0.00    -0.000 C 
BRANCH  18  19
ATOM     19  C   UNL     1      99.536  60.114 227.964  1.00  0.00    -0.000 C 
BRANCH  19  20
ATOM     20  C   UNL     1     101.008  59.901 228.379  1.00  0.00    -0.000 C 
BRANCH  20  21
ATOM     21  C   UNL     1     101.453  60.858 229.496  1.00  0.00    -0.000 C 
BRANCH  21  22
ATOM     22  C   UNL     1     102.699  61.649 229.078  1.00  0.00    -0.000 C 
BRANCH  22  23
ATOM     23  C   UNL     1     102.370  63.140 228.900  1.00  0.00    -0.000 C 
BRANCH  23  24
ATOM     24  C   UNL     1     102.301  63.561 227.424  1.00  0.00    -0.000 C 
BRANCH  24  25
ATOM     25  C   UNL     1     103.011  62.566 226.492  1.00  0.00    -0.003 C 
ATOM     26  C   UNL     1     102.045  61.996 225.457  1.00  0.00     0.004 C 
ENDBRANCH  24  25
ENDBRANCH  23  24
ENDBRANCH  22  23
ENDBRANCH  21  22
ENDBRANCH  20  21
ENDBRANCH  19  20
ENDBRANCH  18  19
ENDBRANCH  17  18
ENDBRANCH  16  17
ENDBRANCH  15  16
ENDBRANCH   1  15
TORSDOF 22
ENDMDL
MODEL 4
REMARK VINA RESULT:    -2.563      1.762      3.769
REMARK INTER + INTRA:         -10.575
REMARK INTER:                  -5.876
REMARK INTRA:                  -4.699
REMARK UNBOUND:                -4.717
REMARK SMILES CCCCCCCCCCCCCCCCCCCCCCCC(=O)[O-]
REMARK SMILES IDX 13 1 14 2 15 3 16 4 17 5 18 6 19 7 20 8 21 9 22 10 23 11
REMARK SMILES IDX 24 12 25 13 26 14 12 15 11 16 10 17 9 18 8 19 7 20 6 21 5 22
REMARK SMILES IDX 4 23 3 24 2 25 1 26
REMARK H PARENT
REMARK Flexibility Score: inf
ROOT
ATOM      1  C   UNL     1      96.495  68.250 227.153  1.00  0.00     0.000 C 
ENDROOT
BRANCH   1   2
ATOM      2  C   UNL     1      97.250  67.317 228.122  1.00  0.00     0.000 C 
BRANCH   2   3
ATOM      3  C   UNL     1      96.462  66.977 229.400  1.00  0.00     0.000 C 
BRANCH   3   4
ATOM      4  C   UNL     1      96.650  65.518 229.851  1.00  0.00     0.000 C 
BRANCH   4   5
ATOM      5  C   UNL     1      97.370  64.664 228.794  1.00  0.00     0.000 C 
BRANCH   5   6
ATOM      6  C   UNL     1      98.168  63.508 229.422  1.00  0.00     0.000 C 
BRANCH   6   7
ATOM      7  C   UNL     1      98.959  62.700 228.381  1.00  0.00     0.000 C 
BRANCH   7   8
ATOM      8  C   UNL     1     100.365  62.317 228.869  1.00  0.00     0.000 C 
BRANCH   8   9
ATOM      9  C   UNL     1     101.443  62.810 227.895  1.00  0.00     0.000 C 
BRANCH   9  10
ATOM     10  C   UNL     1     101.191  62.275 226.480  1.00  0.00     0.006 C 
BRANCH  10  11
ATOM     11  C   UNL     1     102.506  62.100 225.714  1.00  0.00     0.053 C 
BRANCH  11  12
ATOM     12  C   UNL     1     103.106  63.431 225.384  1.00  0.00     0.041 C 
ATOM     13  O   UNL     1     102.400  64.328 224.843  1.00  0.00    -0.550 OA
ATOM     14  O   UNL     1     104.452  63.673 225.641  1.00  0.00    -0.550 OA
ENDBRANCH  11  12
ENDBRANCH  10  11
ENDBRANCH   9  10
ENDBRANCH   8   9
ENDBRANCH   7   8
ENDBRANCH   6   7
ENDBRANCH   5   6
ENDBRANCH   4   5
ENDBRANCH   3   4
ENDBRANCH   2   3
ENDBRANCH   1   2
BRANCH   1  15
ATOM     15  C   UNL     1      95.155  67.653 226.694  1.00  0.00     0.000 C 
BRANCH  15  16
ATOM     16  C   UNL     1      95.349  66.240 226.127  1.00  0.00     0.000 C 
BRANCH  16  17
ATOM     17  C   UNL     1      95.589  66.234 224.604  1.00  0.00     0.000 C 
BRANCH  17  18
ATOM     18  C   UNL     1      96.810  65.415 224.138  1.00  0.00    -0.000 C 
BRANCH  18  19
ATOM     19  C   UNL     1      97.464  64.536 225.220  1.00  0.00    -0.000 C 
BRANCH  19  20
ATOM     20  C   UNL     1      98.918  64.935 225.553  1.00  0.00    -0.000 C 
BRANCH  20  21
ATOM     21  C   UNL     1      99.282  66.334 225.032  1.00  0.00    -0.000 C 
BRANCH  21  22
ATOM     22  C   UNL     1     100.285  67.024 225.965  1.00  0.00    -0.000 C 
BRANCH  22  23
ATOM     23  C   UNL     1     100.473  66.221 227.261  1.00  0.00    -0.000 C 
BRANCH  23  24
ATOM     24  C   UNL     1     101.857  66.431 227.895  1.00  0.00    -0.000 C 
BRANCH  24  25
ATOM     25  C   UNL     1     101.885  66.064 229.387  1.00  0.00    -0.003 C 
ATOM     26  C   UNL     1     100.535  66.336 230.046  1.00  0.00     0.004 C 
ENDBRANCH  24  25
ENDBRANCH  23  24
ENDBRANCH  22  23
ENDBRANCH  21  22
ENDBRANCH  20  21
ENDBRANCH  19  20
ENDBRANCH  18  19
ENDBRANCH  17  18
ENDBRANCH  16  17
ENDBRANCH  15  16
ENDBRANCH   1  15
TORSDOF 22
ENDMDL
MODEL 5
REMARK VINA RESULT:    -2.510      3.143      7.087
REMARK INTER + INTRA:         -10.455
REMARK INTER:                  -5.746
REMARK INTRA:                  -4.710
REMARK UNBOUND:                -4.717
REMARK SMILES CCCCCCCCCCCCCCCCCCCCCCCC(=O)[O-]
REMARK SMILES IDX 13 1 14 2 15 3 16 4 17 5 18 6 19 7 20 8 21 9 22 10 23 11
REMARK SMILES IDX 24 12 25 13 26 14 12 15 11 16 10 17 9 18 8 19 7 20 6 21 5 22
REMARK SMILES IDX 4 23 3 24 2 25 1 26
REMARK H PARENT
REMARK Flexibility Score: inf
ROOT
ATOM      1  C   UNL     1      97.687  64.274 225.373  1.00  0.00     0.000 C 
ENDROOT
BRANCH   1   2
ATOM      2  C   UNL     1      96.407  65.128 225.266  1.00  0.00     0.000 C 
BRANCH   2   3
ATOM      3  C   UNL     1      96.179  65.735 223.869  1.00  0.00     0.000 C 
BRANCH   3   4
ATOM      4  C   UNL     1      96.056  67.269 223.895  1.00  0.00     0.000 C 
BRANCH   4   5
ATOM      5  C   UNL     1      97.310  67.950 224.470  1.00  0.00     0.000 C 
BRANCH   5   6
ATOM      6  C   UNL     1      96.974  68.913 225.623  1.00  0.00     0.000 C 
BRANCH   6   7
ATOM      7  C   UNL     1      95.641  68.573 226.309  1.00  0.00     0.000 C 
BRANCH   7   8
ATOM      8  C   UNL     1      95.801  68.297 227.812  1.00  0.00     0.000 C 
BRANCH   8   9
ATOM      9  C   UNL     1      97.282  68.223 228.207  1.00  0.00     0.000 C 
BRANCH   9  10
ATOM     10  C   UNL     1      97.653  66.814 228.684  1.00  0.00     0.006 C 
BRANCH  10  11
ATOM     11  C   UNL     1      96.406  66.017 229.076  1.00  0.00     0.053 C 
BRANCH  11  12
ATOM     12  C   UNL     1      96.268  65.950 230.566  1.00  0.00     0.041 C 
ATOM     13  O   UNL     1      96.412  64.848 231.166  1.00  0.00    -0.550 OA
ATOM     14  O   UNL     1      95.950  67.094 231.290  1.00  0.00    -0.550 OA
ENDBRANCH  11  12
ENDBRANCH  10  11
ENDBRANCH   9  10
ENDBRANCH   8   9
ENDBRANCH   7   8
ENDBRANCH   6   7
ENDBRANCH   5   6
ENDBRANCH   4   5
ENDBRANCH   3   4
ENDBRANCH   2   3
ENDBRANCH   1   2
BRANCH   1  15
ATOM     15  C   UNL     1      98.877  65.075 225.927  1.00  0.00     0.000 C 
BRANCH  15  16
ATOM     16  C   UNL     1     100.105  64.936 225.015  1.00  0.00     0.000 C 
BRANCH  16  17
ATOM     17  C   UNL     1     101.141  66.057 225.232  1.00  0.00     0.000 C 
BRANCH  17  18
ATOM     18  C   UNL     1     100.902  66.937 226.474  1.00  0.00    -0.000 C 
BRANCH  18  19
ATOM     19  C   UNL     1     101.806  66.629 227.682  1.00  0.00    -0.000 C 
BRANCH  19  20
ATOM     20  C   UNL     1     101.243  65.541 228.622  1.00  0.00    -0.000 C 
BRANCH  20  21
ATOM     21  C   UNL     1     101.817  64.147 228.323  1.00  0.00    -0.000 C 
BRANCH  21  22
ATOM     22  C   UNL     1     100.731  63.070 228.435  1.00  0.00    -0.000 C 
BRANCH  22  23
ATOM     23  C   UNL     1      99.517  63.593 229.220  1.00  0.00    -0.000 C 
BRANCH  23  24
ATOM     24  C   UNL     1      98.217  62.855 228.863  1.00  0.00    -0.000 C 
BRANCH  24  25
ATOM     25  C   UNL     1      98.448  61.693 227.883  1.00  0.00    -0.003 C 
ATOM     26  C   UNL     1      98.058  60.359 228.512  1.00  0.00     0.004 C 
ENDBRANCH  24  25
ENDBRANCH  23  24
ENDBRANCH  22  23
ENDBRANCH  21  22
ENDBRANCH  20  21
ENDBRANCH  19  20
ENDBRANCH  18  19
ENDBRANCH  17  18
ENDBRANCH  16  17
ENDBRANCH  15  16
ENDBRANCH   1  15
TORSDOF 22
ENDMDL
MODEL 6
REMARK VINA RESULT:    -2.491      2.281      5.333
REMARK INTER + INTRA:         -10.411
REMARK INTER:                  -5.775
REMARK INTRA:                  -4.636
REMARK UNBOUND:                -4.717
REMARK SMILES CCCCCCCCCCCCCCCCCCCCCCCC(=O)[O-]
REMARK SMILES IDX 13 1 14 2 15 3 16 4 17 5 18 6 19 7 20 8 21 9 22 10 23 11
REMARK SMILES IDX 24 12 25 13 26 14 12 15 11 16 10 17 9 18 8 19 7 20 6 21 5 22
REMARK SMILES IDX 4 23 3 24 2 25 1 26
REMARK H PARENT
REMARK Flexibility Score: inf
ROOT
ATOM      1  C   UNL     1      96.118  68.273 224.887  1.00  0.00     0.000 C 
ENDROOT
BRANCH   1   2
ATOM      2  C   UNL     1      96.177  67.157 223.823  1.00  0.00     0.000 C 
BRANCH   2   3
ATOM      3  C   UNL     1      95.604  65.810 224.300  1.00  0.00     0.000 C 
BRANCH   3   4
ATOM      4  C   UNL     1      95.036  65.872 225.729  1.00  0.00     0.000 C 
BRANCH   4   5
ATOM      5  C   UNL     1      95.844  65.016 226.719  1.00  0.00     0.000 C 
BRANCH   5   6
ATOM      6  C   UNL     1      97.099  64.403 226.072  1.00  0.00     0.000 C 
BRANCH   6   7
ATOM      7  C   UNL     1      98.385  65.157 226.445  1.00  0.00     0.000 C 
BRANCH   7   8
ATOM      8  C   UNL     1      99.269  65.461 225.226  1.00  0.00     0.000 C 
BRANCH   8   9
ATOM      9  C   UNL     1     100.692  64.921 225.424  1.00  0.00     0.000 C 
BRANCH   9  10
ATOM     10  C   UNL     1     101.615  66.001 226.001  1.00  0.00     0.006 C 
BRANCH  10  11
ATOM     11  C   UNL     1     101.194  67.396 225.529  1.00  0.00     0.053 C 
BRANCH  11  12
ATOM     12  C   UNL     1     102.276  68.026 224.710  1.00  0.00     0.041 C 
ATOM     13  O   UNL     1     102.188  68.045 223.451  1.00  0.00    -0.550 OA
ATOM     14  O   UNL     1     103.399  68.564 225.331  1.00  0.00    -0.550 OA
ENDBRANCH  11  12
ENDBRANCH  10  11
ENDBRANCH   9  10
ENDBRANCH   8   9
ENDBRANCH   7   8
ENDBRANCH   6   7
ENDBRANCH   5   6
ENDBRANCH   4   5
ENDBRANCH   3   4
ENDBRANCH   2   3
ENDBRANCH   1   2
BRANCH   1  15
ATOM     15  C   UNL     1      97.513  68.659 225.404  1.00  0.00     0.000 C 
BRANCH  15  16
ATOM     16  C   UNL     1      97.589  68.524 226.932  1.00  0.00     0.000 C 
BRANCH  16  17
ATOM     17  C   UNL     1      96.296  68.979 227.638  1.00  0.00     0.000 C 
BRANCH  17  18
ATOM     18  C   UNL     1      95.861  68.107 228.832  1.00  0.00    -0.000 C 
BRANCH  18  19
ATOM     19  C   UNL     1      96.943  67.157 229.381  1.00  0.00    -0.000 C 
BRANCH  19  20
ATOM     20  C   UNL     1      96.416  66.148 230.424  1.00  0.00    -0.000 C 
BRANCH  20  21
ATOM     21  C   UNL     1      97.159  64.804 230.376  1.00  0.00    -0.000 C 
BRANCH  21  22
ATOM     22  C   UNL     1      98.612  64.996 229.923  1.00  0.00    -0.000 C 
BRANCH  22  23
ATOM     23  C   UNL     1      99.295  63.642 229.676  1.00  0.00    -0.000 C 
BRANCH  23  24
ATOM     24  C   UNL     1      98.297  62.529 229.318  1.00  0.00    -0.000 C 
BRANCH  24  25
ATOM     25  C   UNL     1      98.664  61.804 228.014  1.00  0.00    -0.003 C 
ATOM     26  C   UNL     1     100.145  61.973 227.689  1.00  0.00     0.004 C 
ENDBRANCH  24  25
ENDBRANCH  23  24
ENDBRANCH  22  23
ENDBRANCH  21  22
ENDBRANCH  20  21
ENDBRANCH  19  20
ENDBRANCH  18  19
ENDBRANCH  17  18
ENDBRANCH  16  17
ENDBRANCH  15  16
ENDBRANCH   1  15
TORSDOF 22
ENDMDL
MODEL 7
REMARK VINA RESULT:    -2.489      2.754      6.703
REMARK INTER + INTRA:         -10.408
REMARK INTER:                  -5.614
REMARK INTRA:                  -4.794
REMARK UNBOUND:                -4.717
REMARK SMILES CCCCCCCCCCCCCCCCCCCCCCCC(=O)[O-]
REMARK SMILES IDX 13 1 14 2 15 3 16 4 17 5 18 6 19 7 20 8 21 9 22 10 23 11
REMARK SMILES IDX 24 12 25 13 26 14 12 15 11 16 10 17 9 18 8 19 7 20 6 21 5 22
REMARK SMILES IDX 4 23 3 24 2 25 1 26
REMARK H PARENT
REMARK Flexibility Score: inf
ROOT
ATOM      1  C   UNL     1      99.337  64.216 226.112  1.00  0.00     0.000 C 
ENDROOT
BRANCH   1   2
ATOM      2  C   UNL     1      97.811  63.994 226.076  1.00  0.00     0.000 C 
BRANCH   2   3
ATOM      3  C   UNL     1      97.078  64.873 225.046  1.00  0.00     0.000 C 
BRANCH   3   4
ATOM      4  C   UNL     1      95.768  65.470 225.590  1.00  0.00     0.000 C 
BRANCH   4   5
ATOM      5  C   UNL     1      95.963  66.182 226.939  1.00  0.00     0.000 C 
BRANCH   5   6
ATOM      6  C   UNL     1      96.839  67.441 226.814  1.00  0.00     0.000 C 
BRANCH   6   7
ATOM      7  C   UNL     1      98.034  67.430 227.781  1.00  0.00     0.000 C 
BRANCH   7   8
ATOM      8  C   UNL     1      97.821  66.487 228.975  1.00  0.00     0.000 C 
BRANCH   8   9
ATOM      9  C   UNL     1      99.160  66.082 229.606  1.00  0.00     0.000 C 
BRANCH   9  10
ATOM     10  C   UNL     1      99.235  64.564 229.808  1.00  0.00     0.006 C 
BRANCH  10  11
ATOM     11  C   UNL     1      97.843  63.928 229.740  1.00  0.00     0.053 C 
BRANCH  11  12
ATOM     12  C   UNL     1      97.423  63.429 231.087  1.00  0.00     0.041 C 
ATOM     13  O   UNL     1      97.647  62.232 231.417  1.00  0.00    -0.550 OA
ATOM     14  O   UNL     1      96.754  64.275 231.967  1.00  0.00    -0.550 OA
ENDBRANCH  11  12
ENDBRANCH  10  11
ENDBRANCH   9  10
ENDBRANCH   8   9
ENDBRANCH   7   8
ENDBRANCH   6   7
ENDBRANCH   5   6
ENDBRANCH   4   5
ENDBRANCH   3   4
ENDBRANCH   2   3
ENDBRANCH   1   2
BRANCH   1  15
ATOM     15  C   UNL     1      99.772  65.417 225.258  1.00  0.00     0.000 C 
BRANCH  15  16
ATOM     16  C   UNL     1     100.976  66.132 225.888  1.00  0.00     0.000 C 
BRANCH  16  17
ATOM     17  C   UNL     1     101.658  65.298 226.990  1.00  0.00     0.000 C 
BRANCH  17  18
ATOM     18  C   UNL     1     103.034  64.715 226.612  1.00  0.00    -0.000 C 
BRANCH  18  19
ATOM     19  C   UNL     1     102.996  63.495 225.671  1.00  0.00    -0.000 C 
BRANCH  19  20
ATOM     20  C   UNL     1     103.948  62.355 226.089  1.00  0.00    -0.000 C 
BRANCH  20  21
ATOM     21  C   UNL     1     103.229  61.233 226.855  1.00  0.00    -0.000 C 
BRANCH  21  22
ATOM     22  C   UNL     1     101.735  61.544 227.009  1.00  0.00    -0.000 C 
BRANCH  22  23
ATOM     23  C   UNL     1     101.384  61.847 228.475  1.00  0.00    -0.000 C 
BRANCH  23  24
ATOM     24  C   UNL     1     100.173  61.044 228.974  1.00  0.00    -0.000 C 
BRANCH  24  25
ATOM     25  C   UNL     1      99.066  60.927 227.914  1.00  0.00    -0.003 C 
ATOM     26  C   UNL     1      97.848  60.195 228.469  1.00  0.00     0.004 C 
ENDBRANCH  24  25
ENDBRANCH  23  24
ENDBRANCH  22  23
ENDBRANCH  21  22
ENDBRANCH  20  21
ENDBRANCH  19  20
ENDBRANCH  18  19
ENDBRANCH  17  18
ENDBRANCH  16  17
ENDBRANCH  15  16
ENDBRANCH   1  15
TORSDOF 22
ENDMDL
MODEL 8
REMARK VINA RESULT:    -2.488      2.310      4.481
REMARK INTER + INTRA:         -10.405
REMARK INTER:                  -5.197
REMARK INTRA:                  -5.207
REMARK UNBOUND:                -4.717
REMARK SMILES CCCCCCCCCCCCCCCCCCCCCCCC(=O)[O-]
REMARK SMILES IDX 13 1 14 2 15 3 16 4 17 5 18 6 19 7 20 8 21 9 22 10 23 11
REMARK SMILES IDX 24 12 25 13 26 14 12 15 11 16 10 17 9 18 8 19 7 20 6 21 5 22
REMARK SMILES IDX 4 23 3 24 2 25 1 26
REMARK H PARENT
REMARK Flexibility Score: inf
ROOT
ATOM      1  C   UNL     1      98.177  63.811 226.220  1.00  0.00     0.000 C 
ENDROOT
BRANCH   1   2
ATOM      2  C   UNL     1      98.147  63.878 227.761  1.00  0.00     0.000 C 
BRANCH   2   3
ATOM      3  C   UNL     1      99.367  64.585 228.377  1.00  0.00     0.000 C 
BRANCH   3   4
ATOM      4  C   UNL     1      99.396  66.096 228.086  1.00  0.00     0.000 C 
BRANCH   4   5
ATOM      5  C   UNL     1     100.624  66.512 227.258  1.00  0.00     0.000 C 
BRANCH   5   6
ATOM      6  C   UNL     1     100.283  66.710 225.769  1.00  0.00     0.000 C 
BRANCH   6   7
ATOM      7  C   UNL     1     100.880  65.613 224.874  1.00  0.00     0.000 C 
BRANCH   7   8
ATOM      8  C   UNL     1     101.996  64.819 225.572  1.00  0.00     0.000 C 
BRANCH   8   9
ATOM      9  C   UNL     1     101.813  63.310 225.366  1.00  0.00     0.000 C 
BRANCH   9  10
ATOM     10  C   UNL     1     102.085  62.541 226.665  1.00  0.00     0.006 C 
BRANCH  10  11
ATOM     11  C   UNL     1     101.012  61.478 226.913  1.00  0.00     0.053 C 
BRANCH  11  12
ATOM     12  C   UNL     1     100.962  61.104 228.362  1.00  0.00     0.041 C 
ATOM     13  O   UNL     1      99.849  60.978 228.945  1.00  0.00    -0.550 OA
ATOM     14  O   UNL     1     102.141  60.927 229.078  1.00  0.00    -0.550 OA
ENDBRANCH  11  12
ENDBRANCH  10  11
ENDBRANCH   9  10
ENDBRANCH   8   9
ENDBRANCH   7   8
ENDBRANCH   6   7
ENDBRANCH   5   6
ENDBRANCH   4   5
ENDBRANCH   3   4
ENDBRANCH   2   3
ENDBRANCH   1   2
BRANCH   1  15
ATOM     15  C   UNL     1      97.040  64.623 225.579  1.00  0.00     0.000 C 
BRANCH  15  16
ATOM     16  C   UNL     1      96.022  65.071 226.637  1.00  0.00     0.000 C 
BRANCH  16  17
ATOM     17  C   UNL     1      95.616  66.551 226.487  1.00  0.00     0.000 C 
BRANCH  17  18
ATOM     18  C   UNL     1      96.668  67.453 225.811  1.00  0.00    -0.000 C 
BRANCH  18  19
ATOM     19  C   UNL     1      97.138  68.657 226.649  1.00  0.00    -0.000 C 
BRANCH  19  20
ATOM     20  C   UNL     1      96.461  68.756 228.034  1.00  0.00    -0.000 C 
BRANCH  20  21
ATOM     21  C   UNL     1      97.466  69.018 229.166  1.00  0.00    -0.000 C 
BRANCH  21  22
ATOM     22  C   UNL     1      97.195  68.100 230.364  1.00  0.00    -0.000 C 
BRANCH  22  23
ATOM     23  C   UNL     1      95.920  67.270 230.145  1.00  0.00    -0.000 C 
BRANCH  23  24
ATOM     24  C   UNL     1      96.158  65.761 230.307  1.00  0.00    -0.000 C 
BRANCH  24  25
ATOM     25  C   UNL     1      97.263  65.444 231.327  1.00  0.00    -0.003 C 
ATOM     26  C   UNL     1      97.408  63.939 231.532  1.00  0.00     0.004 C 
ENDBRANCH  24  25
ENDBRANCH  23  24
ENDBRANCH  22  23
ENDBRANCH  21  22
ENDBRANCH  20  21
ENDBRANCH  19  20
ENDBRANCH  18  19
ENDBRANCH  17  18
ENDBRANCH  16  17
ENDBRANCH  15  16
ENDBRANCH   1  15
TORSDOF 22
ENDMDL
MODEL 9
REMARK VINA RESULT:    -2.445      2.873      6.819
REMARK INTER + INTRA:         -10.306
REMARK INTER:                  -5.473
REMARK INTRA:                  -4.833
REMARK UNBOUND:                -4.717
REMARK SMILES CCCCCCCCCCCCCCCCCCCCCCCC(=O)[O-]
REMARK SMILES IDX 13 1 14 2 15 3 16 4 17 5 18 6 19 7 20 8 21 9 22 10 23 11
REMARK SMILES IDX 24 12 25 13 26 14 12 15 11 16 10 17 9 18 8 19 7 20 6 21 5 22
REMARK SMILES IDX 4 23 3 24 2 25 1 26
REMARK H PARENT
REMARK Flexibility Score: inf
ROOT
ATOM      1  C   UNL     1      98.678  64.201 227.156  1.00  0.00     0.000 C 
ENDROOT
BRANCH   1   2
ATOM      2  C   UNL     1      97.351  64.270 226.373  1.00  0.00     0.000 C 
BRANCH   2   3
ATOM      3  C   UNL     1      97.499  64.830 224.946  1.00  0.00     0.000 C 
BRANCH   3   4
ATOM      4  C   UNL     1      96.566  66.024 224.671  1.00  0.00     0.000 C 
BRANCH   4   5
ATOM      5  C   UNL     1      97.230  67.373 224.993  1.00  0.00     0.000 C 
BRANCH   5   6
ATOM      6  C   UNL     1      96.837  67.899 226.385  1.00  0.00     0.000 C 
BRANCH   6   7
ATOM      7  C   UNL     1      98.034  67.983 227.345  1.00  0.00     0.000 C 
BRANCH   7   8
ATOM      8  C   UNL     1      97.658  67.636 228.794  1.00  0.00     0.000 C 
BRANCH   8   9
ATOM      9  C   UNL     1      96.329  66.871 228.853  1.00  0.00     0.000 C 
BRANCH   9  10
ATOM     10  C   UNL     1      96.414  65.696 229.835  1.00  0.00     0.006 C 
BRANCH  10  11
ATOM     11  C   UNL     1      97.822  65.568 230.422  1.00  0.00     0.053 C 
BRANCH  11  12
ATOM     12  C   UNL     1      97.885  64.440 231.405  1.00  0.00     0.041 C 
ATOM     13  O   UNL     1      98.999  63.942 231.726  1.00  0.00    -0.550 OA
ATOM     14  O   UNL     1      96.713  63.917 231.942  1.00  0.00    -0.550 OA
ENDBRANCH  11  12
ENDBRANCH  10  11
ENDBRANCH   9  10
ENDBRANCH   8   9
ENDBRANCH   7   8
ENDBRANCH   6   7
ENDBRANCH   5   6
ENDBRANCH   4   5
ENDBRANCH   3   4
ENDBRANCH   2   3
ENDBRANCH   1   2
BRANCH   1  15
ATOM     15  C   UNL     1      98.809  62.903 227.968  1.00  0.00     0.000 C 
BRANCH  15  16
ATOM     16  C   UNL     1     100.229  62.747 228.531  1.00  0.00     0.000 C 
BRANCH  16  17
ATOM     17  C   UNL     1     100.921  64.099 228.792  1.00  0.00     0.000 C 
BRANCH  17  18
ATOM     18  C   UNL     1     102.335  64.004 229.400  1.00  0.00    -0.000 C 
BRANCH  18  19
ATOM     19  C   UNL     1     103.487  63.949 228.379  1.00  0.00    -0.000 C 
BRANCH  19  20
ATOM     20  C   UNL     1     103.903  62.515 227.985  1.00  0.00    -0.000 C 
BRANCH  20  21
ATOM     21  C   UNL     1     103.421  62.124 226.580  1.00  0.00    -0.000 C 
BRANCH  21  22
ATOM     22  C   UNL     1     103.136  63.369 225.730  1.00  0.00    -0.000 C 
BRANCH  22  23
ATOM     23  C   UNL     1     101.720  63.318 225.136  1.00  0.00    -0.000 C 
BRANCH  23  24
ATOM     24  C   UNL     1     101.236  64.688 224.635  1.00  0.00    -0.000 C 
BRANCH  24  25
ATOM     25  C   UNL     1     101.599  65.829 225.598  1.00  0.00    -0.003 C 
ATOM     26  C   UNL     1     100.957  67.142 225.162  1.00  0.00     0.004 C 
ENDBRANCH  24  25
ENDBRANCH  23  24
ENDBRANCH  22  23
ENDBRANCH  21  22
ENDBRANCH  20  21
ENDBRANCH  19  20
ENDBRANCH  18  19
ENDBRANCH  17  18
ENDBRANCH  16  17
ENDBRANCH  15  16
ENDBRANCH   1  15
TORSDOF 22
ENDMDL
