MODEL 1
REMARK VINA RESULT:    -3.752      0.000      0.000
REMARK INTER + INTRA:         -10.640
REMARK INTER:                  -8.140
REMARK INTRA:                  -2.501
REMARK UNBOUND:                -2.501
REMARK SMILES CCCCCCCCCCCCCCCCCCCCCC(=O)[O-]
REMARK SMILES IDX 12 1 11 2 10 3 9 4 8 5 7 6 6 7 5 8 4 9 3 10 2 11 1 12 13 13
REMARK SMILES IDX 14 14 15 15 16 16 17 17 18 18 19 19 20 20 21 21 22 22 23 23
REMARK SMILES IDX 24 24
REMARK H PARENT
REMARK Flexibility Score: inf
ROOT
ATOM      1  C   UNL     1     -23.399 -14.569  42.801  1.00  0.00     0.000 C 
ENDROOT
BRANCH   1   2
ATOM      2  C   UNL     1     -22.679 -14.148  41.507  1.00  0.00     0.000 C 
BRANCH   2   3
ATOM      3  C   UNL     1     -21.360 -14.907  41.291  1.00  0.00     0.000 C 
BRANCH   3   4
ATOM      4  C   UNL     1     -20.150 -13.967  41.186  1.00  0.00    -0.000 C 
BRANCH   4   5
ATOM      5  C   UNL     1     -20.597 -12.503  41.086  1.00  0.00    -0.000 C 
BRANCH   5   6
ATOM      6  C   UNL     1     -20.095 -11.864  39.782  1.00  0.00    -0.000 C 
BRANCH   6   7
ATOM      7  C   UNL     1     -20.293 -12.771  38.555  1.00  0.00    -0.000 C 
BRANCH   7   8
ATOM      8  C   UNL     1     -21.758 -13.003  38.144  1.00  0.00    -0.000 C 
BRANCH   8   9
ATOM      9  C   UNL     1     -22.508 -11.694  37.843  1.00  0.00    -0.000 C 
BRANCH   9  10
ATOM     10  C   UNL     1     -23.650 -11.425  38.837  1.00  0.00    -0.000 C 
BRANCH  10  11
ATOM     11  C   UNL     1     -23.387 -10.220  39.766  1.00  0.00    -0.003 C 
ATOM     12  C   UNL     1     -24.664  -9.717  40.435  1.00  0.00     0.004 C 
ENDBRANCH  10  11
ENDBRANCH   9  10
ENDBRANCH   8   9
ENDBRANCH   7   8
ENDBRANCH   6   7
ENDBRANCH   5   6
ENDBRANCH   4   5
ENDBRANCH   3   4
ENDBRANCH   2   3
ENDBRANCH   1   2
BRANCH   1  13
ATOM     13  C   UNL     1     -22.601 -15.607  43.606  1.00  0.00     0.000 C 
BRANCH  13  14
ATOM     14  C   UNL     1     -22.012 -15.022  44.898  1.00  0.00     0.000 C 
BRANCH  14  15
ATOM     15  C   UNL     1     -21.974 -16.075  46.012  1.00  0.00     0.000 C 
BRANCH  15  16
ATOM     16  C   UNL     1     -22.109 -15.421  47.391  1.00  0.00     0.000 C 
BRANCH  16  17
ATOM     17  C   UNL     1     -23.456 -15.771  48.041  1.00  0.00     0.000 C 
BRANCH  17  18
ATOM     18  C   UNL     1     -24.233 -14.517  48.494  1.00  0.00     0.000 C 
BRANCH  18  19
ATOM     19  C   UNL     1     -24.007 -13.289  47.595  1.00  0.00     0.000 C 
BRANCH  19  20
ATOM     20  C   UNL     1     -25.301 -12.776  46.941  1.00  0.00     0.006 C 
BRANCH  20  21
ATOM     21  C   UNL     1     -25.376 -13.125  45.449  1.00  0.00     0.053 C 
BRANCH  21  22
ATOM     22  C   UNL     1     -26.694 -12.736  44.853  1.00  0.00     0.041 C 
ATOM     23  O   UNL     1     -27.648 -13.558  44.832  1.00  0.00    -0.550 OA
ATOM     24  O   UNL     1     -26.862 -11.473  44.298  1.00  0.00    -0.550 OA
ENDBRANCH  21  22
ENDBRANCH  20  21
ENDBRANCH  19  20
ENDBRANCH  18  19
ENDBRANCH  17  18
ENDBRANCH  16  17
ENDBRANCH  15  16
ENDBRANCH  14  15
ENDBRANCH  13  14
ENDBRANCH   1  13
TORSDOF 20
ENDMDL
MODEL 2
REMARK VINA RESULT:    -3.706      2.432      7.297
REMARK INTER + INTRA:         -10.540
REMARK INTER:                  -7.749
REMARK INTRA:                  -2.791
REMARK UNBOUND:                -2.501
REMARK SMILES CCCCCCCCCCCCCCCCCCCCCC(=O)[O-]
REMARK SMILES IDX 12 1 11 2 10 3 9 4 8 5 7 6 6 7 5 8 4 9 3 10 2 11 1 12 13 13
REMARK SMILES IDX 14 14 15 15 16 16 17 17 18 18 19 19 20 20 21 21 22 22 23 23
REMARK SMILES IDX 24 24
REMARK H PARENT
REMARK Flexibility Score: inf
ROOT
ATOM      1  C   UNL     1     -22.344 -14.161  42.188  1.00  0.00     0.000 C 
ENDROOT
BRANCH   1   2
ATOM      2  C   UNL     1     -23.307 -14.859  43.166  1.00  0.00     0.000 C 
BRANCH   2   3
ATOM      3  C   UNL     1     -22.570 -15.607  44.288  1.00  0.00     0.000 C 
BRANCH   3   4
ATOM      4  C   UNL     1     -22.040 -14.662  45.376  1.00  0.00    -0.000 C 
BRANCH   4   5
ATOM      5  C   UNL     1     -22.733 -14.924  46.719  1.00  0.00    -0.000 C 
BRANCH   5   6
ATOM      6  C   UNL     1     -23.387 -13.643  47.259  1.00  0.00    -0.000 C 
BRANCH   6   7
ATOM      7  C   UNL     1     -24.736 -13.905  47.952  1.00  0.00    -0.000 C 
BRANCH   7   8
ATOM      8  C   UNL     1     -25.971 -13.383  47.196  1.00  0.00    -0.000 C 
BRANCH   8   9
ATOM      9  C   UNL     1     -25.607 -12.653  45.892  1.00  0.00    -0.000 C 
BRANCH   9  10
ATOM     10  C   UNL     1     -26.440 -13.135  44.693  1.00  0.00    -0.000 C 
BRANCH  10  11
ATOM     11  C   UNL     1     -27.782 -13.783  45.095  1.00  0.00    -0.003 C 
ATOM     12  C   UNL     1     -28.970 -13.148  44.375  1.00  0.00     0.004 C 
ENDBRANCH  10  11
ENDBRANCH   9  10
ENDBRANCH   8   9
ENDBRANCH   7   8
ENDBRANCH   6   7
ENDBRANCH   5   6
ENDBRANCH   4   5
ENDBRANCH   3   4
ENDBRANCH   2   3
ENDBRANCH   1   2
BRANCH   1  13
ATOM     13  C   UNL     1     -21.331 -15.136  41.565  1.00  0.00     0.000 C 
BRANCH  13  14
ATOM     14  C   UNL     1     -19.878 -14.685  41.772  1.00  0.00     0.000 C 
BRANCH  14  15
ATOM     15  C   UNL     1     -19.818 -13.259  42.333  1.00  0.00     0.000 C 
BRANCH  15  16
ATOM     16  C   UNL     1     -19.260 -12.283  41.292  1.00  0.00     0.000 C 
BRANCH  16  17
ATOM     17  C   UNL     1     -20.325 -11.266  40.857  1.00  0.00     0.000 C 
BRANCH  17  18
ATOM     18  C   UNL     1     -20.546 -11.262  39.330  1.00  0.00     0.000 C 
BRANCH  18  19
ATOM     19  C   UNL     1     -20.213 -12.603  38.653  1.00  0.00     0.000 C 
BRANCH  19  20
ATOM     20  C   UNL     1     -21.277 -13.043  37.634  1.00  0.00     0.006 C 
BRANCH  20  21
ATOM     21  C   UNL     1     -22.132 -14.208  38.152  1.00  0.00     0.053 C 
BRANCH  21  22
ATOM     22  C   UNL     1     -23.467 -13.741  38.646  1.00  0.00     0.041 C 
ATOM     23  O   UNL     1     -24.292 -14.568  39.115  1.00  0.00    -0.550 OA
ATOM     24  O   UNL     1     -23.809 -12.397  38.564  1.00  0.00    -0.550 OA
ENDBRANCH  21  22
ENDBRANCH  20  21
ENDBRANCH  19  20
ENDBRANCH  18  19
ENDBRANCH  17  18
ENDBRANCH  16  17
ENDBRANCH  15  16
ENDBRANCH  14  15
ENDBRANCH  13  14
ENDBRANCH   1  13
TORSDOF 20
ENDMDL
MODEL 3
REMARK VINA RESULT:    -3.689      1.420      1.892
REMARK INTER + INTRA:         -10.503
REMARK INTER:                  -7.804
REMARK INTRA:                  -2.698
REMARK UNBOUND:                -2.501
REMARK SMILES CCCCCCCCCCCCCCCCCCCCCC(=O)[O-]
REMARK SMILES IDX 12 1 11 2 10 3 9 4 8 5 7 6 6 7 5 8 4 9 3 10 2 11 1 12 13 13
REMARK SMILES IDX 14 14 15 15 16 16 17 17 18 18 19 19 20 20 21 21 22 22 23 23
REMARK SMILES IDX 24 24
REMARK H PARENT
REMARK Flexibility Score: inf
ROOT
ATOM      1  C   UNL     1     -23.463 -14.649  43.121  1.00  0.00     0.000 C 
ENDROOT
BRANCH   1   2
ATOM      2  C   UNL     1     -22.990 -13.899  41.862  1.00  0.00     0.000 C 
BRANCH   2   3
ATOM      3  C   UNL     1     -21.544 -14.249  41.476  1.00  0.00     0.000 C 
BRANCH   3   4
ATOM      4  C   UNL     1     -20.619 -13.023  41.491  1.00  0.00    -0.000 C 
BRANCH   4   5
ATOM      5  C   UNL     1     -19.301 -13.319  40.763  1.00  0.00    -0.000 C 
BRANCH   5   6
ATOM      6  C   UNL     1     -19.564 -13.878  39.356  1.00  0.00    -0.000 C 
BRANCH   6   7
ATOM      7  C   UNL     1     -19.797 -12.776  38.307  1.00  0.00    -0.000 C 
BRANCH   7   8
ATOM      8  C   UNL     1     -20.843 -13.112  37.230  1.00  0.00    -0.000 C 
BRANCH   8   9
ATOM      9  C   UNL     1     -22.002 -13.967  37.769  1.00  0.00    -0.000 C 
BRANCH   9  10
ATOM     10  C   UNL     1     -23.168 -13.116  38.300  1.00  0.00    -0.000 C 
BRANCH  10  11
ATOM     11  C   UNL     1     -22.941 -11.597  38.145  1.00  0.00    -0.003 C 
ATOM     12  C   UNL     1     -22.911 -10.877  39.492  1.00  0.00     0.004 C 
ENDBRANCH  10  11
ENDBRANCH   9  10
ENDBRANCH   8   9
ENDBRANCH   7   8
ENDBRANCH   6   7
ENDBRANCH   5   6
ENDBRANCH   4   5
ENDBRANCH   3   4
ENDBRANCH   2   3
ENDBRANCH   1   2
BRANCH   1  13
ATOM     13  C   UNL     1     -22.422 -15.658  43.630  1.00  0.00     0.000 C 
BRANCH  13  14
ATOM     14  C   UNL     1     -22.362 -15.719  45.163  1.00  0.00     0.000 C 
BRANCH  14  15
ATOM     15  C   UNL     1     -21.490 -14.590  45.725  1.00  0.00     0.000 C 
BRANCH  15  16
ATOM     16  C   UNL     1     -21.980 -14.155  47.110  1.00  0.00     0.000 C 
BRANCH  16  17
ATOM     17  C   UNL     1     -23.510 -14.236  47.208  1.00  0.00     0.000 C 
BRANCH  17  18
ATOM     18  C   UNL     1     -24.183 -12.855  47.058  1.00  0.00     0.000 C 
BRANCH  18  19
ATOM     19  C   UNL     1     -25.625 -12.923  46.526  1.00  0.00     0.000 C 
BRANCH  19  20
ATOM     20  C   UNL     1     -25.709 -12.774  44.998  1.00  0.00     0.006 C 
BRANCH  20  21
ATOM     21  C   UNL     1     -26.709 -11.689  44.574  1.00  0.00     0.053 C 
BRANCH  21  22
ATOM     22  C   UNL     1     -26.018 -10.420  44.181  1.00  0.00     0.041 C 
ATOM     23  O   UNL     1     -25.705 -10.215  42.978  1.00  0.00    -0.550 OA
ATOM     24  O   UNL     1     -25.696  -9.474  45.146  1.00  0.00    -0.550 OA
ENDBRANCH  21  22
ENDBRANCH  20  21
ENDBRANCH  19  20
ENDBRANCH  18  19
ENDBRANCH  17  18
ENDBRANCH  16  17
ENDBRANCH  15  16
ENDBRANCH  14  15
ENDBRANCH  13  14
ENDBRANCH   1  13
TORSDOF 20
ENDMDL
MODEL 4
REMARK VINA RESULT:    -3.610      1.287      2.031
REMARK INTER + INTRA:         -10.331
REMARK INTER:                  -7.723
REMARK INTRA:                  -2.608
REMARK UNBOUND:                -2.501
REMARK SMILES CCCCCCCCCCCCCCCCCCCCCC(=O)[O-]
REMARK SMILES IDX 12 1 11 2 10 3 9 4 8 5 7 6 6 7 5 8 4 9 3 10 2 11 1 12 13 13
REMARK SMILES IDX 14 14 15 15 16 16 17 17 18 18 19 19 20 20 21 21 22 22 23 23
REMARK SMILES IDX 24 24
REMARK H PARENT
REMARK Flexibility Score: inf
ROOT
ATOM      1  C   UNL     1     -23.016 -15.034  43.742  1.00  0.00     0.000 C 
ENDROOT
BRANCH   1   2
ATOM      2  C   UNL     1     -22.252 -14.539  42.499  1.00  0.00     0.000 C 
BRANCH   2   3
ATOM      3  C   UNL     1     -20.888 -15.227  42.334  1.00  0.00     0.000 C 
BRANCH   3   4
ATOM      4  C   UNL     1     -19.758 -14.229  42.041  1.00  0.00    -0.000 C 
BRANCH   4   5
ATOM      5  C   UNL     1     -20.040 -13.439  40.756  1.00  0.00    -0.000 C 
BRANCH   5   6
ATOM      6  C   UNL     1     -20.080 -11.929  41.037  1.00  0.00    -0.000 C 
BRANCH   6   7
ATOM      7  C   UNL     1     -21.050 -11.172  40.112  1.00  0.00    -0.000 C 
BRANCH   7   8
ATOM      8  C   UNL     1     -22.505 -11.670  40.146  1.00  0.00    -0.000 C 
BRANCH   8   9
ATOM      9  C   UNL     1     -23.241 -11.456  38.812  1.00  0.00    -0.000 C 
BRANCH   9  10
ATOM     10  C   UNL     1     -23.785 -12.767  38.219  1.00  0.00    -0.000 C 
BRANCH  10  11
ATOM     11  C   UNL     1     -23.583 -13.989  39.140  1.00  0.00    -0.003 C 
ATOM     12  C   UNL     1     -22.538 -14.959  38.591  1.00  0.00     0.004 C 
ENDBRANCH  10  11
ENDBRANCH   9  10
ENDBRANCH   8   9
ENDBRANCH   7   8
ENDBRANCH   6   7
ENDBRANCH   5   6
ENDBRANCH   4   5
ENDBRANCH   3   4
ENDBRANCH   2   3
ENDBRANCH   1   2
BRANCH   1  13
ATOM     13  C   UNL     1     -22.074 -15.475  44.873  1.00  0.00     0.000 C 
BRANCH  13  14
ATOM     14  C   UNL     1     -22.289 -14.669  46.163  1.00  0.00     0.000 C 
BRANCH  14  15
ATOM     15  C   UNL     1     -22.600 -15.596  47.345  1.00  0.00     0.000 C 
BRANCH  15  16
ATOM     16  C   UNL     1     -22.862 -14.789  48.621  1.00  0.00     0.000 C 
BRANCH  16  17
ATOM     17  C   UNL     1     -23.448 -13.408  48.295  1.00  0.00     0.000 C 
BRANCH  17  18
ATOM     18  C   UNL     1     -24.959 -13.323  48.599  1.00  0.00     0.000 C 
BRANCH  18  19
ATOM     19  C   UNL     1     -25.851 -13.473  47.355  1.00  0.00     0.000 C 
BRANCH  19  20
ATOM     20  C   UNL     1     -25.258 -12.804  46.104  1.00  0.00     0.006 C 
BRANCH  20  21
ATOM     21  C   UNL     1     -26.070 -13.113  44.840  1.00  0.00     0.053 C 
BRANCH  21  22
ATOM     22  C   UNL     1     -26.947 -11.963  44.449  1.00  0.00     0.041 C 
ATOM     23  O   UNL     1     -28.180 -12.142  44.259  1.00  0.00    -0.550 OA
ATOM     24  O   UNL     1     -26.400 -10.699  44.269  1.00  0.00    -0.550 OA
ENDBRANCH  21  22
ENDBRANCH  20  21
ENDBRANCH  19  20
ENDBRANCH  18  19
ENDBRANCH  17  18
ENDBRANCH  16  17
ENDBRANCH  15  16
ENDBRANCH  14  15
ENDBRANCH  13  14
ENDBRANCH   1  13
TORSDOF 20
ENDMDL
MODEL 5
REMARK VINA RESULT:    -3.583      2.928      5.703
REMARK INTER + INTRA:         -10.272
REMARK INTER:                  -7.392
REMARK INTRA:                  -2.880
REMARK UNBOUND:                -2.501
REMARK SMILES CCCCCCCCCCCCCCCCCCCCCC(=O)[O-]
REMARK SMILES IDX 12 1 11 2 10 3 9 4 8 5 7 6 6 7 5 8 4 9 3 10 2 11 1 12 13 13
REMARK SMILES IDX 14 14 15 15 16 16 17 17 18 18 19 19 20 20 21 21 22 22 23 23
REMARK SMILES IDX 24 24
REMARK H PARENT
REMARK Flexibility Score: inf
ROOT
ATOM      1  C   UNL     1     -21.594 -10.629  39.750  1.00  0.00     0.000 C 
ENDROOT
BRANCH   1   2
ATOM      2  C   UNL     1     -22.687 -11.659  40.092  1.00  0.00     0.000 C 
BRANCH   2   3
ATOM      3  C   UNL     1     -23.876 -11.602  39.119  1.00  0.00     0.000 C 
BRANCH   3   4
ATOM      4  C   UNL     1     -23.945 -12.833  38.203  1.00  0.00    -0.000 C 
BRANCH   4   5
ATOM      5  C   UNL     1     -23.134 -13.999  38.784  1.00  0.00    -0.000 C 
BRANCH   5   6
ATOM      6  C   UNL     1     -21.927 -14.326  37.893  1.00  0.00    -0.000 C 
BRANCH   6   7
ATOM      7  C   UNL     1     -21.653 -13.244  36.833  1.00  0.00    -0.000 C 
BRANCH   7   8
ATOM      8  C   UNL     1     -20.204 -13.188  36.318  1.00  0.00    -0.000 C 
BRANCH   8   9
ATOM      9  C   UNL     1     -20.106 -13.348  34.792  1.00  0.00    -0.000 C 
BRANCH   9  10
ATOM     10  C   UNL     1     -21.435 -13.793  34.157  1.00  0.00    -0.000 C 
BRANCH  10  11
ATOM     11  C   UNL     1     -21.711 -13.142  32.785  1.00  0.00    -0.003 C 
ATOM     12  C   UNL     1     -22.849 -13.832  32.036  1.00  0.00     0.004 C 
ENDBRANCH  10  11
ENDBRANCH   9  10
ENDBRANCH   8   9
ENDBRANCH   7   8
ENDBRANCH   6   7
ENDBRANCH   5   6
ENDBRANCH   4   5
ENDBRANCH   3   4
ENDBRANCH   2   3
ENDBRANCH   1   2
BRANCH   1  13
ATOM     13  C   UNL     1     -20.193 -11.257  39.693  1.00  0.00     0.000 C 
BRANCH  13  14
ATOM     14  C   UNL     1     -19.411 -11.070  41.001  1.00  0.00     0.000 C 
BRANCH  14  15
ATOM     15  C   UNL     1     -19.047 -12.424  41.622  1.00  0.00     0.000 C 
BRANCH  15  16
ATOM     16  C   UNL     1     -19.336 -13.571  40.649  1.00  0.00     0.000 C 
BRANCH  16  17
ATOM     17  C   UNL     1     -20.380 -14.539  41.225  1.00  0.00     0.000 C 
BRANCH  17  18
ATOM     18  C   UNL     1     -21.172 -13.920  42.396  1.00  0.00     0.000 C 
BRANCH  18  19
ATOM     19  C   UNL     1     -22.638 -14.382  42.467  1.00  0.00     0.000 C 
BRANCH  19  20
ATOM     20  C   UNL     1     -22.910 -15.344  43.634  1.00  0.00     0.006 C 
BRANCH  20  21
ATOM     21  C   UNL     1     -21.662 -15.582  44.495  1.00  0.00     0.053 C 
BRANCH  21  22
ATOM     22  C   UNL     1     -21.755 -14.879  45.814  1.00  0.00     0.041 C 
ATOM     23  O   UNL     1     -22.639 -15.209  46.647  1.00  0.00    -0.550 OA
ATOM     24  O   UNL     1     -20.880 -13.842  46.113  1.00  0.00    -0.550 OA
ENDBRANCH  21  22
ENDBRANCH  20  21
ENDBRANCH  19  20
ENDBRANCH  18  19
ENDBRANCH  17  18
ENDBRANCH  16  17
ENDBRANCH  15  16
ENDBRANCH  14  15
ENDBRANCH  13  14
ENDBRANCH   1  13
TORSDOF 20
ENDMDL
MODEL 6
REMARK VINA RESULT:    -3.570      3.345      4.493
REMARK INTER + INTRA:         -10.244
REMARK INTER:                  -7.730
REMARK INTRA:                  -2.514
REMARK UNBOUND:                -2.501
REMARK SMILES CCCCCCCCCCCCCCCCCCCCCC(=O)[O-]
REMARK SMILES IDX 12 1 11 2 10 3 9 4 8 5 7 6 6 7 5 8 4 9 3 10 2 11 1 12 13 13
REMARK SMILES IDX 14 14 15 15 16 16 17 17 18 18 19 19 20 20 21 21 22 22 23 23
REMARK SMILES IDX 24 24
REMARK H PARENT
REMARK Flexibility Score: inf
ROOT
ATOM      1  C   UNL     1     -22.514 -14.427  42.889  1.00  0.00     0.000 C 
ENDROOT
BRANCH   1   2
ATOM      2  C   UNL     1     -22.962 -14.162  41.439  1.00  0.00     0.000 C 
BRANCH   2   3
ATOM      3  C   UNL     1     -21.992 -14.753  40.404  1.00  0.00     0.000 C 
BRANCH   3   4
ATOM      4  C   UNL     1     -22.536 -14.666  38.971  1.00  0.00    -0.000 C 
BRANCH   4   5
ATOM      5  C   UNL     1     -23.990 -14.176  38.962  1.00  0.00    -0.000 C 
BRANCH   5   6
ATOM      6  C   UNL     1     -24.119 -12.853  38.192  1.00  0.00    -0.000 C 
BRANCH   6   7
ATOM      7  C   UNL     1     -22.813 -12.040  38.173  1.00  0.00    -0.000 C 
BRANCH   7   8
ATOM      8  C   UNL     1     -22.732 -10.912  39.216  1.00  0.00    -0.000 C 
BRANCH   8   9
ATOM      9  C   UNL     1     -21.454 -10.977  40.069  1.00  0.00    -0.000 C 
BRANCH   9  10
ATOM     10  C   UNL     1     -20.279 -11.634  39.325  1.00  0.00    -0.000 C 
BRANCH  10  11
ATOM     11  C   UNL     1     -19.129 -12.073  40.257  1.00  0.00    -0.003 C 
ATOM     12  C   UNL     1     -19.603 -12.301  41.691  1.00  0.00     0.004 C 
ENDBRANCH  10  11
ENDBRANCH   9  10
ENDBRANCH   8   9
ENDBRANCH   7   8
ENDBRANCH   6   7
ENDBRANCH   5   6
ENDBRANCH   4   5
ENDBRANCH   3   4
ENDBRANCH   2   3
ENDBRANCH   1   2
BRANCH   1  13
ATOM     13  C   UNL     1     -22.205 -15.911  43.145  1.00  0.00     0.000 C 
BRANCH  13  14
ATOM     14  C   UNL     1     -20.807 -16.125  43.744  1.00  0.00     0.000 C 
BRANCH  14  15
ATOM     15  C   UNL     1     -20.780 -15.743  45.229  1.00  0.00     0.000 C 
BRANCH  15  16
ATOM     16  C   UNL     1     -19.830 -14.566  45.477  1.00  0.00     0.000 C 
BRANCH  16  17
ATOM     17  C   UNL     1     -20.469 -13.522  46.404  1.00  0.00     0.000 C 
BRANCH  17  18
ATOM     18  C   UNL     1     -19.423 -12.773  47.255  1.00  0.00     0.000 C 
BRANCH  18  19
ATOM     19  C   UNL     1     -19.952 -11.472  47.884  1.00  0.00     0.000 C 
BRANCH  19  20
ATOM     20  C   UNL     1     -21.487 -11.374  47.863  1.00  0.00     0.006 C 
BRANCH  20  21
ATOM     21  C   UNL     1     -21.991 -10.033  48.413  1.00  0.00     0.053 C 
BRANCH  21  22
ATOM     22  C   UNL     1     -21.700  -9.888  49.876  1.00  0.00     0.041 C 
ATOM     23  O   UNL     1     -20.911  -8.993  50.279  1.00  0.00    -0.550 OA
ATOM     24  O   UNL     1     -22.279 -10.758  50.791  1.00  0.00    -0.550 OA
ENDBRANCH  21  22
ENDBRANCH  20  21
ENDBRANCH  19  20
ENDBRANCH  18  19
ENDBRANCH  17  18
ENDBRANCH  16  17
ENDBRANCH  15  16
ENDBRANCH  14  15
ENDBRANCH  13  14
ENDBRANCH   1  13
TORSDOF 20
ENDMDL
MODEL 7
REMARK VINA RESULT:    -3.538     13.928     17.404
REMARK INTER + INTRA:         -10.175
REMARK INTER:                  -7.964
REMARK INTRA:                  -2.211
REMARK UNBOUND:                -2.501
REMARK SMILES CCCCCCCCCCCCCCCCCCCCCC(=O)[O-]
REMARK SMILES IDX 12 1 11 2 10 3 9 4 8 5 7 6 6 7 5 8 4 9 3 10 2 11 1 12 13 13
REMARK SMILES IDX 14 14 15 15 16 16 17 17 18 18 19 19 20 20 21 21 22 22 23 23
REMARK SMILES IDX 24 24
REMARK H PARENT
REMARK Flexibility Score: inf
ROOT
ATOM      1  C   UNL     1     -37.438  -7.139  47.256  1.00  0.00     0.000 C 
ENDROOT
BRANCH   1   2
ATOM      2  C   UNL     1     -38.446  -5.980  47.156  1.00  0.00     0.000 C 
BRANCH   2   3
ATOM      3  C   UNL     1     -38.858  -5.435  48.533  1.00  0.00     0.000 C 
BRANCH   3   4
ATOM      4  C   UNL     1     -37.739  -5.567  49.576  1.00  0.00    -0.000 C 
BRANCH   4   5
ATOM      5  C   UNL     1     -38.222  -5.120  50.962  1.00  0.00    -0.000 C 
BRANCH   5   6
ATOM      6  C   UNL     1     -37.475  -3.861  51.425  1.00  0.00    -0.000 C 
BRANCH   6   7
ATOM      7  C   UNL     1     -36.127  -3.666  50.708  1.00  0.00    -0.000 C 
BRANCH   7   8
ATOM      8  C   UNL     1     -35.058  -2.914  51.521  1.00  0.00    -0.000 C 
BRANCH   8   9
ATOM      9  C   UNL     1     -35.341  -1.406  51.629  1.00  0.00    -0.000 C 
BRANCH   9  10
ATOM     10  C   UNL     1     -35.154  -0.672  50.291  1.00  0.00    -0.000 C 
BRANCH  10  11
ATOM     11  C   UNL     1     -36.318   0.282  49.945  1.00  0.00    -0.003 C 
ATOM     12  C   UNL     1     -37.682  -0.359  50.190  1.00  0.00     0.004 C 
ENDBRANCH  10  11
ENDBRANCH   9  10
ENDBRANCH   8   9
ENDBRANCH   7   8
ENDBRANCH   6   7
ENDBRANCH   5   6
ENDBRANCH   4   5
ENDBRANCH   3   4
ENDBRANCH   2   3
ENDBRANCH   1   2
BRANCH   1  13
ATOM     13  C   UNL     1     -38.088  -8.508  46.998  1.00  0.00     0.000 C 
BRANCH  13  14
ATOM     14  C   UNL     1     -38.472  -9.230  48.298  1.00  0.00     0.000 C 
BRANCH  14  15
ATOM     15  C   UNL     1     -37.268  -9.347  49.239  1.00  0.00     0.000 C 
BRANCH  15  16
ATOM     16  C   UNL     1     -37.025 -10.805  49.644  1.00  0.00     0.000 C 
BRANCH  16  17
ATOM     17  C   UNL     1     -37.383 -11.765  48.500  1.00  0.00     0.000 C 
BRANCH  17  18
ATOM     18  C   UNL     1     -36.140 -12.458  47.903  1.00  0.00     0.000 C 
BRANCH  18  19
ATOM     19  C   UNL     1     -35.969 -12.230  46.391  1.00  0.00     0.000 C 
BRANCH  19  20
ATOM     20  C   UNL     1     -37.269 -11.786  45.699  1.00  0.00     0.006 C 
BRANCH  20  21
ATOM     21  C   UNL     1     -37.003 -10.886  44.486  1.00  0.00     0.053 C 
BRANCH  21  22
ATOM     22  C   UNL     1     -37.137 -11.637  43.197  1.00  0.00     0.041 C 
ATOM     23  O   UNL     1     -37.076 -11.024  42.098  1.00  0.00    -0.550 OA
ATOM     24  O   UNL     1     -37.354 -13.009  43.209  1.00  0.00    -0.550 OA
ENDBRANCH  21  22
ENDBRANCH  20  21
ENDBRANCH  19  20
ENDBRANCH  18  19
ENDBRANCH  17  18
ENDBRANCH  16  17
ENDBRANCH  15  16
ENDBRANCH  14  15
ENDBRANCH  13  14
ENDBRANCH   1  13
TORSDOF 20
ENDMDL
MODEL 8
REMARK VINA RESULT:    -3.478      2.934      7.300
REMARK INTER + INTRA:         -10.044
REMARK INTER:                  -7.709
REMARK INTRA:                  -2.336
REMARK UNBOUND:                -2.501
REMARK SMILES CCCCCCCCCCCCCCCCCCCCCC(=O)[O-]
REMARK SMILES IDX 12 1 11 2 10 3 9 4 8 5 7 6 6 7 5 8 4 9 3 10 2 11 1 12 13 13
REMARK SMILES IDX 14 14 15 15 16 16 17 17 18 18 19 19 20 20 21 21 22 22 23 23
REMARK SMILES IDX 24 24
REMARK H PARENT
REMARK Flexibility Score: inf
ROOT
ATOM      1  C   UNL     1     -21.150 -13.480  47.584  1.00  0.00     0.000 C 
ENDROOT
BRANCH   1   2
ATOM      2  C   UNL     1     -20.417 -12.126  47.610  1.00  0.00     0.000 C 
BRANCH   2   3
ATOM      3  C   UNL     1     -21.345 -10.960  47.985  1.00  0.00     0.000 C 
BRANCH   3   4
ATOM      4  C   UNL     1     -21.604 -10.877  49.497  1.00  0.00    -0.000 C 
BRANCH   4   5
ATOM      5  C   UNL     1     -23.080 -10.578  49.788  1.00  0.00    -0.000 C 
BRANCH   5   6
ATOM      6  C   UNL     1     -23.983 -11.134  48.676  1.00  0.00    -0.000 C 
BRANCH   6   7
ATOM      7  C   UNL     1     -24.538 -12.533  48.998  1.00  0.00    -0.000 C 
BRANCH   7   8
ATOM      8  C   UNL     1     -24.926 -13.378  47.772  1.00  0.00    -0.000 C 
BRANCH   8   9
ATOM      9  C   UNL     1     -25.131 -12.532  46.505  1.00  0.00    -0.000 C 
BRANCH   9  10
ATOM     10  C   UNL     1     -26.245 -13.083  45.599  1.00  0.00    -0.000 C 
BRANCH  10  11
ATOM     11  C   UNL     1     -26.668 -12.107  44.480  1.00  0.00    -0.003 C 
ATOM     12  C   UNL     1     -25.957 -10.760  44.589  1.00  0.00     0.004 C 
ENDBRANCH  10  11
ENDBRANCH   9  10
ENDBRANCH   8   9
ENDBRANCH   7   8
ENDBRANCH   6   7
ENDBRANCH   5   6
ENDBRANCH   4   5
ENDBRANCH   3   4
ENDBRANCH   2   3
ENDBRANCH   1   2
BRANCH   1  13
ATOM     13  C   UNL     1     -21.259 -14.062  46.165  1.00  0.00     0.000 C 
BRANCH  13  14
ATOM     14  C   UNL     1     -22.232 -15.248  46.090  1.00  0.00     0.000 C 
BRANCH  14  15
ATOM     15  C   UNL     1     -22.249 -15.857  44.683  1.00  0.00     0.000 C 
BRANCH  15  16
ATOM     16  C   UNL     1     -22.064 -14.776  43.613  1.00  0.00     0.000 C 
BRANCH  16  17
ATOM     17  C   UNL     1     -23.364 -14.542  42.830  1.00  0.00     0.000 C 
BRANCH  17  18
ATOM     18  C   UNL     1     -23.104 -14.169  41.356  1.00  0.00     0.000 C 
BRANCH  18  19
ATOM     19  C   UNL     1     -22.136 -12.986  41.177  1.00  0.00     0.000 C 
BRANCH  19  20
ATOM     20  C   UNL     1     -22.746 -11.826  40.374  1.00  0.00     0.006 C 
BRANCH  20  21
ATOM     21  C   UNL     1     -22.142 -11.712  38.968  1.00  0.00     0.053 C 
BRANCH  21  22
ATOM     22  C   UNL     1     -23.111 -12.145  37.910  1.00  0.00     0.041 C 
ATOM     23  O   UNL     1     -22.910 -11.843  36.704  1.00  0.00    -0.550 OA
ATOM     24  O   UNL     1     -24.250 -12.861  38.260  1.00  0.00    -0.550 OA
ENDBRANCH  21  22
ENDBRANCH  20  21
ENDBRANCH  19  20
ENDBRANCH  18  19
ENDBRANCH  17  18
ENDBRANCH  16  17
ENDBRANCH  15  16
ENDBRANCH  14  15
ENDBRANCH  13  14
ENDBRANCH   1  13
TORSDOF 20
ENDMDL
MODEL 9
REMARK VINA RESULT:    -3.469     13.771     17.285
REMARK INTER + INTRA:         -10.025
REMARK INTER:                  -7.554
REMARK INTRA:                  -2.471
REMARK UNBOUND:                -2.501
REMARK SMILES CCCCCCCCCCCCCCCCCCCCCC(=O)[O-]
REMARK SMILES IDX 12 1 11 2 10 3 9 4 8 5 7 6 6 7 5 8 4 9 3 10 2 11 1 12 13 13
REMARK SMILES IDX 14 14 15 15 16 16 17 17 18 18 19 19 20 20 21 21 22 22 23 23
REMARK SMILES IDX 24 24
REMARK H PARENT
REMARK Flexibility Score: inf
ROOT
ATOM      1  C   UNL     1     -37.654  -8.508  47.278  1.00  0.00     0.000 C 
ENDROOT
BRANCH   1   2
ATOM      2  C   UNL     1     -38.872  -8.872  48.147  1.00  0.00     0.000 C 
BRANCH   2   3
ATOM      3  C   UNL     1     -38.487  -9.178  49.604  1.00  0.00     0.000 C 
BRANCH   3   4
ATOM      4  C   UNL     1     -37.027  -9.631  49.743  1.00  0.00    -0.000 C 
BRANCH   4   5
ATOM      5  C   UNL     1     -36.932 -11.158  49.857  1.00  0.00    -0.000 C 
BRANCH   5   6
ATOM      6  C   UNL     1     -36.514 -11.785  48.519  1.00  0.00    -0.000 C 
BRANCH   6   7
ATOM      7  C   UNL     1     -37.650 -12.576  47.846  1.00  0.00    -0.000 C 
BRANCH   7   8
ATOM      8  C   UNL     1     -38.034 -12.094  46.436  1.00  0.00    -0.000 C 
BRANCH   8   9
ATOM      9  C   UNL     1     -36.811 -11.747  45.570  1.00  0.00    -0.000 C 
BRANCH   9  10
ATOM     10  C   UNL     1     -37.161 -10.815  44.397  1.00  0.00    -0.000 C 
BRANCH  10  11
ATOM     11  C   UNL     1     -36.755 -11.379  43.020  1.00  0.00    -0.003 C 
ATOM     12  C   UNL     1     -35.599 -12.373  43.120  1.00  0.00     0.004 C 
ENDBRANCH  10  11
ENDBRANCH   9  10
ENDBRANCH   8   9
ENDBRANCH   7   8
ENDBRANCH   6   7
ENDBRANCH   5   6
ENDBRANCH   4   5
ENDBRANCH   3   4
ENDBRANCH   2   3
ENDBRANCH   1   2
BRANCH   1  13
ATOM     13  C   UNL     1     -37.444  -6.990  47.167  1.00  0.00     0.000 C 
BRANCH  13  14
ATOM     14  C   UNL     1     -38.766  -6.209  47.199  1.00  0.00     0.000 C 
BRANCH  14  15
ATOM     15  C   UNL     1     -38.805  -5.241  48.387  1.00  0.00     0.000 C 
BRANCH  15  16
ATOM     16  C   UNL     1     -37.587  -5.437  49.296  1.00  0.00     0.000 C 
BRANCH  16  17
ATOM     17  C   UNL     1     -37.942  -5.167  50.766  1.00  0.00     0.000 C 
BRANCH  17  18
ATOM     18  C   UNL     1     -37.083  -4.042  51.381  1.00  0.00     0.000 C 
BRANCH  18  19
ATOM     19  C   UNL     1     -35.967  -3.535  50.451  1.00  0.00     0.000 C 
BRANCH  19  20
ATOM     20  C   UNL     1     -34.958  -2.620  51.165  1.00  0.00     0.006 C 
BRANCH  20  21
ATOM     21  C   UNL     1     -34.774  -1.281  50.440  1.00  0.00     0.053 C 
BRANCH  21  22
ATOM     22  C   UNL     1     -35.956  -0.381  50.626  1.00  0.00     0.041 C 
ATOM     23  O   UNL     1     -36.351   0.350  49.679  1.00  0.00    -0.550 OA
ATOM     24  O   UNL     1     -36.607  -0.330  51.852  1.00  0.00    -0.550 OA
ENDBRANCH  21  22
ENDBRANCH  20  21
ENDBRANCH  19  20
ENDBRANCH  18  19
ENDBRANCH  17  18
ENDBRANCH  16  17
ENDBRANCH  15  16
ENDBRANCH  14  15
ENDBRANCH  13  14
ENDBRANCH   1  13
TORSDOF 20
ENDMDL
