MODEL 1
REMARK VINA RESULT:    -1.692      0.000      0.000
REMARK INTER + INTRA:          -5.810
REMARK INTER:                  -3.077
REMARK INTRA:                  -2.733
REMARK UNBOUND:                -2.733
REMARK SMILES CCCCCCCCCCCCCCCC(=O)[O-]
REMARK SMILES IDX 9 1 10 2 11 3 12 4 13 5 14 6 15 7 16 8 17 9 18 10 8 11 7 12
REMARK SMILES IDX 6 13 5 14 4 15 3 16 2 17 1 18
REMARK H PARENT
REMARK Flexibility Score: inf
ROOT
ATOM      1  C   UNL     1     175.122 190.718 179.810  1.00  0.00     0.000 C 
ENDROOT
BRANCH   1   2
ATOM      2  C   UNL     1     175.460 189.295 180.280  1.00  0.00     0.000 C 
BRANCH   2   3
ATOM      3  C   UNL     1     176.219 189.281 181.619  1.00  0.00     0.000 C 
BRANCH   3   4
ATOM      4  C   UNL     1     176.624 190.696 182.077  1.00  0.00     0.000 C 
BRANCH   4   5
ATOM      5  C   UNL     1     176.326 190.984 183.562  1.00  0.00     0.000 C 
BRANCH   5   6
ATOM      6  C   UNL     1     175.824 189.759 184.358  1.00  0.00     0.006 C 
BRANCH   6   7
ATOM      7  C   UNL     1     175.017 190.125 185.614  1.00  0.00     0.053 C 
BRANCH   7   8
ATOM      8  C   UNL     1     175.905 190.578 186.734  1.00  0.00     0.041 C 
ATOM      9  O   UNL     1     175.738 191.712 187.254  1.00  0.00    -0.550 OA
ATOM     10  O   UNL     1     176.929 189.757 187.186  1.00  0.00    -0.550 OA
ENDBRANCH   7   8
ENDBRANCH   6   7
ENDBRANCH   5   6
ENDBRANCH   4   5
ENDBRANCH   3   4
ENDBRANCH   2   3
ENDBRANCH   1   2
BRANCH   1  11
ATOM     11  C   UNL     1     173.721 190.816 179.183  1.00  0.00     0.000 C 
BRANCH  11  12
ATOM     12  C   UNL     1     172.609 190.937 180.238  1.00  0.00    -0.000 C 
BRANCH  12  13
ATOM     13  C   UNL     1     173.030 191.790 181.444  1.00  0.00    -0.000 C 
BRANCH  13  14
ATOM     14  C   UNL     1     172.686 191.084 182.761  1.00  0.00    -0.000 C 
BRANCH  14  15
ATOM     15  C   UNL     1     172.457 189.583 182.538  1.00  0.00    -0.000 C 
BRANCH  15  16
ATOM     16  C   UNL     1     171.982 188.903 183.831  1.00  0.00    -0.000 C 
BRANCH  16  17
ATOM     17  C   UNL     1     172.506 187.464 183.967  1.00  0.00    -0.003 C 
ATOM     18  C   UNL     1     173.558 187.117 182.914  1.00  0.00     0.004 C 
ENDBRANCH  16  17
ENDBRANCH  15  16
ENDBRANCH  14  15
ENDBRANCH  13  14
ENDBRANCH  12  13
ENDBRANCH  11  12
ENDBRANCH   1  11
TORSDOF 14
ENDMDL
MODEL 2
REMARK VINA RESULT:    -1.663      2.150      4.162
REMARK INTER + INTRA:          -5.756
REMARK INTER:                  -3.255
REMARK INTRA:                  -2.501
REMARK UNBOUND:                -2.733
REMARK SMILES CCCCCCCCCCCCCCCC(=O)[O-]
REMARK SMILES IDX 9 1 10 2 11 3 12 4 13 5 14 6 15 7 16 8 17 9 18 10 8 11 7 12
REMARK SMILES IDX 6 13 5 14 4 15 3 16 2 17 1 18
REMARK H PARENT
REMARK Flexibility Score: inf
ROOT
ATOM      1  C   UNL     1     175.152 189.554 181.264  1.00  0.00     0.000 C 
ENDROOT
BRANCH   1   2
ATOM      2  C   UNL     1     174.942 188.085 181.662  1.00  0.00     0.000 C 
BRANCH   2   3
ATOM      3  C   UNL     1     173.487 187.622 181.466  1.00  0.00     0.000 C 
BRANCH   3   4
ATOM      4  C   UNL     1     172.930 186.901 182.710  1.00  0.00     0.000 C 
BRANCH   4   5
ATOM      5  C   UNL     1     171.731 187.616 183.364  1.00  0.00     0.000 C 
BRANCH   5   6
ATOM      6  C   UNL     1     172.079 188.387 184.656  1.00  0.00     0.006 C 
BRANCH   6   7
ATOM      7  C   UNL     1     173.508 188.132 185.163  1.00  0.00     0.053 C 
BRANCH   7   8
ATOM      8  C   UNL     1     173.525 187.196 186.334  1.00  0.00     0.041 C 
ATOM      9  O   UNL     1     174.420 187.299 187.214  1.00  0.00    -0.550 OA
ATOM     10  O   UNL     1     172.567 186.197 186.441  1.00  0.00    -0.550 OA
ENDBRANCH   7   8
ENDBRANCH   6   7
ENDBRANCH   5   6
ENDBRANCH   4   5
ENDBRANCH   3   4
ENDBRANCH   2   3
ENDBRANCH   1   2
BRANCH   1  11
ATOM     11  C   UNL     1     174.742 190.532 182.378  1.00  0.00     0.000 C 
BRANCH  11  12
ATOM     12  C   UNL     1     173.713 191.571 181.903  1.00  0.00    -0.000 C 
BRANCH  12  13
ATOM     13  C   UNL     1     172.280 191.218 182.330  1.00  0.00    -0.000 C 
BRANCH  13  14
ATOM     14  C   UNL     1     171.495 190.607 181.163  1.00  0.00    -0.000 C 
BRANCH  14  15
ATOM     15  C   UNL     1     171.109 191.680 180.137  1.00  0.00    -0.000 C 
BRANCH  15  16
ATOM     16  C   UNL     1     171.340 191.177 178.703  1.00  0.00    -0.000 C 
BRANCH  16  17
ATOM     17  C   UNL     1     172.575 190.270 178.588  1.00  0.00    -0.003 C 
ATOM     18  C   UNL     1     173.829 191.032 178.158  1.00  0.00     0.004 C 
ENDBRANCH  16  17
ENDBRANCH  15  16
ENDBRANCH  14  15
ENDBRANCH  13  14
ENDBRANCH  12  13
ENDBRANCH  11  12
ENDBRANCH   1  11
TORSDOF 14
ENDMDL
MODEL 3
REMARK VINA RESULT:    -1.604      1.865      4.252
REMARK INTER + INTRA:          -5.649
REMARK INTER:                  -3.491
REMARK INTRA:                  -2.158
REMARK UNBOUND:                -2.733
REMARK SMILES CCCCCCCCCCCCCCCC(=O)[O-]
REMARK SMILES IDX 9 1 10 2 11 3 12 4 13 5 14 6 15 7 16 8 17 9 18 10 8 11 7 12
REMARK SMILES IDX 6 13 5 14 4 15 3 16 2 17 1 18
REMARK H PARENT
REMARK Flexibility Score: inf
ROOT
ATOM      1  C   UNL     1     175.186 187.014 185.210  1.00  0.00     0.000 C 
ENDROOT
BRANCH   1   2
ATOM      2  C   UNL     1     176.289 188.078 185.316  1.00  0.00     0.000 C 
BRANCH   2   3
ATOM      3  C   UNL     1     176.188 189.146 184.212  1.00  0.00     0.000 C 
BRANCH   3   4
ATOM      4  C   UNL     1     175.864 190.543 184.778  1.00  0.00     0.000 C 
BRANCH   4   5
ATOM      5  C   UNL     1     175.444 190.537 186.261  1.00  0.00     0.000 C 
BRANCH   5   6
ATOM      6  C   UNL     1     176.006 191.716 187.085  1.00  0.00     0.006 C 
BRANCH   6   7
ATOM      7  C   UNL     1     176.937 191.286 188.229  1.00  0.00     0.053 C 
BRANCH   7   8
ATOM      8  C   UNL     1     178.003 190.345 187.756  1.00  0.00     0.041 C 
ATOM      9  O   UNL     1     178.073 189.179 188.226  1.00  0.00    -0.550 OA
ATOM     10  O   UNL     1     178.934 190.763 186.814  1.00  0.00    -0.550 OA
ENDBRANCH   7   8
ENDBRANCH   6   7
ENDBRANCH   5   6
ENDBRANCH   4   5
ENDBRANCH   3   4
ENDBRANCH   2   3
ENDBRANCH   1   2
BRANCH   1  11
ATOM     11  C   UNL     1     174.006 187.289 186.157  1.00  0.00     0.000 C 
BRANCH  11  12
ATOM     12  C   UNL     1     172.659 187.356 185.418  1.00  0.00    -0.000 C 
BRANCH  12  13
ATOM     13  C   UNL     1     172.536 188.602 184.528  1.00  0.00    -0.000 C 
BRANCH  13  14
ATOM     14  C   UNL     1     172.375 188.208 183.054  1.00  0.00    -0.000 C 
BRANCH  14  15
ATOM     15  C   UNL     1     172.916 189.306 182.129  1.00  0.00    -0.000 C 
BRANCH  15  16
ATOM     16  C   UNL     1     172.733 190.695 182.759  1.00  0.00    -0.000 C 
BRANCH  16  17
ATOM     17  C   UNL     1     173.088 191.834 181.791  1.00  0.00    -0.003 C 
ATOM     18  C   UNL     1     174.596 192.005 181.608  1.00  0.00     0.004 C 
ENDBRANCH  16  17
ENDBRANCH  15  16
ENDBRANCH  14  15
ENDBRANCH  13  14
ENDBRANCH  12  13
ENDBRANCH  11  12
ENDBRANCH   1  11
TORSDOF 14
ENDMDL
MODEL 4
REMARK VINA RESULT:    -1.563      3.495      5.623
REMARK INTER + INTRA:          -5.576
REMARK INTER:                  -3.263
REMARK INTRA:                  -2.313
REMARK UNBOUND:                -2.733
REMARK SMILES CCCCCCCCCCCCCCCC(=O)[O-]
REMARK SMILES IDX 9 1 10 2 11 3 12 4 13 5 14 6 15 7 16 8 17 9 18 10 8 11 7 12
REMARK SMILES IDX 6 13 5 14 4 15 3 16 2 17 1 18
REMARK H PARENT
REMARK Flexibility Score: inf
ROOT
ATOM      1  C   UNL     1     175.885 189.292 182.916  1.00  0.00     0.000 C 
ENDROOT
BRANCH   1   2
ATOM      2  C   UNL     1     174.735 189.503 181.920  1.00  0.00     0.000 C 
BRANCH   2   3
ATOM      3  C   UNL     1     173.999 190.836 182.141  1.00  0.00     0.000 C 
BRANCH   3   4
ATOM      4  C   UNL     1     172.489 190.636 182.381  1.00  0.00     0.000 C 
BRANCH   4   5
ATOM      5  C   UNL     1     171.598 191.159 181.236  1.00  0.00     0.000 C 
BRANCH   5   6
ATOM      6  C   UNL     1     170.925 190.049 180.400  1.00  0.00     0.006 C 
BRANCH   6   7
ATOM      7  C   UNL     1     171.816 189.491 179.278  1.00  0.00     0.053 C 
BRANCH   7   8
ATOM      8  C   UNL     1     172.458 190.585 178.481  1.00  0.00     0.041 C 
ATOM      9  O   UNL     1     171.760 191.313 177.726  1.00  0.00    -0.550 OA
ATOM     10  O   UNL     1     173.831 190.786 178.552  1.00  0.00    -0.550 OA
ENDBRANCH   7   8
ENDBRANCH   6   7
ENDBRANCH   5   6
ENDBRANCH   4   5
ENDBRANCH   3   4
ENDBRANCH   2   3
ENDBRANCH   1   2
BRANCH   1  11
ATOM     11  C   UNL     1     176.312 190.596 183.611  1.00  0.00     0.000 C 
BRANCH  11  12
ATOM     12  C   UNL     1     176.313 190.476 185.144  1.00  0.00    -0.000 C 
BRANCH  12  13
ATOM     13  C   UNL     1     174.978 189.955 185.695  1.00  0.00    -0.000 C 
BRANCH  13  14
ATOM     14  C   UNL     1     175.172 188.624 186.434  1.00  0.00    -0.000 C 
BRANCH  14  15
ATOM     15  C   UNL     1     174.079 187.618 186.050  1.00  0.00    -0.000 C 
BRANCH  15  16
ATOM     16  C   UNL     1     173.022 188.272 185.148  1.00  0.00    -0.000 C 
BRANCH  16  17
ATOM     17  C   UNL     1     172.498 187.317 184.065  1.00  0.00    -0.003 C 
ATOM     18  C   UNL     1     173.573 186.358 183.553  1.00  0.00     0.004 C 
ENDBRANCH  16  17
ENDBRANCH  15  16
ENDBRANCH  14  15
ENDBRANCH  13  14
ENDBRANCH  12  13
ENDBRANCH  11  12
ENDBRANCH   1  11
TORSDOF 14
ENDMDL
MODEL 5
REMARK VINA RESULT:    -1.562      3.300      6.011
REMARK INTER + INTRA:          -5.573
REMARK INTER:                  -3.173
REMARK INTRA:                  -2.401
REMARK UNBOUND:                -2.733
REMARK SMILES CCCCCCCCCCCCCCCC(=O)[O-]
REMARK SMILES IDX 9 1 10 2 11 3 12 4 13 5 14 6 15 7 16 8 17 9 18 10 8 11 7 12
REMARK SMILES IDX 6 13 5 14 4 15 3 16 2 17 1 18
REMARK H PARENT
REMARK Flexibility Score: inf
ROOT
ATOM      1  C   UNL     1     174.250 185.830 183.429  1.00  0.00     0.000 C 
ENDROOT
BRANCH   1   2
ATOM      2  C   UNL     1     172.784 185.575 183.808  1.00  0.00     0.000 C 
BRANCH   2   3
ATOM      3  C   UNL     1     171.804 186.441 182.996  1.00  0.00     0.000 C 
BRANCH   3   4
ATOM      4  C   UNL     1     171.103 187.502 183.867  1.00  0.00     0.000 C 
BRANCH   4   5
ATOM      5  C   UNL     1     172.029 188.642 184.335  1.00  0.00     0.000 C 
BRANCH   5   6
ATOM      6  C   UNL     1     172.841 189.306 183.202  1.00  0.00     0.006 C 
BRANCH   6   7
ATOM      7  C   UNL     1     172.267 190.655 182.738  1.00  0.00     0.053 C 
BRANCH   7   8
ATOM      8  C   UNL     1     171.751 190.588 181.333  1.00  0.00     0.041 C 
ATOM      9  O   UNL     1     171.834 191.592 180.579  1.00  0.00    -0.550 OA
ATOM     10  O   UNL     1     171.157 189.423 180.864  1.00  0.00    -0.550 OA
ENDBRANCH   7   8
ENDBRANCH   6   7
ENDBRANCH   5   6
ENDBRANCH   4   5
ENDBRANCH   3   4
ENDBRANCH   2   3
ENDBRANCH   1   2
BRANCH   1  11
ATOM     11  C   UNL     1     175.096 186.303 184.624  1.00  0.00     0.000 C 
BRANCH  11  12
ATOM     12  C   UNL     1     174.320 186.262 185.950  1.00  0.00    -0.000 C 
BRANCH  12  13
ATOM     13  C   UNL     1     174.525 187.529 186.793  1.00  0.00    -0.000 C 
BRANCH  13  14
ATOM     14  C   UNL     1     175.634 188.408 186.201  1.00  0.00    -0.000 C 
BRANCH  14  15
ATOM     15  C   UNL     1     175.191 189.874 186.121  1.00  0.00    -0.000 C 
BRANCH  15  16
ATOM     16  C   UNL     1     175.814 190.570 184.901  1.00  0.00    -0.000 C 
BRANCH  16  17
ATOM     17  C   UNL     1     176.567 189.593 183.985  1.00  0.00    -0.003 C 
ATOM     18  C   UNL     1     178.041 189.960 183.814  1.00  0.00     0.004 C 
ENDBRANCH  16  17
ENDBRANCH  15  16
ENDBRANCH  14  15
ENDBRANCH  13  14
ENDBRANCH  12  13
ENDBRANCH  11  12
ENDBRANCH   1  11
TORSDOF 14
ENDMDL
MODEL 6
REMARK VINA RESULT:    -1.547      1.259      3.328
REMARK INTER + INTRA:          -5.547
REMARK INTER:                  -3.003
REMARK INTRA:                  -2.544
REMARK UNBOUND:                -2.733
REMARK SMILES CCCCCCCCCCCCCCCC(=O)[O-]
REMARK SMILES IDX 9 1 10 2 11 3 12 4 13 5 14 6 15 7 16 8 17 9 18 10 8 11 7 12
REMARK SMILES IDX 6 13 5 14 4 15 3 16 2 17 1 18
REMARK H PARENT
REMARK Flexibility Score: inf
ROOT
ATOM      1  C   UNL     1     171.900 188.309 181.978  1.00  0.00     0.000 C 
ENDROOT
BRANCH   1   2
ATOM      2  C   UNL     1     171.656 189.188 183.214  1.00  0.00     0.000 C 
BRANCH   2   3
ATOM      3  C   UNL     1     172.477 188.733 184.434  1.00  0.00     0.000 C 
BRANCH   3   4
ATOM      4  C   UNL     1     173.698 187.882 184.032  1.00  0.00     0.000 C 
BRANCH   4   5
ATOM      5  C   UNL     1     175.031 188.378 184.626  1.00  0.00     0.000 C 
BRANCH   5   6
ATOM      6  C   UNL     1     174.887 189.558 185.612  1.00  0.00     0.006 C 
BRANCH   6   7
ATOM      7  C   UNL     1     176.135 190.451 185.697  1.00  0.00     0.053 C 
BRANCH   7   8
ATOM      8  C   UNL     1     176.753 190.416 187.061  1.00  0.00     0.041 C 
ATOM      9  O   UNL     1     176.970 189.314 187.631  1.00  0.00    -0.550 OA
ATOM     10  O   UNL     1     177.068 191.601 187.714  1.00  0.00    -0.550 OA
ENDBRANCH   7   8
ENDBRANCH   6   7
ENDBRANCH   5   6
ENDBRANCH   4   5
ENDBRANCH   3   4
ENDBRANCH   2   3
ENDBRANCH   1   2
BRANCH   1  11
ATOM     11  C   UNL     1     171.581 189.038 180.661  1.00  0.00     0.000 C 
BRANCH  11  12
ATOM     12  C   UNL     1     171.191 190.509 180.881  1.00  0.00    -0.000 C 
BRANCH  12  13
ATOM     13  C   UNL     1     171.830 191.450 179.849  1.00  0.00    -0.000 C 
BRANCH  13  14
ATOM     14  C   UNL     1     173.314 191.679 180.162  1.00  0.00    -0.000 C 
BRANCH  14  15
ATOM     15  C   UNL     1     173.508 192.117 181.619  1.00  0.00    -0.000 C 
BRANCH  15  16
ATOM     16  C   UNL     1     174.625 191.306 182.293  1.00  0.00    -0.000 C 
BRANCH  16  17
ATOM     17  C   UNL     1     175.144 190.166 181.403  1.00  0.00    -0.003 C 
ATOM     18  C   UNL     1     176.637 189.898 181.597  1.00  0.00     0.004 C 
ENDBRANCH  16  17
ENDBRANCH  15  16
ENDBRANCH  14  15
ENDBRANCH  13  14
ENDBRANCH  12  13
ENDBRANCH  11  12
ENDBRANCH   1  11
TORSDOF 14
ENDMDL
MODEL 7
REMARK VINA RESULT:    -1.546      2.663      3.789
REMARK INTER + INTRA:          -5.544
REMARK INTER:                  -2.906
REMARK INTRA:                  -2.638
REMARK UNBOUND:                -2.733
REMARK SMILES CCCCCCCCCCCCCCCC(=O)[O-]
REMARK SMILES IDX 9 1 10 2 11 3 12 4 13 5 14 6 15 7 16 8 17 9 18 10 8 11 7 12
REMARK SMILES IDX 6 13 5 14 4 15 3 16 2 17 1 18
REMARK H PARENT
REMARK Flexibility Score: inf
ROOT
ATOM      1  C   UNL     1     175.311 188.517 182.226  1.00  0.00     0.000 C 
ENDROOT
BRANCH   1   2
ATOM      2  C   UNL     1     176.574 187.975 182.914  1.00  0.00     0.000 C 
BRANCH   2   3
ATOM      3  C   UNL     1     176.375 187.752 184.424  1.00  0.00     0.000 C 
BRANCH   3   4
ATOM      4  C   UNL     1     176.291 189.079 185.204  1.00  0.00     0.000 C 
BRANCH   4   5
ATOM      5  C   UNL     1     174.893 189.382 185.778  1.00  0.00     0.000 C 
BRANCH   5   6
ATOM      6  C   UNL     1     173.943 188.165 185.811  1.00  0.00     0.006 C 
BRANCH   6   7
ATOM      7  C   UNL     1     172.681 188.339 184.951  1.00  0.00     0.053 C 
BRANCH   7   8
ATOM      8  C   UNL     1     172.245 187.046 184.333  1.00  0.00     0.041 C 
ATOM      9  O   UNL     1     171.023 186.742 184.295  1.00  0.00    -0.550 OA
ATOM     10  O   UNL     1     173.188 186.165 183.821  1.00  0.00    -0.550 OA
ENDBRANCH   7   8
ENDBRANCH   6   7
ENDBRANCH   5   6
ENDBRANCH   4   5
ENDBRANCH   3   4
ENDBRANCH   2   3
ENDBRANCH   1   2
BRANCH   1  11
ATOM     11  C   UNL     1     175.565 189.839 181.482  1.00  0.00     0.000 C 
BRANCH  11  12
ATOM     12  C   UNL     1     175.078 191.064 182.273  1.00  0.00    -0.000 C 
BRANCH  12  13
ATOM     13  C   UNL     1     173.575 191.009 182.581  1.00  0.00    -0.000 C 
BRANCH  13  14
ATOM     14  C   UNL     1     172.766 191.736 181.500  1.00  0.00    -0.000 C 
BRANCH  14  15
ATOM     15  C   UNL     1     171.751 190.791 180.844  1.00  0.00    -0.000 C 
BRANCH  15  16
ATOM     16  C   UNL     1     171.727 189.430 181.557  1.00  0.00    -0.000 C 
BRANCH  16  17
ATOM     17  C   UNL     1     171.967 188.257 180.595  1.00  0.00    -0.003 C 
ATOM     18  C   UNL     1     172.727 188.671 179.335  1.00  0.00     0.004 C 
ENDBRANCH  16  17
ENDBRANCH  15  16
ENDBRANCH  14  15
ENDBRANCH  13  14
ENDBRANCH  12  13
ENDBRANCH  11  12
ENDBRANCH   1  11
TORSDOF 14
ENDMDL
MODEL 8
REMARK VINA RESULT:    -1.539      1.387      3.012
REMARK INTER + INTRA:          -5.531
REMARK INTER:                  -2.795
REMARK INTRA:                  -2.736
REMARK UNBOUND:                -2.733
REMARK SMILES CCCCCCCCCCCCCCCC(=O)[O-]
REMARK SMILES IDX 9 1 10 2 11 3 12 4 13 5 14 6 15 7 16 8 17 9 18 10 8 11 7 12
REMARK SMILES IDX 6 13 5 14 4 15 3 16 2 17 1 18
REMARK H PARENT
REMARK Flexibility Score: inf
ROOT
ATOM      1  C   UNL     1     175.535 188.553 180.775  1.00  0.00     0.000 C 
ENDROOT
BRANCH   1   2
ATOM      2  C   UNL     1     175.362 188.079 182.226  1.00  0.00     0.000 C 
BRANCH   2   3
ATOM      3  C   UNL     1     173.971 187.473 182.488  1.00  0.00     0.000 C 
BRANCH   3   4
ATOM      4  C   UNL     1     173.789 187.042 183.956  1.00  0.00     0.000 C 
BRANCH   4   5
ATOM      5  C   UNL     1     173.249 188.157 184.874  1.00  0.00     0.000 C 
BRANCH   5   6
ATOM      6  C   UNL     1     174.253 188.639 185.944  1.00  0.00     0.006 C 
BRANCH   6   7
ATOM      7  C   UNL     1     175.004 189.922 185.554  1.00  0.00     0.053 C 
BRANCH   7   8
ATOM      8  C   UNL     1     176.488 189.714 185.530  1.00  0.00     0.041 C 
ATOM      9  O   UNL     1     177.268 190.699 185.625  1.00  0.00    -0.550 OA
ATOM     10  O   UNL     1     177.010 188.436 185.379  1.00  0.00    -0.550 OA
ENDBRANCH   7   8
ENDBRANCH   6   7
ENDBRANCH   5   6
ENDBRANCH   4   5
ENDBRANCH   3   4
ENDBRANCH   2   3
ENDBRANCH   1   2
BRANCH   1  11
ATOM     11  C   UNL     1     176.076 189.990 180.683  1.00  0.00     0.000 C 
BRANCH  11  12
ATOM     12  C   UNL     1     175.984 190.742 182.020  1.00  0.00    -0.000 C 
BRANCH  12  13
ATOM     13  C   UNL     1     175.331 192.125 181.875  1.00  0.00    -0.000 C 
BRANCH  13  14
ATOM     14  C   UNL     1     173.841 191.994 181.534  1.00  0.00    -0.000 C 
BRANCH  14  15
ATOM     15  C   UNL     1     173.112 191.132 182.573  1.00  0.00    -0.000 C 
BRANCH  15  16
ATOM     16  C   UNL     1     171.907 190.416 181.944  1.00  0.00    -0.000 C 
BRANCH  16  17
ATOM     17  C   UNL     1     171.926 190.466 180.408  1.00  0.00    -0.003 C 
ATOM     18  C   UNL     1     172.004 189.078 179.773  1.00  0.00     0.004 C 
ENDBRANCH  16  17
ENDBRANCH  15  16
ENDBRANCH  14  15
ENDBRANCH  13  14
ENDBRANCH  12  13
ENDBRANCH  11  12
ENDBRANCH   1  11
TORSDOF 14
ENDMDL
MODEL 9
REMARK VINA RESULT:    -1.530      2.224      3.802
REMARK INTER + INTRA:          -5.516
REMARK INTER:                  -3.061
REMARK INTRA:                  -2.455
REMARK UNBOUND:                -2.733
REMARK SMILES CCCCCCCCCCCCCCCC(=O)[O-]
REMARK SMILES IDX 9 1 10 2 11 3 12 4 13 5 14 6 15 7 16 8 17 9 18 10 8 11 7 12
REMARK SMILES IDX 6 13 5 14 4 15 3 16 2 17 1 18
REMARK H PARENT
REMARK Flexibility Score: inf
ROOT
ATOM      1  C   UNL     1     172.145 188.410 180.411  1.00  0.00     0.000 C 
ENDROOT
BRANCH   1   2
ATOM      2  C   UNL     1     172.465 187.571 181.657  1.00  0.00     0.000 C 
BRANCH   2   3
ATOM      3  C   UNL     1     171.367 187.667 182.732  1.00  0.00     0.000 C 
BRANCH   3   4
ATOM      4  C   UNL     1     171.890 188.275 184.049  1.00  0.00     0.000 C 
BRANCH   4   5
ATOM      5  C   UNL     1     173.355 187.919 184.366  1.00  0.00     0.000 C 
BRANCH   5   6
ATOM      6  C   UNL     1     173.967 188.728 185.531  1.00  0.00     0.006 C 
BRANCH   6   7
ATOM      7  C   UNL     1     175.111 188.001 186.257  1.00  0.00     0.053 C 
BRANCH   7   8
ATOM      8  C   UNL     1     174.639 186.742 186.918  1.00  0.00     0.041 C 
ATOM      9  O   UNL     1     175.289 185.672 186.779  1.00  0.00    -0.550 OA
ATOM     10  O   UNL     1     173.471 186.744 187.669  1.00  0.00    -0.550 OA
ENDBRANCH   7   8
ENDBRANCH   6   7
ENDBRANCH   5   6
ENDBRANCH   4   5
ENDBRANCH   3   4
ENDBRANCH   2   3
ENDBRANCH   1   2
BRANCH   1  11
ATOM     11  C   UNL     1     171.236 189.611 180.724  1.00  0.00     0.000 C 
BRANCH  11  12
ATOM     12  C   UNL     1     171.622 190.867 179.927  1.00  0.00    -0.000 C 
BRANCH  12  13
ATOM     13  C   UNL     1     172.678 191.721 180.644  1.00  0.00    -0.000 C 
BRANCH  13  14
ATOM     14  C   UNL     1     172.698 191.418 182.148  1.00  0.00    -0.000 C 
BRANCH  14  15
ATOM     15  C   UNL     1     174.120 191.102 182.627  1.00  0.00    -0.000 C 
BRANCH  15  16
ATOM     16  C   UNL     1     174.947 190.457 181.504  1.00  0.00    -0.000 C 
BRANCH  16  17
ATOM     17  C   UNL     1     175.803 189.282 182.001  1.00  0.00    -0.003 C 
ATOM     18  C   UNL     1     176.644 189.641 183.226  1.00  0.00     0.004 C 
ENDBRANCH  16  17
ENDBRANCH  15  16
ENDBRANCH  14  15
ENDBRANCH  13  14
ENDBRANCH  12  13
ENDBRANCH  11  12
ENDBRANCH   1  11
TORSDOF 14
ENDMDL
