MODEL 1
REMARK VINA RESULT:    -7.166      0.000      0.000
REMARK INTER + INTRA:         -23.287
REMARK INTER:                 -18.896
REMARK INTRA:                  -4.391
REMARK UNBOUND:                -4.391
REMARK SMILES CCCCCCCCCCCCCCCCCCCCCCCCCCCCCC(=O)[O-]
REMARK SMILES IDX 16 1 17 2 18 3 19 4 20 5 21 6 22 7 23 8 24 9 25 10 26 11
REMARK SMILES IDX 27 12 28 13 29 14 30 15 31 16 32 17 15 18 14 19 13 20 12 21
REMARK SMILES IDX 11 22 10 23 9 24 8 25 7 26 6 27 5 28 4 29 3 30 2 31 1 32
REMARK H PARENT
REMARK Flexibility Score: inf
ROOT
ATOM      1  C   UNL     1      16.378  73.191  72.769  1.00  0.00     0.000 C 
ENDROOT
BRANCH   1   2
ATOM      2  C   UNL     1      17.683  73.004  71.977  1.00  0.00     0.000 C 
BRANCH   2   3
ATOM      3  C   UNL     1      18.897  72.679  72.870  1.00  0.00     0.000 C 
BRANCH   3   4
ATOM      4  C   UNL     1      18.780  71.397  73.720  1.00  0.00     0.000 C 
BRANCH   4   5
ATOM      5  C   UNL     1      19.943  71.212  74.710  1.00  0.00     0.000 C 
BRANCH   5   6
ATOM      6  C   UNL     1      20.828  70.001  74.372  1.00  0.00     0.000 C 
BRANCH   6   7
ATOM      7  C   UNL     1      22.176  70.373  73.718  1.00  0.00     0.000 C 
BRANCH   7   8
ATOM      8  C   UNL     1      22.916  71.471  74.502  1.00  0.00     0.000 C 
BRANCH   8   9
ATOM      9  C   UNL     1      23.291  72.674  73.622  1.00  0.00     0.000 C 
BRANCH   9  10
ATOM     10  C   UNL     1      23.228  72.344  72.118  1.00  0.00     0.000 C 
BRANCH  10  11
ATOM     11  C   UNL     1      22.593  73.473  71.288  1.00  0.00     0.000 C 
BRANCH  11  12
ATOM     12  C   UNL     1      21.393  72.988  70.457  1.00  0.00     0.000 C 
BRANCH  12  13
ATOM     13  C   UNL     1      21.501  71.506  70.053  1.00  0.00     0.006 C 
BRANCH  13  14
ATOM     14  C   UNL     1      20.258  70.668  70.411  1.00  0.00     0.053 C 
BRANCH  14  15
ATOM     15  C   UNL     1      20.453  69.204  70.148  1.00  0.00     0.041 C 
ATOM     16  O   UNL     1      21.129  68.500  70.944  1.00  0.00    -0.550 OA
ATOM     17  O   UNL     1      19.920  68.625  69.002  1.00  0.00    -0.550 OA
ENDBRANCH  14  15
ENDBRANCH  13  14
ENDBRANCH  12  13
ENDBRANCH  11  12
ENDBRANCH  10  11
ENDBRANCH   9  10
ENDBRANCH   8   9
ENDBRANCH   7   8
ENDBRANCH   6   7
ENDBRANCH   5   6
ENDBRANCH   4   5
ENDBRANCH   3   4
ENDBRANCH   2   3
ENDBRANCH   1   2
BRANCH   1  18
ATOM     18  C   UNL     1      15.232  72.307  72.250  1.00  0.00     0.000 C 
BRANCH  18  19
ATOM     19  C   UNL     1      15.523  70.793  72.326  1.00  0.00     0.000 C 
BRANCH  19  20
ATOM     20  C   UNL     1      14.290  69.976  72.750  1.00  0.00     0.000 C 
BRANCH  20  21
ATOM     21  C   UNL     1      13.662  70.485  74.060  1.00  0.00     0.000 C 
BRANCH  21  22
ATOM     22  C   UNL     1      14.000  69.651  75.310  1.00  0.00     0.000 C 
BRANCH  22  23
ATOM     23  C   UNL     1      14.665  70.435  76.460  1.00  0.00     0.000 C 
BRANCH  23  24
ATOM     24  C   UNL     1      16.001  71.112  76.102  1.00  0.00    -0.000 C 
BRANCH  24  25
ATOM     25  C   UNL     1      17.053  71.125  77.228  1.00  0.00    -0.000 C 
BRANCH  25  26
ATOM     26  C   UNL     1      16.490  70.756  78.618  1.00  0.00    -0.000 C 
BRANCH  26  27
ATOM     27  C   UNL     1      17.158  71.548  79.754  1.00  0.00    -0.000 C 
BRANCH  27  28
ATOM     28  C   UNL     1      18.664  71.260  79.872  1.00  0.00    -0.000 C 
BRANCH  28  29
ATOM     29  C   UNL     1      18.969  70.048  80.773  1.00  0.00    -0.000 C 
BRANCH  29  30
ATOM     30  C   UNL     1      20.000  69.093  80.151  1.00  0.00    -0.000 C 
BRANCH  30  31
ATOM     31  C   UNL     1      19.528  68.500  78.817  1.00  0.00    -0.003 C 
ATOM     32  C   UNL     1      20.417  68.966  77.668  1.00  0.00     0.004 C 
ENDBRANCH  30  31
ENDBRANCH  29  30
ENDBRANCH  28  29
ENDBRANCH  27  28
ENDBRANCH  26  27
ENDBRANCH  25  26
ENDBRANCH  24  25
ENDBRANCH  23  24
ENDBRANCH  22  23
ENDBRANCH  21  22
ENDBRANCH  20  21
ENDBRANCH  19  20
ENDBRANCH  18  19
ENDBRANCH   1  18
TORSDOF 28
ENDMDL
MODEL 2
REMARK VINA RESULT:    -6.865      3.056      6.968
REMARK INTER + INTRA:         -22.493
REMARK INTER:                 -18.355
REMARK INTRA:                  -4.138
REMARK UNBOUND:                -4.391
REMARK SMILES CCCCCCCCCCCCCCCCCCCCCCCCCCCCCC(=O)[O-]
REMARK SMILES IDX 16 1 17 2 18 3 19 4 20 5 21 6 22 7 23 8 24 9 25 10 26 11
REMARK SMILES IDX 27 12 28 13 29 14 30 15 31 16 32 17 15 18 14 19 13 20 12 21
REMARK SMILES IDX 11 22 10 23 9 24 8 25 7 26 6 27 5 28 4 29 3 30 2 31 1 32
REMARK H PARENT
REMARK Flexibility Score: inf
ROOT
ATOM      1  C   UNL     1      19.001  73.254  71.537  1.00  0.00     0.000 C 
ENDROOT
BRANCH   1   2
ATOM      2  C   UNL     1      19.277  71.933  72.275  1.00  0.00     0.000 C 
BRANCH   2   3
ATOM      3  C   UNL     1      19.652  70.774  71.330  1.00  0.00     0.000 C 
BRANCH   3   4
ATOM      4  C   UNL     1      21.145  70.673  70.953  1.00  0.00     0.000 C 
BRANCH   4   5
ATOM      5  C   UNL     1      21.518  71.497  69.709  1.00  0.00     0.000 C 
BRANCH   5   6
ATOM      6  C   UNL     1      22.709  72.438  69.952  1.00  0.00     0.000 C 
BRANCH   6   7
ATOM      7  C   UNL     1      22.562  73.323  71.209  1.00  0.00     0.000 C 
BRANCH   7   8
ATOM      8  C   UNL     1      23.428  72.818  72.376  1.00  0.00     0.000 C 
BRANCH   8   9
ATOM      9  C   UNL     1      22.639  72.708  73.691  1.00  0.00     0.000 C 
BRANCH   9  10
ATOM     10  C   UNL     1      23.150  71.563  74.587  1.00  0.00     0.000 C 
BRANCH  10  11
ATOM     11  C   UNL     1      22.295  70.290  74.469  1.00  0.00     0.000 C 
BRANCH  11  12
ATOM     12  C   UNL     1      21.477  70.012  75.742  1.00  0.00     0.000 C 
BRANCH  12  13
ATOM     13  C   UNL     1      19.958  70.111  75.515  1.00  0.00     0.006 C 
BRANCH  13  14
ATOM     14  C   UNL     1      19.348  71.462  75.940  1.00  0.00     0.053 C 
BRANCH  14  15
ATOM     15  C   UNL     1      18.773  71.425  77.325  1.00  0.00     0.041 C 
ATOM     16  O   UNL     1      18.839  70.371  78.013  1.00  0.00    -0.550 OA
ATOM     17  O   UNL     1      18.130  72.543  77.842  1.00  0.00    -0.550 OA
ENDBRANCH  14  15
ENDBRANCH  13  14
ENDBRANCH  12  13
ENDBRANCH  11  12
ENDBRANCH  10  11
ENDBRANCH   9  10
ENDBRANCH   8   9
ENDBRANCH   7   8
ENDBRANCH   6   7
ENDBRANCH   5   6
ENDBRANCH   4   5
ENDBRANCH   3   4
ENDBRANCH   2   3
ENDBRANCH   1   2
BRANCH   1  18
ATOM     18  C   UNL     1      17.534  73.702  71.644  1.00  0.00     0.000 C 
BRANCH  18  19
ATOM     19  C   UNL     1      16.743  73.001  72.770  1.00  0.00     0.000 C 
BRANCH  19  20
ATOM     20  C   UNL     1      15.467  72.313  72.253  1.00  0.00     0.000 C 
BRANCH  20  21
ATOM     21  C   UNL     1      15.599  70.781  72.199  1.00  0.00     0.000 C 
BRANCH  21  22
ATOM     22  C   UNL     1      14.355  70.004  72.673  1.00  0.00     0.000 C 
BRANCH  22  23
ATOM     23  C   UNL     1      14.035  70.137  74.176  1.00  0.00     0.000 C 
BRANCH  23  24
ATOM     24  C   UNL     1      12.904  71.124  74.518  1.00  0.00    -0.000 C 
BRANCH  24  25
ATOM     25  C   UNL     1      12.034  71.564  73.325  1.00  0.00    -0.000 C 
BRANCH  25  26
ATOM     26  C   UNL     1      11.419  72.972  73.481  1.00  0.00    -0.000 C 
BRANCH  26  27
ATOM     27  C   UNL     1      11.805  73.916  72.331  1.00  0.00    -0.000 C 
BRANCH  27  28
ATOM     28  C   UNL     1      12.283  73.161  71.079  1.00  0.00    -0.000 C 
BRANCH  28  29
ATOM     29  C   UNL     1      11.214  73.111  69.971  1.00  0.00    -0.000 C 
BRANCH  29  30
ATOM     30  C   UNL     1      10.672  71.692  69.735  1.00  0.00    -0.000 C 
BRANCH  30  31
ATOM     31  C   UNL     1       9.349  71.435  70.468  1.00  0.00    -0.003 C 
ATOM     32  C   UNL     1       9.377  70.090  71.190  1.00  0.00     0.004 C 
ENDBRANCH  30  31
ENDBRANCH  29  30
ENDBRANCH  28  29
ENDBRANCH  27  28
ENDBRANCH  26  27
ENDBRANCH  25  26
ENDBRANCH  24  25
ENDBRANCH  23  24
ENDBRANCH  22  23
ENDBRANCH  21  22
ENDBRANCH  20  21
ENDBRANCH  19  20
ENDBRANCH  18  19
ENDBRANCH   1  18
TORSDOF 28
ENDMDL
MODEL 3
REMARK VINA RESULT:    -6.865      0.971      2.337
REMARK INTER + INTRA:         -22.492
REMARK INTER:                 -18.278
REMARK INTRA:                  -4.214
REMARK UNBOUND:                -4.391
REMARK SMILES CCCCCCCCCCCCCCCCCCCCCCCCCCCCCC(=O)[O-]
REMARK SMILES IDX 16 1 17 2 18 3 19 4 20 5 21 6 22 7 23 8 24 9 25 10 26 11
REMARK SMILES IDX 27 12 28 13 29 14 30 15 31 16 32 17 15 18 14 19 13 20 12 21
REMARK SMILES IDX 11 22 10 23 9 24 8 25 7 26 6 27 5 28 4 29 3 30 2 31 1 32
REMARK H PARENT
REMARK Flexibility Score: inf
ROOT
ATOM      1  C   UNL     1      15.065  70.920  72.322  1.00  0.00     0.000 C 
ENDROOT
BRANCH   1   2
ATOM      2  C   UNL     1      15.103  72.454  72.442  1.00  0.00     0.000 C 
BRANCH   2   3
ATOM      3  C   UNL     1      16.484  72.997  72.860  1.00  0.00     0.000 C 
BRANCH   3   4
ATOM      4  C   UNL     1      17.674  72.548  71.988  1.00  0.00     0.000 C 
BRANCH   4   5
ATOM      5  C   UNL     1      18.405  71.312  72.541  1.00  0.00     0.000 C 
BRANCH   5   6
ATOM      6  C   UNL     1      19.467  71.669  73.594  1.00  0.00     0.000 C 
BRANCH   6   7
ATOM      7  C   UNL     1      20.463  70.528  73.892  1.00  0.00     0.000 C 
BRANCH   7   8
ATOM      8  C   UNL     1      21.925  70.987  73.754  1.00  0.00     0.000 C 
BRANCH   8   9
ATOM      9  C   UNL     1      22.045  72.462  73.336  1.00  0.00     0.000 C 
BRANCH   9  10
ATOM     10  C   UNL     1      23.118  72.679  72.251  1.00  0.00     0.000 C 
BRANCH  10  11
ATOM     11  C   UNL     1      22.562  73.374  70.997  1.00  0.00     0.000 C 
BRANCH  11  12
ATOM     12  C   UNL     1      21.299  72.684  70.454  1.00  0.00     0.000 C 
BRANCH  12  13
ATOM     13  C   UNL     1      21.578  71.280  69.887  1.00  0.00     0.006 C 
BRANCH  13  14
ATOM     14  C   UNL     1      20.318  70.405  69.731  1.00  0.00     0.053 C 
BRANCH  14  15
ATOM     15  C   UNL     1      20.562  68.972  70.100  1.00  0.00     0.041 C 
ATOM     16  O   UNL     1      20.001  68.046  69.456  1.00  0.00    -0.550 OA
ATOM     17  O   UNL     1      21.379  68.660  71.180  1.00  0.00    -0.550 OA
ENDBRANCH  14  15
ENDBRANCH  13  14
ENDBRANCH  12  13
ENDBRANCH  11  12
ENDBRANCH  10  11
ENDBRANCH   9  10
ENDBRANCH   8   9
ENDBRANCH   7   8
ENDBRANCH   6   7
ENDBRANCH   5   6
ENDBRANCH   4   5
ENDBRANCH   3   4
ENDBRANCH   2   3
ENDBRANCH   1   2
BRANCH   1  18
ATOM     18  C   UNL     1      13.857  70.295  73.040  1.00  0.00     0.000 C 
BRANCH  18  19
ATOM     19  C   UNL     1      13.040  71.298  73.882  1.00  0.00     0.000 C 
BRANCH  19  20
ATOM     20  C   UNL     1      12.953  70.890  75.364  1.00  0.00     0.000 C 
BRANCH  20  21
ATOM     21  C   UNL     1      14.094  69.950  75.789  1.00  0.00     0.000 C 
BRANCH  21  22
ATOM     22  C   UNL     1      15.184  70.602  76.661  1.00  0.00     0.000 C 
BRANCH  22  23
ATOM     23  C   UNL     1      16.362  71.222  75.882  1.00  0.00     0.000 C 
BRANCH  23  24
ATOM     24  C   UNL     1      17.510  71.762  76.754  1.00  0.00    -0.000 C 
BRANCH  24  25
ATOM     25  C   UNL     1      18.182  70.721  77.671  1.00  0.00    -0.000 C 
BRANCH  25  26
ATOM     26  C   UNL     1      19.593  70.295  77.209  1.00  0.00    -0.000 C 
BRANCH  26  27
ATOM     27  C   UNL     1      20.105  69.050  77.951  1.00  0.00    -0.000 C 
BRANCH  27  28
ATOM     28  C   UNL     1      20.392  69.321  79.437  1.00  0.00    -0.000 C 
BRANCH  28  29
ATOM     29  C   UNL     1      19.905  68.184  80.355  1.00  0.00    -0.000 C 
BRANCH  29  30
ATOM     30  C   UNL     1      19.059  68.695  81.532  1.00  0.00    -0.000 C 
BRANCH  30  31
ATOM     31  C   UNL     1      18.162  69.879  81.147  1.00  0.00    -0.003 C 
ATOM     32  C   UNL     1      16.735  69.416  80.869  1.00  0.00     0.004 C 
ENDBRANCH  30  31
ENDBRANCH  29  30
ENDBRANCH  28  29
ENDBRANCH  27  28
ENDBRANCH  26  27
ENDBRANCH  25  26
ENDBRANCH  24  25
ENDBRANCH  23  24
ENDBRANCH  22  23
ENDBRANCH  21  22
ENDBRANCH  20  21
ENDBRANCH  19  20
ENDBRANCH  18  19
ENDBRANCH   1  18
TORSDOF 28
ENDMDL
MODEL 4
REMARK VINA RESULT:    -6.810      5.143      9.995
REMARK INTER + INTRA:         -22.347
REMARK INTER:                 -19.726
REMARK INTRA:                  -2.621
REMARK UNBOUND:                -4.391
REMARK SMILES CCCCCCCCCCCCCCCCCCCCCCCCCCCCCC(=O)[O-]
REMARK SMILES IDX 16 1 17 2 18 3 19 4 20 5 21 6 22 7 23 8 24 9 25 10 26 11
REMARK SMILES IDX 27 12 28 13 29 14 30 15 31 16 32 17 15 18 14 19 13 20 12 21
REMARK SMILES IDX 11 22 10 23 9 24 8 25 7 26 6 27 5 28 4 29 3 30 2 31 1 32
REMARK H PARENT
REMARK Flexibility Score: inf
ROOT
ATOM      1  C   UNL     1      14.831  70.412  76.494  1.00  0.00     0.000 C 
ENDROOT
BRANCH   1   2
ATOM      2  C   UNL     1      13.783  70.372  75.369  1.00  0.00     0.000 C 
BRANCH   2   3
ATOM      3  C   UNL     1      14.296  69.694  74.083  1.00  0.00     0.000 C 
BRANCH   3   4
ATOM      4  C   UNL     1      13.863  70.355  72.758  1.00  0.00     0.000 C 
BRANCH   4   5
ATOM      5  C   UNL     1      14.434  71.771  72.567  1.00  0.00     0.000 C 
BRANCH   5   6
ATOM      6  C   UNL     1      13.372  72.785  72.109  1.00  0.00     0.000 C 
BRANCH   6   7
ATOM      7  C   UNL     1      12.220  72.985  73.116  1.00  0.00     0.000 C 
BRANCH   7   8
ATOM      8  C   UNL     1      10.965  72.185  72.725  1.00  0.00     0.000 C 
BRANCH   8   9
ATOM      9  C   UNL     1      10.124  71.771  73.944  1.00  0.00     0.000 C 
BRANCH   9  10
ATOM     10  C   UNL     1      10.557  72.502  75.230  1.00  0.00     0.000 C 
BRANCH  10  11
ATOM     11  C   UNL     1       9.871  71.945  76.489  1.00  0.00     0.000 C 
BRANCH  11  12
ATOM     12  C   UNL     1       9.031  73.006  77.219  1.00  0.00     0.000 C 
BRANCH  12  13
ATOM     13  C   UNL     1       8.091  72.404  78.279  1.00  0.00     0.006 C 
BRANCH  13  14
ATOM     14  C   UNL     1       7.192  71.270  77.748  1.00  0.00     0.053 C 
BRANCH  14  15
ATOM     15  C   UNL     1       6.114  71.770  76.833  1.00  0.00     0.041 C 
ATOM     16  O   UNL     1       5.095  72.342  77.303  1.00  0.00    -0.550 OA
ATOM     17  O   UNL     1       6.216  71.569  75.461  1.00  0.00    -0.550 OA
ENDBRANCH  14  15
ENDBRANCH  13  14
ENDBRANCH  12  13
ENDBRANCH  11  12
ENDBRANCH  10  11
ENDBRANCH   9  10
ENDBRANCH   8   9
ENDBRANCH   7   8
ENDBRANCH   6   7
ENDBRANCH   5   6
ENDBRANCH   4   5
ENDBRANCH   3   4
ENDBRANCH   2   3
ENDBRANCH   1   2
BRANCH   1  18
ATOM     18  C   UNL     1      16.130  71.122  76.075  1.00  0.00     0.000 C 
BRANCH  18  19
ATOM     19  C   UNL     1      17.080  71.437  77.250  1.00  0.00     0.000 C 
BRANCH  19  20
ATOM     20  C   UNL     1      16.615  70.799  78.572  1.00  0.00     0.000 C 
BRANCH  20  21
ATOM     21  C   UNL     1      17.586  69.721  79.085  1.00  0.00     0.000 C 
BRANCH  21  22
ATOM     22  C   UNL     1      19.078  70.036  78.871  1.00  0.00     0.000 C 
BRANCH  22  23
ATOM     23  C   UNL     1      19.852  68.998  78.033  1.00  0.00     0.000 C 
BRANCH  23  24
ATOM     24  C   UNL     1      20.731  69.586  76.914  1.00  0.00    -0.000 C 
BRANCH  24  25
ATOM     25  C   UNL     1      19.986  70.453  75.881  1.00  0.00    -0.000 C 
BRANCH  25  26
ATOM     26  C   UNL     1      20.654  70.487  74.489  1.00  0.00    -0.000 C 
BRANCH  26  27
ATOM     27  C   UNL     1      20.511  71.853  73.799  1.00  0.00    -0.000 C 
BRANCH  27  28
ATOM     28  C   UNL     1      20.073  71.733  72.330  1.00  0.00    -0.000 C 
BRANCH  28  29
ATOM     29  C   UNL     1      21.263  71.727  71.353  1.00  0.00    -0.000 C 
BRANCH  29  30
ATOM     30  C   UNL     1      21.045  70.781  70.161  1.00  0.00    -0.000 C 
BRANCH  30  31
ATOM     31  C   UNL     1      20.588  69.381  70.592  1.00  0.00    -0.003 C 
ATOM     32  C   UNL     1      19.979  68.620  69.418  1.00  0.00     0.004 C 
ENDBRANCH  30  31
ENDBRANCH  29  30
ENDBRANCH  28  29
ENDBRANCH  27  28
ENDBRANCH  26  27
ENDBRANCH  25  26
ENDBRANCH  24  25
ENDBRANCH  23  24
ENDBRANCH  22  23
ENDBRANCH  21  22
ENDBRANCH  20  21
ENDBRANCH  19  20
ENDBRANCH  18  19
ENDBRANCH   1  18
TORSDOF 28
ENDMDL
MODEL 5
REMARK VINA RESULT:    -6.741      3.186      7.535
REMARK INTER + INTRA:         -22.165
REMARK INTER:                 -18.453
REMARK INTRA:                  -3.713
REMARK UNBOUND:                -4.391
REMARK SMILES CCCCCCCCCCCCCCCCCCCCCCCCCCCCCC(=O)[O-]
REMARK SMILES IDX 16 1 17 2 18 3 19 4 20 5 21 6 22 7 23 8 24 9 25 10 26 11
REMARK SMILES IDX 27 12 28 13 29 14 30 15 31 16 32 17 15 18 14 19 13 20 12 21
REMARK SMILES IDX 11 22 10 23 9 24 8 25 7 26 6 27 5 28 4 29 3 30 2 31 1 32
REMARK H PARENT
REMARK Flexibility Score: inf
ROOT
ATOM      1  C   UNL     1      19.424  71.280  71.520  1.00  0.00     0.000 C 
ENDROOT
BRANCH   1   2
ATOM      2  C   UNL     1      20.814  71.017  70.914  1.00  0.00     0.000 C 
BRANCH   2   3
ATOM      3  C   UNL     1      21.588  72.308  70.583  1.00  0.00     0.000 C 
BRANCH   3   4
ATOM      4  C   UNL     1      22.868  72.554  71.409  1.00  0.00     0.000 C 
BRANCH   4   5
ATOM      5  C   UNL     1      22.595  72.785  72.905  1.00  0.00     0.000 C 
BRANCH   5   6
ATOM      6  C   UNL     1      23.570  72.020  73.815  1.00  0.00     0.000 C 
BRANCH   6   7
ATOM      7  C   UNL     1      22.876  71.137  74.874  1.00  0.00     0.000 C 
BRANCH   7   8
ATOM      8  C   UNL     1      21.961  70.078  74.234  1.00  0.00     0.000 C 
BRANCH   8   9
ATOM      9  C   UNL     1      20.571  70.027  74.888  1.00  0.00     0.000 C 
BRANCH   9  10
ATOM     10  C   UNL     1      19.950  71.427  75.059  1.00  0.00     0.000 C 
BRANCH  10  11
ATOM     11  C   UNL     1      18.844  71.461  76.126  1.00  0.00     0.000 C 
BRANCH  11  12
ATOM     12  C   UNL     1      19.137  70.519  77.306  1.00  0.00     0.000 C 
BRANCH  12  13
ATOM     13  C   UNL     1      18.053  70.566  78.398  1.00  0.00     0.006 C 
BRANCH  13  14
ATOM     14  C   UNL     1      18.451  69.856  79.707  1.00  0.00     0.053 C 
BRANCH  14  15
ATOM     15  C   UNL     1      19.123  68.537  79.467  1.00  0.00     0.041 C 
ATOM     16  O   UNL     1      18.439  67.516  79.193  1.00  0.00    -0.550 OA
ATOM     17  O   UNL     1      20.504  68.428  79.583  1.00  0.00    -0.550 OA
ENDBRANCH  14  15
ENDBRANCH  13  14
ENDBRANCH  12  13
ENDBRANCH  11  12
ENDBRANCH  10  11
ENDBRANCH   9  10
ENDBRANCH   8   9
ENDBRANCH   7   8
ENDBRANCH   6   7
ENDBRANCH   5   6
ENDBRANCH   4   5
ENDBRANCH   3   4
ENDBRANCH   2   3
ENDBRANCH   1   2
BRANCH   1  18
ATOM     18  C   UNL     1      19.026  72.765  71.476  1.00  0.00     0.000 C 
BRANCH  18  19
ATOM     19  C   UNL     1      17.922  73.149  72.485  1.00  0.00     0.000 C 
BRANCH  19  20
ATOM     20  C   UNL     1      16.543  72.594  72.088  1.00  0.00     0.000 C 
BRANCH  20  21
ATOM     21  C   UNL     1      16.064  71.470  73.024  1.00  0.00     0.000 C 
BRANCH  21  22
ATOM     22  C   UNL     1      15.098  70.456  72.381  1.00  0.00     0.000 C 
BRANCH  22  23
ATOM     23  C   UNL     1      14.007  69.905  73.322  1.00  0.00     0.000 C 
BRANCH  23  24
ATOM     24  C   UNL     1      13.336  70.953  74.229  1.00  0.00    -0.000 C 
BRANCH  24  25
ATOM     25  C   UNL     1      12.180  71.739  73.581  1.00  0.00    -0.000 C 
BRANCH  25  26
ATOM     26  C   UNL     1      12.613  73.072  72.932  1.00  0.00    -0.000 C 
BRANCH  26  27
ATOM     27  C   UNL     1      12.643  72.997  71.397  1.00  0.00    -0.000 C 
BRANCH  27  28
ATOM     28  C   UNL     1      11.238  73.030  70.773  1.00  0.00    -0.000 C 
BRANCH  28  29
ATOM     29  C   UNL     1      10.808  71.665  70.203  1.00  0.00    -0.000 C 
BRANCH  29  30
ATOM     30  C   UNL     1       9.309  71.387  70.400  1.00  0.00    -0.000 C 
BRANCH  30  31
ATOM     31  C   UNL     1       9.045  70.192  71.325  1.00  0.00    -0.003 C 
ATOM     32  C   UNL     1       8.545  70.658  72.689  1.00  0.00     0.004 C 
ENDBRANCH  30  31
ENDBRANCH  29  30
ENDBRANCH  28  29
ENDBRANCH  27  28
ENDBRANCH  26  27
ENDBRANCH  25  26
ENDBRANCH  24  25
ENDBRANCH  23  24
ENDBRANCH  22  23
ENDBRANCH  21  22
ENDBRANCH  20  21
ENDBRANCH  19  20
ENDBRANCH  18  19
ENDBRANCH   1  18
TORSDOF 28
ENDMDL
MODEL 6
REMARK VINA RESULT:    -6.726      3.378      8.245
REMARK INTER + INTRA:         -22.127
REMARK INTER:                 -18.369
REMARK INTRA:                  -3.758
REMARK UNBOUND:                -4.391
REMARK SMILES CCCCCCCCCCCCCCCCCCCCCCCCCCCCCC(=O)[O-]
REMARK SMILES IDX 16 1 17 2 18 3 19 4 20 5 21 6 22 7 23 8 24 9 25 10 26 11
REMARK SMILES IDX 27 12 28 13 29 14 30 15 31 16 32 17 15 18 14 19 13 20 12 21
REMARK SMILES IDX 11 22 10 23 9 24 8 25 7 26 6 27 5 28 4 29 3 30 2 31 1 32
REMARK H PARENT
REMARK Flexibility Score: inf
ROOT
ATOM      1  C   UNL     1      13.760  71.341  72.832  1.00  0.00     0.000 C 
ENDROOT
BRANCH   1   2
ATOM      2  C   UNL     1      14.658  70.355  73.599  1.00  0.00     0.000 C 
BRANCH   2   3
ATOM      3  C   UNL     1      13.946  69.684  74.791  1.00  0.00     0.000 C 
BRANCH   3   4
ATOM      4  C   UNL     1      14.476  70.062  76.189  1.00  0.00     0.000 C 
BRANCH   4   5
ATOM      5  C   UNL     1      15.723  70.962  76.146  1.00  0.00     0.000 C 
BRANCH   5   6
ATOM      6  C   UNL     1      16.531  70.923  77.454  1.00  0.00     0.000 C 
BRANCH   6   7
ATOM      7  C   UNL     1      17.885  71.663  77.376  1.00  0.00     0.000 C 
BRANCH   7   8
ATOM      8  C   UNL     1      18.922  71.073  78.347  1.00  0.00     0.000 C 
BRANCH   8   9
ATOM      9  C   UNL     1      19.714  69.909  77.730  1.00  0.00     0.000 C 
BRANCH   9  10
ATOM     10  C   UNL     1      19.630  68.627  78.582  1.00  0.00     0.000 C 
BRANCH  10  11
ATOM     11  C   UNL     1      19.650  68.914  80.092  1.00  0.00     0.000 C 
BRANCH  11  12
ATOM     12  C   UNL     1      18.552  68.149  80.851  1.00  0.00     0.000 C 
BRANCH  12  13
ATOM     13  C   UNL     1      18.265  68.735  82.246  1.00  0.00     0.006 C 
BRANCH  13  14
ATOM     14  C   UNL     1      19.230  68.241  83.342  1.00  0.00     0.053 C 
BRANCH  14  15
ATOM     15  C   UNL     1      19.793  66.883  83.046  1.00  0.00     0.041 C 
ATOM     16  O   UNL     1      19.056  65.862  83.103  1.00  0.00    -0.550 OA
ATOM     17  O   UNL     1      21.142  66.740  82.742  1.00  0.00    -0.550 OA
ENDBRANCH  14  15
ENDBRANCH  13  14
ENDBRANCH  12  13
ENDBRANCH  11  12
ENDBRANCH  10  11
ENDBRANCH   9  10
ENDBRANCH   8   9
ENDBRANCH   7   8
ENDBRANCH   6   7
ENDBRANCH   5   6
ENDBRANCH   4   5
ENDBRANCH   3   4
ENDBRANCH   2   3
ENDBRANCH   1   2
BRANCH   1  18
ATOM     18  C   UNL     1      14.516  72.593  72.359  1.00  0.00     0.000 C 
BRANCH  18  19
ATOM     19  C   UNL     1      15.948  72.712  72.923  1.00  0.00     0.000 C 
BRANCH  19  20
ATOM     20  C   UNL     1      16.982  73.062  71.837  1.00  0.00     0.000 C 
BRANCH  20  21
ATOM     21  C   UNL     1      18.425  72.749  72.268  1.00  0.00     0.000 C 
BRANCH  21  22
ATOM     22  C   UNL     1      18.576  71.528  73.196  1.00  0.00     0.000 C 
BRANCH  22  23
ATOM     23  C   UNL     1      19.740  71.612  74.205  1.00  0.00     0.000 C 
BRANCH  23  24
ATOM     24  C   UNL     1      20.604  70.343  74.313  1.00  0.00    -0.000 C 
BRANCH  24  25
ATOM     25  C   UNL     1      22.070  70.580  74.725  1.00  0.00    -0.000 C 
BRANCH  25  26
ATOM     26  C   UNL     1      22.659  71.913  74.213  1.00  0.00    -0.000 C 
BRANCH  26  27
ATOM     27  C   UNL     1      23.155  71.819  72.761  1.00  0.00    -0.000 C 
BRANCH  27  28
ATOM     28  C   UNL     1      22.549  72.905  71.856  1.00  0.00    -0.000 C 
BRANCH  28  29
ATOM     29  C   UNL     1      21.769  72.319  70.664  1.00  0.00    -0.000 C 
BRANCH  29  30
ATOM     30  C   UNL     1      21.401  70.841  70.866  1.00  0.00    -0.000 C 
BRANCH  30  31
ATOM     31  C   UNL     1      20.694  70.235  69.647  1.00  0.00    -0.003 C 
ATOM     32  C   UNL     1      20.044  68.900  69.999  1.00  0.00     0.004 C 
ENDBRANCH  30  31
ENDBRANCH  29  30
ENDBRANCH  28  29
ENDBRANCH  27  28
ENDBRANCH  26  27
ENDBRANCH  25  26
ENDBRANCH  24  25
ENDBRANCH  23  24
ENDBRANCH  22  23
ENDBRANCH  21  22
ENDBRANCH  20  21
ENDBRANCH  19  20
ENDBRANCH  18  19
ENDBRANCH   1  18
TORSDOF 28
ENDMDL
MODEL 7
REMARK VINA RESULT:    -6.714      3.936      7.891
REMARK INTER + INTRA:         -22.094
REMARK INTER:                 -18.737
REMARK INTRA:                  -3.357
REMARK UNBOUND:                -4.391
REMARK SMILES CCCCCCCCCCCCCCCCCCCCCCCCCCCCCC(=O)[O-]
REMARK SMILES IDX 16 1 17 2 18 3 19 4 20 5 21 6 22 7 23 8 24 9 25 10 26 11
REMARK SMILES IDX 27 12 28 13 29 14 30 15 31 16 32 17 15 18 14 19 13 20 12 21
REMARK SMILES IDX 11 22 10 23 9 24 8 25 7 26 6 27 5 28 4 29 3 30 2 31 1 32
REMARK H PARENT
REMARK Flexibility Score: inf
ROOT
ATOM      1  C   UNL     1      15.613  71.325  72.469  1.00  0.00     0.000 C 
ENDROOT
BRANCH   1   2
ATOM      2  C   UNL     1      14.515  70.268  72.255  1.00  0.00     0.000 C 
BRANCH   2   3
ATOM      3  C   UNL     1      14.005  69.647  73.570  1.00  0.00     0.000 C 
BRANCH   3   4
ATOM      4  C   UNL     1      13.825  70.626  74.749  1.00  0.00     0.000 C 
BRANCH   4   5
ATOM      5  C   UNL     1      13.957  69.954  76.126  1.00  0.00     0.000 C 
BRANCH   5   6
ATOM      6  C   UNL     1      15.203  70.417  76.899  1.00  0.00     0.000 C 
BRANCH   6   7
ATOM      7  C   UNL     1      16.247  71.145  76.026  1.00  0.00     0.000 C 
BRANCH   7   8
ATOM      8  C   UNL     1      17.354  71.798  76.872  1.00  0.00     0.000 C 
BRANCH   8   9
ATOM      9  C   UNL     1      17.349  71.309  78.329  1.00  0.00     0.000 C 
BRANCH   9  10
ATOM     10  C   UNL     1      18.767  71.002  78.850  1.00  0.00     0.000 C 
BRANCH  10  11
ATOM     11  C   UNL     1      18.924  69.547  79.323  1.00  0.00     0.000 C 
BRANCH  11  12
ATOM     12  C   UNL     1      20.194  68.882  78.766  1.00  0.00     0.000 C 
BRANCH  12  13
ATOM     13  C   UNL     1      20.469  69.247  77.296  1.00  0.00     0.006 C 
BRANCH  13  14
ATOM     14  C   UNL     1      21.967  69.328  76.940  1.00  0.00     0.053 C 
BRANCH  14  15
ATOM     15  C   UNL     1      22.221  70.110  75.686  1.00  0.00     0.041 C 
ATOM     16  O   UNL     1      21.384  70.092  74.745  1.00  0.00    -0.550 OA
ATOM     17  O   UNL     1      23.401  70.831  75.542  1.00  0.00    -0.550 OA
ENDBRANCH  14  15
ENDBRANCH  13  14
ENDBRANCH  12  13
ENDBRANCH  11  12
ENDBRANCH  10  11
ENDBRANCH   9  10
ENDBRANCH   8   9
ENDBRANCH   7   8
ENDBRANCH   6   7
ENDBRANCH   5   6
ENDBRANCH   4   5
ENDBRANCH   3   4
ENDBRANCH   2   3
ENDBRANCH   1   2
BRANCH   1  18
ATOM     18  C   UNL     1      15.124  72.757  72.196  1.00  0.00     0.000 C 
BRANCH  18  19
ATOM     19  C   UNL     1      13.698  72.833  71.611  1.00  0.00     0.000 C 
BRANCH  19  20
ATOM     20  C   UNL     1      12.730  73.614  72.517  1.00  0.00     0.000 C 
BRANCH  20  21
ATOM     21  C   UNL     1      11.388  72.888  72.718  1.00  0.00     0.000 C 
BRANCH  21  22
ATOM     22  C   UNL     1      11.011  71.897  71.600  1.00  0.00     0.000 C 
BRANCH  22  23
ATOM     23  C   UNL     1      10.119  70.720  72.043  1.00  0.00     0.000 C 
BRANCH  23  24
ATOM     24  C   UNL     1       8.618  71.044  72.155  1.00  0.00    -0.000 C 
BRANCH  24  25
ATOM     25  C   UNL     1       7.975  70.711  73.516  1.00  0.00    -0.000 C 
BRANCH  25  26
ATOM     26  C   UNL     1       6.636  71.438  73.773  1.00  0.00    -0.000 C 
BRANCH  26  27
ATOM     27  C   UNL     1       6.669  72.302  75.044  1.00  0.00    -0.000 C 
BRANCH  27  28
ATOM     28  C   UNL     1       6.314  71.506  76.311  1.00  0.00    -0.000 C 
BRANCH  28  29
ATOM     29  C   UNL     1       6.997  72.064  77.574  1.00  0.00    -0.000 C 
BRANCH  29  30
ATOM     30  C   UNL     1       8.478  71.666  77.671  1.00  0.00    -0.000 C 
BRANCH  30  31
ATOM     31  C   UNL     1       9.419  72.751  77.130  1.00  0.00    -0.003 C 
ATOM     32  C   UNL     1      10.345  72.187  76.057  1.00  0.00     0.004 C 
ENDBRANCH  30  31
ENDBRANCH  29  30
ENDBRANCH  28  29
ENDBRANCH  27  28
ENDBRANCH  26  27
ENDBRANCH  25  26
ENDBRANCH  24  25
ENDBRANCH  23  24
ENDBRANCH  22  23
ENDBRANCH  21  22
ENDBRANCH  20  21
ENDBRANCH  19  20
ENDBRANCH  18  19
ENDBRANCH   1  18
TORSDOF 28
ENDMDL
MODEL 8
REMARK VINA RESULT:    -6.713      2.515      7.081
REMARK INTER + INTRA:         -22.092
REMARK INTER:                 -17.950
REMARK INTRA:                  -4.143
REMARK UNBOUND:                -4.391
REMARK SMILES CCCCCCCCCCCCCCCCCCCCCCCCCCCCCC(=O)[O-]
REMARK SMILES IDX 16 1 17 2 18 3 19 4 20 5 21 6 22 7 23 8 24 9 25 10 26 11
REMARK SMILES IDX 27 12 28 13 29 14 30 15 31 16 32 17 15 18 14 19 13 20 12 21
REMARK SMILES IDX 11 22 10 23 9 24 8 25 7 26 6 27 5 28 4 29 3 30 2 31 1 32
REMARK H PARENT
REMARK Flexibility Score: inf
ROOT
ATOM      1  C   UNL     1      19.021  72.448  73.285  1.00  0.00     0.000 C 
ENDROOT
BRANCH   1   2
ATOM      2  C   UNL     1      18.939  71.153  74.112  1.00  0.00     0.000 C 
BRANCH   2   3
ATOM      3  C   UNL     1      18.470  71.386  75.562  1.00  0.00     0.000 C 
BRANCH   3   4
ATOM      4  C   UNL     1      16.945  71.495  75.764  1.00  0.00     0.000 C 
BRANCH   4   5
ATOM      5  C   UNL     1      16.486  71.095  77.177  1.00  0.00     0.000 C 
BRANCH   5   6
ATOM      6  C   UNL     1      17.657  70.919  78.157  1.00  0.00     0.000 C 
BRANCH   6   7
ATOM      7  C   UNL     1      17.381  69.905  79.288  1.00  0.00     0.000 C 
BRANCH   7   8
ATOM      8  C   UNL     1      18.422  68.772  79.316  1.00  0.00     0.000 C 
BRANCH   8   9
ATOM      9  C   UNL     1      19.864  69.298  79.398  1.00  0.00     0.000 C 
BRANCH   9  10
ATOM     10  C   UNL     1      20.760  68.728  78.281  1.00  0.00     0.000 C 
BRANCH  10  11
ATOM     11  C   UNL     1      20.855  69.660  77.062  1.00  0.00     0.000 C 
BRANCH  11  12
ATOM     12  C   UNL     1      22.222  69.574  76.361  1.00  0.00     0.000 C 
BRANCH  12  13
ATOM     13  C   UNL     1      22.185  70.075  74.906  1.00  0.00     0.006 C 
BRANCH  13  14
ATOM     14  C   UNL     1      22.867  71.442  74.697  1.00  0.00     0.053 C 
BRANCH  14  15
ATOM     15  C   UNL     1      22.838  71.888  73.266  1.00  0.00     0.041 C 
ATOM     16  O   UNL     1      23.268  73.028  72.946  1.00  0.00    -0.550 OA
ATOM     17  O   UNL     1      22.301  71.058  72.288  1.00  0.00    -0.550 OA
ENDBRANCH  14  15
ENDBRANCH  13  14
ENDBRANCH  12  13
ENDBRANCH  11  12
ENDBRANCH  10  11
ENDBRANCH   9  10
ENDBRANCH   8   9
ENDBRANCH   7   8
ENDBRANCH   6   7
ENDBRANCH   5   6
ENDBRANCH   4   5
ENDBRANCH   3   4
ENDBRANCH   2   3
ENDBRANCH   1   2
BRANCH   1  18
ATOM     18  C   UNL     1      18.042  72.460  72.099  1.00  0.00     0.000 C 
BRANCH  18  19
ATOM     19  C   UNL     1      16.684  73.124  72.412  1.00  0.00     0.000 C 
BRANCH  19  20
ATOM     20  C   UNL     1      15.490  72.255  71.978  1.00  0.00     0.000 C 
BRANCH  20  21
ATOM     21  C   UNL     1      15.682  70.768  72.321  1.00  0.00     0.000 C 
BRANCH  21  22
ATOM     22  C   UNL     1      14.386  70.006  72.659  1.00  0.00     0.000 C 
BRANCH  22  23
ATOM     23  C   UNL     1      14.024  69.961  74.158  1.00  0.00     0.000 C 
BRANCH  23  24
ATOM     24  C   UNL     1      13.094  71.089  74.639  1.00  0.00    -0.000 C 
BRANCH  24  25
ATOM     25  C   UNL     1      12.039  71.552  73.615  1.00  0.00    -0.000 C 
BRANCH  25  26
ATOM     26  C   UNL     1      12.032  73.076  73.366  1.00  0.00    -0.000 C 
BRANCH  26  27
ATOM     27  C   UNL     1      11.712  73.432  71.905  1.00  0.00    -0.000 C 
BRANCH  27  28
ATOM     28  C   UNL     1      11.920  72.249  70.946  1.00  0.00    -0.000 C 
BRANCH  28  29
ATOM     29  C   UNL     1      10.646  71.892  70.157  1.00  0.00    -0.000 C 
BRANCH  29  30
ATOM     30  C   UNL     1      10.549  70.392  69.836  1.00  0.00    -0.000 C 
BRANCH  30  31
ATOM     31  C   UNL     1       9.722  69.618  70.871  1.00  0.00    -0.003 C 
ATOM     32  C   UNL     1       8.733  70.538  71.579  1.00  0.00     0.004 C 
ENDBRANCH  30  31
ENDBRANCH  29  30
ENDBRANCH  28  29
ENDBRANCH  27  28
ENDBRANCH  26  27
ENDBRANCH  25  26
ENDBRANCH  24  25
ENDBRANCH  23  24
ENDBRANCH  22  23
ENDBRANCH  21  22
ENDBRANCH  20  21
ENDBRANCH  19  20
ENDBRANCH  18  19
ENDBRANCH   1  18
TORSDOF 28
ENDMDL
MODEL 9
REMARK VINA RESULT:    -6.631      3.337      8.829
REMARK INTER + INTRA:         -21.875
REMARK INTER:                 -17.589
REMARK INTRA:                  -4.286
REMARK UNBOUND:                -4.391
REMARK SMILES CCCCCCCCCCCCCCCCCCCCCCCCCCCCCC(=O)[O-]
REMARK SMILES IDX 16 1 17 2 18 3 19 4 20 5 21 6 22 7 23 8 24 9 25 10 26 11
REMARK SMILES IDX 27 12 28 13 29 14 30 15 31 16 32 17 15 18 14 19 13 20 12 21
REMARK SMILES IDX 11 22 10 23 9 24 8 25 7 26 6 27 5 28 4 29 3 30 2 31 1 32
REMARK H PARENT
REMARK Flexibility Score: inf
ROOT
ATOM      1  C   UNL     1      22.455  70.283  75.760  1.00  0.00     0.000 C 
ENDROOT
BRANCH   1   2
ATOM      2  C   UNL     1      20.984  69.946  76.057  1.00  0.00     0.000 C 
BRANCH   2   3
ATOM      3  C   UNL     1      20.024  70.362  74.925  1.00  0.00     0.000 C 
BRANCH   3   4
ATOM      4  C   UNL     1      19.268  71.690  75.140  1.00  0.00     0.000 C 
BRANCH   4   5
ATOM      5  C   UNL     1      17.784  71.497  75.494  1.00  0.00     0.000 C 
BRANCH   5   6
ATOM      6  C   UNL     1      17.476  71.813  76.967  1.00  0.00     0.000 C 
BRANCH   6   7
ATOM      7  C   UNL     1      16.524  70.801  77.640  1.00  0.00     0.000 C 
BRANCH   7   8
ATOM      8  C   UNL     1      17.163  70.139  78.873  1.00  0.00     0.000 C 
BRANCH   8   9
ATOM      9  C   UNL     1      18.696  70.077  78.782  1.00  0.00     0.000 C 
BRANCH   9  10
ATOM     10  C   UNL     1      19.237  68.645  78.959  1.00  0.00     0.000 C 
BRANCH  10  11
ATOM     11  C   UNL     1      20.011  68.460  80.275  1.00  0.00     0.000 C 
BRANCH  11  12
ATOM     12  C   UNL     1      19.126  67.902  81.404  1.00  0.00     0.000 C 
BRANCH  12  13
ATOM     13  C   UNL     1      19.060  68.831  82.630  1.00  0.00     0.006 C 
BRANCH  13  14
ATOM     14  C   UNL     1      17.813  69.737  82.662  1.00  0.00     0.053 C 
BRANCH  14  15
ATOM     15  C   UNL     1      18.121  71.155  82.285  1.00  0.00     0.041 C 
ATOM     16  O   UNL     1      17.190  71.994  82.151  1.00  0.00    -0.550 OA
ATOM     17  O   UNL     1      19.434  71.543  82.044  1.00  0.00    -0.550 OA
ENDBRANCH  14  15
ENDBRANCH  13  14
ENDBRANCH  12  13
ENDBRANCH  11  12
ENDBRANCH  10  11
ENDBRANCH   9  10
ENDBRANCH   8   9
ENDBRANCH   7   8
ENDBRANCH   6   7
ENDBRANCH   5   6
ENDBRANCH   4   5
ENDBRANCH   3   4
ENDBRANCH   2   3
ENDBRANCH   1   2
BRANCH   1  18
ATOM     18  C   UNL     1      22.675  70.781  74.321  1.00  0.00     0.000 C 
BRANCH  18  19
ATOM     19  C   UNL     1      23.788  71.841  74.187  1.00  0.00     0.000 C 
BRANCH  19  20
ATOM     20  C   UNL     1      23.808  72.503  72.798  1.00  0.00     0.000 C 
BRANCH  20  21
ATOM     21  C   UNL     1      22.403  72.635  72.184  1.00  0.00     0.000 C 
BRANCH  21  22
ATOM     22  C   UNL     1      22.327  72.359  70.670  1.00  0.00     0.000 C 
BRANCH  22  23
ATOM     23  C   UNL     1      21.252  71.338  70.244  1.00  0.00     0.000 C 
BRANCH  23  24
ATOM     24  C   UNL     1      20.425  70.741  71.397  1.00  0.00    -0.000 C 
BRANCH  24  25
ATOM     25  C   UNL     1      18.945  71.168  71.433  1.00  0.00    -0.000 C 
BRANCH  25  26
ATOM     26  C   UNL     1      18.731  72.676  71.693  1.00  0.00    -0.000 C 
BRANCH  26  27
ATOM     27  C   UNL     1      17.266  73.018  72.005  1.00  0.00    -0.000 C 
BRANCH  27  28
ATOM     28  C   UNL     1      16.374  71.770  72.112  1.00  0.00    -0.000 C 
BRANCH  28  29
ATOM     29  C   UNL     1      15.014  72.064  72.773  1.00  0.00    -0.000 C 
BRANCH  29  30
ATOM     30  C   UNL     1      13.983  70.952  72.526  1.00  0.00    -0.000 C 
BRANCH  30  31
ATOM     31  C   UNL     1      14.186  69.742  73.448  1.00  0.00    -0.003 C 
ATOM     32  C   UNL     1      14.080  70.148  74.915  1.00  0.00     0.004 C 
ENDBRANCH  30  31
ENDBRANCH  29  30
ENDBRANCH  28  29
ENDBRANCH  27  28
ENDBRANCH  26  27
ENDBRANCH  25  26
ENDBRANCH  24  25
ENDBRANCH  23  24
ENDBRANCH  22  23
ENDBRANCH  21  22
ENDBRANCH  20  21
ENDBRANCH  19  20
ENDBRANCH  18  19
ENDBRANCH   1  18
TORSDOF 28
ENDMDL
