MODEL 1
REMARK VINA RESULT:    -5.819      0.000      0.000
REMARK INTER + INTRA:         -11.340
REMARK INTER:                  -9.561
REMARK INTRA:                  -1.779
REMARK UNBOUND:                -1.779
REMARK SMILES C[C@H]1O[C@@H](OC[C@H]2O[C@@H](Oc3c(-c4ccc(O)c(O)c4)oc4cc(O)cc(O)c4c3=O)[C@H](O)[C@H](O)[C@@H]2O)[C@H](O)[C@@H](O)[C@H]1O
REMARK SMILES IDX 7 1 36 2 34 3 32 4 9 5 8 6 6 7 5 8 4 9 1 10 2 11 42 12 3 13
REMARK SMILES IDX 40 14 38 15 43 16 41 18 39 20 37 22 35 24 10 26 11 27 12 28
REMARK SMILES IDX 30 29 21 30 29 31 31 32 22 33 27 34 23 35 26 36 24 37 13 38
REMARK SMILES IDX 20 39 14 40 18 41 15 42 16 43 19 44 17 46 28 48 25 50 33 52
REMARK H PARENT 43 17 41 19 39 21 37 23 35 25 19 45 17 47 28 49 25 51 33 53
REMARK Flexibility Score: inf
ROOT
ATOM      1  C   UNL     1      31.031 172.232 168.914  1.00  0.00     0.180 C 
ATOM      2  C   UNL     1      31.094 170.767 169.394  1.00  0.00     0.177 C 
ATOM      3  C   UNL     1      32.402 170.523 170.169  1.00  0.00     0.180 C 
ATOM      4  C   UNL     1      32.633 171.608 171.247  1.00  0.00     0.214 C 
ATOM      5  C   UNL     1      32.304 173.029 170.683  1.00  0.00     0.339 C 
ATOM      6  O   UNL     1      31.046 173.081 170.038  1.00  0.00    -0.332 OA
ENDROOT
BRANCH   1   7
ATOM      7  C   UNL     1      29.759 172.523 168.121  1.00  0.00     0.198 C 
BRANCH   7   8
ATOM      8  O   UNL     1      29.748 171.688 166.975  1.00  0.00    -0.347 OA
BRANCH   8   9
ATOM      9  C   UNL     1      30.450 172.257 165.886  1.00  0.00     0.281 C 
ATOM     10  C   UNL     1      28.072 174.094 163.991  1.00  0.00     0.041 C 
ATOM     11  C   UNL     1      29.572 173.806 164.149  1.00  0.00     0.150 C 
ATOM     12  C   UNL     1      30.147 172.837 163.083  1.00  0.00     0.174 C 
ATOM     13  O   UNL     1      29.849 173.504 165.519  1.00  0.00    -0.344 OA
ATOM     14  C   UNL     1      30.006 171.373 163.491  1.00  0.00     0.179 C 
ATOM     15  C   UNL     1      30.749 171.167 164.811  1.00  0.00     0.202 C 
BRANCH  12  16
ATOM     16  O   UNL     1      29.627 173.083 161.801  1.00  0.00    -0.388 OA
ATOM     17  H   UNL     1      30.133 172.525 161.148  1.00  0.00     0.211 HD
ENDBRANCH  12  16
BRANCH  14  18
ATOM     18  O   UNL     1      28.663 170.975 163.621  1.00  0.00    -0.387 OA
ATOM     19  H   UNL     1      28.565 170.532 164.506  1.00  0.00     0.211 HD
ENDBRANCH  14  18
BRANCH  15  20
ATOM     20  O   UNL     1      32.127 171.136 164.535  1.00  0.00    -0.385 OA
ATOM     21  H   UNL     1      32.522 171.936 164.976  1.00  0.00     0.211 HD
ENDBRANCH  15  20
ENDBRANCH   8   9
ENDBRANCH   7   8
ENDBRANCH   1   7
BRANCH   2  22
ATOM     22  O   UNL     1      30.963 169.857 168.332  1.00  0.00    -0.387 OA
ATOM     23  H   UNL     1      30.923 170.362 167.480  1.00  0.00     0.211 HD
ENDBRANCH   2  22
BRANCH   3  24
ATOM     24  O   UNL     1      33.486 170.495 169.266  1.00  0.00    -0.387 OA
ATOM     25  H   UNL     1      34.275 170.121 169.745  1.00  0.00     0.211 HD
ENDBRANCH   3  24
BRANCH   5  26
ATOM     26  O   UNL     1      32.354 174.038 171.697  1.00  0.00    -0.454 OA
BRANCH  26  27
ATOM     27  C   UNL     1      32.640 175.419 171.584  1.00  0.00     0.214 A 
ATOM     28  C   UNL     1      33.916 175.862 172.004  1.00  0.00     0.180 A 
ATOM     29  C   UNL     1      31.715 176.395 171.142  1.00  0.00     0.239 A 
ATOM     30  O   UNL     1      34.160 177.158 172.146  1.00  0.00    -0.452 OA
ATOM     31  C   UNL     1      32.009 177.760 171.322  1.00  0.00     0.111 A 
ATOM     32  O   UNL     1      30.647 176.058 170.580  1.00  0.00    -0.285 OA
ATOM     33  C   UNL     1      33.272 178.102 171.864  1.00  0.00     0.146 A 
ATOM     34  C   UNL     1      31.087 178.797 171.020  1.00  0.00     0.134 A 
ATOM     35  C   UNL     1      33.604 179.436 172.085  1.00  0.00     0.094 A 
ATOM     36  C   UNL     1      31.440 180.130 171.268  1.00  0.00     0.093 A 
ATOM     37  C   UNL     1      32.689 180.449 171.805  1.00  0.00     0.123 A 
BRANCH  28  38
ATOM     38  C   UNL     1      35.036 174.921 172.272  1.00  0.00     0.025 A 
ATOM     39  C   UNL     1      35.815 174.440 171.207  1.00  0.00     0.062 A 
ATOM     40  C   UNL     1      35.240 174.389 173.560  1.00  0.00     0.016 A 
ATOM     41  C   UNL     1      36.798 173.462 171.431  1.00  0.00     0.158 A 
ATOM     42  C   UNL     1      36.233 173.427 173.784  1.00  0.00     0.051 A 
ATOM     43  C   UNL     1      37.007 172.956 172.725  1.00  0.00     0.157 A 
BRANCH  41  44
ATOM     44  O   UNL     1      37.559 172.978 170.365  1.00  0.00    -0.504 OA
ATOM     45  H   UNL     1      37.219 173.012 169.412  1.00  0.00     0.293 HD
ENDBRANCH  41  44
BRANCH  43  46
ATOM     46  O   UNL     1      37.970 171.980 172.969  1.00  0.00    -0.504 OA
ATOM     47  H   UNL     1      38.216 171.689 173.906  1.00  0.00     0.293 HD
ENDBRANCH  43  46
ENDBRANCH  28  38
BRANCH  34  48
ATOM     48  O   UNL     1      29.829 178.516 170.487  1.00  0.00    -0.507 OA
ATOM     49  H   UNL     1      29.427 179.072 169.744  1.00  0.00     0.293 HD
ENDBRANCH  34  48
BRANCH  37  50
ATOM     50  O   UNL     1      33.035 181.772 172.067  1.00  0.00    -0.508 OA
ATOM     51  H   UNL     1      33.904 182.177 171.732  1.00  0.00     0.293 HD
ENDBRANCH  37  50
ENDBRANCH  26  27
ENDBRANCH   5  26
BRANCH   4  52
ATOM     52  O   UNL     1      33.964 171.532 171.694  1.00  0.00    -0.384 OA
ATOM     53  H   UNL     1      34.321 172.454 171.786  1.00  0.00     0.211 HD
ENDBRANCH   4  52
TORSDOF 16
ENDMDL
MODEL 2
REMARK VINA RESULT:    -5.779      2.014      3.071
REMARK INTER + INTRA:         -11.275
REMARK INTER:                  -8.223
REMARK INTRA:                  -3.052
REMARK UNBOUND:                -1.779
REMARK SMILES C[C@H]1O[C@@H](OC[C@H]2O[C@@H](Oc3c(-c4ccc(O)c(O)c4)oc4cc(O)cc(O)c4c3=O)[C@H](O)[C@H](O)[C@@H]2O)[C@H](O)[C@@H](O)[C@H]1O
REMARK SMILES IDX 7 1 36 2 34 3 32 4 9 5 8 6 6 7 5 8 4 9 1 10 2 11 42 12 3 13
REMARK SMILES IDX 40 14 38 15 43 16 41 18 39 20 37 22 35 24 10 26 11 27 12 28
REMARK SMILES IDX 30 29 21 30 29 31 31 32 22 33 27 34 23 35 26 36 24 37 13 38
REMARK SMILES IDX 20 39 14 40 18 41 15 42 16 43 19 44 17 46 28 48 25 50 33 52
REMARK H PARENT 43 17 41 19 39 21 37 23 35 25 19 45 17 47 28 49 25 51 33 53
REMARK Flexibility Score: inf
ROOT
ATOM      1  C   UNL     1      31.518 172.102 168.879  1.00  0.00     0.180 C 
ATOM      2  C   UNL     1      31.492 170.659 169.422  1.00  0.00     0.177 C 
ATOM      3  C   UNL     1      32.660 170.445 170.403  1.00  0.00     0.180 C 
ATOM      4  C   UNL     1      32.728 171.573 171.459  1.00  0.00     0.214 C 
ATOM      5  C   UNL     1      32.504 172.970 170.792  1.00  0.00     0.339 C 
ATOM      6  O   UNL     1      31.364 172.998 169.956  1.00  0.00    -0.332 OA
ENDROOT
BRANCH   1   7
ATOM      7  C   UNL     1      30.390 172.364 167.885  1.00  0.00     0.198 C 
BRANCH   7   8
ATOM      8  O   UNL     1      29.345 171.440 168.145  1.00  0.00    -0.347 OA
BRANCH   8   9
ATOM      9  C   UNL     1      28.083 172.070 168.258  1.00  0.00     0.281 C 
ATOM     10  C   UNL     1      28.648 175.555 167.869  1.00  0.00     0.041 C 
ATOM     11  C   UNL     1      27.553 174.484 167.971  1.00  0.00     0.150 C 
ATOM     12  C   UNL     1      26.847 174.428 169.351  1.00  0.00     0.174 C 
ATOM     13  O   UNL     1      28.056 173.251 167.448  1.00  0.00    -0.344 OA
ATOM     14  C   UNL     1      27.575 173.524 170.341  1.00  0.00     0.179 C 
ATOM     15  C   UNL     1      27.637 172.115 169.752  1.00  0.00     0.202 C 
BRANCH  12  16
ATOM     16  O   UNL     1      26.606 175.708 169.879  1.00  0.00    -0.388 OA
ATOM     17  H   UNL     1      27.435 176.250 169.772  1.00  0.00     0.211 HD
ENDBRANCH  12  16
BRANCH  14  18
ATOM     18  O   UNL     1      28.869 173.983 170.643  1.00  0.00    -0.387 OA
ATOM     19  H   UNL     1      29.515 173.310 170.298  1.00  0.00     0.211 HD
ENDBRANCH  14  18
BRANCH  15  20
ATOM     20  O   UNL     1      26.366 171.530 169.887  1.00  0.00    -0.385 OA
ATOM     21  H   UNL     1      26.319 170.798 169.214  1.00  0.00     0.211 HD
ENDBRANCH  15  20
ENDBRANCH   8   9
ENDBRANCH   7   8
ENDBRANCH   1   7
BRANCH   2  22
ATOM     22  O   UNL     1      31.522 169.706 168.391  1.00  0.00    -0.387 OA
ATOM     23  H   UNL     1      32.103 170.041 167.662  1.00  0.00     0.211 HD
ENDBRANCH   2  22
BRANCH   3  24
ATOM     24  O   UNL     1      33.872 170.377 169.684  1.00  0.00    -0.387 OA
ATOM     25  H   UNL     1      34.004 169.433 169.393  1.00  0.00     0.211 HD
ENDBRANCH   3  24
BRANCH   5  26
ATOM     26  O   UNL     1      32.402 174.021 171.759  1.00  0.00    -0.454 OA
BRANCH  26  27
ATOM     27  C   UNL     1      32.676 175.402 171.625  1.00  0.00     0.214 A 
ATOM     28  C   UNL     1      33.959 175.858 172.010  1.00  0.00     0.180 A 
ATOM     29  C   UNL     1      31.735 176.367 171.194  1.00  0.00     0.239 A 
ATOM     30  O   UNL     1      34.197 177.158 172.133  1.00  0.00    -0.452 OA
ATOM     31  C   UNL     1      32.023 177.736 171.353  1.00  0.00     0.111 A 
ATOM     32  O   UNL     1      30.656 176.016 170.660  1.00  0.00    -0.285 OA
ATOM     33  C   UNL     1      33.296 178.092 171.862  1.00  0.00     0.146 A 
ATOM     34  C   UNL     1      31.087 178.763 171.061  1.00  0.00     0.134 A 
ATOM     35  C   UNL     1      33.623 179.431 172.061  1.00  0.00     0.094 A 
ATOM     36  C   UNL     1      31.437 180.102 171.287  1.00  0.00     0.093 A 
ATOM     37  C   UNL     1      32.695 180.434 171.791  1.00  0.00     0.123 A 
BRANCH  28  38
ATOM     38  C   UNL     1      35.091 174.928 172.263  1.00  0.00     0.025 A 
ATOM     39  C   UNL     1      35.817 174.401 171.183  1.00  0.00     0.062 A 
ATOM     40  C   UNL     1      35.358 174.450 173.560  1.00  0.00     0.016 A 
ATOM     41  C   UNL     1      36.811 173.432 171.399  1.00  0.00     0.158 A 
ATOM     42  C   UNL     1      36.361 173.497 173.776  1.00  0.00     0.051 A 
ATOM     43  C   UNL     1      37.083 172.980 172.702  1.00  0.00     0.157 A 
BRANCH  41  44
ATOM     44  O   UNL     1      37.519 172.903 170.319  1.00  0.00    -0.504 OA
ATOM     45  H   UNL     1      37.304 171.989 169.939  1.00  0.00     0.293 HD
ENDBRANCH  41  44
BRANCH  43  46
ATOM     46  O   UNL     1      38.057 172.015 172.939  1.00  0.00    -0.504 OA
ATOM     47  H   UNL     1      38.473 171.475 172.191  1.00  0.00     0.293 HD
ENDBRANCH  43  46
ENDBRANCH  28  38
BRANCH  34  48
ATOM     48  O   UNL     1      29.820 178.468 170.560  1.00  0.00    -0.507 OA
ATOM     49  H   UNL     1      29.079 179.156 170.540  1.00  0.00     0.293 HD
ENDBRANCH  34  48
BRANCH  37  50
ATOM     50  O   UNL     1      33.038 181.762 172.031  1.00  0.00    -0.508 OA
ATOM     51  H   UNL     1      32.507 182.348 172.669  1.00  0.00     0.293 HD
ENDBRANCH  37  50
ENDBRANCH  26  27
ENDBRANCH   5  26
BRANCH   4  52
ATOM     52  O   UNL     1      33.972 171.513 172.112  1.00  0.00    -0.384 OA
ATOM     53  H   UNL     1      34.619 171.049 171.520  1.00  0.00     0.211 HD
ENDBRANCH   4  52
TORSDOF 16
ENDMDL
MODEL 3
REMARK VINA RESULT:    -5.777      2.195      8.550
REMARK INTER + INTRA:         -11.270
REMARK INTER:                  -8.666
REMARK INTRA:                  -2.604
REMARK UNBOUND:                -1.779
REMARK SMILES C[C@H]1O[C@@H](OC[C@H]2O[C@@H](Oc3c(-c4ccc(O)c(O)c4)oc4cc(O)cc(O)c4c3=O)[C@H](O)[C@H](O)[C@@H]2O)[C@H](O)[C@@H](O)[C@H]1O
REMARK SMILES IDX 7 1 36 2 34 3 32 4 9 5 8 6 6 7 5 8 4 9 1 10 2 11 42 12 3 13
REMARK SMILES IDX 40 14 38 15 43 16 41 18 39 20 37 22 35 24 10 26 11 27 12 28
REMARK SMILES IDX 30 29 21 30 29 31 31 32 22 33 27 34 23 35 26 36 24 37 13 38
REMARK SMILES IDX 20 39 14 40 18 41 15 42 16 43 19 44 17 46 28 48 25 50 33 52
REMARK H PARENT 43 17 41 19 39 21 37 23 35 25 19 45 17 47 28 49 25 51 33 53
REMARK Flexibility Score: inf
ROOT
ATOM      1  C   UNL     1      33.699 174.014 171.940  1.00  0.00     0.180 C 
ATOM      2  C   UNL     1      33.069 175.220 172.666  1.00  0.00     0.177 C 
ATOM      3  C   UNL     1      32.024 175.894 171.757  1.00  0.00     0.180 C 
ATOM      4  C   UNL     1      31.039 174.861 171.161  1.00  0.00     0.214 C 
ATOM      5  C   UNL     1      31.802 173.585 170.675  1.00  0.00     0.339 C 
ATOM      6  O   UNL     1      32.689 173.075 171.652  1.00  0.00    -0.332 OA
ENDROOT
BRANCH   1   7
ATOM      7  C   UNL     1      34.758 173.318 172.792  1.00  0.00     0.198 C 
BRANCH   7   8
ATOM      8  O   UNL     1      34.662 171.921 172.567  1.00  0.00    -0.347 OA
BRANCH   8   9
ATOM      9  C   UNL     1      35.931 171.304 172.454  1.00  0.00     0.281 C 
ATOM     10  C   UNL     1      38.339 173.765 173.329  1.00  0.00     0.041 C 
ATOM     11  C   UNL     1      38.152 172.273 173.017  1.00  0.00     0.150 C 
ATOM     12  C   UNL     1      38.622 171.858 171.598  1.00  0.00     0.174 C 
ATOM     13  O   UNL     1      36.835 171.875 173.407  1.00  0.00    -0.344 OA
ATOM     14  C   UNL     1      37.528 172.032 170.548  1.00  0.00     0.179 C 
ATOM     15  C   UNL     1      36.332 171.171 170.952  1.00  0.00     0.202 C 
BRANCH  12  16
ATOM     16  O   UNL     1      39.820 172.493 171.226  1.00  0.00    -0.388 OA
ATOM     17  H   UNL     1      39.652 173.006 170.389  1.00  0.00     0.211 HD
ENDBRANCH  12  16
BRANCH  14  18
ATOM     18  O   UNL     1      37.134 173.373 170.395  1.00  0.00    -0.387 OA
ATOM     19  H   UNL     1      36.159 173.379 170.199  1.00  0.00     0.211 HD
ENDBRANCH  14  18
BRANCH  15  20
ATOM     20  O   UNL     1      36.640 169.831 170.659  1.00  0.00    -0.385 OA
ATOM     21  H   UNL     1      36.813 169.788 169.680  1.00  0.00     0.211 HD
ENDBRANCH  15  20
ENDBRANCH   8   9
ENDBRANCH   7   8
ENDBRANCH   1   7
BRANCH   2  22
ATOM     22  O   UNL     1      34.036 176.145 173.091  1.00  0.00    -0.387 OA
ATOM     23  H   UNL     1      33.662 176.677 173.839  1.00  0.00     0.211 HD
ENDBRANCH   2  22
BRANCH   3  24
ATOM     24  O   UNL     1      32.683 176.592 170.722  1.00  0.00    -0.387 OA
ATOM     25  H   UNL     1      33.586 176.188 170.606  1.00  0.00     0.211 HD
ENDBRANCH   3  24
BRANCH   5  26
ATOM     26  O   UNL     1      30.908 172.545 170.265  1.00  0.00    -0.454 OA
BRANCH  26  27
ATOM     27  C   UNL     1      30.842 171.840 169.040  1.00  0.00     0.214 A 
ATOM     28  C   UNL     1      31.275 170.494 169.031  1.00  0.00     0.180 A 
ATOM     29  C   UNL     1      30.433 172.409 167.810  1.00  0.00     0.239 A 
ATOM     30  O   UNL     1      31.462 169.859 167.881  1.00  0.00    -0.452 OA
ATOM     31  C   UNL     1      30.660 171.707 166.611  1.00  0.00     0.111 A 
ATOM     32  O   UNL     1      29.861 173.524 167.778  1.00  0.00    -0.285 OA
ATOM     33  C   UNL     1      31.213 170.405 166.699  1.00  0.00     0.146 A 
ATOM     34  C   UNL     1      30.394 172.255 165.329  1.00  0.00     0.134 A 
ATOM     35  C   UNL     1      31.479 169.676 165.543  1.00  0.00     0.094 A 
ATOM     36  C   UNL     1      30.687 171.506 164.182  1.00  0.00     0.093 A 
ATOM     37  C   UNL     1      31.234 170.226 164.287  1.00  0.00     0.123 A 
BRANCH  28  38
ATOM     38  C   UNL     1      31.511 169.726 170.283  1.00  0.00     0.025 A 
ATOM     39  C   UNL     1      30.420 169.300 171.057  1.00  0.00     0.062 A 
ATOM     40  C   UNL     1      32.814 169.544 170.784  1.00  0.00     0.016 A 
ATOM     41  C   UNL     1      30.630 168.679 172.300  1.00  0.00     0.158 A 
ATOM     42  C   UNL     1      33.022 168.908 172.014  1.00  0.00     0.051 A 
ATOM     43  C   UNL     1      31.937 168.482 172.778  1.00  0.00     0.157 A 
BRANCH  41  44
ATOM     44  O   UNL     1      29.540 168.270 173.070  1.00  0.00    -0.504 OA
ATOM     45  H   UNL     1      29.396 168.615 174.011  1.00  0.00     0.293 HD
ENDBRANCH  41  44
BRANCH  43  46
ATOM     46  O   UNL     1      32.168 167.875 174.009  1.00  0.00    -0.504 OA
ATOM     47  H   UNL     1      32.832 167.120 174.121  1.00  0.00     0.293 HD
ENDBRANCH  43  46
ENDBRANCH  28  38
BRANCH  34  48
ATOM     48  O   UNL     1      29.852 173.532 165.186  1.00  0.00    -0.507 OA
ATOM     49  H   UNL     1      30.409 174.367 165.310  1.00  0.00     0.293 HD
ENDBRANCH  34  48
BRANCH  37  50
ATOM     50  O   UNL     1      31.540 169.487 163.147  1.00  0.00    -0.508 OA
ATOM     51  H   UNL     1      32.460 169.518 162.718  1.00  0.00     0.293 HD
ENDBRANCH  37  50
ENDBRANCH  26  27
ENDBRANCH   5  26
BRANCH   4  52
ATOM     52  O   UNL     1      30.328 175.462 170.108  1.00  0.00    -0.384 OA
ATOM     53  H   UNL     1      29.582 174.862 169.845  1.00  0.00     0.211 HD
ENDBRANCH   4  52
TORSDOF 16
ENDMDL
MODEL 4
REMARK VINA RESULT:    -5.733      2.298      8.535
REMARK INTER + INTRA:         -11.198
REMARK INTER:                  -8.115
REMARK INTRA:                  -3.083
REMARK UNBOUND:                -1.779
REMARK SMILES C[C@H]1O[C@@H](OC[C@H]2O[C@@H](Oc3c(-c4ccc(O)c(O)c4)oc4cc(O)cc(O)c4c3=O)[C@H](O)[C@H](O)[C@@H]2O)[C@H](O)[C@@H](O)[C@H]1O
REMARK SMILES IDX 7 1 36 2 34 3 32 4 9 5 8 6 6 7 5 8 4 9 1 10 2 11 42 12 3 13
REMARK SMILES IDX 40 14 38 15 43 16 41 18 39 20 37 22 35 24 10 26 11 27 12 28
REMARK SMILES IDX 30 29 21 30 29 31 31 32 22 33 27 34 23 35 26 36 24 37 13 38
REMARK SMILES IDX 20 39 14 40 18 41 15 42 16 43 19 44 17 46 28 48 25 50 33 52
REMARK H PARENT 43 17 41 19 39 21 37 23 35 25 19 45 17 47 28 49 25 51 33 53
REMARK Flexibility Score: inf
ROOT
ATOM      1  C   UNL     1      31.450 175.838 171.756  1.00  0.00     0.180 C 
ATOM      2  C   UNL     1      30.903 177.277 171.850  1.00  0.00     0.177 C 
ATOM      3  C   UNL     1      30.440 177.755 170.460  1.00  0.00     0.180 C 
ATOM      4  C   UNL     1      29.521 176.715 169.779  1.00  0.00     0.214 C 
ATOM      5  C   UNL     1      30.085 175.268 169.969  1.00  0.00     0.339 C 
ATOM      6  O   UNL     1      30.420 174.985 171.314  1.00  0.00    -0.332 OA
ENDROOT
BRANCH   1   7
ATOM      7  C   UNL     1      31.941 175.320 173.106  1.00  0.00     0.198 C 
BRANCH   7   8
ATOM      8  O   UNL     1      33.350 175.481 173.159  1.00  0.00    -0.347 OA
BRANCH   8   9
ATOM      9  C   UNL     1      34.019 174.275 173.476  1.00  0.00     0.281 C 
ATOM     10  C   UNL     1      36.730 173.989 171.199  1.00  0.00     0.041 C 
ATOM     11  C   UNL     1      36.107 173.380 172.464  1.00  0.00     0.150 C 
ATOM     12  C   UNL     1      35.344 172.052 172.218  1.00  0.00     0.174 C 
ATOM     13  O   UNL     1      35.415 174.404 173.183  1.00  0.00    -0.344 OA
ATOM     14  C   UNL     1      33.887 172.282 171.827  1.00  0.00     0.179 C 
ATOM     15  C   UNL     1      33.202 173.054 172.953  1.00  0.00     0.202 C 
BRANCH  12  16
ATOM     16  O   UNL     1      36.012 171.212 171.309  1.00  0.00    -0.388 OA
ATOM     17  H   UNL     1      35.538 170.336 171.291  1.00  0.00     0.211 HD
ENDBRANCH  12  16
BRANCH  14  18
ATOM     18  O   UNL     1      33.757 172.976 170.611  1.00  0.00    -0.387 OA
ATOM     19  H   UNL     1      34.170 173.873 170.731  1.00  0.00     0.211 HD
ENDBRANCH  14  18
BRANCH  15  20
ATOM     20  O   UNL     1      32.957 172.159 174.009  1.00  0.00    -0.385 OA
ATOM     21  H   UNL     1      32.076 171.734 173.821  1.00  0.00     0.211 HD
ENDBRANCH  15  20
ENDBRANCH   8   9
ENDBRANCH   7   8
ENDBRANCH   1   7
BRANCH   2  22
ATOM     22  O   UNL     1      31.842 178.165 172.399  1.00  0.00    -0.387 OA
ATOM     23  H   UNL     1      32.748 177.901 172.094  1.00  0.00     0.211 HD
ENDBRANCH   2  22
BRANCH   3  24
ATOM     24  O   UNL     1      31.569 178.011 169.651  1.00  0.00    -0.387 OA
ATOM     25  H   UNL     1      32.366 177.627 170.109  1.00  0.00     0.211 HD
ENDBRANCH   3  24
BRANCH   5  26
ATOM     26  O   UNL     1      29.179 174.268 169.490  1.00  0.00    -0.454 OA
BRANCH  26  27
ATOM     27  C   UNL     1      29.373 173.271 168.505  1.00  0.00     0.214 A 
ATOM     28  C   UNL     1      29.504 171.932 168.942  1.00  0.00     0.180 A 
ATOM     29  C   UNL     1      29.508 173.529 167.120  1.00  0.00     0.239 A 
ATOM     30  O   UNL     1      29.920 170.992 168.102  1.00  0.00    -0.452 OA
ATOM     31  C   UNL     1      29.963 172.507 166.265  1.00  0.00     0.111 A 
ATOM     32  O   UNL     1      29.214 174.651 166.646  1.00  0.00    -0.285 OA
ATOM     33  C   UNL     1      30.182 171.223 166.823  1.00  0.00     0.146 A 
ATOM     34  C   UNL     1      30.242 172.715 164.889  1.00  0.00     0.134 A 
ATOM     35  C   UNL     1      30.655 170.183 166.027  1.00  0.00     0.094 A 
ATOM     36  C   UNL     1      30.733 171.655 164.115  1.00  0.00     0.093 A 
ATOM     37  C   UNL     1      30.945 170.397 164.681  1.00  0.00     0.123 A 
BRANCH  28  38
ATOM     38  C   UNL     1      29.161 171.509 170.326  1.00  0.00     0.025 A 
ATOM     39  C   UNL     1      30.184 171.189 171.233  1.00  0.00     0.062 A 
ATOM     40  C   UNL     1      27.823 171.284 170.702  1.00  0.00     0.016 A 
ATOM     41  C   UNL     1      29.874 170.676 172.503  1.00  0.00     0.158 A 
ATOM     42  C   UNL     1      27.515 170.790 171.975  1.00  0.00     0.051 A 
ATOM     43  C   UNL     1      28.533 170.478 172.874  1.00  0.00     0.157 A 
BRANCH  41  44
ATOM     44  O   UNL     1      30.897 170.347 173.393  1.00  0.00    -0.504 OA
ATOM     45  H   UNL     1      31.224 169.395 173.499  1.00  0.00     0.293 HD
ENDBRANCH  41  44
BRANCH  43  46
ATOM     46  O   UNL     1      28.202 169.963 174.125  1.00  0.00    -0.504 OA
ATOM     47  H   UNL     1      28.189 170.538 174.957  1.00  0.00     0.293 HD
ENDBRANCH  43  46
ENDBRANCH  28  38
BRANCH  34  48
ATOM     48  O   UNL     1      30.046 173.959 164.290  1.00  0.00    -0.507 OA
ATOM     49  H   UNL     1      30.484 174.205 163.412  1.00  0.00     0.293 HD
ENDBRANCH  34  48
BRANCH  37  50
ATOM     50  O   UNL     1      31.448 169.348 163.917  1.00  0.00    -0.508 OA
ATOM     51  H   UNL     1      32.138 169.497 163.187  1.00  0.00     0.293 HD
ENDBRANCH  37  50
ENDBRANCH  26  27
ENDBRANCH   5  26
BRANCH   4  52
ATOM     52  O   UNL     1      29.394 177.038 168.417  1.00  0.00    -0.384 OA
ATOM     53  H   UNL     1      28.701 176.452 168.015  1.00  0.00     0.211 HD
ENDBRANCH   4  52
TORSDOF 16
ENDMDL
MODEL 5
REMARK VINA RESULT:    -5.642      1.744      5.216
REMARK INTER + INTRA:         -11.049
REMARK INTER:                  -9.260
REMARK INTRA:                  -1.789
REMARK UNBOUND:                -1.779
REMARK SMILES C[C@H]1O[C@@H](OC[C@H]2O[C@@H](Oc3c(-c4ccc(O)c(O)c4)oc4cc(O)cc(O)c4c3=O)[C@H](O)[C@H](O)[C@@H]2O)[C@H](O)[C@@H](O)[C@H]1O
REMARK SMILES IDX 7 1 36 2 34 3 32 4 9 5 8 6 6 7 5 8 4 9 1 10 2 11 42 12 3 13
REMARK SMILES IDX 40 14 38 15 43 16 41 18 39 20 37 22 35 24 10 26 11 27 12 28
REMARK SMILES IDX 30 29 21 30 29 31 31 32 22 33 27 34 23 35 26 36 24 37 13 38
REMARK SMILES IDX 20 39 14 40 18 41 15 42 16 43 19 44 17 46 28 48 25 50 33 52
REMARK H PARENT 43 17 41 19 39 21 37 23 35 25 19 45 17 47 28 49 25 51 33 53
REMARK Flexibility Score: inf
ROOT
ATOM      1  C   UNL     1      29.308 173.229 167.860  1.00  0.00     0.180 C 
ATOM      2  C   UNL     1      28.032 172.528 168.369  1.00  0.00     0.177 C 
ATOM      3  C   UNL     1      28.399 171.471 169.427  1.00  0.00     0.180 C 
ATOM      4  C   UNL     1      29.340 172.053 170.508  1.00  0.00     0.214 C 
ATOM      5  C   UNL     1      30.453 172.937 169.856  1.00  0.00     0.339 C 
ATOM      6  O   UNL     1      29.933 173.881 168.941  1.00  0.00    -0.332 OA
ENDROOT
BRANCH   1   7
ATOM      7  C   UNL     1      29.002 174.277 166.792  1.00  0.00     0.198 C 
BRANCH   7   8
ATOM      8  O   UNL     1      28.528 173.607 165.635  1.00  0.00    -0.347 OA
BRANCH   8   9
ATOM      9  C   UNL     1      29.529 173.469 164.644  1.00  0.00     0.281 C 
ATOM     10  C   UNL     1      27.966 174.124 161.522  1.00  0.00     0.041 C 
ATOM     11  C   UNL     1      29.323 173.890 162.201  1.00  0.00     0.150 C 
ATOM     12  C   UNL     1      29.911 172.473 161.971  1.00  0.00     0.174 C 
ATOM     13  O   UNL     1      29.256 174.355 163.552  1.00  0.00    -0.344 OA
ATOM     14  C   UNL     1      29.421 171.464 163.006  1.00  0.00     0.179 C 
ATOM     15  C   UNL     1      29.830 171.959 164.393  1.00  0.00     0.202 C 
BRANCH  12  16
ATOM     16  O   UNL     1      29.715 172.020 160.655  1.00  0.00    -0.388 OA
ATOM     17  H   UNL     1      30.270 171.204 160.522  1.00  0.00     0.211 HD
ENDBRANCH  12  16
BRANCH  14  18
ATOM     18  O   UNL     1      28.030 171.266 162.951  1.00  0.00    -0.387 OA
ATOM     19  H   UNL     1      27.741 171.422 162.012  1.00  0.00     0.211 HD
ENDBRANCH  14  18
BRANCH  15  20
ATOM     20  O   UNL     1      31.205 171.716 164.554  1.00  0.00    -0.385 OA
ATOM     21  H   UNL     1      31.313 170.728 164.612  1.00  0.00     0.211 HD
ENDBRANCH  15  20
ENDBRANCH   8   9
ENDBRANCH   7   8
ENDBRANCH   1   7
BRANCH   2  22
ATOM     22  O   UNL     1      27.290 171.955 167.324  1.00  0.00    -0.387 OA
ATOM     23  H   UNL     1      26.337 171.911 167.594  1.00  0.00     0.211 HD
ENDBRANCH   2  22
BRANCH   3  24
ATOM     24  O   UNL     1      29.008 170.365 168.796  1.00  0.00    -0.387 OA
ATOM     25  H   UNL     1      28.315 169.906 168.247  1.00  0.00     0.211 HD
ENDBRANCH   3  24
BRANCH   5  26
ATOM     26  O   UNL     1      31.244 173.619 170.835  1.00  0.00    -0.454 OA
BRANCH  26  27
ATOM     27  C   UNL     1      32.620 173.486 171.138  1.00  0.00     0.214 A 
ATOM     28  C   UNL     1      33.329 174.655 171.500  1.00  0.00     0.180 A 
ATOM     29  C   UNL     1      33.348 172.276 171.041  1.00  0.00     0.239 A 
ATOM     30  O   UNL     1      34.655 174.640 171.563  1.00  0.00    -0.452 OA
ATOM     31  C   UNL     1      34.754 172.306 171.101  1.00  0.00     0.111 A 
ATOM     32  O   UNL     1      32.754 171.179 170.916  1.00  0.00    -0.285 OA
ATOM     33  C   UNL     1      35.382 173.551 171.349  1.00  0.00     0.146 A 
ATOM     34  C   UNL     1      35.563 171.158 170.891  1.00  0.00     0.134 A 
ATOM     35  C   UNL     1      36.770 173.641 171.396  1.00  0.00     0.094 A 
ATOM     36  C   UNL     1      36.959 171.280 170.926  1.00  0.00     0.093 A 
ATOM     37  C   UNL     1      37.560 172.516 171.169  1.00  0.00     0.123 A 
BRANCH  28  38
ATOM     38  C   UNL     1      32.642 175.926 171.851  1.00  0.00     0.025 A 
ATOM     39  C   UNL     1      32.655 177.000 170.948  1.00  0.00     0.062 A 
ATOM     40  C   UNL     1      32.100 176.123 173.136  1.00  0.00     0.016 A 
ATOM     41  C   UNL     1      32.113 178.244 171.314  1.00  0.00     0.158 A 
ATOM     42  C   UNL     1      31.544 177.357 173.492  1.00  0.00     0.051 A 
ATOM     43  C   UNL     1      31.555 178.420 172.592  1.00  0.00     0.157 A 
BRANCH  41  44
ATOM     44  O   UNL     1      32.143 179.311 170.415  1.00  0.00    -0.504 OA
ATOM     45  H   UNL     1      31.386 179.982 170.362  1.00  0.00     0.293 HD
ENDBRANCH  41  44
BRANCH  43  46
ATOM     46  O   UNL     1      31.020 179.646 172.979  1.00  0.00    -0.504 OA
ATOM     47  H   UNL     1      31.039 179.962 173.939  1.00  0.00     0.293 HD
ENDBRANCH  43  46
ENDBRANCH  28  38
BRANCH  34  48
ATOM     48  O   UNL     1      34.997 169.908 170.640  1.00  0.00    -0.507 OA
ATOM     49  H   UNL     1      35.315 169.073 171.114  1.00  0.00     0.293 HD
ENDBRANCH  34  48
BRANCH  37  50
ATOM     50  O   UNL     1      38.947 172.641 171.189  1.00  0.00    -0.508 OA
ATOM     51  H   UNL     1      39.528 172.307 170.426  1.00  0.00     0.293 HD
ENDBRANCH  37  50
ENDBRANCH  26  27
ENDBRANCH   5  26
BRANCH   4  52
ATOM     52  O   UNL     1      29.896 170.995 171.248  1.00  0.00    -0.384 OA
ATOM     53  H   UNL     1      30.802 171.262 171.552  1.00  0.00     0.211 HD
ENDBRANCH   4  52
TORSDOF 16
ENDMDL
MODEL 6
REMARK VINA RESULT:    -5.604      2.204      4.625
REMARK INTER + INTRA:         -10.987
REMARK INTER:                  -7.759
REMARK INTRA:                  -3.228
REMARK UNBOUND:                -1.779
REMARK SMILES C[C@H]1O[C@@H](OC[C@H]2O[C@@H](Oc3c(-c4ccc(O)c(O)c4)oc4cc(O)cc(O)c4c3=O)[C@H](O)[C@H](O)[C@@H]2O)[C@H](O)[C@@H](O)[C@H]1O
REMARK SMILES IDX 7 1 36 2 34 3 32 4 9 5 8 6 6 7 5 8 4 9 1 10 2 11 42 12 3 13
REMARK SMILES IDX 40 14 38 15 43 16 41 18 39 20 37 22 35 24 10 26 11 27 12 28
REMARK SMILES IDX 30 29 21 30 29 31 31 32 22 33 27 34 23 35 26 36 24 37 13 38
REMARK SMILES IDX 20 39 14 40 18 41 15 42 16 43 19 44 17 46 28 48 25 50 33 52
REMARK H PARENT 43 17 41 19 39 21 37 23 35 25 19 45 17 47 28 49 25 51 33 53
REMARK Flexibility Score: inf
ROOT
ATOM      1  C   UNL     1      34.385 171.621 170.766  1.00  0.00     0.180 C 
ATOM      2  C   UNL     1      35.815 171.389 171.294  1.00  0.00     0.177 C 
ATOM      3  C   UNL     1      36.484 172.740 171.613  1.00  0.00     0.180 C 
ATOM      4  C   UNL     1      35.569 173.635 172.482  1.00  0.00     0.214 C 
ATOM      5  C   UNL     1      34.094 173.587 171.963  1.00  0.00     0.339 C 
ATOM      6  O   UNL     1      33.628 172.266 171.764  1.00  0.00    -0.332 OA
ENDROOT
BRANCH   1   7
ATOM      7  C   UNL     1      33.682 170.312 170.415  1.00  0.00     0.198 C 
BRANCH   7   8
ATOM      8  O   UNL     1      32.359 170.615 170.003  1.00  0.00    -0.347 OA
BRANCH   8   9
ATOM      9  C   UNL     1      32.288 170.974 168.636  1.00  0.00     0.281 C 
ATOM     10  C   UNL     1      29.172 172.613 168.173  1.00  0.00     0.041 C 
ATOM     11  C   UNL     1      30.507 172.279 167.492  1.00  0.00     0.150 C 
ATOM     12  C   UNL     1      30.418 171.129 166.454  1.00  0.00     0.174 C 
ATOM     13  O   UNL     1      31.528 172.178 168.488  1.00  0.00    -0.344 OA
ATOM     14  C   UNL     1      30.603 169.755 167.091  1.00  0.00     0.179 C 
ATOM     15  C   UNL     1      31.973 169.717 167.767  1.00  0.00     0.202 C 
BRANCH  12  16
ATOM     16  O   UNL     1      29.249 171.200 165.676  1.00  0.00    -0.388 OA
ATOM     17  H   UNL     1      28.465 171.143 166.288  1.00  0.00     0.211 HD
ENDBRANCH  12  16
BRANCH  14  18
ATOM     18  O   UNL     1      29.593 169.449 168.021  1.00  0.00    -0.387 OA
ATOM     19  H   UNL     1      30.012 168.936 168.763  1.00  0.00     0.211 HD
ENDBRANCH  14  18
BRANCH  15  20
ATOM     20  O   UNL     1      32.949 169.574 166.765  1.00  0.00    -0.385 OA
ATOM     21  H   UNL     1      33.607 168.909 167.104  1.00  0.00     0.211 HD
ENDBRANCH  15  20
ENDBRANCH   8   9
ENDBRANCH   7   8
ENDBRANCH   1   7
BRANCH   2  22
ATOM     22  O   UNL     1      36.596 170.643 170.397  1.00  0.00    -0.387 OA
ATOM     23  H   UNL     1      37.469 171.097 170.279  1.00  0.00     0.211 HD
ENDBRANCH   2  22
BRANCH   3  24
ATOM     24  O   UNL     1      36.809 173.400 170.409  1.00  0.00    -0.387 OA
ATOM     25  H   UNL     1      36.104 173.181 169.740  1.00  0.00     0.211 HD
ENDBRANCH   3  24
BRANCH   5  26
ATOM     26  O   UNL     1      33.192 174.276 172.836  1.00  0.00    -0.454 OA
BRANCH  26  27
ATOM     27  C   UNL     1      32.369 175.399 172.582  1.00  0.00     0.214 A 
ATOM     28  C   UNL     1      30.991 175.167 172.362  1.00  0.00     0.180 A 
ATOM     29  C   UNL     1      32.841 176.728 172.470  1.00  0.00     0.239 A 
ATOM     30  O   UNL     1      30.218 176.137 171.890  1.00  0.00    -0.452 OA
ATOM     31  C   UNL     1      31.992 177.724 171.953  1.00  0.00     0.111 A 
ATOM     32  O   UNL     1      34.001 177.030 172.839  1.00  0.00    -0.285 OA
ATOM     33  C   UNL     1      30.656 177.365 171.648  1.00  0.00     0.146 A 
ATOM     34  C   UNL     1      32.422 179.052 171.694  1.00  0.00     0.134 A 
ATOM     35  C   UNL     1      29.780 178.306 171.112  1.00  0.00     0.094 A 
ATOM     36  C   UNL     1      31.525 179.974 171.138  1.00  0.00     0.093 A 
ATOM     37  C   UNL     1      30.213 179.602 170.842  1.00  0.00     0.123 A 
BRANCH  28  38
ATOM     38  C   UNL     1      30.344 173.865 172.671  1.00  0.00     0.025 A 
ATOM     39  C   UNL     1      30.296 172.859 171.693  1.00  0.00     0.062 A 
ATOM     40  C   UNL     1      29.647 173.672 173.880  1.00  0.00     0.016 A 
ATOM     41  C   UNL     1      29.586 171.670 171.929  1.00  0.00     0.158 A 
ATOM     42  C   UNL     1      28.955 172.480 174.120  1.00  0.00     0.051 A 
ATOM     43  C   UNL     1      28.914 171.481 173.149  1.00  0.00     0.157 A 
BRANCH  41  44
ATOM     44  O   UNL     1      29.532 170.681 170.946  1.00  0.00    -0.504 OA
ATOM     45  H   UNL     1      29.925 170.826 170.024  1.00  0.00     0.293 HD
ENDBRANCH  41  44
BRANCH  43  46
ATOM     46  O   UNL     1      28.197 170.315 173.402  1.00  0.00    -0.504 OA
ATOM     47  H   UNL     1      28.234 169.844 174.296  1.00  0.00     0.293 HD
ENDBRANCH  43  46
ENDBRANCH  28  38
BRANCH  34  48
ATOM     48  O   UNL     1      33.727 179.458 171.973  1.00  0.00    -0.507 OA
ATOM     49  H   UNL     1      34.100 180.333 171.630  1.00  0.00     0.293 HD
ENDBRANCH  34  48
BRANCH  37  50
ATOM     50  O   UNL     1      29.326 180.513 170.275  1.00  0.00    -0.508 OA
ATOM     51  H   UNL     1      29.176 181.436 170.672  1.00  0.00     0.293 HD
ENDBRANCH  37  50
ENDBRANCH  26  27
ENDBRANCH   5  26
BRANCH   4  52
ATOM     52  O   UNL     1      36.071 174.948 172.472  1.00  0.00    -0.384 OA
ATOM     53  H   UNL     1      35.330 175.569 172.247  1.00  0.00     0.211 HD
ENDBRANCH   4  52
TORSDOF 16
ENDMDL
MODEL 7
REMARK VINA RESULT:    -5.511      3.925      6.713
REMARK INTER + INTRA:         -10.833
REMARK INTER:                  -7.623
REMARK INTRA:                  -3.210
REMARK UNBOUND:                -1.779
REMARK SMILES C[C@H]1O[C@@H](OC[C@H]2O[C@@H](Oc3c(-c4ccc(O)c(O)c4)oc4cc(O)cc(O)c4c3=O)[C@H](O)[C@H](O)[C@@H]2O)[C@H](O)[C@@H](O)[C@H]1O
REMARK SMILES IDX 7 1 36 2 34 3 32 4 9 5 8 6 6 7 5 8 4 9 1 10 2 11 42 12 3 13
REMARK SMILES IDX 40 14 38 15 43 16 41 18 39 20 37 22 35 24 10 26 11 27 12 28
REMARK SMILES IDX 30 29 21 30 29 31 31 32 22 33 27 34 23 35 26 36 24 37 13 38
REMARK SMILES IDX 20 39 14 40 18 41 15 42 16 43 19 44 17 46 28 48 25 50 33 52
REMARK H PARENT 43 17 41 19 39 21 37 23 35 25 19 45 17 47 28 49 25 51 33 53
REMARK Flexibility Score: inf
ROOT
ATOM      1  C   UNL     1      31.832 170.377 165.736  1.00  0.00     0.180 C 
ATOM      2  C   UNL     1      31.935 169.063 166.536  1.00  0.00     0.177 C 
ATOM      3  C   UNL     1      31.784 169.350 168.042  1.00  0.00     0.180 C 
ATOM      4  C   UNL     1      30.546 170.232 168.330  1.00  0.00     0.214 C 
ATOM      5  C   UNL     1      30.441 171.396 167.290  1.00  0.00     0.339 C 
ATOM      6  O   UNL     1      30.561 170.946 165.954  1.00  0.00    -0.332 OA
ENDROOT
BRANCH   1   7
ATOM      7  C   UNL     1      31.994 170.152 164.235  1.00  0.00     0.198 C 
BRANCH   7   8
ATOM      8  O   UNL     1      30.820 170.614 163.586  1.00  0.00    -0.347 OA
BRANCH   8   9
ATOM      9  C   UNL     1      30.253 169.636 162.735  1.00  0.00     0.281 C 
ATOM     10  C   UNL     1      32.057 169.780 159.678  1.00  0.00     0.041 C 
ATOM     11  C   UNL     1      31.006 168.976 160.458  1.00  0.00     0.150 C 
ATOM     12  C   UNL     1      29.549 169.204 159.978  1.00  0.00     0.174 C 
ATOM     13  O   UNL     1      31.259 169.113 161.859  1.00  0.00    -0.344 OA
ATOM     14  C   UNL     1      28.889 170.395 160.667  1.00  0.00     0.179 C 
ATOM     15  C   UNL     1      28.887 170.140 162.174  1.00  0.00     0.202 C 
BRANCH  12  16
ATOM     16  O   UNL     1      29.454 169.281 158.578  1.00  0.00    -0.388 OA
ATOM     17  H   UNL     1      29.366 168.354 158.222  1.00  0.00     0.211 HD
ENDBRANCH  12  16
BRANCH  14  18
ATOM     18  O   UNL     1      29.533 171.611 160.379  1.00  0.00    -0.387 OA
ATOM     19  H   UNL     1      30.467 171.543 160.714  1.00  0.00     0.211 HD
ENDBRANCH  14  18
BRANCH  15  20
ATOM     20  O   UNL     1      27.882 169.199 162.456  1.00  0.00    -0.385 OA
ATOM     21  H   UNL     1      27.628 168.787 161.586  1.00  0.00     0.211 HD
ENDBRANCH  15  20
ENDBRANCH   8   9
ENDBRANCH   7   8
ENDBRANCH   1   7
BRANCH   2  22
ATOM     22  O   UNL     1      33.132 168.377 166.275  1.00  0.00    -0.387 OA
ATOM     23  H   UNL     1      33.621 168.250 167.128  1.00  0.00     0.211 HD
ENDBRANCH   2  22
BRANCH   3  24
ATOM     24  O   UNL     1      32.953 169.981 168.521  1.00  0.00    -0.387 OA
ATOM     25  H   UNL     1      32.869 170.071 169.509  1.00  0.00     0.211 HD
ENDBRANCH   3  24
BRANCH   5  26
ATOM     26  O   UNL     1      29.224 172.137 167.428  1.00  0.00    -0.454 OA
BRANCH  26  27
ATOM     27  C   UNL     1      29.016 173.454 167.901  1.00  0.00     0.214 A 
ATOM     28  C   UNL     1      28.801 174.470 166.940  1.00  0.00     0.180 A 
ATOM     29  C   UNL     1      29.074 173.835 169.263  1.00  0.00     0.239 A 
ATOM     30  O   UNL     1      28.836 175.747 167.299  1.00  0.00    -0.452 OA
ATOM     31  C   UNL     1      29.121 175.201 169.599  1.00  0.00     0.111 A 
ATOM     32  O   UNL     1      29.068 172.970 170.171  1.00  0.00    -0.285 OA
ATOM     33  C   UNL     1      29.019 176.148 168.550  1.00  0.00     0.146 A 
ATOM     34  C   UNL     1      29.302 175.665 170.929  1.00  0.00     0.134 A 
ATOM     35  C   UNL     1      29.084 177.511 168.825  1.00  0.00     0.094 A 
ATOM     36  C   UNL     1      29.382 177.043 171.175  1.00  0.00     0.093 A 
ATOM     37  C   UNL     1      29.281 177.961 170.129  1.00  0.00     0.123 A 
BRANCH  28  38
ATOM     38  C   UNL     1      28.498 174.167 165.516  1.00  0.00     0.025 A 
ATOM     39  C   UNL     1      29.544 173.870 164.628  1.00  0.00     0.062 A 
ATOM     40  C   UNL     1      27.194 174.317 165.007  1.00  0.00     0.016 A 
ATOM     41  C   UNL     1      29.285 173.699 163.258  1.00  0.00     0.158 A 
ATOM     42  C   UNL     1      26.936 174.128 163.644  1.00  0.00     0.051 A 
ATOM     43  C   UNL     1      27.975 173.828 162.766  1.00  0.00     0.157 A 
BRANCH  41  44
ATOM     44  O   UNL     1      30.332 173.416 162.379  1.00  0.00    -0.504 OA
ATOM     45  H   UNL     1      30.179 173.322 161.382  1.00  0.00     0.293 HD
ENDBRANCH  41  44
BRANCH  43  46
ATOM     46  O   UNL     1      27.697 173.671 161.411  1.00  0.00    -0.504 OA
ATOM     47  H   UNL     1      26.929 173.101 161.082  1.00  0.00     0.293 HD
ENDBRANCH  43  46
ENDBRANCH  28  38
BRANCH  34  48
ATOM     48  O   UNL     1      29.412 174.777 171.998  1.00  0.00    -0.507 OA
ATOM     49  H   UNL     1      28.657 174.636 172.656  1.00  0.00     0.293 HD
ENDBRANCH  34  48
BRANCH  37  50
ATOM     50  O   UNL     1      29.375 179.329 170.371  1.00  0.00    -0.508 OA
ATOM     51  H   UNL     1      30.106 179.722 170.957  1.00  0.00     0.293 HD
ENDBRANCH  37  50
ENDBRANCH  26  27
ENDBRANCH   5  26
BRANCH   4  52
ATOM     52  O   UNL     1      30.633 170.728 169.643  1.00  0.00    -0.384 OA
ATOM     53  H   UNL     1      29.815 170.460 170.138  1.00  0.00     0.211 HD
ENDBRANCH   4  52
TORSDOF 16
ENDMDL
MODEL 8
REMARK VINA RESULT:    -5.489      2.181      8.344
REMARK INTER + INTRA:         -10.797
REMARK INTER:                  -8.221
REMARK INTRA:                  -2.576
REMARK UNBOUND:                -1.779
REMARK SMILES C[C@H]1O[C@@H](OC[C@H]2O[C@@H](Oc3c(-c4ccc(O)c(O)c4)oc4cc(O)cc(O)c4c3=O)[C@H](O)[C@H](O)[C@@H]2O)[C@H](O)[C@@H](O)[C@H]1O
REMARK SMILES IDX 7 1 36 2 34 3 32 4 9 5 8 6 6 7 5 8 4 9 1 10 2 11 42 12 3 13
REMARK SMILES IDX 40 14 38 15 43 16 41 18 39 20 37 22 35 24 10 26 11 27 12 28
REMARK SMILES IDX 30 29 21 30 29 31 31 32 22 33 27 34 23 35 26 36 24 37 13 38
REMARK SMILES IDX 20 39 14 40 18 41 15 42 16 43 19 44 17 46 28 48 25 50 33 52
REMARK H PARENT 43 17 41 19 39 21 37 23 35 25 19 45 17 47 28 49 25 51 33 53
REMARK Flexibility Score: inf
ROOT
ATOM      1  C   UNL     1      30.233 175.291 171.369  1.00  0.00     0.180 C 
ATOM      2  C   UNL     1      29.630 176.709 171.429  1.00  0.00     0.177 C 
ATOM      3  C   UNL     1      29.487 177.281 170.005  1.00  0.00     0.180 C 
ATOM      4  C   UNL     1      28.786 176.277 169.059  1.00  0.00     0.214 C 
ATOM      5  C   UNL     1      29.340 174.831 169.277  1.00  0.00     0.339 C 
ATOM      6  O   UNL     1      29.363 174.455 170.641  1.00  0.00    -0.332 OA
ENDROOT
BRANCH   1   7
ATOM      7  C   UNL     1      30.414 174.684 172.758  1.00  0.00     0.198 C 
BRANCH   7   8
ATOM      8  O   UNL     1      31.161 173.485 172.626  1.00  0.00    -0.347 OA
BRANCH   8   9
ATOM      9  C   UNL     1      32.394 173.538 173.318  1.00  0.00     0.281 C 
ATOM     10  C   UNL     1      34.088 176.435 172.156  1.00  0.00     0.041 C 
ATOM     11  C   UNL     1      34.128 175.317 173.208  1.00  0.00     0.150 C 
ATOM     12  C   UNL     1      35.164 174.202 172.909  1.00  0.00     0.174 C 
ATOM     13  O   UNL     1      32.791 174.902 173.499  1.00  0.00    -0.344 OA
ATOM     14  C   UNL     1      34.593 173.101 172.020  1.00  0.00     0.179 C 
ATOM     15  C   UNL     1      33.386 172.488 172.727  1.00  0.00     0.202 C 
BRANCH  12  16
ATOM     16  O   UNL     1      36.373 174.717 172.408  1.00  0.00    -0.388 OA
ATOM     17  H   UNL     1      36.175 175.573 171.939  1.00  0.00     0.211 HD
ENDBRANCH  12  16
BRANCH  14  18
ATOM     18  O   UNL     1      34.226 173.571 170.746  1.00  0.00    -0.387 OA
ATOM     19  H   UNL     1      33.234 173.647 170.729  1.00  0.00     0.211 HD
ENDBRANCH  14  18
BRANCH  15  20
ATOM     20  O   UNL     1      33.860 171.652 173.753  1.00  0.00    -0.385 OA
ATOM     21  H   UNL     1      33.575 172.068 174.612  1.00  0.00     0.211 HD
ENDBRANCH  15  20
ENDBRANCH   8   9
ENDBRANCH   7   8
ENDBRANCH   1   7
BRANCH   2  22
ATOM     22  O   UNL     1      30.385 177.571 172.241  1.00  0.00    -0.387 OA
ATOM     23  H   UNL     1      31.000 177.029 172.798  1.00  0.00     0.211 HD
ENDBRANCH   2  22
BRANCH   3  24
ATOM     24  O   UNL     1      30.762 177.615 169.502  1.00  0.00    -0.387 OA
ATOM     25  H   UNL     1      31.275 178.054 170.235  1.00  0.00     0.211 HD
ENDBRANCH   3  24
BRANCH   5  26
ATOM     26  O   UNL     1      28.606 173.853 168.534  1.00  0.00    -0.454 OA
BRANCH  26  27
ATOM     27  C   UNL     1      28.821 173.365 167.223  1.00  0.00     0.214 A 
ATOM     28  C   UNL     1      29.829 172.390 167.042  1.00  0.00     0.180 A 
ATOM     29  C   UNL     1      28.140 173.832 166.073  1.00  0.00     0.239 A 
ATOM     30  O   UNL     1      30.238 172.071 165.820  1.00  0.00    -0.452 OA
ATOM     31  C   UNL     1      28.614 173.478 164.796  1.00  0.00     0.111 A 
ATOM     32  O   UNL     1      27.114 174.544 166.181  1.00  0.00    -0.285 OA
ATOM     33  C   UNL     1      29.711 172.586 164.718  1.00  0.00     0.146 A 
ATOM     34  C   UNL     1      28.066 174.001 163.594  1.00  0.00     0.134 A 
ATOM     35  C   UNL     1      30.234 172.222 163.480  1.00  0.00     0.094 A 
ATOM     36  C   UNL     1      28.623 173.631 162.362  1.00  0.00     0.093 A 
ATOM     37  C   UNL     1      29.705 172.753 162.305  1.00  0.00     0.123 A 
BRANCH  28  38
ATOM     38  C   UNL     1      30.450 171.666 168.182  1.00  0.00     0.025 A 
ATOM     39  C   UNL     1      31.847 171.649 168.323  1.00  0.00     0.062 A 
ATOM     40  C   UNL     1      29.669 170.872 169.045  1.00  0.00     0.016 A 
ATOM     41  C   UNL     1      32.451 170.872 169.326  1.00  0.00     0.158 A 
ATOM     42  C   UNL     1      30.272 170.113 170.055  1.00  0.00     0.051 A 
ATOM     43  C   UNL     1      31.659 170.103 170.194  1.00  0.00     0.157 A 
BRANCH  41  44
ATOM     44  O   UNL     1      33.841 170.850 169.450  1.00  0.00    -0.504 OA
ATOM     45  H   UNL     1      34.441 170.608 168.671  1.00  0.00     0.293 HD
ENDBRANCH  41  44
BRANCH  43  46
ATOM     46  O   UNL     1      32.237 169.319 171.190  1.00  0.00    -0.504 OA
ATOM     47  H   UNL     1      31.693 168.678 171.753  1.00  0.00     0.293 HD
ENDBRANCH  43  46
ENDBRANCH  28  38
BRANCH  34  48
ATOM     48  O   UNL     1      26.987 174.884 163.614  1.00  0.00    -0.507 OA
ATOM     49  H   UNL     1      26.030 174.558 163.614  1.00  0.00     0.293 HD
ENDBRANCH  34  48
BRANCH  37  50
ATOM     50  O   UNL     1      30.270 172.397 161.082  1.00  0.00    -0.508 OA
ATOM     51  H   UNL     1      29.700 172.181 160.270  1.00  0.00     0.293 HD
ENDBRANCH  37  50
ENDBRANCH  26  27
ENDBRANCH   5  26
BRANCH   4  52
ATOM     52  O   UNL     1      28.968 176.698 167.730  1.00  0.00    -0.384 OA
ATOM     53  H   UNL     1      28.144 177.162 167.429  1.00  0.00     0.211 HD
ENDBRANCH   4  52
TORSDOF 16
ENDMDL
MODEL 9
REMARK VINA RESULT:    -5.485      4.600      9.192
REMARK INTER + INTRA:         -10.792
REMARK INTER:                  -7.473
REMARK INTRA:                  -3.319
REMARK UNBOUND:                -1.779
REMARK SMILES C[C@H]1O[C@@H](OC[C@H]2O[C@@H](Oc3c(-c4ccc(O)c(O)c4)oc4cc(O)cc(O)c4c3=O)[C@H](O)[C@H](O)[C@@H]2O)[C@H](O)[C@@H](O)[C@H]1O
REMARK SMILES IDX 7 1 36 2 34 3 32 4 9 5 8 6 6 7 5 8 4 9 1 10 2 11 42 12 3 13
REMARK SMILES IDX 40 14 38 15 43 16 41 18 39 20 37 22 35 24 10 26 11 27 12 28
REMARK SMILES IDX 30 29 21 30 29 31 31 32 22 33 27 34 23 35 26 36 24 37 13 38
REMARK SMILES IDX 20 39 14 40 18 41 15 42 16 43 19 44 17 46 28 48 25 50 33 52
REMARK H PARENT 43 17 41 19 39 21 37 23 35 25 19 45 17 47 28 49 25 51 33 53
REMARK Flexibility Score: inf
ROOT
ATOM      1  C   UNL     1      29.536 169.613 169.730  1.00  0.00     0.180 C 
ATOM      2  C   UNL     1      30.579 169.882 170.834  1.00  0.00     0.177 C 
ATOM      3  C   UNL     1      31.996 169.882 170.231  1.00  0.00     0.180 C 
ATOM      4  C   UNL     1      32.079 170.782 168.977  1.00  0.00     0.214 C 
ATOM      5  C   UNL     1      30.831 170.570 168.058  1.00  0.00     0.339 C 
ATOM      6  O   UNL     1      29.611 170.643 168.771  1.00  0.00    -0.332 OA
ENDROOT
BRANCH   1   7
ATOM      7  C   UNL     1      28.112 169.584 170.277  1.00  0.00     0.198 C 
BRANCH   7   8
ATOM      8  O   UNL     1      28.121 170.164 171.572  1.00  0.00    -0.347 OA
BRANCH   8   9
ATOM      9  C   UNL     1      27.273 171.293 171.664  1.00  0.00     0.281 C 
ATOM     10  C   UNL     1      26.525 172.276 168.334  1.00  0.00     0.041 C 
ATOM     11  C   UNL     1      26.168 172.524 169.806  1.00  0.00     0.150 C 
ATOM     12  C   UNL     1      26.772 173.827 170.394  1.00  0.00     0.174 C 
ATOM     13  O   UNL     1      26.376 171.319 170.547  1.00  0.00    -0.344 OA
ATOM     14  C   UNL     1      28.175 173.616 170.955  1.00  0.00     0.179 C 
ATOM     15  C   UNL     1      28.101 172.557 172.054  1.00  0.00     0.202 C 
BRANCH  12  16
ATOM     16  O   UNL     1      26.719 174.898 169.485  1.00  0.00    -0.388 OA
ATOM     17  H   UNL     1      26.960 175.732 169.974  1.00  0.00     0.211 HD
ENDBRANCH  12  16
BRANCH  14  18
ATOM     18  O   UNL     1      29.100 173.231 169.968  1.00  0.00    -0.387 OA
ATOM     19  H   UNL     1      29.180 173.982 169.322  1.00  0.00     0.211 HD
ENDBRANCH  14  18
BRANCH  15  20
ATOM     20  O   UNL     1      27.546 173.154 173.199  1.00  0.00    -0.385 OA
ATOM     21  H   UNL     1      26.572 173.259 173.020  1.00  0.00     0.211 HD
ENDBRANCH  15  20
ENDBRANCH   8   9
ENDBRANCH   7   8
ENDBRANCH   1   7
BRANCH   2  22
ATOM     22  O   UNL     1      30.482 168.959 171.888  1.00  0.00    -0.387 OA
ATOM     23  H   UNL     1      31.346 168.936 172.373  1.00  0.00     0.211 HD
ENDBRANCH   2  22
BRANCH   3  24
ATOM     24  O   UNL     1      32.369 168.559 169.907  1.00  0.00    -0.387 OA
ATOM     25  H   UNL     1      32.664 168.549 168.956  1.00  0.00     0.211 HD
ENDBRANCH   3  24
BRANCH   5  26
ATOM     26  O   UNL     1      30.796 171.500 166.971  1.00  0.00    -0.454 OA
BRANCH  26  27
ATOM     27  C   UNL     1      30.899 171.267 165.579  1.00  0.00     0.214 A 
ATOM     28  C   UNL     1      30.009 171.964 164.729  1.00  0.00     0.180 A 
ATOM     29  C   UNL     1      31.787 170.338 164.986  1.00  0.00     0.239 A 
ATOM     30  O   UNL     1      29.894 171.617 163.453  1.00  0.00    -0.452 OA
ATOM     31  C   UNL     1      31.623 169.989 163.632  1.00  0.00     0.111 A 
ATOM     32  O   UNL     1      32.724 169.834 165.649  1.00  0.00    -0.285 OA
ATOM     33  C   UNL     1      30.619 170.659 162.890  1.00  0.00     0.146 A 
ATOM     34  C   UNL     1      32.389 168.979 162.994  1.00  0.00     0.134 A 
ATOM     35  C   UNL     1      30.399 170.336 161.554  1.00  0.00     0.094 A 
ATOM     36  C   UNL     1      32.136 168.661 161.652  1.00  0.00     0.093 A 
ATOM     37  C   UNL     1      31.141 169.331 160.938  1.00  0.00     0.123 A 
BRANCH  28  38
ATOM     38  C   UNL     1      29.195 173.116 165.200  1.00  0.00     0.025 A 
ATOM     39  C   UNL     1      29.638 173.886 166.287  1.00  0.00     0.062 A 
ATOM     40  C   UNL     1      27.913 173.360 164.670  1.00  0.00     0.016 A 
ATOM     41  C   UNL     1      28.825 174.901 166.817  1.00  0.00     0.158 A 
ATOM     42  C   UNL     1      27.112 174.384 165.188  1.00  0.00     0.051 A 
ATOM     43  C   UNL     1      27.558 175.151 166.263  1.00  0.00     0.157 A 
BRANCH  41  44
ATOM     44  O   UNL     1      29.267 175.654 167.906  1.00  0.00    -0.504 OA
ATOM     45  H   UNL     1      28.685 176.364 168.333  1.00  0.00     0.293 HD
ENDBRANCH  41  44
BRANCH  43  46
ATOM     46  O   UNL     1      26.731 176.146 166.778  1.00  0.00    -0.504 OA
ATOM     47  H   UNL     1      27.102 176.970 167.234  1.00  0.00     0.293 HD
ENDBRANCH  43  46
ENDBRANCH  28  38
BRANCH  34  48
ATOM     48  O   UNL     1      33.388 168.286 163.678  1.00  0.00    -0.507 OA
ATOM     49  H   UNL     1      34.302 168.689 163.841  1.00  0.00     0.293 HD
ENDBRANCH  34  48
BRANCH  37  50
ATOM     50  O   UNL     1      30.877 169.005 159.610  1.00  0.00    -0.508 OA
ATOM     51  H   UNL     1      29.981 169.203 159.176  1.00  0.00     0.293 HD
ENDBRANCH  37  50
ENDBRANCH  26  27
ENDBRANCH   5  26
BRANCH   4  52
ATOM     52  O   UNL     1      33.273 170.500 168.289  1.00  0.00    -0.384 OA
ATOM     53  H   UNL     1      33.740 169.758 168.756  1.00  0.00     0.211 HD
ENDBRANCH   4  52
TORSDOF 16
ENDMDL
