MODEL 1
REMARK VINA RESULT:    -3.429      0.000      0.000
REMARK INTER + INTRA:          -9.026
REMARK INTER:                  -6.435
REMARK INTRA:                  -2.590
REMARK UNBOUND:                -2.590
REMARK SMILES CCCCCCCCC=CCCCCCCCC(=O)[O-]
REMARK SMILES IDX 10 1 9 2 11 3 12 4 13 5 14 6 15 7 16 8 17 9 18 10 19 11
REMARK SMILES IDX 20 12 8 13 7 14 6 15 5 16 4 17 3 18 2 19 1 20
REMARK H PARENT
REMARK Flexibility Score: inf
ROOT
ATOM      1  C   UNL     1      12.373  43.614  69.023  1.00  0.00    -0.031 C 
ATOM      2  C   UNL     1      13.343  43.511  68.096  1.00  0.00    -0.031 C 
ENDROOT
BRANCH   1   3
ATOM      3  C   UNL     1      12.290  42.778  70.281  1.00  0.00     0.027 C 
BRANCH   3   4
ATOM      4  C   UNL     1      11.274  41.636  70.129  1.00  0.00     0.004 C 
BRANCH   4   5
ATOM      5  C   UNL     1      11.943  40.318  69.701  1.00  0.00     0.000 C 
BRANCH   5   6
ATOM      6  C   UNL     1      11.500  39.857  68.305  1.00  0.00     0.000 C 
BRANCH   6   7
ATOM      7  C   UNL     1      12.233  38.587  67.838  1.00  0.00     0.000 C 
BRANCH   7   8
ATOM      8  C   UNL     1      12.673  38.669  66.370  1.00  0.00     0.006 C 
BRANCH   8   9
ATOM      9  C   UNL     1      14.093  38.137  66.157  1.00  0.00     0.053 C 
BRANCH   9  10
ATOM     10  C   UNL     1      14.059  36.863  65.375  1.00  0.00     0.041 C 
ATOM     11  O   UNL     1      13.723  35.786  65.933  1.00  0.00    -0.550 OA
ATOM     12  O   UNL     1      14.371  36.870  64.022  1.00  0.00    -0.550 OA
ENDBRANCH   9  10
ENDBRANCH   8   9
ENDBRANCH   7   8
ENDBRANCH   6   7
ENDBRANCH   5   6
ENDBRANCH   4   5
ENDBRANCH   3   4
ENDBRANCH   1   3
BRANCH   2  13
ATOM     13  C   UNL     1      14.506  42.555  68.207  1.00  0.00     0.027 C 
BRANCH  13  14
ATOM     14  C   UNL     1      14.655  41.656  66.970  1.00  0.00     0.004 C 
BRANCH  14  15
ATOM     15  C   UNL     1      13.823  42.098  65.747  1.00  0.00     0.000 C 
BRANCH  15  16
ATOM     16  C   UNL     1      14.622  42.276  64.446  1.00  0.00     0.000 C 
BRANCH  16  17
ATOM     17  C   UNL     1      14.841  43.753  64.074  1.00  0.00    -0.000 C 
BRANCH  17  18
ATOM     18  C   UNL     1      16.028  44.384  64.818  1.00  0.00    -0.000 C 
BRANCH  18  19
ATOM     19  C   UNL     1      15.603  45.509  65.772  1.00  0.00    -0.003 C 
ATOM     20  C   UNL     1      14.193  45.995  65.452  1.00  0.00     0.004 C 
ENDBRANCH  18  19
ENDBRANCH  17  18
ENDBRANCH  16  17
ENDBRANCH  15  16
ENDBRANCH  14  15
ENDBRANCH  13  14
ENDBRANCH   2  13
TORSDOF 15
ENDMDL
MODEL 2
REMARK VINA RESULT:    -3.313      1.837      3.312
REMARK INTER + INTRA:          -8.809
REMARK INTER:                  -5.523
REMARK INTRA:                  -3.287
REMARK UNBOUND:                -2.590
REMARK SMILES CCCCCCCCC=CCCCCCCCC(=O)[O-]
REMARK SMILES IDX 10 1 9 2 11 3 12 4 13 5 14 6 15 7 16 8 17 9 18 10 19 11
REMARK SMILES IDX 20 12 8 13 7 14 6 15 5 16 4 17 3 18 2 19 1 20
REMARK H PARENT
REMARK Flexibility Score: inf
ROOT
ATOM      1  C   UNL     1      10.999  44.216  66.861  1.00  0.00    -0.031 C 
ATOM      2  C   UNL     1      12.014  44.649  66.091  1.00  0.00    -0.031 C 
ENDROOT
BRANCH   1   3
ATOM      3  C   UNL     1      10.756  44.647  68.291  1.00  0.00     0.027 C 
BRANCH   3   4
ATOM      4  C   UNL     1      11.052  43.509  69.278  1.00  0.00     0.004 C 
BRANCH   4   5
ATOM      5  C   UNL     1      12.548  43.420  69.628  1.00  0.00     0.000 C 
BRANCH   5   6
ATOM      6  C   UNL     1      13.237  42.214  68.975  1.00  0.00     0.000 C 
BRANCH   6   7
ATOM      7  C   UNL     1      14.428  42.619  68.088  1.00  0.00     0.000 C 
BRANCH   7   8
ATOM      8  C   UNL     1      14.526  41.769  66.814  1.00  0.00     0.006 C 
BRANCH   8   9
ATOM      9  C   UNL     1      13.191  41.116  66.443  1.00  0.00     0.053 C 
BRANCH   9  10
ATOM     10  C   UNL     1      13.424  39.808  65.758  1.00  0.00     0.041 C 
ATOM     11  O   UNL     1      14.071  38.896  66.338  1.00  0.00    -0.550 OA
ATOM     12  O   UNL     1      12.901  39.584  64.492  1.00  0.00    -0.550 OA
ENDBRANCH   9  10
ENDBRANCH   8   9
ENDBRANCH   7   8
ENDBRANCH   6   7
ENDBRANCH   5   6
ENDBRANCH   4   5
ENDBRANCH   3   4
ENDBRANCH   1   3
BRANCH   2  13
ATOM     13  C   UNL     1      13.040  45.657  66.550  1.00  0.00     0.027 C 
BRANCH  13  14
ATOM     14  C   UNL     1      14.073  45.989  65.463  1.00  0.00     0.004 C 
BRANCH  14  15
ATOM     15  C   UNL     1      15.505  45.498  65.762  1.00  0.00     0.000 C 
BRANCH  15  16
ATOM     16  C   UNL     1      16.031  44.409  64.813  1.00  0.00     0.000 C 
BRANCH  16  17
ATOM     17  C   UNL     1      15.231  44.319  63.501  1.00  0.00    -0.000 C 
BRANCH  17  18
ATOM     18  C   UNL     1      14.716  42.900  63.217  1.00  0.00    -0.000 C 
BRANCH  18  19
ATOM     19  C   UNL     1      13.185  42.832  63.111  1.00  0.00    -0.003 C 
ATOM     20  C   UNL     1      12.623  44.104  62.484  1.00  0.00     0.004 C 
ENDBRANCH  18  19
ENDBRANCH  17  18
ENDBRANCH  16  17
ENDBRANCH  15  16
ENDBRANCH  14  15
ENDBRANCH  13  14
ENDBRANCH   2  13
TORSDOF 15
ENDMDL
MODEL 3
REMARK VINA RESULT:    -3.266      2.443      5.626
REMARK INTER + INTRA:          -8.720
REMARK INTER:                  -6.163
REMARK INTRA:                  -2.556
REMARK UNBOUND:                -2.590
REMARK SMILES CCCCCCCCC=CCCCCCCCC(=O)[O-]
REMARK SMILES IDX 10 1 9 2 11 3 12 4 13 5 14 6 15 7 16 8 17 9 18 10 19 11
REMARK SMILES IDX 20 12 8 13 7 14 6 15 5 16 4 17 3 18 2 19 1 20
REMARK H PARENT
REMARK Flexibility Score: inf
ROOT
ATOM      1  C   UNL     1      12.247  46.238  68.162  1.00  0.00    -0.031 C 
ATOM      2  C   UNL     1      12.215  45.649  69.371  1.00  0.00    -0.031 C 
ENDROOT
BRANCH   1   3
ATOM      3  C   UNL     1      11.656  45.649  66.899  1.00  0.00     0.027 C 
BRANCH   3   4
ATOM      4  C   UNL     1      12.722  44.920  66.068  1.00  0.00     0.004 C 
BRANCH   4   5
ATOM      5  C   UNL     1      13.985  45.775  65.868  1.00  0.00     0.000 C 
BRANCH   5   6
ATOM      6  C   UNL     1      15.277  44.994  66.146  1.00  0.00     0.000 C 
BRANCH   6   7
ATOM      7  C   UNL     1      16.201  44.915  64.917  1.00  0.00     0.000 C 
BRANCH   7   8
ATOM      8  C   UNL     1      15.439  44.566  63.632  1.00  0.00     0.006 C 
BRANCH   8   9
ATOM      9  C   UNL     1      15.084  43.079  63.551  1.00  0.00     0.053 C 
BRANCH   9  10
ATOM     10  C   UNL     1      14.095  42.839  62.456  1.00  0.00     0.041 C 
ATOM     11  O   UNL     1      14.100  43.566  61.428  1.00  0.00    -0.550 OA
ATOM     12  O   UNL     1      13.186  41.794  62.557  1.00  0.00    -0.550 OA
ENDBRANCH   9  10
ENDBRANCH   8   9
ENDBRANCH   7   8
ENDBRANCH   6   7
ENDBRANCH   5   6
ENDBRANCH   4   5
ENDBRANCH   3   4
ENDBRANCH   1   3
BRANCH   2  13
ATOM     13  C   UNL     1      11.551  44.319  69.635  1.00  0.00     0.027 C 
BRANCH  13  14
ATOM     14  C   UNL     1      12.560  43.203  69.946  1.00  0.00     0.004 C 
BRANCH  14  15
ATOM     15  C   UNL     1      12.838  42.239  68.773  1.00  0.00     0.000 C 
BRANCH  15  16
ATOM     16  C   UNL     1      14.275  42.275  68.228  1.00  0.00     0.000 C 
BRANCH  16  17
ATOM     17  C   UNL     1      14.423  41.551  66.877  1.00  0.00    -0.000 C 
BRANCH  17  18
ATOM     18  C   UNL     1      13.076  41.337  66.168  1.00  0.00    -0.000 C 
BRANCH  18  19
ATOM     19  C   UNL     1      12.931  39.927  65.579  1.00  0.00    -0.003 C 
ATOM     20  C   UNL     1      13.936  38.965  66.206  1.00  0.00     0.004 C 
ENDBRANCH  18  19
ENDBRANCH  17  18
ENDBRANCH  16  17
ENDBRANCH  15  16
ENDBRANCH  14  15
ENDBRANCH  13  14
ENDBRANCH   2  13
TORSDOF 15
ENDMDL
MODEL 4
REMARK VINA RESULT:    -3.244      3.366      6.391
REMARK INTER + INTRA:          -8.678
REMARK INTER:                  -5.715
REMARK INTRA:                  -2.963
REMARK UNBOUND:                -2.590
REMARK SMILES CCCCCCCCC=CCCCCCCCC(=O)[O-]
REMARK SMILES IDX 10 1 9 2 11 3 12 4 13 5 14 6 15 7 16 8 17 9 18 10 19 11
REMARK SMILES IDX 20 12 8 13 7 14 6 15 5 16 4 17 3 18 2 19 1 20
REMARK H PARENT
REMARK Flexibility Score: inf
ROOT
ATOM      1  C   UNL     1      14.741  43.256  65.880  1.00  0.00    -0.031 C 
ATOM      2  C   UNL     1      14.418  42.264  66.729  1.00  0.00    -0.031 C 
ENDROOT
BRANCH   1   3
ATOM      3  C   UNL     1      15.170  44.645  66.299  1.00  0.00     0.027 C 
BRANCH   3   4
ATOM      4  C   UNL     1      16.271  45.194  65.379  1.00  0.00     0.004 C 
BRANCH   4   5
ATOM      5  C   UNL     1      15.775  46.365  64.514  1.00  0.00     0.000 C 
BRANCH   5   6
ATOM      6  C   UNL     1      14.406  46.895  64.966  1.00  0.00     0.000 C 
BRANCH   6   7
ATOM      7  C   UNL     1      13.357  46.866  63.841  1.00  0.00     0.000 C 
BRANCH   7   8
ATOM      8  C   UNL     1      13.055  45.442  63.355  1.00  0.00     0.006 C 
BRANCH   8   9
ATOM      9  C   UNL     1      13.168  45.308  61.835  1.00  0.00     0.053 C 
BRANCH   9  10
ATOM     10  C   UNL     1      14.372  44.499  61.472  1.00  0.00     0.041 C 
ATOM     11  O   UNL     1      14.968  43.822  62.351  1.00  0.00    -0.550 OA
ATOM     12  O   UNL     1      14.819  44.468  60.158  1.00  0.00    -0.550 OA
ENDBRANCH   9  10
ENDBRANCH   8   9
ENDBRANCH   7   8
ENDBRANCH   6   7
ENDBRANCH   5   6
ENDBRANCH   4   5
ENDBRANCH   3   4
ENDBRANCH   1   3
BRANCH   2  13
ATOM     13  C   UNL     1      14.471  42.401  68.232  1.00  0.00     0.027 C 
BRANCH  13  14
ATOM     14  C   UNL     1      13.085  42.289  68.887  1.00  0.00     0.004 C 
BRANCH  14  15
ATOM     15  C   UNL     1      12.103  41.345  68.161  1.00  0.00     0.000 C 
BRANCH  15  16
ATOM     16  C   UNL     1      10.893  42.038  67.514  1.00  0.00     0.000 C 
BRANCH  16  17
ATOM     17  C   UNL     1      10.837  43.547  67.810  1.00  0.00    -0.000 C 
BRANCH  17  18
ATOM     18  C   UNL     1      11.228  44.406  66.597  1.00  0.00    -0.000 C 
BRANCH  18  19
ATOM     19  C   UNL     1      11.610  45.842  66.983  1.00  0.00    -0.003 C 
ATOM     20  C   UNL     1      12.383  45.870  68.297  1.00  0.00     0.004 C 
ENDBRANCH  18  19
ENDBRANCH  17  18
ENDBRANCH  16  17
ENDBRANCH  15  16
ENDBRANCH  14  15
ENDBRANCH  13  14
ENDBRANCH   2  13
TORSDOF 15
ENDMDL
MODEL 5
REMARK VINA RESULT:    -3.225      1.563      2.477
REMARK INTER + INTRA:          -8.642
REMARK INTER:                  -5.611
REMARK INTRA:                  -3.031
REMARK UNBOUND:                -2.590
REMARK SMILES CCCCCCCCC=CCCCCCCCC(=O)[O-]
REMARK SMILES IDX 10 1 9 2 11 3 12 4 13 5 14 6 15 7 16 8 17 9 18 10 19 11
REMARK SMILES IDX 20 12 8 13 7 14 6 15 5 16 4 17 3 18 2 19 1 20
REMARK H PARENT
REMARK Flexibility Score: inf
ROOT
ATOM      1  C   UNL     1      11.835  43.894  66.725  1.00  0.00    -0.031 C 
ATOM      2  C   UNL     1      11.479  43.767  65.434  1.00  0.00    -0.031 C 
ENDROOT
BRANCH   1   3
ATOM      3  C   UNL     1      13.224  44.252  67.206  1.00  0.00     0.027 C 
BRANCH   3   4
ATOM      4  C   UNL     1      13.831  43.126  68.056  1.00  0.00     0.004 C 
BRANCH   4   5
ATOM      5  C   UNL     1      14.213  41.901  67.208  1.00  0.00     0.000 C 
BRANCH   5   6
ATOM      6  C   UNL     1      13.334  40.678  67.506  1.00  0.00     0.000 C 
BRANCH   6   7
ATOM      7  C   UNL     1      12.535  40.207  66.279  1.00  0.00     0.000 C 
BRANCH   7   8
ATOM      8  C   UNL     1      13.364  39.315  65.345  1.00  0.00     0.006 C 
BRANCH   8   9
ATOM      9  C   UNL     1      14.231  38.315  66.113  1.00  0.00     0.053 C 
BRANCH   9  10
ATOM     10  C   UNL     1      14.242  36.992  65.415  1.00  0.00     0.041 C 
ATOM     11  O   UNL     1      14.132  35.927  66.077  1.00  0.00    -0.550 OA
ATOM     12  O   UNL     1      14.345  36.937  64.031  1.00  0.00    -0.550 OA
ENDBRANCH   9  10
ENDBRANCH   8   9
ENDBRANCH   7   8
ENDBRANCH   6   7
ENDBRANCH   5   6
ENDBRANCH   4   5
ENDBRANCH   3   4
ENDBRANCH   1   3
BRANCH   2  13
ATOM     13  C   UNL     1      12.425  43.997  64.280  1.00  0.00     0.027 C 
BRANCH  13  14
ATOM     14  C   UNL     1      12.982  42.688  63.699  1.00  0.00     0.004 C 
BRANCH  14  15
ATOM     15  C   UNL     1      14.522  42.612  63.641  1.00  0.00     0.000 C 
BRANCH  15  16
ATOM     16  C   UNL     1      15.241  43.971  63.632  1.00  0.00     0.000 C 
BRANCH  16  17
ATOM     17  C   UNL     1      16.038  44.236  64.921  1.00  0.00    -0.000 C 
BRANCH  17  18
ATOM     18  C   UNL     1      15.963  45.703  65.374  1.00  0.00    -0.000 C 
BRANCH  18  19
ATOM     19  C   UNL     1      15.164  46.585  64.403  1.00  0.00    -0.003 C 
ATOM     20  C   UNL     1      13.989  47.252  65.109  1.00  0.00     0.004 C 
ENDBRANCH  18  19
ENDBRANCH  17  18
ENDBRANCH  16  17
ENDBRANCH  15  16
ENDBRANCH  14  15
ENDBRANCH  13  14
ENDBRANCH   2  13
TORSDOF 15
ENDMDL
MODEL 6
REMARK VINA RESULT:    -3.218      2.710      5.801
REMARK INTER + INTRA:          -8.630
REMARK INTER:                  -5.629
REMARK INTRA:                  -3.001
REMARK UNBOUND:                -2.590
REMARK SMILES CCCCCCCCC=CCCCCCCCC(=O)[O-]
REMARK SMILES IDX 10 1 9 2 11 3 12 4 13 5 14 6 15 7 16 8 17 9 18 10 19 11
REMARK SMILES IDX 20 12 8 13 7 14 6 15 5 16 4 17 3 18 2 19 1 20
REMARK H PARENT
REMARK Flexibility Score: inf
ROOT
ATOM      1  C   UNL     1      10.735  43.649  65.926  1.00  0.00    -0.031 C 
ATOM      2  C   UNL     1      11.006  42.340  66.078  1.00  0.00    -0.031 C 
ENDROOT
BRANCH   1   3
ATOM      3  C   UNL     1      11.602  44.627  65.164  1.00  0.00     0.027 C 
BRANCH   3   4
ATOM      4  C   UNL     1      12.652  45.277  66.077  1.00  0.00     0.004 C 
BRANCH   4   5
ATOM      5  C   UNL     1      13.190  46.595  65.495  1.00  0.00     0.000 C 
BRANCH   5   6
ATOM      6  C   UNL     1      14.695  46.540  65.197  1.00  0.00     0.000 C 
BRANCH   6   7
ATOM      7  C   UNL     1      15.371  45.287  65.783  1.00  0.00     0.000 C 
BRANCH   7   8
ATOM      8  C   UNL     1      15.933  44.361  64.697  1.00  0.00     0.006 C 
BRANCH   8   9
ATOM      9  C   UNL     1      15.261  44.580  63.339  1.00  0.00     0.053 C 
BRANCH   9  10
ATOM     10  C   UNL     1      14.439  43.388  62.967  1.00  0.00     0.041 C 
ATOM     11  O   UNL     1      13.350  43.538  62.351  1.00  0.00    -0.550 OA
ATOM     12  O   UNL     1      14.888  42.111  63.273  1.00  0.00    -0.550 OA
ENDBRANCH   9  10
ENDBRANCH   8   9
ENDBRANCH   7   8
ENDBRANCH   6   7
ENDBRANCH   5   6
ENDBRANCH   4   5
ENDBRANCH   3   4
ENDBRANCH   1   3
BRANCH   2  13
ATOM     13  C   UNL     1      12.212  41.662  65.475  1.00  0.00     0.027 C 
BRANCH  13  14
ATOM     14  C   UNL     1      13.134  41.038  66.534  1.00  0.00     0.004 C 
BRANCH  14  15
ATOM     15  C   UNL     1      14.346  41.909  66.928  1.00  0.00     0.000 C 
BRANCH  15  16
ATOM     16  C   UNL     1      14.173  42.717  68.225  1.00  0.00     0.000 C 
BRANCH  16  17
ATOM     17  C   UNL     1      13.047  42.175  69.123  1.00  0.00    -0.000 C 
BRANCH  17  18
ATOM     18  C   UNL     1      12.519  43.226  70.112  1.00  0.00    -0.000 C 
BRANCH  18  19
ATOM     19  C   UNL     1      11.567  44.236  69.455  1.00  0.00    -0.003 C 
ATOM     20  C   UNL     1      12.053  45.665  69.669  1.00  0.00     0.004 C 
ENDBRANCH  18  19
ENDBRANCH  17  18
ENDBRANCH  16  17
ENDBRANCH  15  16
ENDBRANCH  14  15
ENDBRANCH  13  14
ENDBRANCH   2  13
TORSDOF 15
ENDMDL
MODEL 7
REMARK VINA RESULT:    -3.216      4.279      6.543
REMARK INTER + INTRA:          -8.626
REMARK INTER:                  -5.652
REMARK INTRA:                  -2.973
REMARK UNBOUND:                -2.590
REMARK SMILES CCCCCCCCC=CCCCCCCCC(=O)[O-]
REMARK SMILES IDX 10 1 9 2 11 3 12 4 13 5 14 6 15 7 16 8 17 9 18 10 19 11
REMARK SMILES IDX 20 12 8 13 7 14 6 15 5 16 4 17 3 18 2 19 1 20
REMARK H PARENT
REMARK Flexibility Score: inf
ROOT
ATOM      1  C   UNL     1      13.003  41.894  68.824  1.00  0.00    -0.031 C 
ATOM      2  C   UNL     1      12.249  42.760  69.524  1.00  0.00    -0.031 C 
ENDROOT
BRANCH   1   3
ATOM      3  C   UNL     1      14.275  42.254  68.089  1.00  0.00     0.027 C 
BRANCH   3   4
ATOM      4  C   UNL     1      14.164  41.947  66.588  1.00  0.00     0.004 C 
BRANCH   4   5
ATOM      5  C   UNL     1      14.872  43.005  65.725  1.00  0.00     0.000 C 
BRANCH   5   6
ATOM      6  C   UNL     1      15.104  44.323  66.477  1.00  0.00     0.000 C 
BRANCH   6   7
ATOM      7  C   UNL     1      15.922  45.338  65.660  1.00  0.00     0.000 C 
BRANCH   7   8
ATOM      8  C   UNL     1      15.623  45.258  64.157  1.00  0.00     0.006 C 
BRANCH   8   9
ATOM      9  C   UNL     1      14.373  46.051  63.769  1.00  0.00     0.053 C 
BRANCH   9  10
ATOM     10  C   UNL     1      14.743  47.227  62.923  1.00  0.00     0.041 C 
ATOM     11  O   UNL     1      15.627  48.035  63.315  1.00  0.00    -0.550 OA
ATOM     12  O   UNL     1      14.135  47.416  61.689  1.00  0.00    -0.550 OA
ENDBRANCH   9  10
ENDBRANCH   8   9
ENDBRANCH   7   8
ENDBRANCH   6   7
ENDBRANCH   5   6
ENDBRANCH   4   5
ENDBRANCH   3   4
ENDBRANCH   1   3
BRANCH   2  13
ATOM     13  C   UNL     1      12.595  44.220  69.695  1.00  0.00     0.027 C 
BRANCH  13  14
ATOM     14  C   UNL     1      11.569  45.154  69.034  1.00  0.00     0.004 C 
BRANCH  14  15
ATOM     15  C   UNL     1      12.137  46.040  67.905  1.00  0.00     0.000 C 
BRANCH  15  16
ATOM     16  C   UNL     1      11.841  45.546  66.480  1.00  0.00     0.000 C 
BRANCH  16  17
ATOM     17  C   UNL     1      10.767  44.444  66.438  1.00  0.00    -0.000 C 
BRANCH  17  18
ATOM     18  C   UNL     1      11.084  43.345  65.412  1.00  0.00    -0.000 C 
BRANCH  18  19
ATOM     19  C   UNL     1      11.365  43.903  64.010  1.00  0.00    -0.003 C 
ATOM     20  C   UNL     1      12.240  42.948  63.204  1.00  0.00     0.004 C 
ENDBRANCH  18  19
ENDBRANCH  17  18
ENDBRANCH  16  17
ENDBRANCH  15  16
ENDBRANCH  14  15
ENDBRANCH  13  14
ENDBRANCH   2  13
TORSDOF 15
ENDMDL
MODEL 8
REMARK VINA RESULT:    -3.204      1.792      3.692
REMARK INTER + INTRA:          -8.605
REMARK INTER:                  -5.687
REMARK INTRA:                  -2.917
REMARK UNBOUND:                -2.590
REMARK SMILES CCCCCCCCC=CCCCCCCCC(=O)[O-]
REMARK SMILES IDX 10 1 9 2 11 3 12 4 13 5 14 6 15 7 16 8 17 9 18 10 19 11
REMARK SMILES IDX 20 12 8 13 7 14 6 15 5 16 4 17 3 18 2 19 1 20
REMARK H PARENT
REMARK Flexibility Score: inf
ROOT
ATOM      1  C   UNL     1      14.940  43.227  65.751  1.00  0.00    -0.031 C 
ATOM      2  C   UNL     1      15.642  43.942  64.853  1.00  0.00    -0.031 C 
ENDROOT
BRANCH   1   3
ATOM      3  C   UNL     1      14.470  43.748  67.091  1.00  0.00     0.027 C 
BRANCH   3   4
ATOM      4  C   UNL     1      14.495  42.647  68.162  1.00  0.00     0.004 C 
BRANCH   4   5
ATOM      5  C   UNL     1      13.139  42.498  68.873  1.00  0.00     0.000 C 
BRANCH   5   6
ATOM      6  C   UNL     1      11.993  42.184  67.901  1.00  0.00     0.000 C 
BRANCH   6   7
ATOM      7  C   UNL     1      11.888  40.685  67.570  1.00  0.00     0.000 C 
BRANCH   7   8
ATOM      8  C   UNL     1      12.362  40.364  66.146  1.00  0.00     0.006 C 
BRANCH   8   9
ATOM      9  C   UNL     1      13.762  39.744  66.124  1.00  0.00     0.053 C 
BRANCH   9  10
ATOM     10  C   UNL     1      13.670  38.255  66.017  1.00  0.00     0.041 C 
ATOM     11  O   UNL     1      12.573  37.708  65.729  1.00  0.00    -0.550 OA
ATOM     12  O   UNL     1      14.802  37.474  66.208  1.00  0.00    -0.550 OA
ENDBRANCH   9  10
ENDBRANCH   8   9
ENDBRANCH   7   8
ENDBRANCH   6   7
ENDBRANCH   5   6
ENDBRANCH   4   5
ENDBRANCH   3   4
ENDBRANCH   1   3
BRANCH   2  13
ATOM     13  C   UNL     1      16.032  45.386  65.056  1.00  0.00     0.027 C 
BRANCH  13  14
ATOM     14  C   UNL     1      15.362  46.330  64.047  1.00  0.00     0.004 C 
BRANCH  14  15
ATOM     15  C   UNL     1      14.439  47.396  64.675  1.00  0.00     0.000 C 
BRANCH  15  16
ATOM     16  C   UNL     1      13.292  46.840  65.533  1.00  0.00     0.000 C 
BRANCH  16  17
ATOM     17  C   UNL     1      12.157  46.226  64.692  1.00  0.00    -0.000 C 
BRANCH  17  18
ATOM     18  C   UNL     1      11.580  44.947  65.318  1.00  0.00    -0.000 C 
BRANCH  18  19
ATOM     19  C   UNL     1      11.597  43.753  64.354  1.00  0.00    -0.003 C 
ATOM     20  C   UNL     1      12.395  44.077  63.095  1.00  0.00     0.004 C 
ENDBRANCH  18  19
ENDBRANCH  17  18
ENDBRANCH  16  17
ENDBRANCH  15  16
ENDBRANCH  14  15
ENDBRANCH  13  14
ENDBRANCH   2  13
TORSDOF 15
ENDMDL
MODEL 9
REMARK VINA RESULT:    -3.187      1.380      2.067
REMARK INTER + INTRA:          -8.572
REMARK INTER:                  -5.794
REMARK INTRA:                  -2.778
REMARK UNBOUND:                -2.590
REMARK SMILES CCCCCCCCC=CCCCCCCCC(=O)[O-]
REMARK SMILES IDX 10 1 9 2 11 3 12 4 13 5 14 6 15 7 16 8 17 9 18 10 19 11
REMARK SMILES IDX 20 12 8 13 7 14 6 15 5 16 4 17 3 18 2 19 1 20
REMARK H PARENT
REMARK Flexibility Score: inf
ROOT
ATOM      1  C   UNL     1      14.123  42.573  68.250  1.00  0.00    -0.031 C 
ATOM      2  C   UNL     1      14.176  43.653  67.451  1.00  0.00    -0.031 C 
ENDROOT
BRANCH   1   3
ATOM      3  C   UNL     1      13.050  42.316  69.285  1.00  0.00     0.027 C 
BRANCH   3   4
ATOM      4  C   UNL     1      12.276  41.024  68.983  1.00  0.00     0.004 C 
BRANCH   4   5
ATOM      5  C   UNL     1      11.321  41.187  67.788  1.00  0.00     0.000 C 
BRANCH   5   6
ATOM      6  C   UNL     1      11.468  40.060  66.756  1.00  0.00     0.000 C 
BRANCH   6   7
ATOM      7  C   UNL     1      12.660  40.276  65.807  1.00  0.00     0.000 C 
BRANCH   7   8
ATOM      8  C   UNL     1      13.863  39.392  66.164  1.00  0.00     0.006 C 
BRANCH   8   9
ATOM      9  C   UNL     1      13.440  38.027  66.715  1.00  0.00     0.053 C 
BRANCH   9  10
ATOM     10  C   UNL     1      14.331  36.952  66.181  1.00  0.00     0.041 C 
ATOM     11  O   UNL     1      14.471  36.805  64.938  1.00  0.00    -0.550 OA
ATOM     12  O   UNL     1      15.031  36.131  67.055  1.00  0.00    -0.550 OA
ENDBRANCH   9  10
ENDBRANCH   8   9
ENDBRANCH   7   8
ENDBRANCH   6   7
ENDBRANCH   5   6
ENDBRANCH   4   5
ENDBRANCH   3   4
ENDBRANCH   1   3
BRANCH   2  13
ATOM     13  C   UNL     1      13.140  44.751  67.462  1.00  0.00     0.027 C 
BRANCH  13  14
ATOM     14  C   UNL     1      12.571  45.045  66.065  1.00  0.00     0.004 C 
BRANCH  14  15
ATOM     15  C   UNL     1      12.123  43.796  65.275  1.00  0.00     0.000 C 
BRANCH  15  16
ATOM     16  C   UNL     1      12.737  43.659  63.873  1.00  0.00     0.000 C 
BRANCH  16  17
ATOM     17  C   UNL     1      14.147  43.040  63.893  1.00  0.00    -0.000 C 
BRANCH  17  18
ATOM     18  C   UNL     1      15.235  44.029  63.445  1.00  0.00    -0.000 C 
BRANCH  18  19
ATOM     19  C   UNL     1      16.020  44.623  64.623  1.00  0.00    -0.003 C 
ATOM     20  C   UNL     1      15.727  46.111  64.782  1.00  0.00     0.004 C 
ENDBRANCH  18  19
ENDBRANCH  17  18
ENDBRANCH  16  17
ENDBRANCH  15  16
ENDBRANCH  14  15
ENDBRANCH  13  14
ENDBRANCH   2  13
TORSDOF 15
ENDMDL
