MODEL 1
REMARK VINA RESULT:    -3.391      0.000      0.000
REMARK INTER + INTRA:         -11.697
REMARK INTER:                  -7.753
REMARK INTRA:                  -3.944
REMARK UNBOUND:                -3.944
REMARK SMILES CCCCCCCCCCCCCCCCCCCCCCCC(=O)[O-]
REMARK SMILES IDX 13 1 14 2 15 3 16 4 17 5 18 6 19 7 20 8 21 9 22 10 23 11
REMARK SMILES IDX 24 12 25 13 26 14 12 15 11 16 10 17 9 18 8 19 7 20 6 21 5 22
REMARK SMILES IDX 4 23 3 24 2 25 1 26
REMARK H PARENT
REMARK Flexibility Score: inf
ROOT
ATOM      1  C   UNL     1      47.540  31.665  87.242  1.00  0.00     0.000 C 
ENDROOT
BRANCH   1   2
ATOM      2  C   UNL     1      46.412  30.982  88.035  1.00  0.00     0.000 C 
BRANCH   2   3
ATOM      3  C   UNL     1      46.125  31.657  89.387  1.00  0.00     0.000 C 
BRANCH   3   4
ATOM      4  C   UNL     1      46.781  30.971  90.606  1.00  0.00     0.000 C 
BRANCH   4   5
ATOM      5  C   UNL     1      47.505  29.635  90.326  1.00  0.00     0.000 C 
BRANCH   5   6
ATOM      6  C   UNL     1      49.031  29.640  90.531  1.00  0.00     0.000 C 
BRANCH   6   7
ATOM      7  C   UNL     1      49.617  31.051  90.681  1.00  0.00     0.000 C 
BRANCH   7   8
ATOM      8  C   UNL     1      50.398  31.180  91.996  1.00  0.00     0.000 C 
BRANCH   8   9
ATOM      9  C   UNL     1      51.485  32.270  91.945  1.00  0.00     0.000 C 
BRANCH   9  10
ATOM     10  C   UNL     1      52.770  31.878  91.185  1.00  0.00     0.006 C 
BRANCH  10  11
ATOM     11  C   UNL     1      53.012  32.664  89.888  1.00  0.00     0.053 C 
BRANCH  11  12
ATOM     12  C   UNL     1      54.228  33.534  89.978  1.00  0.00     0.041 C 
ATOM     13  O   UNL     1      55.368  33.057  89.742  1.00  0.00    -0.550 OA
ATOM     14  O   UNL     1      54.104  34.862  90.371  1.00  0.00    -0.550 OA
ENDBRANCH  11  12
ENDBRANCH  10  11
ENDBRANCH   9  10
ENDBRANCH   8   9
ENDBRANCH   7   8
ENDBRANCH   6   7
ENDBRANCH   5   6
ENDBRANCH   4   5
ENDBRANCH   3   4
ENDBRANCH   2   3
ENDBRANCH   1   2
BRANCH   1  15
ATOM     15  C   UNL     1      47.909  33.058  87.783  1.00  0.00     0.000 C 
BRANCH  15  16
ATOM     16  C   UNL     1      48.667  33.978  86.799  1.00  0.00     0.000 C 
BRANCH  16  17
ATOM     17  C   UNL     1      48.619  35.482  87.125  1.00  0.00     0.000 C 
BRANCH  17  18
ATOM     18  C   UNL     1      49.996  36.057  87.500  1.00  0.00    -0.000 C 
BRANCH  18  19
ATOM     19  C   UNL     1      51.068  34.967  87.663  1.00  0.00    -0.000 C 
BRANCH  19  20
ATOM     20  C   UNL     1      52.339  35.258  86.848  1.00  0.00    -0.000 C 
BRANCH  20  21
ATOM     21  C   UNL     1      52.537  34.268  85.689  1.00  0.00    -0.000 C 
BRANCH  21  22
ATOM     22  C   UNL     1      52.967  32.869  86.166  1.00  0.00    -0.000 C 
BRANCH  22  23
ATOM     23  C   UNL     1      51.875  31.809  85.915  1.00  0.00    -0.000 C 
BRANCH  23  24
ATOM     24  C   UNL     1      51.168  31.336  87.197  1.00  0.00    -0.000 C 
BRANCH  24  25
ATOM     25  C   UNL     1      51.091  29.807  87.309  1.00  0.00    -0.003 C 
ATOM     26  C   UNL     1      52.048  29.285  88.378  1.00  0.00     0.004 C 
ENDBRANCH  24  25
ENDBRANCH  23  24
ENDBRANCH  22  23
ENDBRANCH  21  22
ENDBRANCH  20  21
ENDBRANCH  19  20
ENDBRANCH  18  19
ENDBRANCH  17  18
ENDBRANCH  16  17
ENDBRANCH  15  16
ENDBRANCH   1  15
TORSDOF 22
ENDMDL
MODEL 2
REMARK VINA RESULT:    -3.263      3.386      5.955
REMARK INTER + INTRA:         -11.405
REMARK INTER:                  -7.145
REMARK INTRA:                  -4.260
REMARK UNBOUND:                -3.944
REMARK SMILES CCCCCCCCCCCCCCCCCCCCCCCC(=O)[O-]
REMARK SMILES IDX 13 1 14 2 15 3 16 4 17 5 18 6 19 7 20 8 21 9 22 10 23 11
REMARK SMILES IDX 24 12 25 13 26 14 12 15 11 16 10 17 9 18 8 19 7 20 6 21 5 22
REMARK SMILES IDX 4 23 3 24 2 25 1 26
REMARK H PARENT
REMARK Flexibility Score: inf
ROOT
ATOM      1  C   UNL     1      52.463  35.295  86.809  1.00  0.00     0.000 C 
ENDROOT
BRANCH   1   2
ATOM      2  C   UNL     1      53.477  34.172  86.529  1.00  0.00     0.000 C 
BRANCH   2   3
ATOM      3  C   UNL     1      52.829  32.782  86.417  1.00  0.00     0.000 C 
BRANCH   3   4
ATOM      4  C   UNL     1      53.635  31.636  87.067  1.00  0.00     0.000 C 
BRANCH   4   5
ATOM      5  C   UNL     1      52.947  30.902  88.240  1.00  0.00     0.000 C 
BRANCH   5   6
ATOM      6  C   UNL     1      53.189  31.493  89.641  1.00  0.00     0.000 C 
BRANCH   6   7
ATOM      7  C   UNL     1      51.915  32.054  90.288  1.00  0.00     0.000 C 
BRANCH   7   8
ATOM      8  C   UNL     1      50.662  31.496  89.598  1.00  0.00     0.000 C 
BRANCH   8   9
ATOM      9  C   UNL     1      49.511  31.216  90.581  1.00  0.00     0.000 C 
BRANCH   9  10
ATOM     10  C   UNL     1      48.221  30.662  89.939  1.00  0.00     0.006 C 
BRANCH  10  11
ATOM     11  C   UNL     1      46.931  31.370  90.379  1.00  0.00     0.053 C 
BRANCH  11  12
ATOM     12  C   UNL     1      45.800  30.406  90.567  1.00  0.00     0.041 C 
ATOM     13  O   UNL     1      44.941  30.604  91.465  1.00  0.00    -0.550 OA
ATOM     14  O   UNL     1      45.721  29.265  89.778  1.00  0.00    -0.550 OA
ENDBRANCH  11  12
ENDBRANCH  10  11
ENDBRANCH   9  10
ENDBRANCH   8   9
ENDBRANCH   7   8
ENDBRANCH   6   7
ENDBRANCH   5   6
ENDBRANCH   4   5
ENDBRANCH   3   4
ENDBRANCH   2   3
ENDBRANCH   1   2
BRANCH   1  15
ATOM     15  C   UNL     1      51.170  34.796  87.480  1.00  0.00     0.000 C 
BRANCH  15  16
ATOM     16  C   UNL     1      49.946  35.731  87.352  1.00  0.00     0.000 C 
BRANCH  16  17
ATOM     17  C   UNL     1      48.605  35.033  87.060  1.00  0.00     0.000 C 
BRANCH  17  18
ATOM     18  C   UNL     1      48.529  33.615  87.652  1.00  0.00    -0.000 C 
BRANCH  18  19
ATOM     19  C   UNL     1      48.112  32.561  86.614  1.00  0.00    -0.000 C 
BRANCH  19  20
ATOM     20  C   UNL     1      49.300  31.731  86.100  1.00  0.00    -0.000 C 
BRANCH  20  21
ATOM     21  C   UNL     1      49.637  32.031  84.630  1.00  0.00    -0.000 C 
BRANCH  21  22
ATOM     22  C   UNL     1      48.608  32.959  83.960  1.00  0.00    -0.000 C 
BRANCH  22  23
ATOM     23  C   UNL     1      49.248  34.271  83.461  1.00  0.00    -0.000 C 
BRANCH  23  24
ATOM     24  C   UNL     1      50.758  34.365  83.738  1.00  0.00    -0.000 C 
BRANCH  24  25
ATOM     25  C   UNL     1      51.604  34.329  82.458  1.00  0.00    -0.003 C 
ATOM     26  C   UNL     1      50.724  34.423  81.214  1.00  0.00     0.004 C 
ENDBRANCH  24  25
ENDBRANCH  23  24
ENDBRANCH  22  23
ENDBRANCH  21  22
ENDBRANCH  20  21
ENDBRANCH  19  20
ENDBRANCH  18  19
ENDBRANCH  17  18
ENDBRANCH  16  17
ENDBRANCH  15  16
ENDBRANCH   1  15
TORSDOF 22
ENDMDL
MODEL 3
REMARK VINA RESULT:    -3.258     14.686     17.205
REMARK INTER + INTRA:         -11.392
REMARK INTER:                  -7.124
REMARK INTRA:                  -4.269
REMARK UNBOUND:                -3.944
REMARK SMILES CCCCCCCCCCCCCCCCCCCCCCCC(=O)[O-]
REMARK SMILES IDX 13 1 14 2 15 3 16 4 17 5 18 6 19 7 20 8 21 9 22 10 23 11
REMARK SMILES IDX 24 12 25 13 26 14 12 15 11 16 10 17 9 18 8 19 7 20 6 21 5 22
REMARK SMILES IDX 4 23 3 24 2 25 1 26
REMARK H PARENT
REMARK Flexibility Score: inf
ROOT
ATOM      1  C   UNL     1      46.350  23.192  77.039  1.00  0.00     0.000 C 
ENDROOT
BRANCH   1   2
ATOM      2  C   UNL     1      47.701  23.339  76.317  1.00  0.00     0.000 C 
BRANCH   2   3
ATOM      3  C   UNL     1      47.681  22.803  74.876  1.00  0.00     0.000 C 
BRANCH   3   4
ATOM      4  C   UNL     1      48.300  21.400  74.697  1.00  0.00     0.000 C 
BRANCH   4   5
ATOM      5  C   UNL     1      47.308  20.215  74.690  1.00  0.00     0.000 C 
BRANCH   5   6
ATOM      6  C   UNL     1      45.843  20.564  74.367  1.00  0.00     0.000 C 
BRANCH   6   7
ATOM      7  C   UNL     1      44.873  20.206  75.500  1.00  0.00     0.000 C 
BRANCH   7   8
ATOM      8  C   UNL     1      45.610  19.499  76.647  1.00  0.00     0.000 C 
BRANCH   8   9
ATOM      9  C   UNL     1      44.821  19.516  77.969  1.00  0.00     0.000 C 
BRANCH   9  10
ATOM     10  C   UNL     1      43.808  20.670  78.113  1.00  0.00     0.006 C 
BRANCH  10  11
ATOM     11  C   UNL     1      43.565  21.134  79.557  1.00  0.00     0.053 C 
BRANCH  11  12
ATOM     12  C   UNL     1      42.178  20.815  80.023  1.00  0.00     0.041 C 
ATOM     13  O   UNL     1      41.580  19.798  79.584  1.00  0.00    -0.550 OA
ATOM     14  O   UNL     1      41.528  21.667  80.907  1.00  0.00    -0.550 OA
ENDBRANCH  11  12
ENDBRANCH  10  11
ENDBRANCH   9  10
ENDBRANCH   8   9
ENDBRANCH   7   8
ENDBRANCH   6   7
ENDBRANCH   5   6
ENDBRANCH   4   5
ENDBRANCH   3   4
ENDBRANCH   2   3
ENDBRANCH   1   2
BRANCH   1  15
ATOM     15  C   UNL     1      46.458  23.332  78.569  1.00  0.00     0.000 C 
BRANCH  15  16
ATOM     16  C   UNL     1      47.658  22.610  79.224  1.00  0.00     0.000 C 
BRANCH  16  17
ATOM     17  C   UNL     1      47.345  21.239  79.851  1.00  0.00     0.000 C 
BRANCH  17  18
ATOM     18  C   UNL     1      48.219  20.109  79.282  1.00  0.00    -0.000 C 
BRANCH  18  19
ATOM     19  C   UNL     1      49.277  20.620  78.290  1.00  0.00    -0.000 C 
BRANCH  19  20
ATOM     20  C   UNL     1      50.643  20.866  78.954  1.00  0.00    -0.000 C 
BRANCH  20  21
ATOM     21  C   UNL     1      51.617  21.622  78.036  1.00  0.00    -0.000 C 
BRANCH  21  22
ATOM     22  C   UNL     1      51.094  23.011  77.626  1.00  0.00    -0.000 C 
BRANCH  22  23
ATOM     23  C   UNL     1      51.330  23.303  76.130  1.00  0.00    -0.000 C 
BRANCH  23  24
ATOM     24  C   UNL     1      51.624  22.044  75.296  1.00  0.00    -0.000 C 
BRANCH  24  25
ATOM     25  C   UNL     1      52.907  22.167  74.462  1.00  0.00    -0.003 C 
ATOM     26  C   UNL     1      53.173  20.888  73.671  1.00  0.00     0.004 C 
ENDBRANCH  24  25
ENDBRANCH  23  24
ENDBRANCH  22  23
ENDBRANCH  21  22
ENDBRANCH  20  21
ENDBRANCH  19  20
ENDBRANCH  18  19
ENDBRANCH  17  18
ENDBRANCH  16  17
ENDBRANCH  15  16
ENDBRANCH   1  15
TORSDOF 22
ENDMDL
MODEL 4
REMARK VINA RESULT:    -3.245      3.071      6.328
REMARK INTER + INTRA:         -11.363
REMARK INTER:                  -6.924
REMARK INTRA:                  -4.439
REMARK UNBOUND:                -3.944
REMARK SMILES CCCCCCCCCCCCCCCCCCCCCCCC(=O)[O-]
REMARK SMILES IDX 13 1 14 2 15 3 16 4 17 5 18 6 19 7 20 8 21 9 22 10 23 11
REMARK SMILES IDX 24 12 25 13 26 14 12 15 11 16 10 17 9 18 8 19 7 20 6 21 5 22
REMARK SMILES IDX 4 23 3 24 2 25 1 26
REMARK H PARENT
REMARK Flexibility Score: inf
ROOT
ATOM      1  C   UNL     1      54.141  34.131  87.495  1.00  0.00     0.000 C 
ENDROOT
BRANCH   1   2
ATOM      2  C   UNL     1      53.243  35.158  88.206  1.00  0.00     0.000 C 
BRANCH   2   3
ATOM      3  C   UNL     1      51.932  35.444  87.453  1.00  0.00     0.000 C 
BRANCH   3   4
ATOM      4  C   UNL     1      51.749  34.644  86.144  1.00  0.00     0.000 C 
BRANCH   4   5
ATOM      5  C   UNL     1      50.294  34.293  85.760  1.00  0.00     0.000 C 
BRANCH   5   6
ATOM      6  C   UNL     1      49.193  35.019  86.554  1.00  0.00     0.000 C 
BRANCH   6   7
ATOM      7  C   UNL     1      48.285  34.064  87.341  1.00  0.00     0.000 C 
BRANCH   7   8
ATOM      8  C   UNL     1      48.200  32.697  86.647  1.00  0.00     0.000 C 
BRANCH   8   9
ATOM      9  C   UNL     1      47.416  31.656  87.466  1.00  0.00     0.000 C 
BRANCH   9  10
ATOM     10  C   UNL     1      47.018  32.104  88.888  1.00  0.00     0.006 C 
BRANCH  10  11
ATOM     11  C   UNL     1      47.601  31.243  90.019  1.00  0.00     0.053 C 
BRANCH  11  12
ATOM     12  C   UNL     1      46.716  30.082  90.352  1.00  0.00     0.041 C 
ATOM     13  O   UNL     1      45.520  30.064  89.963  1.00  0.00    -0.550 OA
ATOM     14  O   UNL     1      47.201  29.040  91.133  1.00  0.00    -0.550 OA
ENDBRANCH  11  12
ENDBRANCH  10  11
ENDBRANCH   9  10
ENDBRANCH   8   9
ENDBRANCH   7   8
ENDBRANCH   6   7
ENDBRANCH   5   6
ENDBRANCH   4   5
ENDBRANCH   3   4
ENDBRANCH   2   3
ENDBRANCH   1   2
BRANCH   1  15
ATOM     15  C   UNL     1      54.811  33.136  88.460  1.00  0.00     0.000 C 
BRANCH  15  16
ATOM     16  C   UNL     1      54.497  33.343  89.959  1.00  0.00     0.000 C 
BRANCH  16  17
ATOM     17  C   UNL     1      53.842  32.145  90.671  1.00  0.00     0.000 C 
BRANCH  17  18
ATOM     18  C   UNL     1      52.420  32.454  91.173  1.00  0.00    -0.000 C 
BRANCH  18  19
ATOM     19  C   UNL     1      51.342  31.655  90.423  1.00  0.00    -0.000 C 
BRANCH  19  20
ATOM     20  C   UNL     1      51.128  32.153  88.983  1.00  0.00    -0.000 C 
BRANCH  20  21
ATOM     21  C   UNL     1      50.998  31.001  87.974  1.00  0.00    -0.000 C 
BRANCH  21  22
ATOM     22  C   UNL     1      52.162  30.956  86.967  1.00  0.00    -0.000 C 
BRANCH  22  23
ATOM     23  C   UNL     1      53.332  30.087  87.471  1.00  0.00    -0.000 C 
BRANCH  23  24
ATOM     24  C   UNL     1      54.436  29.871  86.421  1.00  0.00    -0.000 C 
BRANCH  24  25
ATOM     25  C   UNL     1      54.520  31.013  85.398  1.00  0.00    -0.003 C 
ATOM     26  C   UNL     1      55.269  30.572  84.143  1.00  0.00     0.004 C 
ENDBRANCH  24  25
ENDBRANCH  23  24
ENDBRANCH  22  23
ENDBRANCH  21  22
ENDBRANCH  20  21
ENDBRANCH  19  20
ENDBRANCH  18  19
ENDBRANCH  17  18
ENDBRANCH  16  17
ENDBRANCH  15  16
ENDBRANCH   1  15
TORSDOF 22
ENDMDL
MODEL 5
REMARK VINA RESULT:    -3.231      2.798      5.350
REMARK INTER + INTRA:         -11.331
REMARK INTER:                  -6.710
REMARK INTRA:                  -4.621
REMARK UNBOUND:                -3.944
REMARK SMILES CCCCCCCCCCCCCCCCCCCCCCCC(=O)[O-]
REMARK SMILES IDX 13 1 14 2 15 3 16 4 17 5 18 6 19 7 20 8 21 9 22 10 23 11
REMARK SMILES IDX 24 12 25 13 26 14 12 15 11 16 10 17 9 18 8 19 7 20 6 21 5 22
REMARK SMILES IDX 4 23 3 24 2 25 1 26
REMARK H PARENT
REMARK Flexibility Score: inf
ROOT
ATOM      1  C   UNL     1      52.791  33.735  85.679  1.00  0.00     0.000 C 
ENDROOT
BRANCH   1   2
ATOM      2  C   UNL     1      53.796  33.967  86.821  1.00  0.00     0.000 C 
BRANCH   2   3
ATOM      3  C   UNL     1      54.160  32.681  87.580  1.00  0.00     0.000 C 
BRANCH   3   4
ATOM      4  C   UNL     1      54.252  32.838  89.114  1.00  0.00     0.000 C 
BRANCH   4   5
ATOM      5  C   UNL     1      52.908  32.899  89.874  1.00  0.00     0.000 C 
BRANCH   5   6
ATOM      6  C   UNL     1      52.849  32.124  91.203  1.00  0.00     0.000 C 
BRANCH   6   7
ATOM      7  C   UNL     1      51.439  32.068  91.808  1.00  0.00     0.000 C 
BRANCH   7   8
ATOM      8  C   UNL     1      50.695  30.810  91.340  1.00  0.00     0.000 C 
BRANCH   8   9
ATOM      9  C   UNL     1      49.200  31.062  91.070  1.00  0.00     0.000 C 
BRANCH   9  10
ATOM     10  C   UNL     1      48.400  29.826  90.609  1.00  0.00     0.006 C 
BRANCH  10  11
ATOM     11  C   UNL     1      47.348  30.111  89.525  1.00  0.00     0.053 C 
BRANCH  11  12
ATOM     12  C   UNL     1      46.136  30.788  90.086  1.00  0.00     0.041 C 
ATOM     13  O   UNL     1      45.633  30.393  91.170  1.00  0.00    -0.550 OA
ATOM     14  O   UNL     1      45.533  31.825  89.385  1.00  0.00    -0.550 OA
ENDBRANCH  11  12
ENDBRANCH  10  11
ENDBRANCH   9  10
ENDBRANCH   8   9
ENDBRANCH   7   8
ENDBRANCH   6   7
ENDBRANCH   5   6
ENDBRANCH   4   5
ENDBRANCH   3   4
ENDBRANCH   2   3
ENDBRANCH   1   2
BRANCH   1  15
ATOM     15  C   UNL     1      51.576  34.678  85.735  1.00  0.00     0.000 C 
BRANCH  15  16
ATOM     16  C   UNL     1      51.386  35.448  87.062  1.00  0.00     0.000 C 
BRANCH  16  17
ATOM     17  C   UNL     1      49.927  35.704  87.478  1.00  0.00     0.000 C 
BRANCH  17  18
ATOM     18  C   UNL     1      48.915  34.932  86.613  1.00  0.00    -0.000 C 
BRANCH  18  19
ATOM     19  C   UNL     1      48.225  33.794  87.382  1.00  0.00    -0.000 C 
BRANCH  19  20
ATOM     20  C   UNL     1      48.790  32.408  87.028  1.00  0.00    -0.000 C 
BRANCH  20  21
ATOM     21  C   UNL     1      50.063  32.070  87.821  1.00  0.00    -0.000 C 
BRANCH  21  22
ATOM     22  C   UNL     1      50.896  30.954  87.165  1.00  0.00    -0.000 C 
BRANCH  22  23
ATOM     23  C   UNL     1      50.412  29.548  87.579  1.00  0.00    -0.000 C 
BRANCH  23  24
ATOM     24  C   UNL     1      51.548  28.613  88.028  1.00  0.00    -0.000 C 
BRANCH  24  25
ATOM     25  C   UNL     1      52.780  29.372  88.539  1.00  0.00    -0.003 C 
ATOM     26  C   UNL     1      53.367  28.699  89.778  1.00  0.00     0.004 C 
ENDBRANCH  24  25
ENDBRANCH  23  24
ENDBRANCH  22  23
ENDBRANCH  21  22
ENDBRANCH  20  21
ENDBRANCH  19  20
ENDBRANCH  18  19
ENDBRANCH  17  18
ENDBRANCH  16  17
ENDBRANCH  15  16
ENDBRANCH   1  15
TORSDOF 22
ENDMDL
MODEL 6
REMARK VINA RESULT:    -3.229      3.124      5.588
REMARK INTER + INTRA:         -11.326
REMARK INTER:                  -7.054
REMARK INTRA:                  -4.272
REMARK UNBOUND:                -3.944
REMARK SMILES CCCCCCCCCCCCCCCCCCCCCCCC(=O)[O-]
REMARK SMILES IDX 13 1 14 2 15 3 16 4 17 5 18 6 19 7 20 8 21 9 22 10 23 11
REMARK SMILES IDX 24 12 25 13 26 14 12 15 11 16 10 17 9 18 8 19 7 20 6 21 5 22
REMARK SMILES IDX 4 23 3 24 2 25 1 26
REMARK H PARENT
REMARK Flexibility Score: inf
ROOT
ATOM      1  C   UNL     1      49.328  35.962  87.345  1.00  0.00     0.000 C 
ENDROOT
BRANCH   1   2
ATOM      2  C   UNL     1      50.829  35.668  87.513  1.00  0.00     0.000 C 
BRANCH   2   3
ATOM      3  C   UNL     1      51.427  34.872  86.342  1.00  0.00     0.000 C 
BRANCH   3   4
ATOM      4  C   UNL     1      52.969  34.909  86.253  1.00  0.00     0.000 C 
BRANCH   4   5
ATOM      5  C   UNL     1      53.723  33.823  87.052  1.00  0.00     0.000 C 
BRANCH   5   6
ATOM      6  C   UNL     1      52.860  32.674  87.608  1.00  0.00     0.000 C 
BRANCH   6   7
ATOM      7  C   UNL     1      52.612  32.780  89.119  1.00  0.00     0.000 C 
BRANCH   7   8
ATOM      8  C   UNL     1      51.164  32.403  89.461  1.00  0.00     0.000 C 
BRANCH   8   9
ATOM      9  C   UNL     1      51.065  31.167  90.375  1.00  0.00     0.000 C 
BRANCH   9  10
ATOM     10  C   UNL     1      49.793  31.095  91.245  1.00  0.00     0.006 C 
BRANCH  10  11
ATOM     11  C   UNL     1      48.476  31.074  90.454  1.00  0.00     0.053 C 
BRANCH  11  12
ATOM     12  C   UNL     1      48.078  29.684  90.065  1.00  0.00     0.041 C 
ATOM     13  O   UNL     1      47.850  29.403  88.860  1.00  0.00    -0.550 OA
ATOM     14  O   UNL     1      47.912  28.710  91.043  1.00  0.00    -0.550 OA
ENDBRANCH  11  12
ENDBRANCH  10  11
ENDBRANCH   9  10
ENDBRANCH   8   9
ENDBRANCH   7   8
ENDBRANCH   6   7
ENDBRANCH   5   6
ENDBRANCH   4   5
ENDBRANCH   3   4
ENDBRANCH   2   3
ENDBRANCH   1   2
BRANCH   1  15
ATOM     15  C   UNL     1      48.564  34.838  86.622  1.00  0.00     0.000 C 
BRANCH  15  16
ATOM     16  C   UNL     1      48.190  33.616  87.491  1.00  0.00     0.000 C 
BRANCH  16  17
ATOM     17  C   UNL     1      48.105  32.272  86.745  1.00  0.00     0.000 C 
BRANCH  17  18
ATOM     18  C   UNL     1      49.487  31.675  86.430  1.00  0.00    -0.000 C 
BRANCH  18  19
ATOM     19  C   UNL     1      49.808  31.686  84.927  1.00  0.00    -0.000 C 
BRANCH  19  20
ATOM     20  C   UNL     1      51.192  31.094  84.610  1.00  0.00    -0.000 C 
BRANCH  20  21
ATOM     21  C   UNL     1      52.159  32.134  84.023  1.00  0.00    -0.000 C 
BRANCH  21  22
ATOM     22  C   UNL     1      51.728  32.629  82.631  1.00  0.00    -0.000 C 
BRANCH  22  23
ATOM     23  C   UNL     1      51.586  34.165  82.579  1.00  0.00    -0.000 C 
BRANCH  23  24
ATOM     24  C   UNL     1      50.203  34.670  83.024  1.00  0.00    -0.000 C 
BRANCH  24  25
ATOM     25  C   UNL     1      49.071  34.213  82.094  1.00  0.00    -0.003 C 
ATOM     26  C   UNL     1      47.791  33.937  82.879  1.00  0.00     0.004 C 
ENDBRANCH  24  25
ENDBRANCH  23  24
ENDBRANCH  22  23
ENDBRANCH  21  22
ENDBRANCH  20  21
ENDBRANCH  19  20
ENDBRANCH  18  19
ENDBRANCH  17  18
ENDBRANCH  16  17
ENDBRANCH  15  16
ENDBRANCH   1  15
TORSDOF 22
ENDMDL
MODEL 7
REMARK VINA RESULT:    -3.216      3.296      5.878
REMARK INTER + INTRA:         -11.298
REMARK INTER:                  -7.888
REMARK INTRA:                  -3.409
REMARK UNBOUND:                -3.944
REMARK SMILES CCCCCCCCCCCCCCCCCCCCCCCC(=O)[O-]
REMARK SMILES IDX 13 1 14 2 15 3 16 4 17 5 18 6 19 7 20 8 21 9 22 10 23 11
REMARK SMILES IDX 24 12 25 13 26 14 12 15 11 16 10 17 9 18 8 19 7 20 6 21 5 22
REMARK SMILES IDX 4 23 3 24 2 25 1 26
REMARK H PARENT
REMARK Flexibility Score: inf
ROOT
ATOM      1  C   UNL     1      52.739  32.017  87.790  1.00  0.00     0.000 C 
ENDROOT
BRANCH   1   2
ATOM      2  C   UNL     1      53.223  32.961  88.904  1.00  0.00     0.000 C 
BRANCH   2   3
ATOM      3  C   UNL     1      53.749  32.219  90.144  1.00  0.00     0.000 C 
BRANCH   3   4
ATOM      4  C   UNL     1      52.783  31.165  90.727  1.00  0.00     0.000 C 
BRANCH   4   5
ATOM      5  C   UNL     1      52.033  31.568  92.016  1.00  0.00     0.000 C 
BRANCH   5   6
ATOM      6  C   UNL     1      50.504  31.699  91.893  1.00  0.00     0.000 C 
BRANCH   6   7
ATOM      7  C   UNL     1      49.943  31.062  90.614  1.00  0.00     0.000 C 
BRANCH   7   8
ATOM      8  C   UNL     1      48.419  30.901  90.708  1.00  0.00     0.000 C 
BRANCH   8   9
ATOM      9  C   UNL     1      47.787  30.399  89.398  1.00  0.00     0.000 C 
BRANCH   9  10
ATOM     10  C   UNL     1      46.288  30.724  89.227  1.00  0.00     0.006 C 
BRANCH  10  11
ATOM     11  C   UNL     1      45.741  31.766  90.214  1.00  0.00     0.053 C 
BRANCH  11  12
ATOM     12  C   UNL     1      44.881  31.141  91.269  1.00  0.00     0.041 C 
ATOM     13  O   UNL     1      44.689  29.898  91.276  1.00  0.00    -0.550 OA
ATOM     14  O   UNL     1      44.252  31.940  92.217  1.00  0.00    -0.550 OA
ENDBRANCH  11  12
ENDBRANCH  10  11
ENDBRANCH   9  10
ENDBRANCH   8   9
ENDBRANCH   7   8
ENDBRANCH   6   7
ENDBRANCH   5   6
ENDBRANCH   4   5
ENDBRANCH   3   4
ENDBRANCH   2   3
ENDBRANCH   1   2
BRANCH   1  15
ATOM     15  C   UNL     1      52.688  32.684  86.404  1.00  0.00     0.000 C 
BRANCH  15  16
ATOM     16  C   UNL     1      52.827  34.224  86.397  1.00  0.00     0.000 C 
BRANCH  16  17
ATOM     17  C   UNL     1      51.510  35.008  86.249  1.00  0.00     0.000 C 
BRANCH  17  18
ATOM     18  C   UNL     1      50.919  35.441  87.602  1.00  0.00    -0.000 C 
BRANCH  18  19
ATOM     19  C   UNL     1      49.517  36.058  87.465  1.00  0.00    -0.000 C 
BRANCH  19  20
ATOM     20  C   UNL     1      48.548  35.162  86.675  1.00  0.00    -0.000 C 
BRANCH  20  21
ATOM     21  C   UNL     1      48.232  33.848  87.406  1.00  0.00    -0.000 C 
BRANCH  21  22
ATOM     22  C   UNL     1      48.672  32.604  86.613  1.00  0.00    -0.000 C 
BRANCH  22  23
ATOM     23  C   UNL     1      48.532  32.806  85.090  1.00  0.00    -0.000 C 
BRANCH  23  24
ATOM     24  C   UNL     1      49.776  32.376  84.294  1.00  0.00    -0.000 C 
BRANCH  24  25
ATOM     25  C   UNL     1      50.094  33.320  83.126  1.00  0.00    -0.003 C 
ATOM     26  C   UNL     1      49.345  34.643  83.268  1.00  0.00     0.004 C 
ENDBRANCH  24  25
ENDBRANCH  23  24
ENDBRANCH  22  23
ENDBRANCH  21  22
ENDBRANCH  20  21
ENDBRANCH  19  20
ENDBRANCH  18  19
ENDBRANCH  17  18
ENDBRANCH  16  17
ENDBRANCH  15  16
ENDBRANCH   1  15
TORSDOF 22
ENDMDL
MODEL 8
REMARK VINA RESULT:    -3.195      3.507      7.056
REMARK INTER + INTRA:         -11.247
REMARK INTER:                  -6.938
REMARK INTRA:                  -4.310
REMARK UNBOUND:                -3.944
REMARK SMILES CCCCCCCCCCCCCCCCCCCCCCCC(=O)[O-]
REMARK SMILES IDX 13 1 14 2 15 3 16 4 17 5 18 6 19 7 20 8 21 9 22 10 23 11
REMARK SMILES IDX 24 12 25 13 26 14 12 15 11 16 10 17 9 18 8 19 7 20 6 21 5 22
REMARK SMILES IDX 4 23 3 24 2 25 1 26
REMARK H PARENT
REMARK Flexibility Score: inf
ROOT
ATOM      1  C   UNL     1      50.156  35.584  87.501  1.00  0.00     0.000 C 
ENDROOT
BRANCH   1   2
ATOM      2  C   UNL     1      51.316  35.131  86.599  1.00  0.00     0.000 C 
BRANCH   2   3
ATOM      3  C   UNL     1      52.582  34.747  87.384  1.00  0.00     0.000 C 
BRANCH   3   4
ATOM      4  C   UNL     1      52.885  33.233  87.425  1.00  0.00     0.000 C 
BRANCH   4   5
ATOM      5  C   UNL     1      53.771  32.686  86.283  1.00  0.00     0.000 C 
BRANCH   5   6
ATOM      6  C   UNL     1      53.036  32.301  84.986  1.00  0.00     0.000 C 
BRANCH   6   7
ATOM      7  C   UNL     1      53.213  33.331  83.862  1.00  0.00     0.000 C 
BRANCH   7   8
ATOM      8  C   UNL     1      52.111  33.179  82.805  1.00  0.00     0.000 C 
BRANCH   8   9
ATOM      9  C   UNL     1      50.693  33.264  83.399  1.00  0.00     0.000 C 
BRANCH   9  10
ATOM     10  C   UNL     1      50.020  34.649  83.292  1.00  0.00     0.006 C 
BRANCH  10  11
ATOM     11  C   UNL     1      48.484  34.615  83.276  1.00  0.00     0.053 C 
BRANCH  11  12
ATOM     12  C   UNL     1      47.957  33.491  82.438  1.00  0.00     0.041 C 
ATOM     13  O   UNL     1      47.979  33.572  81.183  1.00  0.00    -0.550 OA
ATOM     14  O   UNL     1      47.399  32.374  83.047  1.00  0.00    -0.550 OA
ENDBRANCH  11  12
ENDBRANCH  10  11
ENDBRANCH   9  10
ENDBRANCH   8   9
ENDBRANCH   7   8
ENDBRANCH   6   7
ENDBRANCH   5   6
ENDBRANCH   4   5
ENDBRANCH   3   4
ENDBRANCH   2   3
ENDBRANCH   1   2
BRANCH   1  15
ATOM     15  C   UNL     1      48.772  35.172  86.968  1.00  0.00     0.000 C 
BRANCH  15  16
ATOM     16  C   UNL     1      48.245  33.804  87.461  1.00  0.00     0.000 C 
BRANCH  16  17
ATOM     17  C   UNL     1      48.296  32.663  86.429  1.00  0.00     0.000 C 
BRANCH  17  18
ATOM     18  C   UNL     1      49.637  31.909  86.437  1.00  0.00    -0.000 C 
BRANCH  18  19
ATOM     19  C   UNL     1      49.588  30.622  87.276  1.00  0.00    -0.000 C 
BRANCH  19  20
ATOM     20  C   UNL     1      50.560  30.652  88.467  1.00  0.00    -0.000 C 
BRANCH  20  21
ATOM     21  C   UNL     1      49.943  31.299  89.717  1.00  0.00    -0.000 C 
BRANCH  21  22
ATOM     22  C   UNL     1      48.857  30.423  90.368  1.00  0.00    -0.000 C 
BRANCH  22  23
ATOM     23  C   UNL     1      47.576  31.224  90.681  1.00  0.00    -0.000 C 
BRANCH  23  24
ATOM     24  C   UNL     1      46.296  30.585  90.116  1.00  0.00    -0.000 C 
BRANCH  24  25
ATOM     25  C   UNL     1      45.924  31.121  88.726  1.00  0.00    -0.003 C 
ATOM     26  C   UNL     1      45.942  30.006  87.684  1.00  0.00     0.004 C 
ENDBRANCH  24  25
ENDBRANCH  23  24
ENDBRANCH  22  23
ENDBRANCH  21  22
ENDBRANCH  20  21
ENDBRANCH  19  20
ENDBRANCH  18  19
ENDBRANCH  17  18
ENDBRANCH  16  17
ENDBRANCH  15  16
ENDBRANCH   1  15
TORSDOF 22
ENDMDL
MODEL 9
REMARK VINA RESULT:    -3.186      2.936      5.079
REMARK INTER + INTRA:         -11.228
REMARK INTER:                  -6.324
REMARK INTRA:                  -4.904
REMARK UNBOUND:                -3.944
REMARK SMILES CCCCCCCCCCCCCCCCCCCCCCCC(=O)[O-]
REMARK SMILES IDX 13 1 14 2 15 3 16 4 17 5 18 6 19 7 20 8 21 9 22 10 23 11
REMARK SMILES IDX 24 12 25 13 26 14 12 15 11 16 10 17 9 18 8 19 7 20 6 21 5 22
REMARK SMILES IDX 4 23 3 24 2 25 1 26
REMARK H PARENT
REMARK Flexibility Score: inf
ROOT
ATOM      1  C   UNL     1      51.090  30.904  87.318  1.00  0.00     0.000 C 
ENDROOT
BRANCH   1   2
ATOM      2  C   UNL     1      51.929  29.779  87.950  1.00  0.00     0.000 C 
BRANCH   2   3
ATOM      3  C   UNL     1      53.099  30.299  88.802  1.00  0.00     0.000 C 
BRANCH   3   4
ATOM      4  C   UNL     1      53.199  31.837  88.896  1.00  0.00     0.000 C 
BRANCH   4   5
ATOM      5  C   UNL     1      52.831  32.460  90.262  1.00  0.00     0.000 C 
BRANCH   5   6
ATOM      6  C   UNL     1      52.607  31.468  91.417  1.00  0.00     0.000 C 
BRANCH   6   7
ATOM      7  C   UNL     1      51.272  31.679  92.145  1.00  0.00     0.000 C 
BRANCH   7   8
ATOM      8  C   UNL     1      50.099  31.637  91.154  1.00  0.00     0.000 C 
BRANCH   8   9
ATOM      9  C   UNL     1      49.661  30.204  90.803  1.00  0.00     0.000 C 
BRANCH   9  10
ATOM     10  C   UNL     1      48.148  30.021  90.562  1.00  0.00     0.006 C 
BRANCH  10  11
ATOM     11  C   UNL     1      47.332  31.323  90.594  1.00  0.00     0.053 C 
BRANCH  11  12
ATOM     12  C   UNL     1      45.970  31.145  89.998  1.00  0.00     0.041 C 
ATOM     13  O   UNL     1      44.959  31.628  90.571  1.00  0.00    -0.550 OA
ATOM     14  O   UNL     1      45.812  30.404  88.833  1.00  0.00    -0.550 OA
ENDBRANCH  11  12
ENDBRANCH  10  11
ENDBRANCH   9  10
ENDBRANCH   8   9
ENDBRANCH   7   8
ENDBRANCH   6   7
ENDBRANCH   5   6
ENDBRANCH   4   5
ENDBRANCH   3   4
ENDBRANCH   2   3
ENDBRANCH   1   2
BRANCH   1  15
ATOM     15  C   UNL     1      49.634  30.493  87.033  1.00  0.00     0.000 C 
BRANCH  15  16
ATOM     16  C   UNL     1      48.598  31.640  87.057  1.00  0.00     0.000 C 
BRANCH  16  17
ATOM     17  C   UNL     1      49.049  32.926  87.772  1.00  0.00     0.000 C 
BRANCH  17  18
ATOM     18  C   UNL     1      48.758  34.197  86.956  1.00  0.00    -0.000 C 
BRANCH  18  19
ATOM     19  C   UNL     1      49.859  35.260  87.101  1.00  0.00    -0.000 C 
BRANCH  19  20
ATOM     20  C   UNL     1      51.157  34.692  87.699  1.00  0.00    -0.000 C 
BRANCH  20  21
ATOM     21  C   UNL     1      52.412  35.400  87.165  1.00  0.00    -0.000 C 
BRANCH  21  22
ATOM     22  C   UNL     1      52.710  35.056  85.694  1.00  0.00    -0.000 C 
BRANCH  22  23
ATOM     23  C   UNL     1      52.661  33.537  85.431  1.00  0.00    -0.000 C 
BRANCH  23  24
ATOM     24  C   UNL     1      52.088  33.168  84.052  1.00  0.00    -0.000 C 
BRANCH  24  25
ATOM     25  C   UNL     1      50.659  32.611  84.129  1.00  0.00    -0.003 C 
ATOM     26  C   UNL     1      49.685  33.485  83.342  1.00  0.00     0.004 C 
ENDBRANCH  24  25
ENDBRANCH  23  24
ENDBRANCH  22  23
ENDBRANCH  21  22
ENDBRANCH  20  21
ENDBRANCH  19  20
ENDBRANCH  18  19
ENDBRANCH  17  18
ENDBRANCH  16  17
ENDBRANCH  15  16
ENDBRANCH   1  15
TORSDOF 22
ENDMDL
