MODEL 1
REMARK VINA RESULT:    -4.005      0.000      0.000
REMARK INTER + INTRA:          -4.005
REMARK INTER:                  -4.005
REMARK INTRA:                   0.000
REMARK UNBOUND:                 0.000
REMARK SMILES C=C1CC[C@H]2C[C@@H]1C2(C)C
REMARK SMILES IDX 9 1 8 2 5 3 4 4 3 5 2 6 1 7 7 8 6 9 10 10
REMARK H PARENT
REMARK Flexibility Score: inf
ROOT
ATOM      1  C   UNL     1       5.377  20.000  21.855  1.00  0.00     0.012 C 
ATOM      2  C   UNL     1       6.681  20.043  22.690  1.00  0.00    -0.026 C 
ATOM      3  C   UNL     1       7.817  19.217  22.035  1.00  0.00    -0.004 C 
ATOM      4  C   UNL     1       9.205  19.587  22.646  1.00  0.00     0.008 C 
ATOM      5  C   UNL     1       9.208  19.528  24.221  1.00  0.00     0.031 C 
ATOM      6  C   UNL     1       7.805  19.286  24.799  1.00  0.00    -0.074 C 
ATOM      7  C   UNL     1       7.575  19.342  26.115  1.00  0.00     0.008 C 
ATOM      8  C   UNL     1       6.690  18.973  23.807  1.00  0.00     0.021 C 
ATOM      9  C   UNL     1       7.313  17.985  22.807  1.00  0.00     0.012 C 
ATOM     10  C   UNL     1       6.964  21.519  23.081  1.00  0.00     0.012 C 
ENDROOT
TORSDOF 0
ENDMDL
MODEL 2
REMARK VINA RESULT:    -3.665     14.317     15.767
REMARK INTER + INTRA:          -3.665
REMARK INTER:                  -3.665
REMARK INTRA:                   0.000
REMARK UNBOUND:                 0.000
REMARK SMILES C=C1CC[C@H]2C[C@@H]1C2(C)C
REMARK SMILES IDX 9 1 8 2 5 3 4 4 3 5 2 6 1 7 7 8 6 9 10 10
REMARK H PARENT
REMARK Flexibility Score: inf
ROOT
ATOM      1  C   UNL     1      13.040  14.411  37.152  1.00  0.00     0.012 C 
ATOM      2  C   UNL     1      13.570  15.861  37.278  1.00  0.00    -0.026 C 
ATOM      3  C   UNL     1      13.523  16.616  35.926  1.00  0.00    -0.004 C 
ATOM      4  C   UNL     1      13.666  18.156  36.137  1.00  0.00     0.008 C 
ATOM      5  C   UNL     1      14.911  18.532  37.027  1.00  0.00     0.031 C 
ATOM      6  C   UNL     1      15.599  17.293  37.622  1.00  0.00    -0.074 C 
ATOM      7  C   UNL     1      16.587  17.407  38.516  1.00  0.00     0.008 C 
ATOM      8  C   UNL     1      15.109  15.931  37.143  1.00  0.00     0.021 C 
ATOM      9  C   UNL     1      14.934  16.082  35.624  1.00  0.00     0.012 C 
ATOM     10  C   UNL     1      12.908  16.518  38.521  1.00  0.00     0.012 C 
ENDROOT
TORSDOF 0
ENDMDL
MODEL 3
REMARK VINA RESULT:    -3.648     12.433     15.046
REMARK INTER + INTRA:          -3.648
REMARK INTER:                  -3.648
REMARK INTRA:                   0.000
REMARK UNBOUND:                 0.000
REMARK SMILES C=C1CC[C@H]2C[C@@H]1C2(C)C
REMARK SMILES IDX 9 1 8 2 5 3 4 4 3 5 2 6 1 7 7 8 6 9 10 10
REMARK H PARENT
REMARK Flexibility Score: inf
ROOT
ATOM      1  C   UNL     1      14.015  14.120  37.085  1.00  0.00     0.012 C 
ATOM      2  C   UNL     1      14.188  15.566  36.557  1.00  0.00    -0.026 C 
ATOM      3  C   UNL     1      14.355  16.588  37.709  1.00  0.00    -0.004 C 
ATOM      4  C   UNL     1      14.922  17.943  37.180  1.00  0.00     0.008 C 
ATOM      5  C   UNL     1      14.108  18.502  35.952  1.00  0.00     0.031 C 
ATOM      6  C   UNL     1      13.050  17.507  35.451  1.00  0.00    -0.074 C 
ATOM      7  C   UNL     1      12.352  17.736  34.333  1.00  0.00     0.008 C 
ATOM      8  C   UNL     1      12.828  16.251  36.287  1.00  0.00     0.021 C 
ATOM      9  C   UNL     1      12.824  16.739  37.744  1.00  0.00     0.012 C 
ATOM     10  C   UNL     1      15.244  15.548  35.417  1.00  0.00     0.012 C 
ENDROOT
TORSDOF 0
ENDMDL
MODEL 4
REMARK VINA RESULT:    -3.598     13.858     15.569
REMARK INTER + INTRA:          -3.598
REMARK INTER:                  -3.598
REMARK INTRA:                   0.000
REMARK UNBOUND:                 0.000
REMARK SMILES C=C1CC[C@H]2C[C@@H]1C2(C)C
REMARK SMILES IDX 9 1 8 2 5 3 4 4 3 5 2 6 1 7 7 8 6 9 10 10
REMARK H PARENT
REMARK Flexibility Score: inf
ROOT
ATOM      1  C   UNL     1      13.383  17.421  39.107  1.00  0.00     0.012 C 
ATOM      2  C   UNL     1      14.116  17.114  37.776  1.00  0.00    -0.026 C 
ATOM      3  C   UNL     1      13.246  17.461  36.542  1.00  0.00    -0.004 C 
ATOM      4  C   UNL     1      14.115  17.534  35.246  1.00  0.00     0.008 C 
ATOM      5  C   UNL     1      15.013  16.255  35.047  1.00  0.00     0.031 C 
ATOM      6  C   UNL     1      14.957  15.307  36.255  1.00  0.00    -0.074 C 
ATOM      7  C   UNL     1      15.756  14.239  36.339  1.00  0.00     0.008 C 
ATOM      8  C   UNL     1      13.947  15.637  37.349  1.00  0.00     0.021 C 
ATOM      9  C   UNL     1      12.666  16.037  36.599  1.00  0.00     0.012 C 
ATOM     10  C   UNL     1      15.553  17.697  37.863  1.00  0.00     0.012 C 
ENDROOT
TORSDOF 0
ENDMDL
MODEL 5
REMARK VINA RESULT:    -3.552     13.322     15.454
REMARK INTER + INTRA:          -3.552
REMARK INTER:                  -3.552
REMARK INTRA:                   0.000
REMARK UNBOUND:                 0.000
REMARK SMILES C=C1CC[C@H]2C[C@@H]1C2(C)C
REMARK SMILES IDX 9 1 8 2 5 3 4 4 3 5 2 6 1 7 7 8 6 9 10 10
REMARK H PARENT
REMARK Flexibility Score: inf
ROOT
ATOM      1  C   UNL     1      13.889  19.209  36.343  1.00  0.00     0.012 C 
ATOM      2  C   UNL     1      13.708  17.673  36.427  1.00  0.00    -0.026 C 
ATOM      3  C   UNL     1      13.295  17.214  37.848  1.00  0.00    -0.004 C 
ATOM      4  C   UNL     1      12.730  15.758  37.826  1.00  0.00     0.008 C 
ATOM      5  C   UNL     1      13.690  14.748  37.090  1.00  0.00     0.031 C 
ATOM      6  C   UNL     1      14.877  15.455  36.417  1.00  0.00    -0.074 C 
ATOM      7  C   UNL     1      15.726  14.790  35.626  1.00  0.00     0.008 C 
ATOM      8  C   UNL     1      15.046  16.945  36.695  1.00  0.00     0.021 C 
ATOM      9  C   UNL     1      14.788  17.100  38.202  1.00  0.00     0.012 C 
ATOM     10  C   UNL     1      12.849  17.214  35.216  1.00  0.00     0.012 C 
ENDROOT
TORSDOF 0
ENDMDL
MODEL 6
REMARK VINA RESULT:    -3.552      1.544      3.438
REMARK INTER + INTRA:          -3.552
REMARK INTER:                  -3.552
REMARK INTRA:                   0.000
REMARK UNBOUND:                 0.000
REMARK SMILES C=C1CC[C@H]2C[C@@H]1C2(C)C
REMARK SMILES IDX 9 1 8 2 5 3 4 4 3 5 2 6 1 7 7 8 6 9 10 10
REMARK H PARENT
REMARK Flexibility Score: inf
ROOT
ATOM      1  C   UNL     1       7.743  19.026  26.898  1.00  0.00     0.012 C 
ATOM      2  C   UNL     1       8.332  19.591  25.581  1.00  0.00    -0.026 C 
ATOM      3  C   UNL     1       7.824  21.025  25.287  1.00  0.00    -0.004 C 
ATOM      4  C   UNL     1       8.712  21.725  24.209  1.00  0.00     0.008 C 
ATOM      5  C   UNL     1       8.902  20.844  22.916  1.00  0.00     0.031 C 
ATOM      6  C   UNL     1       8.314  19.434  23.078  1.00  0.00    -0.074 C 
ATOM      7  C   UNL     1       8.497  18.491  22.148  1.00  0.00     0.008 C 
ATOM      8  C   UNL     1       7.509  19.159  24.344  1.00  0.00     0.021 C 
ATOM      9  C   UNL     1       6.632  20.407  24.536  1.00  0.00     0.012 C 
ATOM     10  C   UNL     1       9.863  19.327  25.576  1.00  0.00     0.012 C 
ENDROOT
TORSDOF 0
ENDMDL
MODEL 7
REMARK VINA RESULT:    -3.527      3.537      5.804
REMARK INTER + INTRA:          -3.527
REMARK INTER:                  -3.527
REMARK INTRA:                   0.000
REMARK UNBOUND:                 0.000
REMARK SMILES C=C1CC[C@H]2C[C@@H]1C2(C)C
REMARK SMILES IDX 9 1 8 2 5 3 4 4 3 5 2 6 1 7 7 8 6 9 10 10
REMARK H PARENT
REMARK Flexibility Score: inf
ROOT
ATOM      1  C   UNL     1      12.875  19.607  28.342  1.00  0.00     0.012 C 
ATOM      2  C   UNL     1      11.917  20.103  27.229  1.00  0.00    -0.026 C 
ATOM      3  C   UNL     1      10.460  20.241  27.737  1.00  0.00    -0.004 C 
ATOM      4  C   UNL     1       9.604  21.106  26.759  1.00  0.00     0.008 C 
ATOM      5  C   UNL     1       9.709  20.613  25.266  1.00  0.00     0.031 C 
ATOM      6  C   UNL     1      10.757  19.504  25.089  1.00  0.00    -0.074 C 
ATOM      7  C   UNL     1      11.095  19.051  23.877  1.00  0.00     0.008 C 
ATOM      8  C   UNL     1      11.391  18.940  26.356  1.00  0.00     0.021 C 
ATOM      9  C   UNL     1      10.225  18.772  27.343  1.00  0.00     0.012 C 
ATOM     10  C   UNL     1      12.578  21.317  26.520  1.00  0.00     0.012 C 
ENDROOT
TORSDOF 0
ENDMDL
MODEL 8
REMARK VINA RESULT:    -3.518     13.637     15.318
REMARK INTER + INTRA:          -3.518
REMARK INTER:                  -3.518
REMARK INTRA:                   0.000
REMARK UNBOUND:                 0.000
REMARK SMILES C=C1CC[C@H]2C[C@@H]1C2(C)C
REMARK SMILES IDX 9 1 8 2 5 3 4 4 3 5 2 6 1 7 7 8 6 9 10 10
REMARK H PARENT
REMARK Flexibility Score: inf
ROOT
ATOM      1  C   UNL     1      13.996  19.193  36.893  1.00  0.00     0.012 C 
ATOM      2  C   UNL     1      14.246  17.666  36.980  1.00  0.00    -0.026 C 
ATOM      3  C   UNL     1      14.545  17.047  35.592  1.00  0.00    -0.004 C 
ATOM      4  C   UNL     1      15.182  15.628  35.735  1.00  0.00     0.008 C 
ATOM      5  C   UNL     1      14.349  14.684  36.683  1.00  0.00     0.031 C 
ATOM      6  C   UNL     1      13.198  15.424  37.380  1.00  0.00    -0.074 C 
ATOM      7  C   UNL     1      12.463  14.833  38.329  1.00  0.00     0.008 C 
ATOM      8  C   UNL     1      12.927  16.859  36.940  1.00  0.00     0.021 C 
ATOM      9  C   UNL     1      13.033  16.831  35.407  1.00  0.00     0.012 C 
ATOM     10  C   UNL     1      15.239  17.398  38.145  1.00  0.00     0.012 C 
ENDROOT
TORSDOF 0
ENDMDL
MODEL 9
REMARK VINA RESULT:    -3.434      2.717      4.334
REMARK INTER + INTRA:          -3.434
REMARK INTER:                  -3.434
REMARK INTRA:                   0.000
REMARK UNBOUND:                 0.000
REMARK SMILES C=C1CC[C@H]2C[C@@H]1C2(C)C
REMARK SMILES IDX 9 1 8 2 5 3 4 4 3 5 2 6 1 7 7 8 6 9 10 10
REMARK H PARENT
REMARK Flexibility Score: inf
ROOT
ATOM      1  C   UNL     1       7.752  19.163  26.590  1.00  0.00     0.012 C 
ATOM      2  C   UNL     1       9.186  19.618  26.215  1.00  0.00    -0.026 C 
ATOM      3  C   UNL     1       9.299  21.160  26.120  1.00  0.00    -0.004 C 
ATOM      4  C   UNL     1      10.793  21.615  26.147  1.00  0.00     0.008 C 
ATOM      5  C   UNL     1      11.678  20.850  25.092  1.00  0.00     0.031 C 
ATOM      6  C   UNL     1      10.909  19.716  24.397  1.00  0.00    -0.074 C 
ATOM      7  C   UNL     1      11.524  18.861  23.573  1.00  0.00     0.008 C 
ATOM      8  C   UNL     1       9.416  19.611  24.686  1.00  0.00     0.021 C 
ATOM      9  C   UNL     1       8.900  21.059  24.638  1.00  0.00     0.012 C 
ATOM     10  C   UNL     1      10.193  18.850  27.115  1.00  0.00     0.012 C 
ENDROOT
TORSDOF 0
ENDMDL
