MODEL 1
REMARK VINA RESULT:    -4.369      0.000      0.000
REMARK INTER + INTRA:          -8.060
REMARK INTER:                  -6.922
REMARK INTRA:                  -1.138
REMARK UNBOUND:                -1.138
REMARK SMILES CCCCCCCCCCCC(=O)[O-]
REMARK SMILES IDX 7 1 8 2 9 3 10 4 11 5 12 6 13 7 14 8 6 9 5 10 4 11 3 12 2 13
REMARK SMILES IDX 1 14
REMARK H PARENT
REMARK Flexibility Score: inf
ROOT
ATOM      1  C   UNL     1      15.274 -34.222  21.491  1.00  0.00     0.000 C 
ENDROOT
BRANCH   1   2
ATOM      2  C   UNL     1      14.615 -32.925  21.988  1.00  0.00     0.000 C 
BRANCH   2   3
ATOM      3  C   UNL     1      14.039 -32.075  20.845  1.00  0.00     0.000 C 
BRANCH   3   4
ATOM      4  C   UNL     1      12.952 -31.123  21.363  1.00  0.00     0.006 C 
BRANCH   4   5
ATOM      5  C   UNL     1      13.095 -30.836  22.863  1.00  0.00     0.053 C 
BRANCH   5   6
ATOM      6  C   UNL     1      13.317 -29.380  23.133  1.00  0.00     0.041 C 
ATOM      7  O   UNL     1      14.382 -28.822  22.758  1.00  0.00    -0.550 OA
ATOM      8  O   UNL     1      12.334 -28.630  23.768  1.00  0.00    -0.550 OA
ENDBRANCH   5   6
ENDBRANCH   4   5
ENDBRANCH   3   4
ENDBRANCH   2   3
ENDBRANCH   1   2
BRANCH   1   9
ATOM      9  C   UNL     1      15.135 -34.410  19.971  1.00  0.00     0.000 C 
BRANCH   9  10
ATOM     10  C   UNL     1      16.452 -34.844  19.308  1.00  0.00    -0.000 C 
BRANCH  10  11
ATOM     11  C   UNL     1      17.373 -33.654  18.984  1.00  0.00    -0.000 C 
BRANCH  11  12
ATOM     12  C   UNL     1      18.683 -33.687  19.787  1.00  0.00    -0.000 C 
BRANCH  12  13
ATOM     13  C   UNL     1      18.856 -32.455  20.686  1.00  0.00    -0.003 C 
ATOM     14  C   UNL     1      17.697 -31.478  20.507  1.00  0.00     0.004 C 
ENDBRANCH  12  13
ENDBRANCH  11  12
ENDBRANCH  10  11
ENDBRANCH   9  10
ENDBRANCH   1   9
TORSDOF 10
ENDMDL
MODEL 2
REMARK VINA RESULT:    -4.318      3.675      5.703
REMARK INTER + INTRA:          -7.980
REMARK INTER:                  -6.641
REMARK INTRA:                  -1.339
REMARK UNBOUND:                -1.138
REMARK SMILES CCCCCCCCCCCC(=O)[O-]
REMARK SMILES IDX 7 1 8 2 9 3 10 4 11 5 12 6 13 7 14 8 6 9 5 10 4 11 3 12 2 13
REMARK SMILES IDX 1 14
REMARK H PARENT
REMARK Flexibility Score: inf
ROOT
ATOM      1  C   UNL     1      15.366 -32.522  23.795  1.00  0.00     0.000 C 
ENDROOT
BRANCH   1   2
ATOM      2  C   UNL     1      15.737 -33.867  23.147  1.00  0.00     0.000 C 
BRANCH   2   3
ATOM      3  C   UNL     1      15.136 -34.036  21.744  1.00  0.00     0.000 C 
BRANCH   3   4
ATOM      4  C   UNL     1      16.054 -33.422  20.676  1.00  0.00     0.006 C 
BRANCH   4   5
ATOM      5  C   UNL     1      15.924 -34.128  19.321  1.00  0.00     0.053 C 
BRANCH   5   6
ATOM      6  C   UNL     1      17.033 -35.110  19.097  1.00  0.00     0.041 C 
ATOM      7  O   UNL     1      18.222 -34.709  18.995  1.00  0.00    -0.550 OA
ATOM      8  O   UNL     1      16.758 -36.470  19.034  1.00  0.00    -0.550 OA
ENDBRANCH   5   6
ENDBRANCH   4   5
ENDBRANCH   3   4
ENDBRANCH   2   3
ENDBRANCH   1   2
BRANCH   1   9
ATOM      9  C   UNL     1      13.847 -32.281  23.828  1.00  0.00     0.000 C 
BRANCH   9  10
ATOM     10  C   UNL     1      13.471 -30.842  23.441  1.00  0.00    -0.000 C 
BRANCH  10  11
ATOM     11  C   UNL     1      13.070 -30.711  21.961  1.00  0.00    -0.000 C 
BRANCH  11  12
ATOM     12  C   UNL     1      14.245 -30.283  21.068  1.00  0.00    -0.000 C 
BRANCH  12  13
ATOM     13  C   UNL     1      15.228 -29.352  21.790  1.00  0.00    -0.003 C 
ATOM     14  C   UNL     1      16.669 -29.816  21.594  1.00  0.00     0.004 C 
ENDBRANCH  12  13
ENDBRANCH  11  12
ENDBRANCH  10  11
ENDBRANCH   9  10
ENDBRANCH   1   9
TORSDOF 10
ENDMDL
MODEL 3
REMARK VINA RESULT:    -4.309      1.647      3.150
REMARK INTER + INTRA:          -7.966
REMARK INTER:                  -6.555
REMARK INTRA:                  -1.411
REMARK UNBOUND:                -1.138
REMARK SMILES CCCCCCCCCCCC(=O)[O-]
REMARK SMILES IDX 7 1 8 2 9 3 10 4 11 5 12 6 13 7 14 8 6 9 5 10 4 11 3 12 2 13
REMARK SMILES IDX 1 14
REMARK H PARENT
REMARK Flexibility Score: inf
ROOT
ATOM      1  C   UNL     1      16.896 -30.123  22.218  1.00  0.00     0.000 C 
ENDROOT
BRANCH   1   2
ATOM      2  C   UNL     1      15.494 -29.498  22.298  1.00  0.00     0.000 C 
BRANCH   2   3
ATOM      3  C   UNL     1      14.473 -30.213  21.401  1.00  0.00     0.000 C 
BRANCH   3   4
ATOM      4  C   UNL     1      13.097 -30.279  22.080  1.00  0.00     0.006 C 
BRANCH   4   5
ATOM      5  C   UNL     1      13.135 -29.766  23.525  1.00  0.00     0.053 C 
BRANCH   5   6
ATOM      6  C   UNL     1      12.219 -28.599  23.726  1.00  0.00     0.041 C 
ATOM      7  O   UNL     1      11.148 -28.514  23.069  1.00  0.00    -0.550 OA
ATOM      8  O   UNL     1      12.529 -27.621  24.664  1.00  0.00    -0.550 OA
ENDBRANCH   5   6
ENDBRANCH   4   5
ENDBRANCH   3   4
ENDBRANCH   2   3
ENDBRANCH   1   2
BRANCH   1   9
ATOM      9  C   UNL     1      17.174 -30.778  20.854  1.00  0.00     0.000 C 
BRANCH   9  10
ATOM     10  C   UNL     1      17.834 -32.159  20.987  1.00  0.00    -0.000 C 
BRANCH  10  11
ATOM     11  C   UNL     1      16.848 -33.314  20.734  1.00  0.00    -0.000 C 
BRANCH  11  12
ATOM     12  C   UNL     1      16.398 -34.001  22.034  1.00  0.00    -0.000 C 
BRANCH  12  13
ATOM     13  C   UNL     1      14.948 -33.663  22.409  1.00  0.00    -0.003 C 
ATOM     14  C   UNL     1      14.872 -33.040  23.800  1.00  0.00     0.004 C 
ENDBRANCH  12  13
ENDBRANCH  11  12
ENDBRANCH  10  11
ENDBRANCH   9  10
ENDBRANCH   1   9
TORSDOF 10
ENDMDL
MODEL 4
REMARK VINA RESULT:    -4.308      2.061      3.868
REMARK INTER + INTRA:          -7.964
REMARK INTER:                  -7.528
REMARK INTRA:                  -0.436
REMARK UNBOUND:                -1.138
REMARK SMILES CCCCCCCCCCCC(=O)[O-]
REMARK SMILES IDX 7 1 8 2 9 3 10 4 11 5 12 6 13 7 14 8 6 9 5 10 4 11 3 12 2 13
REMARK SMILES IDX 1 14
REMARK H PARENT
REMARK Flexibility Score: inf
ROOT
ATOM      1  C   UNL     1      13.511 -31.269  22.801  1.00  0.00     0.000 C 
ENDROOT
BRANCH   1   2
ATOM      2  C   UNL     1      13.124 -30.061  23.671  1.00  0.00     0.000 C 
BRANCH   2   3
ATOM      3  C   UNL     1      12.734 -28.831  22.838  1.00  0.00     0.000 C 
BRANCH   3   4
ATOM      4  C   UNL     1      11.883 -27.856  23.665  1.00  0.00     0.006 C 
BRANCH   4   5
ATOM      5  C   UNL     1      12.629 -27.334  24.900  1.00  0.00     0.053 C 
BRANCH   5   6
ATOM      6  C   UNL     1      13.474 -26.141  24.576  1.00  0.00     0.041 C 
ATOM      7  O   UNL     1      14.349 -25.744  25.390  1.00  0.00    -0.550 OA
ATOM      8  O   UNL     1      13.319 -25.485  23.360  1.00  0.00    -0.550 OA
ENDBRANCH   5   6
ENDBRANCH   4   5
ENDBRANCH   3   4
ENDBRANCH   2   3
ENDBRANCH   1   2
BRANCH   1   9
ATOM      9  C   UNL     1      13.165 -31.063  21.317  1.00  0.00     0.000 C 
BRANCH   9  10
ATOM     10  C   UNL     1      13.655 -32.220  20.432  1.00  0.00    -0.000 C 
BRANCH  10  11
ATOM     11  C   UNL     1      14.658 -33.137  21.154  1.00  0.00    -0.000 C 
BRANCH  11  12
ATOM     12  C   UNL     1      14.964 -34.417  20.361  1.00  0.00    -0.000 C 
BRANCH  12  13
ATOM     13  C   UNL     1      16.468 -34.624  20.132  1.00  0.00    -0.003 C 
ATOM     14  C   UNL     1      16.738 -35.948  19.421  1.00  0.00     0.004 C 
ENDBRANCH  12  13
ENDBRANCH  11  12
ENDBRANCH  10  11
ENDBRANCH   9  10
ENDBRANCH   1   9
TORSDOF 10
ENDMDL
MODEL 5
REMARK VINA RESULT:    -4.262      2.592      6.094
REMARK INTER + INTRA:          -7.891
REMARK INTER:                  -7.225
REMARK INTRA:                  -0.666
REMARK UNBOUND:                -1.138
REMARK SMILES CCCCCCCCCCCC(=O)[O-]
REMARK SMILES IDX 7 1 8 2 9 3 10 4 11 5 12 6 13 7 14 8 6 9 5 10 4 11 3 12 2 13
REMARK SMILES IDX 1 14
REMARK H PARENT
REMARK Flexibility Score: inf
ROOT
ATOM      1  C   UNL     1      14.214 -32.418  20.956  1.00  0.00     0.000 C 
ENDROOT
BRANCH   1   2
ATOM      2  C   UNL     1      14.455 -33.609  20.013  1.00  0.00     0.000 C 
BRANCH   2   3
ATOM      3  C   UNL     1      15.549 -34.558  20.524  1.00  0.00     0.000 C 
BRANCH   3   4
ATOM      4  C   UNL     1      16.420 -35.066  19.365  1.00  0.00     0.006 C 
BRANCH   4   5
ATOM      5  C   UNL     1      17.385 -33.992  18.848  1.00  0.00     0.053 C 
BRANCH   5   6
ATOM      6  C   UNL     1      18.123 -33.321  19.965  1.00  0.00     0.041 C 
ATOM      7  O   UNL     1      19.053 -33.925  20.562  1.00  0.00    -0.550 OA
ATOM      8  O   UNL     1      17.806 -32.018  20.327  1.00  0.00    -0.550 OA
ENDBRANCH   5   6
ENDBRANCH   4   5
ENDBRANCH   3   4
ENDBRANCH   2   3
ENDBRANCH   1   2
BRANCH   1   9
ATOM      9  C   UNL     1      14.643 -32.714  22.403  1.00  0.00     0.000 C 
BRANCH   9  10
ATOM     10  C   UNL     1      13.907 -31.836  23.427  1.00  0.00    -0.000 C 
BRANCH  10  11
ATOM     11  C   UNL     1      12.967 -30.813  22.765  1.00  0.00    -0.000 C 
BRANCH  11  12
ATOM     12  C   UNL     1      13.313 -29.364  23.143  1.00  0.00    -0.000 C 
BRANCH  12  13
ATOM     13  C   UNL     1      12.081 -28.558  23.579  1.00  0.00    -0.003 C 
ATOM     14  C   UNL     1      12.463 -27.469  24.578  1.00  0.00     0.004 C 
ENDBRANCH  12  13
ENDBRANCH  11  12
ENDBRANCH  10  11
ENDBRANCH   9  10
ENDBRANCH   1   9
TORSDOF 10
ENDMDL
MODEL 6
REMARK VINA RESULT:    -4.233      1.645      3.019
REMARK INTER + INTRA:          -7.845
REMARK INTER:                  -6.643
REMARK INTRA:                  -1.202
REMARK UNBOUND:                -1.138
REMARK SMILES CCCCCCCCCCCC(=O)[O-]
REMARK SMILES IDX 7 1 8 2 9 3 10 4 11 5 12 6 13 7 14 8 6 9 5 10 4 11 3 12 2 13
REMARK SMILES IDX 1 14
REMARK H PARENT
REMARK Flexibility Score: inf
ROOT
ATOM      1  C   UNL     1      16.943 -32.188  22.029  1.00  0.00     0.000 C 
ENDROOT
BRANCH   1   2
ATOM      2  C   UNL     1      16.290 -33.499  22.497  1.00  0.00     0.000 C 
BRANCH   2   3
ATOM      3  C   UNL     1      14.778 -33.359  22.731  1.00  0.00     0.000 C 
BRANCH   3   4
ATOM      4  C   UNL     1      14.447 -32.009  23.384  1.00  0.00     0.006 C 
BRANCH   4   5
ATOM      5  C   UNL     1      13.227 -31.335  22.743  1.00  0.00     0.053 C 
BRANCH   5   6
ATOM      6  C   UNL     1      13.482 -30.968  21.313  1.00  0.00     0.041 C 
ATOM      7  O   UNL     1      12.833 -31.527  20.391  1.00  0.00    -0.550 OA
ATOM      8  O   UNL     1      14.412 -29.984  21.001  1.00  0.00    -0.550 OA
ENDBRANCH   5   6
ENDBRANCH   4   5
ENDBRANCH   3   4
ENDBRANCH   2   3
ENDBRANCH   1   2
BRANCH   1   9
ATOM      9  C   UNL     1      17.320 -32.215  20.537  1.00  0.00     0.000 C 
BRANCH   9  10
ATOM     10  C   UNL     1      18.587 -33.040  20.265  1.00  0.00    -0.000 C 
BRANCH  10  11
ATOM     11  C   UNL     1      18.354 -34.169  19.245  1.00  0.00    -0.000 C 
BRANCH  11  12
ATOM     12  C   UNL     1      16.862 -34.410  18.964  1.00  0.00    -0.000 C 
BRANCH  12  13
ATOM     13  C   UNL     1      16.389 -35.793  19.432  1.00  0.00    -0.003 C 
ATOM     14  C   UNL     1      17.495 -36.525  20.188  1.00  0.00     0.004 C 
ENDBRANCH  12  13
ENDBRANCH  11  12
ENDBRANCH  10  11
ENDBRANCH   9  10
ENDBRANCH   1   9
TORSDOF 10
ENDMDL
MODEL 7
REMARK VINA RESULT:    -4.208      3.709      6.045
REMARK INTER + INTRA:          -7.806
REMARK INTER:                  -6.400
REMARK INTRA:                  -1.406
REMARK UNBOUND:                -1.138
REMARK SMILES CCCCCCCCCCCC(=O)[O-]
REMARK SMILES IDX 7 1 8 2 9 3 10 4 11 5 12 6 13 7 14 8 6 9 5 10 4 11 3 12 2 13
REMARK SMILES IDX 1 14
REMARK H PARENT
REMARK Flexibility Score: inf
ROOT
ATOM      1  C   UNL     1      16.006 -33.593  22.495  1.00  0.00     0.000 C 
ENDROOT
BRANCH   1   2
ATOM      2  C   UNL     1      14.978 -34.060  21.452  1.00  0.00     0.000 C 
BRANCH   2   3
ATOM      3  C   UNL     1      15.435 -33.799  20.009  1.00  0.00     0.000 C 
BRANCH   3   4
ATOM      4  C   UNL     1      16.927 -33.440  19.961  1.00  0.00     0.006 C 
BRANCH   4   5
ATOM      5  C   UNL     1      17.738 -34.433  19.119  1.00  0.00     0.053 C 
BRANCH   5   6
ATOM      6  C   UNL     1      17.526 -35.846  19.567  1.00  0.00     0.041 C 
ATOM      7  O   UNL     1      17.026 -36.692  18.779  1.00  0.00    -0.550 OA
ATOM      8  O   UNL     1      17.911 -36.239  20.843  1.00  0.00    -0.550 OA
ENDBRANCH   5   6
ENDBRANCH   4   5
ENDBRANCH   3   4
ENDBRANCH   2   3
ENDBRANCH   1   2
BRANCH   1   9
ATOM      9  C   UNL     1      15.437 -32.530  23.451  1.00  0.00     0.000 C 
BRANCH   9  10
ATOM     10  C   UNL     1      15.945 -31.116  23.129  1.00  0.00    -0.000 C 
BRANCH  10  11
ATOM     11  C   UNL     1      14.818 -30.168  22.683  1.00  0.00    -0.000 C 
BRANCH  11  12
ATOM     12  C   UNL     1      14.519 -30.273  21.179  1.00  0.00    -0.000 C 
BRANCH  12  13
ATOM     13  C   UNL     1      13.167 -30.941  20.891  1.00  0.00    -0.003 C 
ATOM     14  C   UNL     1      12.159 -30.641  21.997  1.00  0.00     0.004 C 
ENDBRANCH  12  13
ENDBRANCH  11  12
ENDBRANCH  10  11
ENDBRANCH   9  10
ENDBRANCH   1   9
TORSDOF 10
ENDMDL
MODEL 8
REMARK VINA RESULT:    -4.198      3.379      6.776
REMARK INTER + INTRA:          -7.790
REMARK INTER:                  -7.209
REMARK INTRA:                  -0.581
REMARK UNBOUND:                -1.138
REMARK SMILES CCCCCCCCCCCC(=O)[O-]
REMARK SMILES IDX 7 1 8 2 9 3 10 4 11 5 12 6 13 7 14 8 6 9 5 10 4 11 3 12 2 13
REMARK SMILES IDX 1 14
REMARK H PARENT
REMARK Flexibility Score: inf
ROOT
ATOM      1  C   UNL     1      15.288 -30.403  22.634  1.00  0.00     0.000 C 
ENDROOT
BRANCH   1   2
ATOM      2  C   UNL     1      15.445 -31.523  21.593  1.00  0.00     0.000 C 
BRANCH   2   3
ATOM      3  C   UNL     1      14.097 -32.096  21.129  1.00  0.00     0.000 C 
BRANCH   3   4
ATOM      4  C   UNL     1      14.304 -33.240  20.125  1.00  0.00     0.006 C 
BRANCH   4   5
ATOM      5  C   UNL     1      15.060 -34.425  20.740  1.00  0.00     0.053 C 
BRANCH   5   6
ATOM      6  C   UNL     1      16.216 -34.849  19.888  1.00  0.00     0.041 C 
ATOM      7  O   UNL     1      16.836 -35.914  20.146  1.00  0.00    -0.550 OA
ATOM      8  O   UNL     1      16.589 -34.087  18.788  1.00  0.00    -0.550 OA
ENDBRANCH   5   6
ENDBRANCH   4   5
ENDBRANCH   3   4
ENDBRANCH   2   3
ENDBRANCH   1   2
BRANCH   1   9
ATOM      9  C   UNL     1      14.082 -29.493  22.346  1.00  0.00     0.000 C 
BRANCH   9  10
ATOM     10  C   UNL     1      13.071 -29.471  23.503  1.00  0.00    -0.000 C 
BRANCH  10  11
ATOM     11  C   UNL     1      11.740 -28.803  23.116  1.00  0.00    -0.000 C 
BRANCH  11  12
ATOM     12  C   UNL     1      11.550 -27.433  23.789  1.00  0.00    -0.000 C 
BRANCH  12  13
ATOM     13  C   UNL     1      12.780 -26.997  24.597  1.00  0.00    -0.003 C 
ATOM     14  C   UNL     1      13.503 -25.838  23.914  1.00  0.00     0.004 C 
ENDBRANCH  12  13
ENDBRANCH  11  12
ENDBRANCH  10  11
ENDBRANCH   9  10
ENDBRANCH   1   9
TORSDOF 10
ENDMDL
MODEL 9
REMARK VINA RESULT:    -4.193      1.302      1.877
REMARK INTER + INTRA:          -7.782
REMARK INTER:                  -6.374
REMARK INTRA:                  -1.408
REMARK UNBOUND:                -1.138
REMARK SMILES CCCCCCCCCCCC(=O)[O-]
REMARK SMILES IDX 7 1 8 2 9 3 10 4 11 5 12 6 13 7 14 8 6 9 5 10 4 11 3 12 2 13
REMARK SMILES IDX 1 14
REMARK H PARENT
REMARK Flexibility Score: inf
ROOT
ATOM      1  C   UNL     1      15.335 -34.785  20.081  1.00  0.00     0.000 C 
ENDROOT
BRANCH   1   2
ATOM      2  C   UNL     1      14.857 -33.665  21.020  1.00  0.00     0.000 C 
BRANCH   2   3
ATOM      3  C   UNL     1      15.369 -33.836  22.458  1.00  0.00     0.000 C 
BRANCH   3   4
ATOM      4  C   UNL     1      14.554 -32.978  23.437  1.00  0.00     0.006 C 
BRANCH   4   5
ATOM      5  C   UNL     1      14.761 -31.476  23.207  1.00  0.00     0.053 C 
BRANCH   5   6
ATOM      6  C   UNL     1      13.460 -30.758  23.018  1.00  0.00     0.041 C 
ATOM      7  O   UNL     1      13.080 -29.903  23.861  1.00  0.00    -0.550 OA
ATOM      8  O   UNL     1      12.683 -31.006  21.893  1.00  0.00    -0.550 OA
ENDBRANCH   5   6
ENDBRANCH   4   5
ENDBRANCH   3   4
ENDBRANCH   2   3
ENDBRANCH   1   2
BRANCH   1   9
ATOM      9  C   UNL     1      16.718 -35.332  20.472  1.00  0.00     0.000 C 
BRANCH   9  10
ATOM     10  C   UNL     1      17.784 -35.060  19.399  1.00  0.00    -0.000 C 
BRANCH  10  11
ATOM     11  C   UNL     1      18.380 -33.645  19.499  1.00  0.00    -0.000 C 
BRANCH  11  12
ATOM     12  C   UNL     1      19.030 -33.375  20.866  1.00  0.00    -0.000 C 
BRANCH  12  13
ATOM     13  C   UNL     1      18.509 -32.090  21.524  1.00  0.00    -0.003 C 
ATOM     14  C   UNL     1      17.625 -31.300  20.562  1.00  0.00     0.004 C 
ENDBRANCH  12  13
ENDBRANCH  11  12
ENDBRANCH  10  11
ENDBRANCH   9  10
ENDBRANCH   1   9
TORSDOF 10
ENDMDL
