MODEL 1
REMARK VINA RESULT:    -0.978      0.000      0.000
REMARK INTER + INTRA:          -3.772
REMARK INTER:                  -1.665
REMARK INTRA:                  -2.107
REMARK UNBOUND:                -2.107
REMARK SMILES CCCCCCCCCCCCCC(=O)[O-]
REMARK SMILES IDX 8 1 9 2 10 3 11 4 12 5 13 6 14 7 15 8 16 9 7 10 6 11 5 12
REMARK SMILES IDX 4 13 3 14 2 15 1 16
REMARK H PARENT
REMARK Flexibility Score: inf
ROOT
ATOM      1  C   UNL     1     -14.278 -25.728  82.724  1.00  0.00     0.000 C 
ENDROOT
BRANCH   1   2
ATOM      2  C   UNL     1     -15.769 -26.079  82.573  1.00  0.00     0.000 C 
BRANCH   2   3
ATOM      3  C   UNL     1     -16.602 -24.916  82.008  1.00  0.00     0.000 C 
BRANCH   3   4
ATOM      4  C   UNL     1     -15.720 -23.837  81.342  1.00  0.00     0.000 C 
BRANCH   4   5
ATOM      5  C   UNL     1     -16.199 -22.399  81.614  1.00  0.00     0.006 C 
BRANCH   5   6
ATOM      6  C   UNL     1     -15.168 -21.319  81.250  1.00  0.00     0.053 C 
BRANCH   6   7
ATOM      7  C   UNL     1     -15.823 -20.076  80.729  1.00  0.00     0.041 C 
ATOM      8  O   UNL     1     -15.154 -19.235  80.074  1.00  0.00    -0.550 OA
ATOM      9  O   UNL     1     -17.168 -19.836  80.981  1.00  0.00    -0.550 OA
ENDBRANCH   6   7
ENDBRANCH   5   6
ENDBRANCH   4   5
ENDBRANCH   3   4
ENDBRANCH   2   3
ENDBRANCH   1   2
BRANCH   1  10
ATOM     10  C   UNL     1     -13.732 -25.795  84.165  1.00  0.00     0.000 C 
BRANCH  10  11
ATOM     11  C   UNL     1     -12.930 -24.561  84.616  1.00  0.00    -0.000 C 
BRANCH  11  12
ATOM     12  C   UNL     1     -13.257 -23.303  83.797  1.00  0.00    -0.000 C 
BRANCH  12  13
ATOM     13  C   UNL     1     -13.686 -22.150  84.712  1.00  0.00    -0.000 C 
BRANCH  13  14
ATOM     14  C   UNL     1     -14.701 -22.626  85.758  1.00  0.00    -0.000 C 
BRANCH  14  15
ATOM     15  C   UNL     1     -16.096 -22.776  85.143  1.00  0.00    -0.003 C 
ATOM     16  C   UNL     1     -16.755 -24.081  85.580  1.00  0.00     0.004 C 
ENDBRANCH  14  15
ENDBRANCH  13  14
ENDBRANCH  12  13
ENDBRANCH  11  12
ENDBRANCH  10  11
ENDBRANCH   1  10
TORSDOF 12
ENDMDL
MODEL 2
REMARK VINA RESULT:    -0.965      2.613      4.126
REMARK INTER + INTRA:          -3.750
REMARK INTER:                  -1.499
REMARK INTRA:                  -2.251
REMARK UNBOUND:                -2.107
REMARK SMILES CCCCCCCCCCCCCC(=O)[O-]
REMARK SMILES IDX 8 1 9 2 10 3 11 4 12 5 13 6 14 7 15 8 16 9 7 10 6 11 5 12
REMARK SMILES IDX 4 13 3 14 2 15 1 16
REMARK H PARENT
REMARK Flexibility Score: inf
ROOT
ATOM      1  C   UNL     1     -14.279 -21.418  81.893  1.00  0.00     0.000 C 
ENDROOT
BRANCH   1   2
ATOM      2  C   UNL     1     -14.648 -22.590  80.965  1.00  0.00     0.000 C 
BRANCH   2   3
ATOM      3  C   UNL     1     -16.082 -23.100  81.188  1.00  0.00     0.000 C 
BRANCH   3   4
ATOM      4  C   UNL     1     -16.875 -22.202  82.162  1.00  0.00     0.000 C 
BRANCH   4   5
ATOM      5  C   UNL     1     -17.661 -22.993  83.225  1.00  0.00     0.006 C 
BRANCH   5   6
ATOM      6  C   UNL     1     -17.943 -24.451  82.833  1.00  0.00     0.053 C 
BRANCH   6   7
ATOM      7  C   UNL     1     -19.328 -24.624  82.287  1.00  0.00     0.041 C 
ATOM      8  O   UNL     1     -19.514 -24.692  81.044  1.00  0.00    -0.550 OA
ATOM      9  O   UNL     1     -20.415 -24.692  83.149  1.00  0.00    -0.550 OA
ENDBRANCH   6   7
ENDBRANCH   5   6
ENDBRANCH   4   5
ENDBRANCH   3   4
ENDBRANCH   2   3
ENDBRANCH   1   2
BRANCH   1  10
ATOM     10  C   UNL     1     -12.907 -21.540  82.587  1.00  0.00     0.000 C 
BRANCH  10  11
ATOM     11  C   UNL     1     -12.927 -21.333  84.112  1.00  0.00    -0.000 C 
BRANCH  11  12
ATOM     12  C   UNL     1     -14.004 -22.173  84.816  1.00  0.00    -0.000 C 
BRANCH  12  13
ATOM     13  C   UNL     1     -13.557 -23.633  84.951  1.00  0.00    -0.000 C 
BRANCH  13  14
ATOM     14  C   UNL     1     -14.697 -24.593  84.588  1.00  0.00    -0.000 C 
BRANCH  14  15
ATOM     15  C   UNL     1     -14.314 -25.475  83.394  1.00  0.00    -0.003 C 
ATOM     16  C   UNL     1     -12.875 -25.219  82.957  1.00  0.00     0.004 C 
ENDBRANCH  14  15
ENDBRANCH  13  14
ENDBRANCH  12  13
ENDBRANCH  11  12
ENDBRANCH  10  11
ENDBRANCH   1  10
TORSDOF 12
ENDMDL
MODEL 3
REMARK VINA RESULT:    -0.901      2.201      3.881
REMARK INTER + INTRA:          -3.640
REMARK INTER:                  -1.762
REMARK INTRA:                  -1.878
REMARK UNBOUND:                -2.107
REMARK SMILES CCCCCCCCCCCCCC(=O)[O-]
REMARK SMILES IDX 8 1 9 2 10 3 11 4 12 5 13 6 14 7 15 8 16 9 7 10 6 11 5 12
REMARK SMILES IDX 4 13 3 14 2 15 1 16
REMARK H PARENT
REMARK Flexibility Score: inf
ROOT
ATOM      1  C   UNL     1     -13.131 -21.502  84.153  1.00  0.00     0.000 C 
ENDROOT
BRANCH   1   2
ATOM      2  C   UNL     1     -12.960 -21.670  82.632  1.00  0.00     0.000 C 
BRANCH   2   3
ATOM      3  C   UNL     1     -13.433 -20.440  81.839  1.00  0.00     0.000 C 
BRANCH   3   4
ATOM      4  C   UNL     1     -14.750 -20.709  81.079  1.00  0.00     0.000 C 
BRANCH   4   5
ATOM      5  C   UNL     1     -14.665 -20.398  79.572  1.00  0.00     0.006 C 
BRANCH   5   6
ATOM      6  C   UNL     1     -13.678 -21.292  78.807  1.00  0.00     0.053 C 
BRANCH   6   7
ATOM      7  C   UNL     1     -13.986 -22.747  78.990  1.00  0.00     0.041 C 
ATOM      8  O   UNL     1     -13.116 -23.525  79.460  1.00  0.00    -0.550 OA
ATOM      9  O   UNL     1     -15.229 -23.250  78.624  1.00  0.00    -0.550 OA
ENDBRANCH   6   7
ENDBRANCH   5   6
ENDBRANCH   4   5
ENDBRANCH   3   4
ENDBRANCH   2   3
ENDBRANCH   1   2
BRANCH   1  10
ATOM     10  C   UNL     1     -13.153 -22.817  84.958  1.00  0.00     0.000 C 
BRANCH  10  11
ATOM     11  C   UNL     1     -14.363 -22.989  85.893  1.00  0.00    -0.000 C 
BRANCH  11  12
ATOM     12  C   UNL     1     -15.701 -22.691  85.200  1.00  0.00    -0.000 C 
BRANCH  12  13
ATOM     13  C   UNL     1     -16.128 -23.861  84.307  1.00  0.00    -0.000 C 
BRANCH  13  14
ATOM     14  C   UNL     1     -16.297 -23.409  82.851  1.00  0.00    -0.000 C 
BRANCH  14  15
ATOM     15  C   UNL     1     -15.796 -24.484  81.879  1.00  0.00    -0.003 C 
ATOM     16  C   UNL     1     -14.466 -25.070  82.342  1.00  0.00     0.004 C 
ENDBRANCH  14  15
ENDBRANCH  13  14
ENDBRANCH  12  13
ENDBRANCH  11  12
ENDBRANCH  10  11
ENDBRANCH   1  10
TORSDOF 12
ENDMDL
MODEL 4
REMARK VINA RESULT:    -0.893      2.639      4.467
REMARK INTER + INTRA:          -3.626
REMARK INTER:                  -1.601
REMARK INTRA:                  -2.025
REMARK UNBOUND:                -2.107
REMARK SMILES CCCCCCCCCCCCCC(=O)[O-]
REMARK SMILES IDX 8 1 9 2 10 3 11 4 12 5 13 6 14 7 15 8 16 9 7 10 6 11 5 12
REMARK SMILES IDX 4 13 3 14 2 15 1 16
REMARK H PARENT
REMARK Flexibility Score: inf
ROOT
ATOM      1  C   UNL     1     -14.800 -25.425  82.492  1.00  0.00     0.000 C 
ENDROOT
BRANCH   1   2
ATOM      2  C   UNL     1     -15.309 -25.847  83.882  1.00  0.00     0.000 C 
BRANCH   2   3
ATOM      3  C   UNL     1     -16.729 -25.337  84.178  1.00  0.00     0.000 C 
BRANCH   3   4
ATOM      4  C   UNL     1     -16.780 -24.456  85.446  1.00  0.00     0.000 C 
BRANCH   4   5
ATOM      5  C   UNL     1     -16.507 -22.965  85.169  1.00  0.00     0.006 C 
BRANCH   5   6
ATOM      6  C   UNL     1     -15.352 -22.380  85.997  1.00  0.00     0.053 C 
BRANCH   6   7
ATOM      7  C   UNL     1     -14.030 -22.561  85.315  1.00  0.00     0.041 C 
ATOM      8  O   UNL     1     -13.292 -23.536  85.615  1.00  0.00    -0.550 OA
ATOM      9  O   UNL     1     -13.603 -21.645  84.363  1.00  0.00    -0.550 OA
ENDBRANCH   6   7
ENDBRANCH   5   6
ENDBRANCH   4   5
ENDBRANCH   3   4
ENDBRANCH   2   3
ENDBRANCH   1   2
BRANCH   1  10
ATOM     10  C   UNL     1     -15.713 -24.443  81.731  1.00  0.00     0.000 C 
BRANCH  10  11
ATOM     11  C   UNL     1     -15.137 -23.028  81.543  1.00  0.00    -0.000 C 
BRANCH  11  12
ATOM     12  C   UNL     1     -16.192 -21.925  81.710  1.00  0.00    -0.000 C 
BRANCH  12  13
ATOM     13  C   UNL     1     -17.161 -21.909  80.522  1.00  0.00    -0.000 C 
BRANCH  13  14
ATOM     14  C   UNL     1     -18.611 -21.759  80.997  1.00  0.00    -0.000 C 
BRANCH  14  15
ATOM     15  C   UNL     1     -18.834 -22.492  82.325  1.00  0.00    -0.003 C 
ATOM     16  C   UNL     1     -19.410 -23.886  82.097  1.00  0.00     0.004 C 
ENDBRANCH  14  15
ENDBRANCH  13  14
ENDBRANCH  12  13
ENDBRANCH  11  12
ENDBRANCH  10  11
ENDBRANCH   1  10
TORSDOF 12
ENDMDL
MODEL 5
REMARK VINA RESULT:    -0.862      2.316      2.936
REMARK INTER + INTRA:          -3.573
REMARK INTER:                  -1.488
REMARK INTRA:                  -2.085
REMARK UNBOUND:                -2.107
REMARK SMILES CCCCCCCCCCCCCC(=O)[O-]
REMARK SMILES IDX 8 1 9 2 10 3 11 4 12 5 13 6 14 7 15 8 16 9 7 10 6 11 5 12
REMARK SMILES IDX 4 13 3 14 2 15 1 16
REMARK H PARENT
REMARK Flexibility Score: inf
ROOT
ATOM      1  C   UNL     1     -14.248 -24.126  81.575  1.00  0.00     0.000 C 
ENDROOT
BRANCH   1   2
ATOM      2  C   UNL     1     -15.315 -24.857  82.410  1.00  0.00     0.000 C 
BRANCH   2   3
ATOM      3  C   UNL     1     -16.648 -24.093  82.476  1.00  0.00     0.000 C 
BRANCH   3   4
ATOM      4  C   UNL     1     -16.470 -22.585  82.194  1.00  0.00     0.000 C 
BRANCH   4   5
ATOM      5  C   UNL     1     -17.802 -21.817  82.100  1.00  0.00     0.006 C 
BRANCH   5   6
ATOM      6  C   UNL     1     -18.991 -22.551  82.740  1.00  0.00     0.053 C 
BRANCH   6   7
ATOM      7  C   UNL     1     -19.772 -21.656  83.654  1.00  0.00     0.041 C 
ATOM      8  O   UNL     1     -19.248 -20.607  84.112  1.00  0.00    -0.550 OA
ATOM      9  O   UNL     1     -21.071 -21.988  84.015  1.00  0.00    -0.550 OA
ENDBRANCH   6   7
ENDBRANCH   5   6
ENDBRANCH   4   5
ENDBRANCH   3   4
ENDBRANCH   2   3
ENDBRANCH   1   2
BRANCH   1  10
ATOM     10  C   UNL     1     -12.875 -23.971  82.260  1.00  0.00     0.000 C 
BRANCH  10  11
ATOM     11  C   UNL     1     -12.929 -23.705  83.776  1.00  0.00    -0.000 C 
BRANCH  11  12
ATOM     12  C   UNL     1     -13.283 -22.248  84.115  1.00  0.00    -0.000 C 
BRANCH  12  13
ATOM     13  C   UNL     1     -14.361 -22.185  85.203  1.00  0.00    -0.000 C 
BRANCH  13  14
ATOM     14  C   UNL     1     -14.540 -23.550  85.879  1.00  0.00    -0.000 C 
BRANCH  14  15
ATOM     15  C   UNL     1     -16.023 -23.854  86.120  1.00  0.00    -0.003 C 
ATOM     16  C   UNL     1     -16.877 -22.599  85.965  1.00  0.00     0.004 C 
ENDBRANCH  14  15
ENDBRANCH  13  14
ENDBRANCH  12  13
ENDBRANCH  11  12
ENDBRANCH  10  11
ENDBRANCH   1  10
TORSDOF 12
ENDMDL
MODEL 6
REMARK VINA RESULT:    -0.845      2.897      3.716
REMARK INTER + INTRA:          -3.545
REMARK INTER:                  -1.511
REMARK INTRA:                  -2.034
REMARK UNBOUND:                -2.107
REMARK SMILES CCCCCCCCCCCCCC(=O)[O-]
REMARK SMILES IDX 8 1 9 2 10 3 11 4 12 5 13 6 14 7 15 8 16 9 7 10 6 11 5 12
REMARK SMILES IDX 4 13 3 14 2 15 1 16
REMARK H PARENT
REMARK Flexibility Score: inf
ROOT
ATOM      1  C   UNL     1     -15.445 -25.756  83.696  1.00  0.00     0.000 C 
ENDROOT
BRANCH   1   2
ATOM      2  C   UNL     1     -16.706 -25.038  84.210  1.00  0.00     0.000 C 
BRANCH   2   3
ATOM      3  C   UNL     1     -17.048 -23.778  83.396  1.00  0.00     0.000 C 
BRANCH   3   4
ATOM      4  C   UNL     1     -17.726 -24.120  82.051  1.00  0.00     0.000 C 
BRANCH   4   5
ATOM      5  C   UNL     1     -16.944 -23.612  80.824  1.00  0.00     0.006 C 
BRANCH   5   6
ATOM      6  C   UNL     1     -16.037 -24.672  80.181  1.00  0.00     0.053 C 
BRANCH   6   7
ATOM      7  C   UNL     1     -16.778 -25.945  79.903  1.00  0.00     0.041 C 
ATOM      8  O   UNL     1     -16.425 -27.017  80.460  1.00  0.00    -0.550 OA
ATOM      9  O   UNL     1     -17.846 -25.953  79.016  1.00  0.00    -0.550 OA
ENDBRANCH   6   7
ENDBRANCH   5   6
ENDBRANCH   4   5
ENDBRANCH   3   4
ENDBRANCH   2   3
ENDBRANCH   1   2
BRANCH   1  10
ATOM     10  C   UNL     1     -14.225 -25.690  84.637  1.00  0.00     0.000 C 
BRANCH  10  11
ATOM     11  C   UNL     1     -14.412 -24.810  85.886  1.00  0.00    -0.000 C 
BRANCH  11  12
ATOM     12  C   UNL     1     -13.521 -23.559  85.875  1.00  0.00    -0.000 C 
BRANCH  12  13
ATOM     13  C   UNL     1     -14.259 -22.365  85.258  1.00  0.00    -0.000 C 
BRANCH  13  14
ATOM     14  C   UNL     1     -13.392 -21.666  84.205  1.00  0.00    -0.000 C 
BRANCH  14  15
ATOM     15  C   UNL     1     -13.956 -21.880  82.796  1.00  0.00    -0.003 C 
ATOM     16  C   UNL     1     -13.323 -23.095  82.126  1.00  0.00     0.004 C 
ENDBRANCH  14  15
ENDBRANCH  13  14
ENDBRANCH  12  13
ENDBRANCH  11  12
ENDBRANCH  10  11
ENDBRANCH   1  10
TORSDOF 12
ENDMDL
MODEL 7
REMARK VINA RESULT:    -0.840      2.117      3.775
REMARK INTER + INTRA:          -3.536
REMARK INTER:                  -1.823
REMARK INTRA:                  -1.713
REMARK UNBOUND:                -2.107
REMARK SMILES CCCCCCCCCCCCCC(=O)[O-]
REMARK SMILES IDX 8 1 9 2 10 3 11 4 12 5 13 6 14 7 15 8 16 9 7 10 6 11 5 12
REMARK SMILES IDX 4 13 3 14 2 15 1 16
REMARK H PARENT
REMARK Flexibility Score: inf
ROOT
ATOM      1  C   UNL     1     -13.451 -24.790  85.351  1.00  0.00     0.000 C 
ENDROOT
BRANCH   1   2
ATOM      2  C   UNL     1     -13.454 -25.387  83.932  1.00  0.00     0.000 C 
BRANCH   2   3
ATOM      3  C   UNL     1     -14.873 -25.645  83.396  1.00  0.00     0.000 C 
BRANCH   3   4
ATOM      4  C   UNL     1     -15.952 -25.446  84.483  1.00  0.00     0.000 C 
BRANCH   4   5
ATOM      5  C   UNL     1     -17.171 -24.638  83.998  1.00  0.00     0.006 C 
BRANCH   5   6
ATOM      6  C   UNL     1     -16.808 -23.298  83.340  1.00  0.00     0.053 C 
BRANCH   6   7
ATOM      7  C   UNL     1     -17.989 -22.378  83.261  1.00  0.00     0.041 C 
ATOM      8  O   UNL     1     -18.442 -21.840  84.304  1.00  0.00    -0.550 OA
ATOM      9  O   UNL     1     -18.601 -22.130  82.039  1.00  0.00    -0.550 OA
ENDBRANCH   6   7
ENDBRANCH   5   6
ENDBRANCH   4   5
ENDBRANCH   3   4
ENDBRANCH   2   3
ENDBRANCH   1   2
BRANCH   1  10
ATOM     10  C   UNL     1     -12.875 -23.363  85.459  1.00  0.00     0.000 C 
BRANCH  10  11
ATOM     11  C   UNL     1     -13.781 -22.250  84.902  1.00  0.00    -0.000 C 
BRANCH  11  12
ATOM     12  C   UNL     1     -13.023 -21.249  84.017  1.00  0.00    -0.000 C 
BRANCH  12  13
ATOM     13  C   UNL     1     -13.590 -21.236  82.593  1.00  0.00    -0.000 C 
BRANCH  13  14
ATOM     14  C   UNL     1     -13.048 -22.414  81.775  1.00  0.00    -0.000 C 
BRANCH  14  15
ATOM     15  C   UNL     1     -14.130 -22.988  80.853  1.00  0.00    -0.003 C 
ATOM     16  C   UNL     1     -14.270 -22.157  79.582  1.00  0.00     0.004 C 
ENDBRANCH  14  15
ENDBRANCH  13  14
ENDBRANCH  12  13
ENDBRANCH  11  12
ENDBRANCH  10  11
ENDBRANCH   1  10
TORSDOF 12
ENDMDL
MODEL 8
REMARK VINA RESULT:    -0.103      2.372      4.831
REMARK INTER + INTRA:          -2.282
REMARK INTER:                  -0.366
REMARK INTRA:                  -1.916
REMARK UNBOUND:                -2.107
REMARK SMILES CCCCCCCCCCCCCC(=O)[O-]
REMARK SMILES IDX 8 1 9 2 10 3 11 4 12 5 13 6 14 7 15 8 16 9 7 10 6 11 5 12
REMARK SMILES IDX 4 13 3 14 2 15 1 16
REMARK H PARENT
REMARK Flexibility Score: inf
ROOT
ATOM      1  C   UNL     1     -14.459 -22.230  82.330  1.00  0.00     0.000 C 
ENDROOT
BRANCH   1   2
ATOM      2  C   UNL     1     -13.406 -22.828  83.281  1.00  0.00     0.000 C 
BRANCH   2   3
ATOM      3  C   UNL     1     -13.367 -22.123  84.647  1.00  0.00     0.000 C 
BRANCH   3   4
ATOM      4  C   UNL     1     -14.081 -22.941  85.746  1.00  0.00     0.000 C 
BRANCH   4   5
ATOM      5  C   UNL     1     -15.532 -22.491  86.001  1.00  0.00     0.006 C 
BRANCH   5   6
ATOM      6  C   UNL     1     -16.531 -23.652  86.125  1.00  0.00     0.053 C 
BRANCH   6   7
ATOM      7  C   UNL     1     -17.838 -23.334  85.465  1.00  0.00     0.041 C 
ATOM      8  O   UNL     1     -18.661 -24.253  85.214  1.00  0.00    -0.550 OA
ATOM      9  O   UNL     1     -18.142 -22.026  85.109  1.00  0.00    -0.550 OA
ENDBRANCH   6   7
ENDBRANCH   5   6
ENDBRANCH   4   5
ENDBRANCH   3   4
ENDBRANCH   2   3
ENDBRANCH   1   2
BRANCH   1  10
ATOM     10  C   UNL     1     -15.832 -22.932  82.351  1.00  0.00     0.000 C 
BRANCH  10  11
ATOM     11  C   UNL     1     -16.039 -23.992  81.254  1.00  0.00    -0.000 C 
BRANCH  11  12
ATOM     12  C   UNL     1     -15.471 -25.368  81.637  1.00  0.00    -0.000 C 
BRANCH  12  13
ATOM     13  C   UNL     1     -15.738 -25.678  83.115  1.00  0.00    -0.000 C 
BRANCH  13  14
ATOM     14  C   UNL     1     -14.524 -26.354  83.763  1.00  0.00    -0.000 C 
BRANCH  14  15
ATOM     15  C   UNL     1     -14.836 -26.788  85.199  1.00  0.00    -0.003 C 
ATOM     16  C   UNL     1     -13.652 -26.527  86.125  1.00  0.00     0.004 C 
ENDBRANCH  14  15
ENDBRANCH  13  14
ENDBRANCH  12  13
ENDBRANCH  11  12
ENDBRANCH  10  11
ENDBRANCH   1  10
TORSDOF 12
ENDMDL
