MODEL 1
REMARK VINA RESULT:    -6.435      0.000      0.000
REMARK INTER + INTRA:          -8.169
REMARK INTER:                  -7.752
REMARK INTRA:                  -0.417
REMARK UNBOUND:                -0.417
REMARK SMILES O=c1c(O)c(-c2ccc(O)cc2O)oc2cc(O)cc(O)c12
REMARK SMILES IDX 5 1 3 2 2 3 1 4 22 5 20 6 19 7 17 8 16 9 15 10 14 11 6 12
REMARK SMILES IDX 8 13 7 14 9 15 11 16 12 17 10 18 13 20 4 22 21 24 18 26
REMARK H PARENT 10 19 13 21 4 23 21 25 18 27
REMARK Flexibility Score: inf
ROOT
ATOM      1  C   UNL     1      14.452 -18.880  20.558  1.00  0.00     0.184 A 
ATOM      2  C   UNL     1      13.673 -18.858  19.391  1.00  0.00     0.208 A 
ATOM      3  C   UNL     1      13.277 -20.074  18.814  1.00  0.00     0.238 A 
ATOM      4  O   UNL     1      12.534 -20.048  17.798  1.00  0.00    -0.285 OA
ATOM      5  C   UNL     1      13.681 -21.297  19.404  1.00  0.00     0.111 A 
ATOM      6  C   UNL     1      13.372 -22.590  18.882  1.00  0.00     0.134 A 
ATOM      7  C   UNL     1      13.712 -23.731  19.618  1.00  0.00     0.093 A 
ATOM      8  C   UNL     1      14.408 -23.628  20.825  1.00  0.00     0.123 A 
ATOM      9  C   UNL     1      14.766 -22.375  21.313  1.00  0.00     0.094 A 
ATOM     10  C   UNL     1      14.409 -21.215  20.620  1.00  0.00     0.146 A 
ATOM     11  O   UNL     1      14.761 -20.039  21.125  1.00  0.00    -0.451 OA
ENDROOT
BRANCH   1  12
ATOM     12  C   UNL     1      14.916 -17.636  21.206  1.00  0.00     0.063 A 
ATOM     13  C   UNL     1      14.401 -15.682  22.560  1.00  0.00     0.047 A 
ATOM     14  C   UNL     1      13.995 -16.861  21.930  1.00  0.00     0.020 A 
ATOM     15  C   UNL     1      15.733 -15.269  22.487  1.00  0.00     0.119 A 
ATOM     16  C   UNL     1      16.665 -16.046  21.788  1.00  0.00     0.093 A 
ATOM     17  C   UNL     1      16.268 -17.235  21.157  1.00  0.00     0.130 A 
BRANCH  15  18
ATOM     18  O   UNL     1      16.123 -14.088  23.116  1.00  0.00    -0.508 OA
ATOM     19  H   UNL     1      17.093 -13.797  23.142  1.00  0.00     0.293 HD
ENDBRANCH  15  18
BRANCH  17  20
ATOM     20  O   UNL     1      17.214 -18.025  20.505  1.00  0.00    -0.507 OA
ATOM     21  H   UNL     1      17.030 -18.429  19.594  1.00  0.00     0.293 HD
ENDBRANCH  17  20
ENDBRANCH   1  12
BRANCH   2  22
ATOM     22  O   UNL     1      13.273 -17.636  18.840  1.00  0.00    -0.502 OA
ATOM     23  H   UNL     1      12.308 -17.328  18.846  1.00  0.00     0.293 HD
ENDBRANCH   2  22
BRANCH   6  24
ATOM     24  O   UNL     1      12.762 -22.805  17.643  1.00  0.00    -0.507 OA
ATOM     25  H   UNL     1      12.877 -23.636  17.082  1.00  0.00     0.293 HD
ENDBRANCH   6  24
BRANCH   8  26
ATOM     26  O   UNL     1      14.757 -24.771  21.543  1.00  0.00    -0.508 OA
ATOM     27  H   UNL     1      15.446 -24.741  22.285  1.00  0.00     0.293 HD
ENDBRANCH   8  26
TORSDOF 6
ENDMDL
MODEL 2
REMARK VINA RESULT:    -6.397      2.076      6.399
REMARK INTER + INTRA:          -8.123
REMARK INTER:                  -7.712
REMARK INTRA:                  -0.410
REMARK UNBOUND:                -0.417
REMARK SMILES O=c1c(O)c(-c2ccc(O)cc2O)oc2cc(O)cc(O)c12
REMARK SMILES IDX 5 1 3 2 2 3 1 4 22 5 20 6 19 7 17 8 16 9 15 10 14 11 6 12
REMARK SMILES IDX 8 13 7 14 9 15 11 16 12 17 10 18 13 20 4 22 21 24 18 26
REMARK H PARENT 10 19 13 21 4 23 21 25 18 27
REMARK Flexibility Score: inf
ROOT
ATOM      1  C   UNL     1      14.500 -22.802  21.119  1.00  0.00     0.184 A 
ATOM      2  C   UNL     1      13.909 -23.093  19.879  1.00  0.00     0.208 A 
ATOM      3  C   UNL     1      13.514 -22.033  19.048  1.00  0.00     0.238 A 
ATOM      4  O   UNL     1      13.034 -22.300  17.916  1.00  0.00    -0.285 OA
ATOM      5  C   UNL     1      13.702 -20.697  19.476  1.00  0.00     0.111 A 
ATOM      6  C   UNL     1      13.303 -19.544  18.733  1.00  0.00     0.134 A 
ATOM      7  C   UNL     1      13.654 -18.270  19.194  1.00  0.00     0.093 A 
ATOM      8  C   UNL     1      14.333 -18.103  20.404  1.00  0.00     0.123 A 
ATOM      9  C   UNL     1      14.675 -19.218  21.165  1.00  0.00     0.094 A 
ATOM     10  C   UNL     1      14.369 -20.505  20.715  1.00  0.00     0.146 A 
ATOM     11  O   UNL     1      14.722 -21.541  21.465  1.00  0.00    -0.451 OA
ENDROOT
BRANCH   1  12
ATOM     12  C   UNL     1      14.922 -23.871  22.048  1.00  0.00     0.063 A 
ATOM     13  C   UNL     1      14.355 -25.400  23.851  1.00  0.00     0.047 A 
ATOM     14  C   UNL     1      13.990 -24.385  22.963  1.00  0.00     0.020 A 
ATOM     15  C   UNL     1      15.650 -25.923  23.828  1.00  0.00     0.119 A 
ATOM     16  C   UNL     1      16.581 -25.434  22.903  1.00  0.00     0.093 A 
ATOM     17  C   UNL     1      16.222 -24.419  22.003  1.00  0.00     0.130 A 
BRANCH  15  18
ATOM     18  O   UNL     1      16.001 -26.932  24.723  1.00  0.00    -0.508 OA
ATOM     19  H   UNL     1      16.772 -27.561  24.535  1.00  0.00     0.293 HD
ENDBRANCH  15  18
BRANCH  17  20
ATOM     20  O   UNL     1      17.143 -23.973  21.055  1.00  0.00    -0.507 OA
ATOM     21  H   UNL     1      17.350 -22.988  20.939  1.00  0.00     0.293 HD
ENDBRANCH  17  20
ENDBRANCH   1  12
BRANCH   2  22
ATOM     22  O   UNL     1      13.753 -24.422  19.474  1.00  0.00    -0.502 OA
ATOM     23  H   UNL     1      12.876 -24.782  19.116  1.00  0.00     0.293 HD
ENDBRANCH   2  22
BRANCH   6  24
ATOM     24  O   UNL     1      12.543 -19.596  17.561  1.00  0.00    -0.507 OA
ATOM     25  H   UNL     1      11.890 -18.885  17.268  1.00  0.00     0.293 HD
ENDBRANCH   6  24
BRANCH   8  26
ATOM     26  O   UNL     1      14.665 -16.829  20.863  1.00  0.00    -0.508 OA
ATOM     27  H   UNL     1      15.081 -16.686  21.775  1.00  0.00     0.293 HD
ENDBRANCH   8  26
TORSDOF 6
ENDMDL
MODEL 3
REMARK VINA RESULT:    -6.377      3.349      6.243
REMARK INTER + INTRA:          -8.099
REMARK INTER:                  -7.762
REMARK INTRA:                  -0.337
REMARK UNBOUND:                -0.417
REMARK SMILES O=c1c(O)c(-c2ccc(O)cc2O)oc2cc(O)cc(O)c12
REMARK SMILES IDX 5 1 3 2 2 3 1 4 22 5 20 6 19 7 17 8 16 9 15 10 14 11 6 12
REMARK SMILES IDX 8 13 7 14 9 15 11 16 12 17 10 18 13 20 4 22 21 24 18 26
REMARK H PARENT 10 19 13 21 4 23 21 25 18 27
REMARK Flexibility Score: inf
ROOT
ATOM      1  C   UNL     1      14.638 -23.289  21.544  1.00  0.00     0.184 A 
ATOM      2  C   UNL     1      14.919 -24.633  21.252  1.00  0.00     0.208 A 
ATOM      3  C   UNL     1      15.388 -25.468  22.278  1.00  0.00     0.238 A 
ATOM      4  O   UNL     1      15.587 -26.685  22.024  1.00  0.00    -0.285 OA
ATOM      5  C   UNL     1      15.586 -24.942  23.577  1.00  0.00     0.111 A 
ATOM      6  C   UNL     1      16.096 -25.687  24.684  1.00  0.00     0.134 A 
ATOM      7  C   UNL     1      16.129 -25.101  25.955  1.00  0.00     0.093 A 
ATOM      8  C   UNL     1      15.731 -23.775  26.147  1.00  0.00     0.123 A 
ATOM      9  C   UNL     1      15.287 -23.022  25.063  1.00  0.00     0.094 A 
ATOM     10  C   UNL     1      15.210 -23.589  23.789  1.00  0.00     0.146 A 
ATOM     11  O   UNL     1      14.771 -22.840  22.785  1.00  0.00    -0.451 OA
ENDROOT
BRANCH   1  12
ATOM     12  C   UNL     1      14.157 -22.353  20.506  1.00  0.00     0.063 A 
ATOM     13  C   UNL     1      12.435 -21.732  18.906  1.00  0.00     0.047 A 
ATOM     14  C   UNL     1      12.922 -22.600  19.887  1.00  0.00     0.020 A 
ATOM     15  C   UNL     1      13.169 -20.601  18.541  1.00  0.00     0.119 A 
ATOM     16  C   UNL     1      14.391 -20.332  19.169  1.00  0.00     0.093 A 
ATOM     17  C   UNL     1      14.885 -21.194  20.160  1.00  0.00     0.130 A 
BRANCH  15  18
ATOM     18  O   UNL     1      12.672 -19.747  17.558  1.00  0.00    -0.508 OA
ATOM     19  H   UNL     1      13.140 -18.878  17.326  1.00  0.00     0.293 HD
ENDBRANCH  15  18
BRANCH  17  20
ATOM     20  O   UNL     1      16.079 -20.891  20.813  1.00  0.00    -0.507 OA
ATOM     21  H   UNL     1      16.908 -20.614  20.301  1.00  0.00     0.293 HD
ENDBRANCH  17  20
ENDBRANCH   1  12
BRANCH   2  22
ATOM     22  O   UNL     1      14.696 -25.130  19.964  1.00  0.00    -0.502 OA
ATOM     23  H   UNL     1      13.821 -24.994  19.473  1.00  0.00     0.293 HD
ENDBRANCH   2  22
BRANCH   6  24
ATOM     24  O   UNL     1      16.605 -26.985  24.583  1.00  0.00    -0.507 OA
ATOM     25  H   UNL     1      17.091 -27.471  25.322  1.00  0.00     0.293 HD
ENDBRANCH   6  24
BRANCH   8  26
ATOM     26  O   UNL     1      15.781 -23.194  27.413  1.00  0.00    -0.508 OA
ATOM     27  H   UNL     1      15.026 -22.617  27.762  1.00  0.00     0.293 HD
ENDBRANCH   8  26
TORSDOF 6
ENDMDL
MODEL 4
REMARK VINA RESULT:    -6.329      2.824      4.889
REMARK INTER + INTRA:          -8.042
REMARK INTER:                  -7.695
REMARK INTRA:                  -0.347
REMARK UNBOUND:                -0.417
REMARK SMILES O=c1c(O)c(-c2ccc(O)cc2O)oc2cc(O)cc(O)c12
REMARK SMILES IDX 5 1 3 2 2 3 1 4 22 5 20 6 19 7 17 8 16 9 15 10 14 11 6 12
REMARK SMILES IDX 8 13 7 14 9 15 11 16 12 17 10 18 13 20 4 22 21 24 18 26
REMARK H PARENT 10 19 13 21 4 23 21 25 18 27
REMARK Flexibility Score: inf
ROOT
ATOM      1  C   UNL     1      15.002 -21.698  20.254  1.00  0.00     0.184 A 
ATOM      2  C   UNL     1      16.385 -21.935  20.283  1.00  0.00     0.208 A 
ATOM      3  C   UNL     1      16.873 -23.024  21.022  1.00  0.00     0.238 A 
ATOM      4  O   UNL     1      18.108 -23.264  21.002  1.00  0.00    -0.285 OA
ATOM      5  C   UNL     1      15.971 -23.851  21.735  1.00  0.00     0.111 A 
ATOM      6  C   UNL     1      16.357 -24.958  22.550  1.00  0.00     0.134 A 
ATOM      7  C   UNL     1      15.372 -25.784  23.105  1.00  0.00     0.093 A 
ATOM      8  C   UNL     1      14.014 -25.505  22.928  1.00  0.00     0.123 A 
ATOM      9  C   UNL     1      13.628 -24.394  22.184  1.00  0.00     0.094 A 
ATOM     10  C   UNL     1      14.587 -23.571  21.588  1.00  0.00     0.146 A 
ATOM     11  O   UNL     1      14.176 -22.527  20.878  1.00  0.00    -0.451 OA
ENDROOT
BRANCH   1  12
ATOM     12  C   UNL     1      14.425 -20.560  19.509  1.00  0.00     0.063 A 
ATOM     13  C   UNL     1      14.274 -18.155  19.179  1.00  0.00     0.047 A 
ATOM     14  C   UNL     1      14.796 -19.254  19.867  1.00  0.00     0.020 A 
ATOM     15  C   UNL     1      13.387 -18.347  18.118  1.00  0.00     0.119 A 
ATOM     16  C   UNL     1      13.029 -19.646  17.736  1.00  0.00     0.093 A 
ATOM     17  C   UNL     1      13.553 -20.755  18.417  1.00  0.00     0.130 A 
BRANCH  15  18
ATOM     18  O   UNL     1      12.871 -17.241  17.444  1.00  0.00    -0.508 OA
ATOM     19  H   UNL     1      12.626 -16.390  17.935  1.00  0.00     0.293 HD
ENDBRANCH  15  18
BRANCH  17  20
ATOM     20  O   UNL     1      13.227 -22.045  17.998  1.00  0.00    -0.507 OA
ATOM     21  H   UNL     1      13.892 -22.626  17.501  1.00  0.00     0.293 HD
ENDBRANCH  17  20
ENDBRANCH   1  12
BRANCH   2  22
ATOM     22  O   UNL     1      17.251 -21.114  19.555  1.00  0.00    -0.502 OA
ATOM     23  H   UNL     1      17.501 -21.307  18.592  1.00  0.00     0.293 HD
ENDBRANCH   2  22
BRANCH   6  24
ATOM     24  O   UNL     1      17.683 -25.270  22.865  1.00  0.00    -0.507 OA
ATOM     25  H   UNL     1      18.452 -24.617  22.827  1.00  0.00     0.293 HD
ENDBRANCH   6  24
BRANCH   8  26
ATOM     26  O   UNL     1      13.041 -26.324  23.497  1.00  0.00    -0.508 OA
ATOM     27  H   UNL     1      13.264 -26.973  24.242  1.00  0.00     0.293 HD
ENDBRANCH   8  26
TORSDOF 6
ENDMDL
MODEL 5
REMARK VINA RESULT:    -6.315      1.756      7.060
REMARK INTER + INTRA:          -8.025
REMARK INTER:                  -7.671
REMARK INTRA:                  -0.353
REMARK UNBOUND:                -0.417
REMARK SMILES O=c1c(O)c(-c2ccc(O)cc2O)oc2cc(O)cc(O)c12
REMARK SMILES IDX 5 1 3 2 2 3 1 4 22 5 20 6 19 7 17 8 16 9 15 10 14 11 6 12
REMARK SMILES IDX 8 13 7 14 9 15 11 16 12 17 10 18 13 20 4 22 21 24 18 26
REMARK H PARENT 10 19 13 21 4 23 21 25 18 27
REMARK Flexibility Score: inf
ROOT
ATOM      1  C   UNL     1      15.268 -18.055  20.672  1.00  0.00     0.184 A 
ATOM      2  C   UNL     1      16.626 -17.702  20.653  1.00  0.00     0.208 A 
ATOM      3  C   UNL     1      17.062 -16.633  21.452  1.00  0.00     0.238 A 
ATOM      4  O   UNL     1      18.289 -16.355  21.472  1.00  0.00    -0.285 OA
ATOM      5  C   UNL     1      16.130 -15.923  22.246  1.00  0.00     0.111 A 
ATOM      6  C   UNL     1      16.453 -14.797  23.064  1.00  0.00     0.134 A 
ATOM      7  C   UNL     1      15.476 -14.253  23.907  1.00  0.00     0.093 A 
ATOM      8  C   UNL     1      14.171 -14.752  23.913  1.00  0.00     0.123 A 
ATOM      9  C   UNL     1      13.831 -15.811  23.076  1.00  0.00     0.094 A 
ATOM     10  C   UNL     1      14.792 -16.399  22.250  1.00  0.00     0.146 A 
ATOM     11  O   UNL     1      14.429 -17.414  21.475  1.00  0.00    -0.451 OA
ENDROOT
BRANCH   1  12
ATOM     12  C   UNL     1      14.741 -19.159  19.842  1.00  0.00     0.063 A 
ATOM     13  C   UNL     1      14.697 -21.536  19.332  1.00  0.00     0.047 A 
ATOM     14  C   UNL     1      15.179 -20.468  20.093  1.00  0.00     0.020 A 
ATOM     15  C   UNL     1      13.762 -21.311  18.319  1.00  0.00     0.119 A 
ATOM     16  C   UNL     1      13.299 -20.011  18.075  1.00  0.00     0.093 A 
ATOM     17  C   UNL     1      13.774 -18.934  18.840  1.00  0.00     0.130 A 
BRANCH  15  18
ATOM     18  O   UNL     1      13.293 -22.384  17.564  1.00  0.00    -0.508 OA
ATOM     19  H   UNL     1      13.929 -23.028  17.109  1.00  0.00     0.293 HD
ENDBRANCH  15  18
BRANCH  17  20
ATOM     20  O   UNL     1      13.270 -17.652  18.620  1.00  0.00    -0.507 OA
ATOM     21  H   UNL     1      12.807 -17.404  17.754  1.00  0.00     0.293 HD
ENDBRANCH  17  20
ENDBRANCH   1  12
BRANCH   2  22
ATOM     22  O   UNL     1      17.528 -18.432  19.873  1.00  0.00    -0.502 OA
ATOM     23  H   UNL     1      17.941 -19.301  20.191  1.00  0.00     0.293 HD
ENDBRANCH   2  22
BRANCH   6  24
ATOM     24  O   UNL     1      17.700 -14.165  23.064  1.00  0.00    -0.507 OA
ATOM     25  H   UNL     1      17.838 -13.167  23.015  1.00  0.00     0.293 HD
ENDBRANCH   6  24
BRANCH   8  26
ATOM     26  O   UNL     1      13.201 -14.194  24.745  1.00  0.00    -0.508 OA
ATOM     27  H   UNL     1      13.085 -13.191  24.824  1.00  0.00     0.293 HD
ENDBRANCH   8  26
TORSDOF 6
ENDMDL
MODEL 6
REMARK VINA RESULT:    -6.137      2.395      6.757
REMARK INTER + INTRA:          -7.810
REMARK INTER:                  -7.456
REMARK INTRA:                  -0.354
REMARK UNBOUND:                -0.417
REMARK SMILES O=c1c(O)c(-c2ccc(O)cc2O)oc2cc(O)cc(O)c12
REMARK SMILES IDX 5 1 3 2 2 3 1 4 22 5 20 6 19 7 17 8 16 9 15 10 14 11 6 12
REMARK SMILES IDX 8 13 7 14 9 15 11 16 12 17 10 18 13 20 4 22 21 24 18 26
REMARK H PARENT 10 19 13 21 4 23 21 25 18 27
REMARK Flexibility Score: inf
ROOT
ATOM      1  C   UNL     1      14.834 -22.226  21.411  1.00  0.00     0.184 A 
ATOM      2  C   UNL     1      15.490 -21.205  22.118  1.00  0.00     0.208 A 
ATOM      3  C   UNL     1      15.385 -19.883  21.658  1.00  0.00     0.238 A 
ATOM      4  O   UNL     1      15.929 -18.966  22.325  1.00  0.00    -0.285 OA
ATOM      5  C   UNL     1      14.640 -19.604  20.487  1.00  0.00     0.111 A 
ATOM      6  C   UNL     1      14.499 -18.307  19.906  1.00  0.00     0.134 A 
ATOM      7  C   UNL     1      13.633 -18.126  18.821  1.00  0.00     0.093 A 
ATOM      8  C   UNL     1      12.952 -19.207  18.255  1.00  0.00     0.123 A 
ATOM      9  C   UNL     1      13.128 -20.485  18.777  1.00  0.00     0.094 A 
ATOM     10  C   UNL     1      13.958 -20.693  19.881  1.00  0.00     0.146 A 
ATOM     11  O   UNL     1      14.090 -21.926  20.355  1.00  0.00    -0.451 OA
ENDROOT
BRANCH   1  12
ATOM     12  C   UNL     1      14.918 -23.640  21.833  1.00  0.00     0.063 A 
ATOM     13  C   UNL     1      13.863 -25.557  22.892  1.00  0.00     0.047 A 
ATOM     14  C   UNL     1      13.819 -24.221  22.485  1.00  0.00     0.020 A 
ATOM     15  C   UNL     1      14.998 -26.332  22.642  1.00  0.00     0.119 A 
ATOM     16  C   UNL     1      16.090 -25.769  21.970  1.00  0.00     0.093 A 
ATOM     17  C   UNL     1      16.053 -24.430  21.553  1.00  0.00     0.130 A 
BRANCH  15  18
ATOM     18  O   UNL     1      15.028 -27.662  23.057  1.00  0.00    -0.508 OA
ATOM     19  H   UNL     1      15.866 -28.224  22.970  1.00  0.00     0.293 HD
ENDBRANCH  15  18
BRANCH  17  20
ATOM     20  O   UNL     1      17.127 -23.893  20.843  1.00  0.00    -0.507 OA
ATOM     21  H   UNL     1      17.815 -24.486  20.393  1.00  0.00     0.293 HD
ENDBRANCH  17  20
ENDBRANCH   1  12
BRANCH   2  22
ATOM     22  O   UNL     1      16.203 -21.508  23.282  1.00  0.00    -0.502 OA
ATOM     23  H   UNL     1      16.410 -22.460  23.560  1.00  0.00     0.293 HD
ENDBRANCH   2  22
BRANCH   6  24
ATOM     24  O   UNL     1      15.204 -17.179  20.336  1.00  0.00    -0.507 OA
ATOM     25  H   UNL     1      15.966 -17.195  20.998  1.00  0.00     0.293 HD
ENDBRANCH   6  24
BRANCH   8  26
ATOM     26  O   UNL     1      12.103 -19.020  17.165  1.00  0.00    -0.508 OA
ATOM     27  H   UNL     1      12.459 -18.739  16.259  1.00  0.00     0.293 HD
ENDBRANCH   8  26
TORSDOF 6
ENDMDL
MODEL 7
REMARK VINA RESULT:    -6.124      2.832      5.814
REMARK INTER + INTRA:          -7.794
REMARK INTER:                  -7.373
REMARK INTRA:                  -0.421
REMARK UNBOUND:                -0.417
REMARK SMILES O=c1c(O)c(-c2ccc(O)cc2O)oc2cc(O)cc(O)c12
REMARK SMILES IDX 5 1 3 2 2 3 1 4 22 5 20 6 19 7 17 8 16 9 15 10 14 11 6 12
REMARK SMILES IDX 8 13 7 14 9 15 11 16 12 17 10 18 13 20 4 22 21 24 18 26
REMARK H PARENT 10 19 13 21 4 23 21 25 18 27
REMARK Flexibility Score: inf
ROOT
ATOM      1  C   UNL     1      15.021 -22.761  22.258  1.00  0.00     0.184 A 
ATOM      2  C   UNL     1      14.761 -23.789  21.338  1.00  0.00     0.208 A 
ATOM      3  C   UNL     1      14.185 -23.465  20.100  1.00  0.00     0.238 A 
ATOM      4  O   UNL     1      14.004 -24.382  19.258  1.00  0.00    -0.285 OA
ATOM      5  C   UNL     1      13.862 -22.118  19.806  1.00  0.00     0.111 A 
ATOM      6  C   UNL     1      13.238 -21.679  18.599  1.00  0.00     0.134 A 
ATOM      7  C   UNL     1      13.082 -20.308  18.361  1.00  0.00     0.093 A 
ATOM      8  C   UNL     1      13.469 -19.363  19.315  1.00  0.00     0.123 A 
ATOM      9  C   UNL     1      14.024 -19.783  20.520  1.00  0.00     0.094 A 
ATOM     10  C   UNL     1      14.225 -21.143  20.773  1.00  0.00     0.146 A 
ATOM     11  O   UNL     1      14.767 -21.501  21.930  1.00  0.00    -0.451 OA
ENDROOT
BRANCH   1  12
ATOM     12  C   UNL     1      15.610 -23.037  23.585  1.00  0.00     0.063 A 
ATOM     13  C   UNL     1      15.347 -23.938  25.828  1.00  0.00     0.047 A 
ATOM     14  C   UNL     1      14.819 -23.657  24.565  1.00  0.00     0.020 A 
ATOM     15  C   UNL     1      16.674 -23.615  26.123  1.00  0.00     0.119 A 
ATOM     16  C   UNL     1      17.479 -23.018  25.145  1.00  0.00     0.093 A 
ATOM     17  C   UNL     1      16.959 -22.738  23.872  1.00  0.00     0.130 A 
BRANCH  15  18
ATOM     18  O   UNL     1      17.185 -23.897  27.389  1.00  0.00    -0.508 OA
ATOM     19  H   UNL     1      18.168 -24.099  27.529  1.00  0.00     0.293 HD
ENDBRANCH  15  18
BRANCH  17  20
ATOM     20  O   UNL     1      17.783 -22.188  22.891  1.00  0.00    -0.507 OA
ATOM     21  H   UNL     1      17.452 -22.032  21.946  1.00  0.00     0.293 HD
ENDBRANCH  17  20
ENDBRANCH   1  12
BRANCH   2  22
ATOM     22  O   UNL     1      15.108 -25.108  21.647  1.00  0.00    -0.502 OA
ATOM     23  H   UNL     1      15.435 -25.383  22.566  1.00  0.00     0.293 HD
ENDBRANCH   2  22
BRANCH   6  24
ATOM     24  O   UNL     1      12.732 -22.543  17.623  1.00  0.00    -0.507 OA
ATOM     25  H   UNL     1      12.983 -23.516  17.531  1.00  0.00     0.293 HD
ENDBRANCH   6  24
BRANCH   8  26
ATOM     26  O   UNL     1      13.296 -18.000  19.076  1.00  0.00    -0.508 OA
ATOM     27  H   UNL     1      13.505 -17.590  18.174  1.00  0.00     0.293 HD
ENDBRANCH   8  26
TORSDOF 6
ENDMDL
MODEL 8
REMARK VINA RESULT:    -6.075      3.218      5.225
REMARK INTER + INTRA:          -7.735
REMARK INTER:                  -7.468
REMARK INTRA:                  -0.267
REMARK UNBOUND:                -0.417
REMARK SMILES O=c1c(O)c(-c2ccc(O)cc2O)oc2cc(O)cc(O)c12
REMARK SMILES IDX 5 1 3 2 2 3 1 4 22 5 20 6 19 7 17 8 16 9 15 10 14 11 6 12
REMARK SMILES IDX 8 13 7 14 9 15 11 16 12 17 10 18 13 20 4 22 21 24 18 26
REMARK H PARENT 10 19 13 21 4 23 21 25 18 27
REMARK Flexibility Score: inf
ROOT
ATOM      1  C   UNL     1      14.338 -21.792  20.605  1.00  0.00     0.184 A 
ATOM      2  C   UNL     1      14.315 -23.144  20.229  1.00  0.00     0.208 A 
ATOM      3  C   UNL     1      14.745 -24.113  21.150  1.00  0.00     0.238 A 
ATOM      4  O   UNL     1      14.672 -25.327  20.828  1.00  0.00    -0.285 OA
ATOM      5  C   UNL     1      15.206 -23.714  22.427  1.00  0.00     0.111 A 
ATOM      6  C   UNL     1      15.703 -24.606  23.426  1.00  0.00     0.134 A 
ATOM      7  C   UNL     1      16.012 -24.115  24.700  1.00  0.00     0.093 A 
ATOM      8  C   UNL     1      15.903 -22.752  24.992  1.00  0.00     0.123 A 
ATOM      9  C   UNL     1      15.476 -21.865  24.008  1.00  0.00     0.094 A 
ATOM     10  C   UNL     1      15.127 -22.330  22.738  1.00  0.00     0.146 A 
ATOM     11  O   UNL     1      14.714 -21.452  21.831  1.00  0.00    -0.451 OA
ENDROOT
BRANCH   1  12
ATOM     12  C   UNL     1      13.915 -20.722  19.678  1.00  0.00     0.063 A 
ATOM     13  C   UNL     1      14.512 -18.798  18.316  1.00  0.00     0.047 A 
ATOM     14  C   UNL     1      14.876 -19.818  19.198  1.00  0.00     0.020 A 
ATOM     15  C   UNL     1      13.186 -18.675  17.891  1.00  0.00     0.119 A 
ATOM     16  C   UNL     1      12.224 -19.586  18.345  1.00  0.00     0.093 A 
ATOM     17  C   UNL     1      12.582 -20.617  19.226  1.00  0.00     0.130 A 
BRANCH  15  18
ATOM     18  O   UNL     1      12.837 -17.650  17.015  1.00  0.00    -0.508 OA
ATOM     19  H   UNL     1      12.453 -16.775  17.351  1.00  0.00     0.293 HD
ENDBRANCH  15  18
BRANCH  17  20
ATOM     20  O   UNL     1      11.625 -21.547  19.634  1.00  0.00    -0.507 OA
ATOM     21  H   UNL     1      10.772 -21.261  20.100  1.00  0.00     0.293 HD
ENDBRANCH  17  20
ENDBRANCH   1  12
BRANCH   2  22
ATOM     22  O   UNL     1      13.837 -23.512  18.968  1.00  0.00    -0.502 OA
ATOM     23  H   UNL     1      14.425 -23.511  18.143  1.00  0.00     0.293 HD
ENDBRANCH   2  22
BRANCH   6  24
ATOM     24  O   UNL     1      15.936 -25.967  23.209  1.00  0.00    -0.507 OA
ATOM     25  H   UNL     1      15.413 -26.715  23.639  1.00  0.00     0.293 HD
ENDBRANCH   6  24
BRANCH   8  26
ATOM     26  O   UNL     1      16.228 -22.270  26.259  1.00  0.00    -0.508 OA
ATOM     27  H   UNL     1      15.965 -21.337  26.554  1.00  0.00     0.293 HD
ENDBRANCH   8  26
TORSDOF 6
ENDMDL
MODEL 9
REMARK VINA RESULT:    -5.955      2.976      5.967
REMARK INTER + INTRA:          -7.590
REMARK INTER:                  -7.183
REMARK INTRA:                  -0.407
REMARK UNBOUND:                -0.417
REMARK SMILES O=c1c(O)c(-c2ccc(O)cc2O)oc2cc(O)cc(O)c12
REMARK SMILES IDX 5 1 3 2 2 3 1 4 22 5 20 6 19 7 17 8 16 9 15 10 14 11 6 12
REMARK SMILES IDX 8 13 7 14 9 15 11 16 12 17 10 18 13 20 4 22 21 24 18 26
REMARK H PARENT 10 19 13 21 4 23 21 25 18 27
REMARK Flexibility Score: inf
ROOT
ATOM      1  C   UNL     1      15.341 -22.633  22.627  1.00  0.00     0.184 A 
ATOM      2  C   UNL     1      15.540 -21.258  22.426  1.00  0.00     0.208 A 
ATOM      3  C   UNL     1      15.002 -20.654  21.279  1.00  0.00     0.238 A 
ATOM      4  O   UNL     1      15.137 -19.412  21.131  1.00  0.00    -0.285 OA
ATOM      5  C   UNL     1      14.288 -21.438  20.341  1.00  0.00     0.111 A 
ATOM      6  C   UNL     1      13.733 -20.939  19.123  1.00  0.00     0.134 A 
ATOM      7  C   UNL     1      12.935 -21.775  18.333  1.00  0.00     0.093 A 
ATOM      8  C   UNL     1      12.725 -23.112  18.684  1.00  0.00     0.123 A 
ATOM      9  C   UNL     1      13.310 -23.624  19.839  1.00  0.00     0.094 A 
ATOM     10  C   UNL     1      14.082 -22.805  20.667  1.00  0.00     0.146 A 
ATOM     11  O   UNL     1      14.613 -23.329  21.764  1.00  0.00    -0.451 OA
ENDROOT
BRANCH   1  12
ATOM     12  C   UNL     1      15.895 -23.334  23.805  1.00  0.00     0.063 A 
ATOM     13  C   UNL     1      15.816 -23.754  26.198  1.00  0.00     0.047 A 
ATOM     14  C   UNL     1      15.321 -23.104  25.065  1.00  0.00     0.020 A 
ATOM     15  C   UNL     1      16.881 -24.651  26.086  1.00  0.00     0.119 A 
ATOM     16  C   UNL     1      17.446 -24.906  24.829  1.00  0.00     0.093 A 
ATOM     17  C   UNL     1      16.951 -24.262  23.685  1.00  0.00     0.130 A 
BRANCH  15  18
ATOM     18  O   UNL     1      17.367 -25.289  27.225  1.00  0.00    -0.508 OA
ATOM     19  H   UNL     1      17.353 -26.298  27.313  1.00  0.00     0.293 HD
ENDBRANCH  15  18
BRANCH  17  20
ATOM     20  O   UNL     1      17.489 -24.560  22.433  1.00  0.00    -0.507 OA
ATOM     21  H   UNL     1      17.323 -23.966  21.629  1.00  0.00     0.293 HD
ENDBRANCH  17  20
ENDBRANCH   1  12
BRANCH   2  22
ATOM     22  O   UNL     1      16.233 -20.505  23.378  1.00  0.00    -0.502 OA
ATOM     23  H   UNL     1      16.646 -20.922  24.205  1.00  0.00     0.293 HD
ENDBRANCH   2  22
BRANCH   6  24
ATOM     24  O   UNL     1      13.958 -19.648  18.635  1.00  0.00    -0.507 OA
ATOM     25  H   UNL     1      14.039 -19.409  17.657  1.00  0.00     0.293 HD
ENDBRANCH   6  24
BRANCH   8  26
ATOM     26  O   UNL     1      11.942 -23.942  17.884  1.00  0.00    -0.508 OA
ATOM     27  H   UNL     1      11.541 -23.613  17.013  1.00  0.00     0.293 HD
ENDBRANCH   8  26
TORSDOF 6
ENDMDL
