MODEL 1
REMARK VINA RESULT:    -5.718      0.000      0.000
REMARK INTER + INTRA:          -6.943
REMARK INTER:                  -7.055
REMARK INTRA:                   0.112
REMARK UNBOUND:                 0.112
REMARK SMILES Oc1cc(O)c2cc(O)c(-c3cc(O)c(O)c(O)c3)[o+]c2c1
REMARK SMILES IDX 10 1 20 2 21 3 22 4 2 5 3 6 4 7 6 8 7 9 8 10 11 11 12 12
REMARK SMILES IDX 13 13 19 14 15 15 17 16 14 17 16 19 18 21 9 23 1 25 5 27
REMARK H PARENT 14 18 16 20 18 22 9 24 1 26 5 28
REMARK Flexibility Score: inf
ROOT
ATOM      1  C   UNL     1      45.415  16.478  -3.480  1.00  0.00     0.402 A 
ATOM      2  O   UNL     1      45.950  15.427  -2.862  1.00  0.00    -0.202 OA
ATOM      3  C   UNL     1      47.066  14.831  -3.268  1.00  0.00     0.368 A 
ATOM      4  C   UNL     1      47.552  13.735  -2.550  1.00  0.00     0.162 A 
ATOM      5  C   UNL     1      48.723  13.092  -2.952  1.00  0.00     0.128 A 
ATOM      6  C   UNL     1      49.416  13.547  -4.080  1.00  0.00     0.093 A 
ATOM      7  C   UNL     1      48.950  14.643  -4.815  1.00  0.00     0.136 A 
ATOM      8  C   UNL     1      47.759  15.299  -4.411  1.00  0.00     0.125 A 
ATOM      9  C   UNL     1      47.210  16.396  -5.095  1.00  0.00     0.078 A 
ATOM     10  C   UNL     1      46.028  16.987  -4.639  1.00  0.00     0.223 A 
ENDROOT
BRANCH   1  11
ATOM     11  C   UNL     1      44.172  17.060  -2.924  1.00  0.00     0.091 A 
ATOM     12  C   UNL     1      43.255  16.227  -2.264  1.00  0.00     0.068 A 
ATOM     13  C   UNL     1      42.083  16.753  -1.712  1.00  0.00     0.162 A 
ATOM     14  C   UNL     1      43.917  18.440  -2.992  1.00  0.00     0.068 A 
ATOM     15  C   UNL     1      41.822  18.131  -1.801  1.00  0.00     0.200 A 
ATOM     16  C   UNL     1      42.745  18.975  -2.440  1.00  0.00     0.162 A 
BRANCH  13  17
ATOM     17  O   UNL     1      41.190  15.890  -1.078  1.00  0.00    -0.504 OA
ATOM     18  H   UNL     1      41.502  15.085  -0.549  1.00  0.00     0.293 HD
ENDBRANCH  13  17
BRANCH  15  19
ATOM     19  O   UNL     1      40.648  18.646  -1.251  1.00  0.00    -0.502 OA
ATOM     20  H   UNL     1      40.231  19.510  -1.579  1.00  0.00     0.293 HD
ENDBRANCH  15  19
BRANCH  16  21
ATOM     21  O   UNL     1      42.499  20.346  -2.519  1.00  0.00    -0.504 OA
ATOM     22  H   UNL     1      42.294  20.799  -3.401  1.00  0.00     0.293 HD
ENDBRANCH  16  21
ENDBRANCH   1  11
BRANCH  10  23
ATOM     23  O   UNL     1      45.457  18.045  -5.346  1.00  0.00    -0.500 OA
ATOM     24  H   UNL     1      45.157  18.895  -4.883  1.00  0.00     0.294 HD
ENDBRANCH  10  23
BRANCH   5  25
ATOM     25  O   UNL     1      49.190  12.000  -2.224  1.00  0.00    -0.507 OA
ATOM     26  H   UNL     1      48.597  11.202  -2.027  1.00  0.00     0.293 HD
ENDBRANCH   5  25
BRANCH   7  27
ATOM     27  O   UNL     1      49.701  15.039  -5.926  1.00  0.00    -0.507 OA
ATOM     28  H   UNL     1      50.415  14.474  -6.362  1.00  0.00     0.293 HD
ENDBRANCH   7  27
TORSDOF 7
ENDMDL
MODEL 2
REMARK VINA RESULT:    -5.628      0.095      1.797
REMARK INTER + INTRA:          -6.832
REMARK INTER:                  -7.031
REMARK INTRA:                   0.199
REMARK UNBOUND:                 0.112
REMARK SMILES Oc1cc(O)c2cc(O)c(-c3cc(O)c(O)c(O)c3)[o+]c2c1
REMARK SMILES IDX 10 1 20 2 21 3 22 4 2 5 3 6 4 7 6 8 7 9 8 10 11 11 12 12
REMARK SMILES IDX 13 13 19 14 15 15 17 16 14 17 16 19 18 21 9 23 1 25 5 27
REMARK H PARENT 14 18 16 20 18 22 9 24 1 26 5 28
REMARK Flexibility Score: inf
ROOT
ATOM      1  C   UNL     1      45.366  16.438  -3.420  1.00  0.00     0.402 A 
ATOM      2  O   UNL     1      45.932  15.388  -2.827  1.00  0.00    -0.202 OA
ATOM      3  C   UNL     1      47.052  14.821  -3.262  1.00  0.00     0.368 A 
ATOM      4  C   UNL     1      47.572  13.723  -2.570  1.00  0.00     0.162 A 
ATOM      5  C   UNL     1      48.748  13.110  -3.003  1.00  0.00     0.128 A 
ATOM      6  C   UNL     1      49.412  13.597  -4.135  1.00  0.00     0.093 A 
ATOM      7  C   UNL     1      48.912  14.695  -4.845  1.00  0.00     0.136 A 
ATOM      8  C   UNL     1      47.715  15.319  -4.410  1.00  0.00     0.125 A 
ATOM      9  C   UNL     1      47.133  16.416  -5.066  1.00  0.00     0.078 A 
ATOM     10  C   UNL     1      45.948  16.976  -4.581  1.00  0.00     0.223 A 
ENDROOT
BRANCH   1  11
ATOM     11  C   UNL     1      44.121  16.986  -2.833  1.00  0.00     0.091 A 
ATOM     12  C   UNL     1      43.856  18.360  -2.939  1.00  0.00     0.068 A 
ATOM     13  C   UNL     1      42.679  18.902  -2.411  1.00  0.00     0.162 A 
ATOM     14  C   UNL     1      43.171  16.151  -2.221  1.00  0.00     0.068 A 
ATOM     15  C   UNL     1      41.742  18.066  -1.782  1.00  0.00     0.200 A 
ATOM     16  C   UNL     1      41.989  16.686  -1.691  1.00  0.00     0.162 A 
BRANCH  13  17
ATOM     17  O   UNL     1      42.460  20.275  -2.523  1.00  0.00    -0.504 OA
ATOM     18  H   UNL     1      42.296  20.862  -1.716  1.00  0.00     0.293 HD
ENDBRANCH  13  17
BRANCH  15  19
ATOM     19  O   UNL     1      40.573  18.616  -1.255  1.00  0.00    -0.502 OA
ATOM     20  H   UNL     1      40.586  19.403  -0.617  1.00  0.00     0.293 HD
ENDBRANCH  15  19
BRANCH  16  21
ATOM     21  O   UNL     1      41.056  15.848  -1.081  1.00  0.00    -0.504 OA
ATOM     22  H   UNL     1      40.164  16.197  -0.752  1.00  0.00     0.293 HD
ENDBRANCH  16  21
ENDBRANCH   1  11
BRANCH  10  23
ATOM     23  O   UNL     1      45.343  18.034  -5.261  1.00  0.00    -0.500 OA
ATOM     24  H   UNL     1      44.481  18.453  -4.935  1.00  0.00     0.294 HD
ENDBRANCH  10  23
BRANCH   5  25
ATOM     25  O   UNL     1      49.249  12.017  -2.300  1.00  0.00    -0.507 OA
ATOM     26  H   UNL     1      49.540  12.097  -1.332  1.00  0.00     0.293 HD
ENDBRANCH   5  25
BRANCH   7  27
ATOM     27  O   UNL     1      49.635  15.122  -5.962  1.00  0.00    -0.507 OA
ATOM     28  H   UNL     1      50.193  15.963  -5.993  1.00  0.00     0.293 HD
ENDBRANCH   7  27
TORSDOF 7
ENDMDL
MODEL 3
REMARK VINA RESULT:    -5.409      1.559      2.926
REMARK INTER + INTRA:          -6.561
REMARK INTER:                  -6.545
REMARK INTRA:                  -0.017
REMARK UNBOUND:                 0.112
REMARK SMILES Oc1cc(O)c2cc(O)c(-c3cc(O)c(O)c(O)c3)[o+]c2c1
REMARK SMILES IDX 10 1 20 2 21 3 22 4 2 5 3 6 4 7 6 8 7 9 8 10 11 11 12 12
REMARK SMILES IDX 13 13 19 14 15 15 17 16 14 17 16 19 18 21 9 23 1 25 5 27
REMARK H PARENT 14 18 16 20 18 22 9 24 1 26 5 28
REMARK Flexibility Score: inf
ROOT
ATOM      1  C   UNL     1      46.259  16.071  -3.836  1.00  0.00     0.402 A 
ATOM      2  O   UNL     1      47.467  16.478  -4.219  1.00  0.00    -0.202 OA
ATOM      3  C   UNL     1      48.533  15.684  -4.240  1.00  0.00     0.368 A 
ATOM      4  C   UNL     1      49.760  16.203  -4.661  1.00  0.00     0.162 A 
ATOM      5  C   UNL     1      50.894  15.392  -4.695  1.00  0.00     0.128 A 
ATOM      6  C   UNL     1      50.803  14.050  -4.308  1.00  0.00     0.093 A 
ATOM      7  C   UNL     1      49.585  13.506  -3.882  1.00  0.00     0.136 A 
ATOM      8  C   UNL     1      48.430  14.329  -3.843  1.00  0.00     0.125 A 
ATOM      9  C   UNL     1      47.171  13.874  -3.418  1.00  0.00     0.078 A 
ATOM     10  C   UNL     1      46.079  14.745  -3.402  1.00  0.00     0.223 A 
ENDROOT
BRANCH   1  11
ATOM     11  C   UNL     1      45.148  17.050  -3.866  1.00  0.00     0.091 A 
ATOM     12  C   UNL     1      44.348  17.221  -2.726  1.00  0.00     0.068 A 
ATOM     13  C   UNL     1      43.304  18.152  -2.720  1.00  0.00     0.162 A 
ATOM     14  C   UNL     1      44.912  17.854  -4.994  1.00  0.00     0.068 A 
ATOM     15  C   UNL     1      43.059  18.939  -3.858  1.00  0.00     0.200 A 
ATOM     16  C   UNL     1      43.869  18.790  -4.996  1.00  0.00     0.162 A 
BRANCH  13  17
ATOM     17  O   UNL     1      42.523  18.282  -1.572  1.00  0.00    -0.504 OA
ATOM     18  H   UNL     1      42.050  19.145  -1.337  1.00  0.00     0.293 HD
ENDBRANCH  13  17
BRANCH  15  19
ATOM     19  O   UNL     1      42.013  19.863  -3.844  1.00  0.00    -0.502 OA
ATOM     20  H   UNL     1      41.429  20.029  -4.655  1.00  0.00     0.293 HD
ENDBRANCH  15  19
BRANCH  16  21
ATOM     21  O   UNL     1      43.640  19.578  -6.124  1.00  0.00    -0.504 OA
ATOM     22  H   UNL     1      43.764  20.583  -6.104  1.00  0.00     0.293 HD
ENDBRANCH  16  21
ENDBRANCH   1  11
BRANCH  10  23
ATOM     23  O   UNL     1      44.840  14.307  -2.933  1.00  0.00    -0.500 OA
ATOM     24  H   UNL     1      44.386  13.486  -3.317  1.00  0.00     0.294 HD
ENDBRANCH  10  23
BRANCH   5  25
ATOM     25  O   UNL     1      52.108  15.929  -5.117  1.00  0.00    -0.507 OA
ATOM     26  H   UNL     1      52.893  16.027  -4.483  1.00  0.00     0.293 HD
ENDBRANCH   5  25
BRANCH   7  27
ATOM     27  O   UNL     1      49.576  12.158  -3.515  1.00  0.00    -0.507 OA
ATOM     28  H   UNL     1      49.790  11.395  -4.140  1.00  0.00     0.293 HD
ENDBRANCH   7  27
TORSDOF 7
ENDMDL
MODEL 4
REMARK VINA RESULT:    -5.390      1.399      6.867
REMARK INTER + INTRA:          -6.538
REMARK INTER:                  -6.854
REMARK INTRA:                   0.316
REMARK UNBOUND:                 0.112
REMARK SMILES Oc1cc(O)c2cc(O)c(-c3cc(O)c(O)c(O)c3)[o+]c2c1
REMARK SMILES IDX 10 1 20 2 21 3 22 4 2 5 3 6 4 7 6 8 7 9 8 10 11 11 12 12
REMARK SMILES IDX 13 13 19 14 15 15 17 16 14 17 16 19 18 21 9 23 1 25 5 27
REMARK H PARENT 14 18 16 20 18 22 9 24 1 26 5 28
REMARK Flexibility Score: inf
ROOT
ATOM      1  C   UNL     1      46.400  16.513  -4.263  1.00  0.00     0.402 A 
ATOM      2  O   UNL     1      45.540  16.120  -3.326  1.00  0.00    -0.202 OA
ATOM      3  C   UNL     1      44.310  16.611  -3.211  1.00  0.00     0.368 A 
ATOM      4  C   UNL     1      43.479  16.132  -2.196  1.00  0.00     0.162 A 
ATOM      5  C   UNL     1      42.182  16.626  -2.054  1.00  0.00     0.128 A 
ATOM      6  C   UNL     1      41.710  17.607  -2.934  1.00  0.00     0.093 A 
ATOM      7  C   UNL     1      42.524  18.103  -3.960  1.00  0.00     0.136 A 
ATOM      8  C   UNL     1      43.844  17.604  -4.106  1.00  0.00     0.125 A 
ATOM      9  C   UNL     1      44.735  18.052  -5.096  1.00  0.00     0.078 A 
ATOM     10  C   UNL     1      46.023  17.516  -5.174  1.00  0.00     0.223 A 
ENDROOT
BRANCH   1  11
ATOM     11  C   UNL     1      47.740  15.883  -4.292  1.00  0.00     0.091 A 
ATOM     12  C   UNL     1      47.925  14.627  -3.695  1.00  0.00     0.068 A 
ATOM     13  C   UNL     1      49.175  14.000  -3.725  1.00  0.00     0.162 A 
ATOM     14  C   UNL     1      48.819  16.490  -4.957  1.00  0.00     0.068 A 
ATOM     15  C   UNL     1      50.256  14.620  -4.372  1.00  0.00     0.200 A 
ATOM     16  C   UNL     1      50.074  15.867  -4.993  1.00  0.00     0.162 A 
BRANCH  13  17
ATOM     17  O   UNL     1      49.322  12.758  -3.106  1.00  0.00    -0.504 OA
ATOM     18  H   UNL     1      50.219  12.420  -2.783  1.00  0.00     0.293 HD
ENDBRANCH  13  17
BRANCH  15  19
ATOM     19  O   UNL     1      51.500  13.989  -4.394  1.00  0.00    -0.502 OA
ATOM     20  H   UNL     1      51.595  12.985  -4.490  1.00  0.00     0.293 HD
ENDBRANCH  15  19
BRANCH  16  21
ATOM     21  O   UNL     1      51.140  16.483  -5.650  1.00  0.00    -0.504 OA
ATOM     22  H   UNL     1      52.089  16.414  -5.303  1.00  0.00     0.293 HD
ENDBRANCH  16  21
ENDBRANCH   1  11
BRANCH  10  23
ATOM     23  O   UNL     1      46.923  17.996  -6.125  1.00  0.00    -0.500 OA
ATOM     24  H   UNL     1      47.845  18.330  -5.866  1.00  0.00     0.294 HD
ENDBRANCH  10  23
BRANCH   5  25
ATOM     25  O   UNL     1      41.369  16.136  -1.035  1.00  0.00    -0.507 OA
ATOM     26  H   UNL     1      41.102  15.159  -0.992  1.00  0.00     0.293 HD
ENDBRANCH   5  25
BRANCH   7  27
ATOM     27  O   UNL     1      41.978  19.079  -4.799  1.00  0.00    -0.507 OA
ATOM     28  H   UNL     1      41.533  18.886  -5.684  1.00  0.00     0.293 HD
ENDBRANCH   7  27
TORSDOF 7
ENDMDL
MODEL 5
REMARK VINA RESULT:    -5.330      1.582      3.232
REMARK INTER + INTRA:          -6.465
REMARK INTER:                  -6.413
REMARK INTRA:                  -0.052
REMARK UNBOUND:                 0.112
REMARK SMILES Oc1cc(O)c2cc(O)c(-c3cc(O)c(O)c(O)c3)[o+]c2c1
REMARK SMILES IDX 10 1 20 2 21 3 22 4 2 5 3 6 4 7 6 8 7 9 8 10 11 11 12 12
REMARK SMILES IDX 13 13 19 14 15 15 17 16 14 17 16 19 18 21 9 23 1 25 5 27
REMARK H PARENT 14 18 16 20 18 22 9 24 1 26 5 28
REMARK Flexibility Score: inf
ROOT
ATOM      1  C   UNL     1      46.294  16.082  -3.879  1.00  0.00     0.402 A 
ATOM      2  O   UNL     1      47.521  16.472  -4.218  1.00  0.00    -0.202 OA
ATOM      3  C   UNL     1      48.558  15.643  -4.285  1.00  0.00     0.368 A 
ATOM      4  C   UNL     1      49.808  16.147  -4.653  1.00  0.00     0.162 A 
ATOM      5  C   UNL     1      50.913  15.300  -4.736  1.00  0.00     0.128 A 
ATOM      6  C   UNL     1      50.770  13.937  -4.448  1.00  0.00     0.093 A 
ATOM      7  C   UNL     1      49.528  13.408  -4.077  1.00  0.00     0.136 A 
ATOM      8  C   UNL     1      48.402  14.267  -3.990  1.00  0.00     0.125 A 
ATOM      9  C   UNL     1      47.122  13.828  -3.613  1.00  0.00     0.078 A 
ATOM     10  C   UNL     1      46.061  14.735  -3.545  1.00  0.00     0.223 A 
ENDROOT
BRANCH   1  11
ATOM     11  C   UNL     1      45.219  17.100  -3.849  1.00  0.00     0.091 A 
ATOM     12  C   UNL     1      44.995  17.900  -4.980  1.00  0.00     0.068 A 
ATOM     13  C   UNL     1      43.974  18.856  -4.987  1.00  0.00     0.162 A 
ATOM     14  C   UNL     1      44.379  17.243  -2.732  1.00  0.00     0.068 A 
ATOM     15  C   UNL     1      43.150  19.010  -3.860  1.00  0.00     0.200 A 
ATOM     16  C   UNL     1      43.352  18.197  -2.732  1.00  0.00     0.162 A 
BRANCH  13  17
ATOM     17  O   UNL     1      43.793  19.641  -6.125  1.00  0.00    -0.504 OA
ATOM     18  H   UNL     1      44.510  19.737  -6.833  1.00  0.00     0.293 HD
ENDBRANCH  13  17
BRANCH  15  19
ATOM     19  O   UNL     1      42.136  19.968  -3.874  1.00  0.00    -0.502 OA
ATOM     20  H   UNL     1      42.222  20.840  -4.385  1.00  0.00     0.293 HD
ENDBRANCH  15  19
BRANCH  16  21
ATOM     21  O   UNL     1      42.528  18.336  -1.615  1.00  0.00    -0.504 OA
ATOM     22  H   UNL     1      41.651  18.839  -1.661  1.00  0.00     0.293 HD
ENDBRANCH  16  21
ENDBRANCH   1  11
BRANCH  10  23
ATOM     23  O   UNL     1      44.802  14.309  -3.123  1.00  0.00    -0.500 OA
ATOM     24  H   UNL     1      44.054  14.125  -3.782  1.00  0.00     0.294 HD
ENDBRANCH  10  23
BRANCH   5  25
ATOM     25  O   UNL     1      52.152  15.821  -5.104  1.00  0.00    -0.507 OA
ATOM     26  H   UNL     1      52.246  16.463  -5.883  1.00  0.00     0.293 HD
ENDBRANCH   5  25
BRANCH   7  27
ATOM     27  O   UNL     1      49.467  12.038  -3.810  1.00  0.00    -0.507 OA
ATOM     28  H   UNL     1      49.809  11.319  -4.431  1.00  0.00     0.293 HD
ENDBRANCH   7  27
TORSDOF 7
ENDMDL
MODEL 6
REMARK VINA RESULT:    -5.238      1.358      7.419
REMARK INTER + INTRA:          -6.351
REMARK INTER:                  -6.381
REMARK INTRA:                   0.030
REMARK UNBOUND:                 0.112
REMARK SMILES Oc1cc(O)c2cc(O)c(-c3cc(O)c(O)c(O)c3)[o+]c2c1
REMARK SMILES IDX 10 1 20 2 21 3 22 4 2 5 3 6 4 7 6 8 7 9 8 10 11 11 12 12
REMARK SMILES IDX 13 13 19 14 15 15 17 16 14 17 16 19 18 21 9 23 1 25 5 27
REMARK H PARENT 14 18 16 20 18 22 9 24 1 26 5 28
REMARK Flexibility Score: inf
ROOT
ATOM      1  C   UNL     1      44.821  15.927  -2.963  1.00  0.00     0.402 A 
ATOM      2  O   UNL     1      44.707  17.253  -2.947  1.00  0.00    -0.202 OA
ATOM      3  C   UNL     1      43.555  17.885  -2.744  1.00  0.00     0.368 A 
ATOM      4  C   UNL     1      43.536  19.282  -2.742  1.00  0.00     0.162 A 
ATOM      5  C   UNL     1      42.342  19.970  -2.529  1.00  0.00     0.128 A 
ATOM      6  C   UNL     1      41.156  19.258  -2.314  1.00  0.00     0.093 A 
ATOM      7  C   UNL     1      41.149  17.858  -2.311  1.00  0.00     0.136 A 
ATOM      8  C   UNL     1      42.361  17.155  -2.530  1.00  0.00     0.125 A 
ATOM      9  C   UNL     1      42.447  15.753  -2.558  1.00  0.00     0.078 A 
ATOM     10  C   UNL     1      43.677  15.130  -2.785  1.00  0.00     0.223 A 
ENDROOT
BRANCH   1  11
ATOM     11  C   UNL     1      46.163  15.343  -3.190  1.00  0.00     0.091 A 
ATOM     12  C   UNL     1      47.038  15.957  -4.099  1.00  0.00     0.068 A 
ATOM     13  C   UNL     1      48.319  15.438  -4.319  1.00  0.00     0.162 A 
ATOM     14  C   UNL     1      46.602  14.218  -2.472  1.00  0.00     0.068 A 
ATOM     15  C   UNL     1      48.745  14.300  -3.613  1.00  0.00     0.200 A 
ATOM     16  C   UNL     1      47.884  13.693  -2.684  1.00  0.00     0.162 A 
BRANCH  13  17
ATOM     17  O   UNL     1      49.153  16.068  -5.241  1.00  0.00    -0.504 OA
ATOM     18  H   UNL     1      49.602  15.563  -5.995  1.00  0.00     0.293 HD
ENDBRANCH  13  17
BRANCH  15  19
ATOM     19  O   UNL     1      50.023  13.787  -3.841  1.00  0.00    -0.502 OA
ATOM     20  H   UNL     1      50.351  13.548  -4.769  1.00  0.00     0.293 HD
ENDBRANCH  15  19
BRANCH  16  21
ATOM     21  O   UNL     1      48.306  12.572  -1.970  1.00  0.00    -0.504 OA
ATOM     22  H   UNL     1      49.163  12.085  -2.203  1.00  0.00     0.293 HD
ENDBRANCH  16  21
ENDBRANCH   1  11
BRANCH  10  23
ATOM     23  O   UNL     1      43.753  13.739  -2.861  1.00  0.00    -0.500 OA
ATOM     24  H   UNL     1      42.982  13.181  -3.210  1.00  0.00     0.294 HD
ENDBRANCH  10  23
BRANCH   5  25
ATOM     25  O   UNL     1      42.343  21.363  -2.531  1.00  0.00    -0.507 OA
ATOM     26  H   UNL     1      43.206  21.892  -2.593  1.00  0.00     0.293 HD
ENDBRANCH   5  25
BRANCH   7  27
ATOM     27  O   UNL     1      39.925  17.222  -2.086  1.00  0.00    -0.507 OA
ATOM     28  H   UNL     1      39.063  17.459  -2.555  1.00  0.00     0.293 HD
ENDBRANCH   7  27
TORSDOF 7
ENDMDL
MODEL 7
REMARK VINA RESULT:    -5.075      2.000      7.910
REMARK INTER + INTRA:          -6.150
REMARK INTER:                  -6.034
REMARK INTRA:                  -0.116
REMARK UNBOUND:                 0.112
REMARK SMILES Oc1cc(O)c2cc(O)c(-c3cc(O)c(O)c(O)c3)[o+]c2c1
REMARK SMILES IDX 10 1 20 2 21 3 22 4 2 5 3 6 4 7 6 8 7 9 8 10 11 11 12 12
REMARK SMILES IDX 13 13 19 14 15 15 17 16 14 17 16 19 18 21 9 23 1 25 5 27
REMARK H PARENT 14 18 16 20 18 22 9 24 1 26 5 28
REMARK Flexibility Score: inf
ROOT
ATOM      1  C   UNL     1      47.786  15.401  -4.169  1.00  0.00     0.402 A 
ATOM      2  O   UNL     1      47.273  16.410  -4.869  1.00  0.00    -0.202 OA
ATOM      3  C   UNL     1      46.111  16.985  -4.577  1.00  0.00     0.368 A 
ATOM      4  C   UNL     1      45.656  18.042  -5.371  1.00  0.00     0.162 A 
ATOM      5  C   UNL     1      44.442  18.666  -5.085  1.00  0.00     0.128 A 
ATOM      6  C   UNL     1      43.674  18.232  -3.998  1.00  0.00     0.093 A 
ATOM      7  C   UNL     1      44.108  17.176  -3.188  1.00  0.00     0.136 A 
ATOM      8  C   UNL     1      45.341  16.537  -3.477  1.00  0.00     0.125 A 
ATOM      9  C   UNL     1      45.849  15.462  -2.728  1.00  0.00     0.078 A 
ATOM     10  C   UNL     1      47.070  14.880  -3.076  1.00  0.00     0.223 A 
ENDROOT
BRANCH   1  11
ATOM     11  C   UNL     1      49.096  14.851  -4.589  1.00  0.00     0.091 A 
ATOM     12  C   UNL     1      50.216  15.695  -4.635  1.00  0.00     0.068 A 
ATOM     13  C   UNL     1      51.468  15.199  -5.009  1.00  0.00     0.162 A 
ATOM     14  C   UNL     1      49.254  13.488  -4.889  1.00  0.00     0.068 A 
ATOM     15  C   UNL     1      51.618  13.839  -5.329  1.00  0.00     0.200 A 
ATOM     16  C   UNL     1      50.506  12.982  -5.264  1.00  0.00     0.162 A 
BRANCH  13  17
ATOM     17  O   UNL     1      52.554  16.074  -5.056  1.00  0.00    -0.504 OA
ATOM     18  H   UNL     1      53.075  16.240  -5.908  1.00  0.00     0.293 HD
ENDBRANCH  13  17
BRANCH  15  19
ATOM     19  O   UNL     1      52.871  13.353  -5.705  1.00  0.00    -0.502 OA
ATOM     20  H   UNL     1      53.114  13.177  -6.673  1.00  0.00     0.293 HD
ENDBRANCH  15  19
BRANCH  16  21
ATOM     21  O   UNL     1      50.650  11.628  -5.566  1.00  0.00    -0.504 OA
ATOM     22  H   UNL     1      50.770  11.306  -6.519  1.00  0.00     0.293 HD
ENDBRANCH  16  21
ENDBRANCH   1  11
BRANCH  10  23
ATOM     23  O   UNL     1      47.550  13.781  -2.364  1.00  0.00    -0.500 OA
ATOM     24  H   UNL     1      48.333  13.860  -1.725  1.00  0.00     0.294 HD
ENDBRANCH  10  23
BRANCH   5  25
ATOM     25  O   UNL     1      44.006  19.717  -5.888  1.00  0.00    -0.507 OA
ATOM     26  H   UNL     1      44.382  19.865  -6.818  1.00  0.00     0.293 HD
ENDBRANCH   5  25
BRANCH   7  27
ATOM     27  O   UNL     1      43.286  16.804  -2.120  1.00  0.00    -0.507 OA
ATOM     28  H   UNL     1      42.277  16.803  -2.151  1.00  0.00     0.293 HD
ENDBRANCH   7  27
TORSDOF 7
ENDMDL
MODEL 8
REMARK VINA RESULT:    -5.069      1.635      2.036
REMARK INTER + INTRA:          -6.143
REMARK INTER:                  -5.779
REMARK INTRA:                  -0.364
REMARK UNBOUND:                 0.112
REMARK SMILES Oc1cc(O)c2cc(O)c(-c3cc(O)c(O)c(O)c3)[o+]c2c1
REMARK SMILES IDX 10 1 20 2 21 3 22 4 2 5 3 6 4 7 6 8 7 9 8 10 11 11 12 12
REMARK SMILES IDX 13 13 19 14 15 15 17 16 14 17 16 19 18 21 9 23 1 25 5 27
REMARK H PARENT 14 18 16 20 18 22 9 24 1 26 5 28
REMARK Flexibility Score: inf
ROOT
ATOM      1  C   UNL     1      45.791  16.078  -3.699  1.00  0.00     0.402 A 
ATOM      2  O   UNL     1      45.741  14.939  -3.012  1.00  0.00    -0.202 OA
ATOM      3  C   UNL     1      46.769  14.103  -2.907  1.00  0.00     0.368 A 
ATOM      4  C   UNL     1      46.620  12.932  -2.161  1.00  0.00     0.162 A 
ATOM      5  C   UNL     1      47.684  12.039  -2.031  1.00  0.00     0.128 A 
ATOM      6  C   UNL     1      48.908  12.318  -2.650  1.00  0.00     0.093 A 
ATOM      7  C   UNL     1      49.082  13.485  -3.403  1.00  0.00     0.136 A 
ATOM      8  C   UNL     1      48.002  14.394  -3.540  1.00  0.00     0.125 A 
ATOM      9  C   UNL     1      48.081  15.582  -4.286  1.00  0.00     0.078 A 
ATOM     10  C   UNL     1      46.972  16.427  -4.379  1.00  0.00     0.223 A 
ENDROOT
BRANCH   1  11
ATOM     11  C   UNL     1      44.579  16.929  -3.733  1.00  0.00     0.091 A 
ATOM     12  C   UNL     1      43.683  16.810  -4.807  1.00  0.00     0.068 A 
ATOM     13  C   UNL     1      42.521  17.587  -4.855  1.00  0.00     0.162 A 
ATOM     14  C   UNL     1      44.277  17.814  -2.685  1.00  0.00     0.068 A 
ATOM     15  C   UNL     1      42.234  18.486  -3.814  1.00  0.00     0.200 A 
ATOM     16  C   UNL     1      43.115  18.595  -2.725  1.00  0.00     0.162 A 
BRANCH  13  17
ATOM     17  O   UNL     1      41.663  17.450  -5.946  1.00  0.00    -0.504 OA
ATOM     18  H   UNL     1      40.835  18.022  -6.055  1.00  0.00     0.293 HD
ENDBRANCH  13  17
BRANCH  15  19
ATOM     19  O   UNL     1      41.074  19.260  -3.872  1.00  0.00    -0.502 OA
ATOM     20  H   UNL     1      41.102  20.267  -3.981  1.00  0.00     0.293 HD
ENDBRANCH  15  19
BRANCH  16  21
ATOM     21  O   UNL     1      42.829  19.475  -1.681  1.00  0.00    -0.504 OA
ATOM     22  H   UNL     1      42.107  19.274  -0.999  1.00  0.00     0.293 HD
ENDBRANCH  16  21
ENDBRANCH   1  11
BRANCH  10  23
ATOM     23  O   UNL     1      47.035  17.581  -5.160  1.00  0.00    -0.500 OA
ATOM     24  H   UNL     1      46.386  18.349  -5.029  1.00  0.00     0.294 HD
ENDBRANCH  10  23
BRANCH   5  25
ATOM     25  O   UNL     1      47.515  10.875  -1.283  1.00  0.00    -0.507 OA
ATOM     26  H   UNL     1      46.781  10.210  -1.497  1.00  0.00     0.293 HD
ENDBRANCH   5  25
BRANCH   7  27
ATOM     27  O   UNL     1      50.335  13.693  -3.987  1.00  0.00    -0.507 OA
ATOM     28  H   UNL     1      51.143  13.109  -3.828  1.00  0.00     0.293 HD
ENDBRANCH   7  27
TORSDOF 7
ENDMDL
