MODEL 1
REMARK VINA RESULT:    -7.641      0.000      0.000
REMARK INTER + INTRA:         -21.191
REMARK INTER:                 -19.255
REMARK INTRA:                  -1.935
REMARK UNBOUND:                -1.935
REMARK SMILES CCCCCCCCCCCCCCCCCCCCCCCCCCCC(=O)[O-]
REMARK SMILES IDX 15 1 16 2 17 3 18 4 19 5 20 6 21 7 22 8 23 9 24 10 25 11
REMARK SMILES IDX 26 12 27 13 28 14 29 15 30 16 14 17 13 18 12 19 11 20 10 21
REMARK SMILES IDX 9 22 8 23 7 24 6 25 5 26 4 27 3 28 2 29 1 30
REMARK H PARENT
REMARK Flexibility Score: inf
ROOT
ATOM      1  C   UNL     1      -3.384   1.151 -18.253  1.00  0.00     0.000 C 
ENDROOT
BRANCH   1   2
ATOM      2  C   UNL     1      -3.115  -0.267 -18.786  1.00  0.00     0.000 C 
BRANCH   2   3
ATOM      3  C   UNL     1      -4.346  -1.186 -18.700  1.00  0.00     0.000 C 
BRANCH   3   4
ATOM      4  C   UNL     1      -5.709  -0.476 -18.827  1.00  0.00     0.000 C 
BRANCH   4   5
ATOM      5  C   UNL     1      -6.833  -1.414 -19.299  1.00  0.00     0.000 C 
BRANCH   5   6
ATOM      6  C   UNL     1      -6.485  -2.164 -20.598  1.00  0.00     0.000 C 
BRANCH   6   7
ATOM      7  C   UNL     1      -6.587  -3.700 -20.524  1.00  0.00     0.000 C 
BRANCH   7   8
ATOM      8  C   UNL     1      -6.343  -4.250 -19.109  1.00  0.00     0.000 C 
BRANCH   8   9
ATOM      9  C   UNL     1      -7.532  -5.065 -18.567  1.00  0.00     0.000 C 
BRANCH   9  10
ATOM     10  C   UNL     1      -8.754  -5.145 -19.501  1.00  0.00     0.000 C 
BRANCH  10  11
ATOM     11  C   UNL     1      -9.229  -6.583 -19.751  1.00  0.00     0.000 C 
BRANCH  11  12
ATOM     12  C   UNL     1      -8.045  -7.560 -19.754  1.00  0.00     0.006 C 
BRANCH  12  13
ATOM     13  C   UNL     1      -8.481  -9.003 -19.462  1.00  0.00     0.053 C 
BRANCH  13  14
ATOM     14  C   UNL     1      -8.114  -9.933 -20.578  1.00  0.00     0.041 C 
ATOM     15  O   UNL     1      -7.787 -11.124 -20.328  1.00  0.00    -0.550 OA
ATOM     16  O   UNL     1      -8.167  -9.496 -21.894  1.00  0.00    -0.550 OA
ENDBRANCH  13  14
ENDBRANCH  12  13
ENDBRANCH  11  12
ENDBRANCH  10  11
ENDBRANCH   9  10
ENDBRANCH   8   9
ENDBRANCH   7   8
ENDBRANCH   6   7
ENDBRANCH   5   6
ENDBRANCH   4   5
ENDBRANCH   3   4
ENDBRANCH   2   3
ENDBRANCH   1   2
BRANCH   1  17
ATOM     17  C   UNL     1      -2.281   1.640 -17.299  1.00  0.00     0.000 C 
BRANCH  17  18
ATOM     18  C   UNL     1      -1.937   3.126 -17.508  1.00  0.00     0.000 C 
BRANCH  18  19
ATOM     19  C   UNL     1      -3.187   4.018 -17.573  1.00  0.00     0.000 C 
BRANCH  19  20
ATOM     20  C   UNL     1      -3.034   5.313 -16.760  1.00  0.00     0.000 C 
BRANCH  20  21
ATOM     21  C   UNL     1      -4.402   5.964 -16.506  1.00  0.00     0.000 C 
BRANCH  21  22
ATOM     22  C   UNL     1      -4.702   6.173 -15.011  1.00  0.00    -0.000 C 
BRANCH  22  23
ATOM     23  C   UNL     1      -5.997   5.511 -14.502  1.00  0.00    -0.000 C 
BRANCH  23  24
ATOM     24  C   UNL     1      -6.952   6.507 -13.823  1.00  0.00    -0.000 C 
BRANCH  24  25
ATOM     25  C   UNL     1      -7.144   6.229 -12.320  1.00  0.00    -0.000 C 
BRANCH  25  26
ATOM     26  C   UNL     1      -7.094   7.468 -11.407  1.00  0.00    -0.000 C 
BRANCH  26  27
ATOM     27  C   UNL     1      -6.258   7.245 -10.136  1.00  0.00    -0.000 C 
BRANCH  27  28
ATOM     28  C   UNL     1      -4.857   7.871 -10.237  1.00  0.00    -0.000 C 
BRANCH  28  29
ATOM     29  C   UNL     1      -3.736   6.831 -10.101  1.00  0.00    -0.003 C 
ATOM     30  C   UNL     1      -3.216   6.402 -11.470  1.00  0.00     0.004 C 
ENDBRANCH  28  29
ENDBRANCH  27  28
ENDBRANCH  26  27
ENDBRANCH  25  26
ENDBRANCH  24  25
ENDBRANCH  23  24
ENDBRANCH  22  23
ENDBRANCH  21  22
ENDBRANCH  20  21
ENDBRANCH  19  20
ENDBRANCH  18  19
ENDBRANCH  17  18
ENDBRANCH   1  17
TORSDOF 26
ENDMDL
MODEL 2
REMARK VINA RESULT:    -7.639      1.042      1.936
REMARK INTER + INTRA:         -21.186
REMARK INTER:                 -19.647
REMARK INTRA:                  -1.538
REMARK UNBOUND:                -1.935
REMARK SMILES CCCCCCCCCCCCCCCCCCCCCCCCCCCC(=O)[O-]
REMARK SMILES IDX 15 1 16 2 17 3 18 4 19 5 20 6 21 7 22 8 23 9 24 10 25 11
REMARK SMILES IDX 26 12 27 13 28 14 29 15 30 16 14 17 13 18 12 19 11 20 10 21
REMARK SMILES IDX 9 22 8 23 7 24 6 25 5 26 4 27 3 28 2 29 1 30
REMARK H PARENT
REMARK Flexibility Score: inf
ROOT
ATOM      1  C   UNL     1      -2.737   0.180 -18.419  1.00  0.00     0.000 C 
ENDROOT
BRANCH   1   2
ATOM      2  C   UNL     1      -2.748  -1.322 -18.082  1.00  0.00     0.000 C 
BRANCH   2   3
ATOM      3  C   UNL     1      -3.952  -2.065 -18.687  1.00  0.00     0.000 C 
BRANCH   3   4
ATOM      4  C   UNL     1      -4.829  -1.232 -19.642  1.00  0.00     0.000 C 
BRANCH   4   5
ATOM      5  C   UNL     1      -6.085  -0.661 -18.960  1.00  0.00     0.000 C 
BRANCH   5   6
ATOM      6  C   UNL     1      -7.391  -1.289 -19.480  1.00  0.00     0.000 C 
BRANCH   6   7
ATOM      7  C   UNL     1      -7.277  -2.043 -20.819  1.00  0.00     0.000 C 
BRANCH   7   8
ATOM      8  C   UNL     1      -7.361  -3.570 -20.657  1.00  0.00     0.000 C 
BRANCH   8   9
ATOM      9  C   UNL     1      -7.679  -4.005 -19.214  1.00  0.00     0.000 C 
BRANCH   9  10
ATOM     10  C   UNL     1      -8.561  -5.261 -19.085  1.00  0.00     0.000 C 
BRANCH  10  11
ATOM     11  C   UNL     1      -7.808  -6.561 -19.398  1.00  0.00     0.000 C 
BRANCH  11  12
ATOM     12  C   UNL     1      -8.723  -7.569 -20.109  1.00  0.00     0.006 C 
BRANCH  12  13
ATOM     13  C   UNL     1      -8.559  -8.992 -19.560  1.00  0.00     0.053 C 
BRANCH  13  14
ATOM     14  C   UNL     1      -8.097  -9.949 -20.617  1.00  0.00     0.041 C 
ATOM     15  O   UNL     1      -7.460 -10.987 -20.299  1.00  0.00    -0.550 OA
ATOM     16  O   UNL     1      -8.401  -9.711 -21.951  1.00  0.00    -0.550 OA
ENDBRANCH  13  14
ENDBRANCH  12  13
ENDBRANCH  11  12
ENDBRANCH  10  11
ENDBRANCH   9  10
ENDBRANCH   8   9
ENDBRANCH   7   8
ENDBRANCH   6   7
ENDBRANCH   5   6
ENDBRANCH   4   5
ENDBRANCH   3   4
ENDBRANCH   2   3
ENDBRANCH   1   2
BRANCH   1  17
ATOM     17  C   UNL     1      -2.472   1.057 -17.183  1.00  0.00     0.000 C 
BRANCH  17  18
ATOM     18  C   UNL     1      -1.975   2.465 -17.556  1.00  0.00     0.000 C 
BRANCH  18  19
ATOM     19  C   UNL     1      -3.107   3.504 -17.580  1.00  0.00     0.000 C 
BRANCH  19  20
ATOM     20  C   UNL     1      -2.679   4.861 -17.001  1.00  0.00     0.000 C 
BRANCH  20  21
ATOM     21  C   UNL     1      -3.872   5.825 -16.926  1.00  0.00     0.000 C 
BRANCH  21  22
ATOM     22  C   UNL     1      -4.851   5.487 -15.787  1.00  0.00    -0.000 C 
BRANCH  22  23
ATOM     23  C   UNL     1      -5.127   6.635 -14.798  1.00  0.00    -0.000 C 
BRANCH  23  24
ATOM     24  C   UNL     1      -3.842   7.242 -14.210  1.00  0.00    -0.000 C 
BRANCH  24  25
ATOM     25  C   UNL     1      -3.688   6.980 -12.700  1.00  0.00    -0.000 C 
BRANCH  25  26
ATOM     26  C   UNL     1      -4.837   6.190 -12.046  1.00  0.00    -0.000 C 
BRANCH  26  27
ATOM     27  C   UNL     1      -5.254   6.756 -10.678  1.00  0.00    -0.000 C 
BRANCH  27  28
ATOM     28  C   UNL     1      -6.779   6.912 -10.548  1.00  0.00    -0.000 C 
BRANCH  28  29
ATOM     29  C   UNL     1      -7.495   5.566 -10.366  1.00  0.00    -0.003 C 
ATOM     30  C   UNL     1      -8.884   5.595 -10.998  1.00  0.00     0.004 C 
ENDBRANCH  28  29
ENDBRANCH  27  28
ENDBRANCH  26  27
ENDBRANCH  25  26
ENDBRANCH  24  25
ENDBRANCH  23  24
ENDBRANCH  22  23
ENDBRANCH  21  22
ENDBRANCH  20  21
ENDBRANCH  19  20
ENDBRANCH  18  19
ENDBRANCH  17  18
ENDBRANCH   1  17
TORSDOF 26
ENDMDL
MODEL 3
REMARK VINA RESULT:    -7.549      5.397     13.448
REMARK INTER + INTRA:         -20.958
REMARK INTER:                 -19.142
REMARK INTRA:                  -1.815
REMARK UNBOUND:                -1.935
REMARK SMILES CCCCCCCCCCCCCCCCCCCCCCCCCCCC(=O)[O-]
REMARK SMILES IDX 15 1 16 2 17 3 18 4 19 5 20 6 21 7 22 8 23 9 24 10 25 11
REMARK SMILES IDX 26 12 27 13 28 14 29 15 30 16 14 17 13 18 12 19 11 20 10 21
REMARK SMILES IDX 9 22 8 23 7 24 6 25 5 26 4 27 3 28 2 29 1 30
REMARK H PARENT
REMARK Flexibility Score: inf
ROOT
ATOM      1  C   UNL     1      -3.873  -0.276 -18.910  1.00  0.00     0.000 C 
ENDROOT
BRANCH   1   2
ATOM      2  C   UNL     1      -3.636   0.390 -17.543  1.00  0.00     0.000 C 
BRANCH   2   3
ATOM      3  C   UNL     1      -2.165   0.781 -17.312  1.00  0.00     0.000 C 
BRANCH   3   4
ATOM      4  C   UNL     1      -1.876   2.295 -17.326  1.00  0.00     0.000 C 
BRANCH   4   5
ATOM      5  C   UNL     1      -3.147   3.148 -17.475  1.00  0.00     0.000 C 
BRANCH   5   6
ATOM      6  C   UNL     1      -2.872   4.660 -17.374  1.00  0.00     0.000 C 
BRANCH   6   7
ATOM      7  C   UNL     1      -3.996   5.575 -17.897  1.00  0.00     0.000 C 
BRANCH   7   8
ATOM      8  C   UNL     1      -4.698   6.362 -16.778  1.00  0.00     0.000 C 
BRANCH   8   9
ATOM      9  C   UNL     1      -4.357   5.840 -15.370  1.00  0.00     0.000 C 
BRANCH   9  10
ATOM     10  C   UNL     1      -5.508   5.125 -14.638  1.00  0.00     0.000 C 
BRANCH  10  11
ATOM     11  C   UNL     1      -6.722   6.031 -14.390  1.00  0.00     0.000 C 
BRANCH  11  12
ATOM     12  C   UNL     1      -6.388   7.129 -13.370  1.00  0.00     0.006 C 
BRANCH  12  13
ATOM     13  C   UNL     1      -6.959   6.823 -11.979  1.00  0.00     0.053 C 
BRANCH  13  14
ATOM     14  C   UNL     1      -5.995   7.182 -10.889  1.00  0.00     0.041 C 
ATOM     15  O   UNL     1      -6.117   8.272 -10.269  1.00  0.00    -0.550 OA
ATOM     16  O   UNL     1      -4.984   6.298 -10.535  1.00  0.00    -0.550 OA
ENDBRANCH  13  14
ENDBRANCH  12  13
ENDBRANCH  11  12
ENDBRANCH  10  11
ENDBRANCH   9  10
ENDBRANCH   8   9
ENDBRANCH   7   8
ENDBRANCH   6   7
ENDBRANCH   5   6
ENDBRANCH   4   5
ENDBRANCH   3   4
ENDBRANCH   2   3
ENDBRANCH   1   2
BRANCH   1  17
ATOM     17  C   UNL     1      -4.089  -1.795 -18.795  1.00  0.00     0.000 C 
BRANCH  17  18
ATOM     18  C   UNL     1      -3.883  -2.522 -20.135  1.00  0.00     0.000 C 
BRANCH  18  19
ATOM     19  C   UNL     1      -4.936  -2.135 -21.186  1.00  0.00     0.000 C 
BRANCH  19  20
ATOM     20  C   UNL     1      -5.821  -3.319 -21.603  1.00  0.00     0.000 C 
BRANCH  20  21
ATOM     21  C   UNL     1      -7.280  -3.088 -21.183  1.00  0.00     0.000 C 
BRANCH  21  22
ATOM     22  C   UNL     1      -7.448  -2.902 -19.664  1.00  0.00    -0.000 C 
BRANCH  22  23
ATOM     23  C   UNL     1      -7.353  -4.194 -18.831  1.00  0.00    -0.000 C 
BRANCH  23  24
ATOM     24  C   UNL     1      -8.703  -4.918 -18.693  1.00  0.00    -0.000 C 
BRANCH  24  25
ATOM     25  C   UNL     1      -9.014  -5.845 -19.884  1.00  0.00    -0.000 C 
BRANCH  25  26
ATOM     26  C   UNL     1      -8.109  -7.084 -20.011  1.00  0.00    -0.000 C 
BRANCH  26  27
ATOM     27  C   UNL     1      -8.527  -8.234 -19.079  1.00  0.00    -0.000 C 
BRANCH  27  28
ATOM     28  C   UNL     1      -8.344  -9.615 -19.731  1.00  0.00    -0.000 C 
BRANCH  28  29
ATOM     29  C   UNL     1      -7.554  -9.545 -21.046  1.00  0.00    -0.003 C 
ATOM     30  C   UNL     1      -8.405 -10.016 -22.222  1.00  0.00     0.004 C 
ENDBRANCH  28  29
ENDBRANCH  27  28
ENDBRANCH  26  27
ENDBRANCH  25  26
ENDBRANCH  24  25
ENDBRANCH  23  24
ENDBRANCH  22  23
ENDBRANCH  21  22
ENDBRANCH  20  21
ENDBRANCH  19  20
ENDBRANCH  18  19
ENDBRANCH  17  18
ENDBRANCH   1  17
TORSDOF 26
ENDMDL
MODEL 4
REMARK VINA RESULT:    -7.352      5.672     13.760
REMARK INTER + INTRA:         -20.463
REMARK INTER:                 -19.082
REMARK INTRA:                  -1.381
REMARK UNBOUND:                -1.935
REMARK SMILES CCCCCCCCCCCCCCCCCCCCCCCCCCCC(=O)[O-]
REMARK SMILES IDX 15 1 16 2 17 3 18 4 19 5 20 6 21 7 22 8 23 9 24 10 25 11
REMARK SMILES IDX 26 12 27 13 28 14 29 15 30 16 14 17 13 18 12 19 11 20 10 21
REMARK SMILES IDX 9 22 8 23 7 24 6 25 5 26 4 27 3 28 2 29 1 30
REMARK H PARENT
REMARK Flexibility Score: inf
ROOT
ATOM      1  C   UNL     1      -1.875   0.683 -17.738  1.00  0.00     0.000 C 
ENDROOT
BRANCH   1   2
ATOM      2  C   UNL     1      -1.900   2.054 -17.040  1.00  0.00     0.000 C 
BRANCH   2   3
ATOM      3  C   UNL     1      -2.000   3.230 -18.027  1.00  0.00     0.000 C 
BRANCH   3   4
ATOM      4  C   UNL     1      -2.086   4.627 -17.383  1.00  0.00     0.000 C 
BRANCH   4   5
ATOM      5  C   UNL     1      -3.523   5.174 -17.323  1.00  0.00     0.000 C 
BRANCH   5   6
ATOM      6  C   UNL     1      -3.606   6.583 -16.709  1.00  0.00     0.000 C 
BRANCH   6   7
ATOM      7  C   UNL     1      -4.581   6.734 -15.525  1.00  0.00     0.000 C 
BRANCH   7   8
ATOM      8  C   UNL     1      -5.233   5.405 -15.112  1.00  0.00     0.000 C 
BRANCH   8   9
ATOM      9  C   UNL     1      -6.409   5.590 -14.133  1.00  0.00     0.000 C 
BRANCH   9  10
ATOM     10  C   UNL     1      -6.382   6.894 -13.314  1.00  0.00     0.000 C 
BRANCH  10  11
ATOM     11  C   UNL     1      -7.466   6.946 -12.228  1.00  0.00     0.000 C 
BRANCH  11  12
ATOM     12  C   UNL     1      -7.129   8.001 -11.165  1.00  0.00     0.006 C 
BRANCH  12  13
ATOM     13  C   UNL     1      -6.311   7.416 -10.005  1.00  0.00     0.053 C 
BRANCH  13  14
ATOM     14  C   UNL     1      -4.866   7.804 -10.090  1.00  0.00     0.041 C 
ATOM     15  O   UNL     1      -4.021   7.279  -9.317  1.00  0.00    -0.550 OA
ATOM     16  O   UNL     1      -4.446   8.720 -11.046  1.00  0.00    -0.550 OA
ENDBRANCH  13  14
ENDBRANCH  12  13
ENDBRANCH  11  12
ENDBRANCH  10  11
ENDBRANCH   9  10
ENDBRANCH   8   9
ENDBRANCH   7   8
ENDBRANCH   6   7
ENDBRANCH   5   6
ENDBRANCH   4   5
ENDBRANCH   3   4
ENDBRANCH   2   3
ENDBRANCH   1   2
BRANCH   1  17
ATOM     17  C   UNL     1      -3.180  -0.105 -17.533  1.00  0.00     0.000 C 
BRANCH  17  18
ATOM     18  C   UNL     1      -4.202   0.144 -18.656  1.00  0.00     0.000 C 
BRANCH  18  19
ATOM     19  C   UNL     1      -5.259  -0.968 -18.751  1.00  0.00     0.000 C 
BRANCH  19  20
ATOM     20  C   UNL     1      -4.703  -2.265 -19.356  1.00  0.00     0.000 C 
BRANCH  20  21
ATOM     21  C   UNL     1      -4.903  -2.289 -20.879  1.00  0.00     0.000 C 
BRANCH  21  22
ATOM     22  C   UNL     1      -6.043  -3.223 -21.323  1.00  0.00    -0.000 C 
BRANCH  22  23
ATOM     23  C   UNL     1      -7.423  -2.910 -20.714  1.00  0.00    -0.000 C 
BRANCH  23  24
ATOM     24  C   UNL     1      -7.871  -3.954 -19.676  1.00  0.00    -0.000 C 
BRANCH  24  25
ATOM     25  C   UNL     1      -7.395  -5.380 -20.012  1.00  0.00    -0.000 C 
BRANCH  25  26
ATOM     26  C   UNL     1      -8.354  -6.512 -19.597  1.00  0.00    -0.000 C 
BRANCH  26  27
ATOM     27  C   UNL     1      -7.878  -7.901 -20.053  1.00  0.00    -0.000 C 
BRANCH  27  28
ATOM     28  C   UNL     1      -8.618  -9.041 -19.334  1.00  0.00    -0.000 C 
BRANCH  28  29
ATOM     29  C   UNL     1      -8.260 -10.423 -19.899  1.00  0.00    -0.003 C 
ATOM     30  C   UNL     1      -7.862 -10.329 -21.369  1.00  0.00     0.004 C 
ENDBRANCH  28  29
ENDBRANCH  27  28
ENDBRANCH  26  27
ENDBRANCH  25  26
ENDBRANCH  24  25
ENDBRANCH  23  24
ENDBRANCH  22  23
ENDBRANCH  21  22
ENDBRANCH  20  21
ENDBRANCH  19  20
ENDBRANCH  18  19
ENDBRANCH  17  18
ENDBRANCH   1  17
TORSDOF 26
ENDMDL
MODEL 5
REMARK VINA RESULT:    -7.255      5.057     12.987
REMARK INTER + INTRA:         -20.217
REMARK INTER:                 -18.087
REMARK INTRA:                  -2.130
REMARK UNBOUND:                -1.935
REMARK SMILES CCCCCCCCCCCCCCCCCCCCCCCCCCCC(=O)[O-]
REMARK SMILES IDX 15 1 16 2 17 3 18 4 19 5 20 6 21 7 22 8 23 9 24 10 25 11
REMARK SMILES IDX 26 12 27 13 28 14 29 15 30 16 14 17 13 18 12 19 11 20 10 21
REMARK SMILES IDX 9 22 8 23 7 24 6 25 5 26 4 27 3 28 2 29 1 30
REMARK H PARENT
REMARK Flexibility Score: inf
ROOT
ATOM      1  C   UNL     1      -3.644   5.369 -17.909  1.00  0.00     0.000 C 
ENDROOT
BRANCH   1   2
ATOM      2  C   UNL     1      -4.615   6.158 -17.014  1.00  0.00     0.000 C 
BRANCH   2   3
ATOM      3  C   UNL     1      -5.010   5.396 -15.736  1.00  0.00     0.000 C 
BRANCH   3   4
ATOM      4  C   UNL     1      -4.952   6.217 -14.433  1.00  0.00     0.000 C 
BRANCH   4   5
ATOM      5  C   UNL     1      -3.766   7.196 -14.393  1.00  0.00     0.000 C 
BRANCH   5   6
ATOM      6  C   UNL     1      -3.117   7.298 -13.000  1.00  0.00     0.000 C 
BRANCH   6   7
ATOM      7  C   UNL     1      -3.784   6.457 -11.894  1.00  0.00     0.000 C 
BRANCH   7   8
ATOM      8  C   UNL     1      -3.502   6.994 -10.481  1.00  0.00     0.000 C 
BRANCH   8   9
ATOM      9  C   UNL     1      -4.756   7.019  -9.586  1.00  0.00     0.000 C 
BRANCH   9  10
ATOM     10  C   UNL     1      -5.569   8.326  -9.631  1.00  0.00     0.000 C 
BRANCH  10  11
ATOM     11  C   UNL     1      -6.410   8.469 -10.907  1.00  0.00     0.000 C 
BRANCH  11  12
ATOM     12  C   UNL     1      -7.806   7.861 -10.716  1.00  0.00     0.006 C 
BRANCH  12  13
ATOM     13  C   UNL     1      -7.941   6.490 -11.394  1.00  0.00     0.053 C 
BRANCH  13  14
ATOM     14  C   UNL     1      -8.332   5.421 -10.419  1.00  0.00     0.041 C 
ATOM     15  O   UNL     1      -7.464   4.896  -9.672  1.00  0.00    -0.550 OA
ATOM     16  O   UNL     1      -9.660   5.029 -10.311  1.00  0.00    -0.550 OA
ENDBRANCH  13  14
ENDBRANCH  12  13
ENDBRANCH  11  12
ENDBRANCH  10  11
ENDBRANCH   9  10
ENDBRANCH   8   9
ENDBRANCH   7   8
ENDBRANCH   6   7
ENDBRANCH   5   6
ENDBRANCH   4   5
ENDBRANCH   3   4
ENDBRANCH   2   3
ENDBRANCH   1   2
BRANCH   1  17
ATOM     17  C   UNL     1      -2.380   4.921 -17.155  1.00  0.00     0.000 C 
BRANCH  17  18
ATOM     18  C   UNL     1      -1.875   3.543 -17.618  1.00  0.00     0.000 C 
BRANCH  18  19
ATOM     19  C   UNL     1      -2.944   2.446 -17.483  1.00  0.00     0.000 C 
BRANCH  19  20
ATOM     20  C   UNL     1      -2.388   1.040 -17.751  1.00  0.00     0.000 C 
BRANCH  20  21
ATOM     21  C   UNL     1      -3.335   0.240 -18.658  1.00  0.00     0.000 C 
BRANCH  21  22
ATOM     22  C   UNL     1      -4.389  -0.561 -17.872  1.00  0.00    -0.000 C 
BRANCH  22  23
ATOM     23  C   UNL     1      -4.986  -1.768 -18.620  1.00  0.00    -0.000 C 
BRANCH  23  24
ATOM     24  C   UNL     1      -4.143  -2.199 -19.832  1.00  0.00    -0.000 C 
BRANCH  24  25
ATOM     25  C   UNL     1      -4.992  -2.487 -21.085  1.00  0.00    -0.000 C 
BRANCH  25  26
ATOM     26  C   UNL     1      -6.517  -2.444 -20.874  1.00  0.00    -0.000 C 
BRANCH  26  27
ATOM     27  C   UNL     1      -7.185  -3.821 -21.026  1.00  0.00    -0.000 C 
BRANCH  27  28
ATOM     28  C   UNL     1      -7.000  -4.704 -19.780  1.00  0.00    -0.000 C 
BRANCH  28  29
ATOM     29  C   UNL     1      -7.509  -6.137 -19.994  1.00  0.00    -0.003 C 
ATOM     30  C   UNL     1      -9.013  -6.225 -19.748  1.00  0.00     0.004 C 
ENDBRANCH  28  29
ENDBRANCH  27  28
ENDBRANCH  26  27
ENDBRANCH  25  26
ENDBRANCH  24  25
ENDBRANCH  23  24
ENDBRANCH  22  23
ENDBRANCH  21  22
ENDBRANCH  20  21
ENDBRANCH  19  20
ENDBRANCH  18  19
ENDBRANCH  17  18
ENDBRANCH   1  17
TORSDOF 26
ENDMDL
MODEL 6
REMARK VINA RESULT:    -7.120      2.199      3.559
REMARK INTER + INTRA:         -19.877
REMARK INTER:                 -17.461
REMARK INTRA:                  -2.416
REMARK UNBOUND:                -1.935
REMARK SMILES CCCCCCCCCCCCCCCCCCCCCCCCCCCC(=O)[O-]
REMARK SMILES IDX 15 1 16 2 17 3 18 4 19 5 20 6 21 7 22 8 23 9 24 10 25 11
REMARK SMILES IDX 26 12 27 13 28 14 29 15 30 16 14 17 13 18 12 19 11 20 10 21
REMARK SMILES IDX 9 22 8 23 7 24 6 25 5 26 4 27 3 28 2 29 1 30
REMARK H PARENT
REMARK Flexibility Score: inf
ROOT
ATOM      1  C   UNL     1      -3.359   4.624 -17.152  1.00  0.00     0.000 C 
ENDROOT
BRANCH   1   2
ATOM      2  C   UNL     1      -2.336   3.540 -17.535  1.00  0.00     0.000 C 
BRANCH   2   3
ATOM      3  C   UNL     1      -2.935   2.122 -17.537  1.00  0.00     0.000 C 
BRANCH   3   4
ATOM      4  C   UNL     1      -2.136   1.070 -18.331  1.00  0.00     0.000 C 
BRANCH   4   5
ATOM      5  C   UNL     1      -2.383  -0.367 -17.840  1.00  0.00     0.000 C 
BRANCH   5   6
ATOM      6  C   UNL     1      -3.372  -1.144 -18.727  1.00  0.00     0.000 C 
BRANCH   6   7
ATOM      7  C   UNL     1      -4.781  -0.530 -18.845  1.00  0.00     0.000 C 
BRANCH   7   8
ATOM      8  C   UNL     1      -5.899  -1.586 -18.821  1.00  0.00     0.000 C 
BRANCH   8   9
ATOM      9  C   UNL     1      -7.181  -1.120 -19.536  1.00  0.00     0.000 C 
BRANCH   9  10
ATOM     10  C   UNL     1      -7.450  -1.780 -20.901  1.00  0.00     0.000 C 
BRANCH  10  11
ATOM     11  C   UNL     1      -6.595  -3.032 -21.144  1.00  0.00     0.000 C 
BRANCH  11  12
ATOM     12  C   UNL     1      -7.445  -4.306 -21.045  1.00  0.00     0.006 C 
BRANCH  12  13
ATOM     13  C   UNL     1      -7.040  -5.185 -19.854  1.00  0.00     0.053 C 
BRANCH  13  14
ATOM     14  C   UNL     1      -8.027  -5.091 -18.730  1.00  0.00     0.041 C 
ATOM     15  O   UNL     1      -7.626  -5.042 -17.537  1.00  0.00    -0.550 OA
ATOM     16  O   UNL     1      -9.387  -5.023 -19.002  1.00  0.00    -0.550 OA
ENDBRANCH  13  14
ENDBRANCH  12  13
ENDBRANCH  11  12
ENDBRANCH  10  11
ENDBRANCH   9  10
ENDBRANCH   8   9
ENDBRANCH   7   8
ENDBRANCH   6   7
ENDBRANCH   5   6
ENDBRANCH   4   5
ENDBRANCH   3   4
ENDBRANCH   2   3
ENDBRANCH   1   2
BRANCH   1  17
ATOM     17  C   UNL     1      -3.241   5.881 -18.031  1.00  0.00     0.000 C 
BRANCH  17  18
ATOM     18  C   UNL     1      -2.939   7.148 -17.210  1.00  0.00     0.000 C 
BRANCH  18  19
ATOM     19  C   UNL     1      -2.285   6.831 -15.855  1.00  0.00     0.000 C 
BRANCH  19  20
ATOM     20  C   UNL     1      -2.558   7.911 -14.798  1.00  0.00     0.000 C 
BRANCH  20  21
ATOM     21  C   UNL     1      -4.061   8.014 -14.496  1.00  0.00     0.000 C 
BRANCH  21  22
ATOM     22  C   UNL     1      -4.673   6.683 -14.023  1.00  0.00    -0.000 C 
BRANCH  22  23
ATOM     23  C   UNL     1      -6.191   6.544 -14.246  1.00  0.00    -0.000 C 
BRANCH  23  24
ATOM     24  C   UNL     1      -6.936   6.035 -13.000  1.00  0.00    -0.000 C 
BRANCH  24  25
ATOM     25  C   UNL     1      -7.465   7.174 -12.108  1.00  0.00    -0.000 C 
BRANCH  25  26
ATOM     26  C   UNL     1      -7.066   7.089 -10.622  1.00  0.00    -0.000 C 
BRANCH  26  27
ATOM     27  C   UNL     1      -5.729   6.363 -10.399  1.00  0.00    -0.000 C 
BRANCH  27  28
ATOM     28  C   UNL     1      -4.682   7.256  -9.713  1.00  0.00    -0.000 C 
BRANCH  28  29
ATOM     29  C   UNL     1      -3.360   7.317 -10.493  1.00  0.00    -0.003 C 
ATOM     30  C   UNL     1      -2.995   5.948 -11.060  1.00  0.00     0.004 C 
ENDBRANCH  28  29
ENDBRANCH  27  28
ENDBRANCH  26  27
ENDBRANCH  25  26
ENDBRANCH  24  25
ENDBRANCH  23  24
ENDBRANCH  22  23
ENDBRANCH  21  22
ENDBRANCH  20  21
ENDBRANCH  19  20
ENDBRANCH  18  19
ENDBRANCH  17  18
ENDBRANCH   1  17
TORSDOF 26
ENDMDL
MODEL 7
REMARK VINA RESULT:    -6.985      5.449     12.846
REMARK INTER + INTRA:         -19.536
REMARK INTER:                 -17.486
REMARK INTRA:                  -2.050
REMARK UNBOUND:                -1.935
REMARK SMILES CCCCCCCCCCCCCCCCCCCCCCCCCCCC(=O)[O-]
REMARK SMILES IDX 15 1 16 2 17 3 18 4 19 5 20 6 21 7 22 8 23 9 24 10 25 11
REMARK SMILES IDX 26 12 27 13 28 14 29 15 30 16 14 17 13 18 12 19 11 20 10 21
REMARK SMILES IDX 9 22 8 23 7 24 6 25 5 26 4 27 3 28 2 29 1 30
REMARK H PARENT
REMARK Flexibility Score: inf
ROOT
ATOM      1  C   UNL     1      -1.914   3.058 -17.183  1.00  0.00     0.000 C 
ENDROOT
BRANCH   1   2
ATOM      2  C   UNL     1      -2.938   4.162 -17.499  1.00  0.00     0.000 C 
BRANCH   2   3
ATOM      3  C   UNL     1      -2.367   5.580 -17.321  1.00  0.00     0.000 C 
BRANCH   3   4
ATOM      4  C   UNL     1      -3.366   6.729 -17.561  1.00  0.00     0.000 C 
BRANCH   4   5
ATOM      5  C   UNL     1      -2.812   8.103 -17.149  1.00  0.00     0.000 C 
BRANCH   5   6
ATOM      6  C   UNL     1      -3.348   8.586 -15.789  1.00  0.00     0.000 C 
BRANCH   6   7
ATOM      7  C   UNL     1      -2.645   7.996 -14.551  1.00  0.00     0.000 C 
BRANCH   7   8
ATOM      8  C   UNL     1      -3.553   7.949 -13.311  1.00  0.00     0.000 C 
BRANCH   8   9
ATOM      9  C   UNL     1      -4.293   6.606 -13.157  1.00  0.00     0.000 C 
BRANCH   9  10
ATOM     10  C   UNL     1      -5.416   6.354 -14.179  1.00  0.00     0.000 C 
BRANCH  10  11
ATOM     11  C   UNL     1      -6.796   6.807 -13.683  1.00  0.00     0.000 C 
BRANCH  11  12
ATOM     12  C   UNL     1      -7.422   5.751 -12.759  1.00  0.00     0.006 C 
BRANCH  12  13
ATOM     13  C   UNL     1      -8.122   6.382 -11.547  1.00  0.00     0.053 C 
BRANCH  13  14
ATOM     14  C   UNL     1      -7.140   6.842 -10.513  1.00  0.00     0.041 C 
ATOM     15  O   UNL     1      -6.368   6.015  -9.959  1.00  0.00    -0.550 OA
ATOM     16  O   UNL     1      -7.055   8.189 -10.185  1.00  0.00    -0.550 OA
ENDBRANCH  13  14
ENDBRANCH  12  13
ENDBRANCH  11  12
ENDBRANCH  10  11
ENDBRANCH   9  10
ENDBRANCH   8   9
ENDBRANCH   7   8
ENDBRANCH   6   7
ENDBRANCH   5   6
ENDBRANCH   4   5
ENDBRANCH   3   4
ENDBRANCH   2   3
ENDBRANCH   1   2
BRANCH   1  17
ATOM     17  C   UNL     1      -2.493   1.646 -17.379  1.00  0.00     0.000 C 
BRANCH  17  18
ATOM     18  C   UNL     1      -1.896   0.929 -18.603  1.00  0.00     0.000 C 
BRANCH  18  19
ATOM     19  C   UNL     1      -2.514  -0.460 -18.833  1.00  0.00     0.000 C 
BRANCH  19  20
ATOM     20  C   UNL     1      -3.442  -0.893 -17.689  1.00  0.00     0.000 C 
BRANCH  20  21
ATOM     21  C   UNL     1      -4.514  -1.871 -18.195  1.00  0.00     0.000 C 
BRANCH  21  22
ATOM     22  C   UNL     1      -5.201  -1.397 -19.488  1.00  0.00    -0.000 C 
BRANCH  22  23
ATOM     23  C   UNL     1      -6.656  -0.921 -19.321  1.00  0.00    -0.000 C 
BRANCH  23  24
ATOM     24  C   UNL     1      -7.685  -1.975 -19.764  1.00  0.00    -0.000 C 
BRANCH  24  25
ATOM     25  C   UNL     1      -7.206  -2.821 -20.959  1.00  0.00    -0.000 C 
BRANCH  25  26
ATOM     26  C   UNL     1      -7.024  -4.323 -20.674  1.00  0.00    -0.000 C 
BRANCH  26  27
ATOM     27  C   UNL     1      -7.046  -4.658 -19.174  1.00  0.00    -0.000 C 
BRANCH  27  28
ATOM     28  C   UNL     1      -8.307  -5.438 -18.764  1.00  0.00    -0.000 C 
BRANCH  28  29
ATOM     29  C   UNL     1      -8.778  -6.410 -19.855  1.00  0.00    -0.003 C 
ATOM     30  C   UNL     1      -8.382  -7.845 -19.519  1.00  0.00     0.004 C 
ENDBRANCH  28  29
ENDBRANCH  27  28
ENDBRANCH  26  27
ENDBRANCH  25  26
ENDBRANCH  24  25
ENDBRANCH  23  24
ENDBRANCH  22  23
ENDBRANCH  21  22
ENDBRANCH  20  21
ENDBRANCH  19  20
ENDBRANCH  18  19
ENDBRANCH  17  18
ENDBRANCH   1  17
TORSDOF 26
ENDMDL
MODEL 8
REMARK VINA RESULT:    -6.980      1.457      2.610
REMARK INTER + INTRA:         -19.524
REMARK INTER:                 -17.670
REMARK INTRA:                  -1.853
REMARK UNBOUND:                -1.935
REMARK SMILES CCCCCCCCCCCCCCCCCCCCCCCCCCCC(=O)[O-]
REMARK SMILES IDX 15 1 16 2 17 3 18 4 19 5 20 6 21 7 22 8 23 9 24 10 25 11
REMARK SMILES IDX 26 12 27 13 28 14 29 15 30 16 14 17 13 18 12 19 11 20 10 21
REMARK SMILES IDX 9 22 8 23 7 24 6 25 5 26 4 27 3 28 2 29 1 30
REMARK H PARENT
REMARK Flexibility Score: inf
ROOT
ATOM      1  C   UNL     1      -3.296  -0.572 -18.951  1.00  0.00     0.000 C 
ENDROOT
BRANCH   1   2
ATOM      2  C   UNL     1      -4.694  -1.216 -18.936  1.00  0.00     0.000 C 
BRANCH   2   3
ATOM      3  C   UNL     1      -5.804  -0.234 -18.524  1.00  0.00     0.000 C 
BRANCH   3   4
ATOM      4  C   UNL     1      -7.050  -0.228 -19.431  1.00  0.00     0.000 C 
BRANCH   4   5
ATOM      5  C   UNL     1      -7.607  -1.637 -19.696  1.00  0.00     0.000 C 
BRANCH   5   6
ATOM      6  C   UNL     1      -7.364  -2.120 -21.138  1.00  0.00     0.000 C 
BRANCH   6   7
ATOM      7  C   UNL     1      -6.477  -3.371 -21.278  1.00  0.00     0.000 C 
BRANCH   7   8
ATOM      8  C   UNL     1      -6.457  -4.238 -20.007  1.00  0.00     0.000 C 
BRANCH   8   9
ATOM      9  C   UNL     1      -7.129  -5.611 -20.206  1.00  0.00     0.000 C 
BRANCH   9  10
ATOM     10  C   UNL     1      -8.656  -5.629 -20.010  1.00  0.00     0.000 C 
BRANCH  10  11
ATOM     11  C   UNL     1      -9.151  -6.865 -19.247  1.00  0.00     0.000 C 
BRANCH  11  12
ATOM     12  C   UNL     1      -8.092  -7.977 -19.254  1.00  0.00     0.006 C 
BRANCH  12  13
ATOM     13  C   UNL     1      -8.705  -9.363 -19.496  1.00  0.00     0.053 C 
BRANCH  13  14
ATOM     14  C   UNL     1      -8.033 -10.081 -20.627  1.00  0.00     0.041 C 
ATOM     15  O   UNL     1      -6.865  -9.761 -20.976  1.00  0.00    -0.550 OA
ATOM     16  O   UNL     1      -8.682 -11.125 -21.272  1.00  0.00    -0.550 OA
ENDBRANCH  13  14
ENDBRANCH  12  13
ENDBRANCH  11  12
ENDBRANCH  10  11
ENDBRANCH   9  10
ENDBRANCH   8   9
ENDBRANCH   7   8
ENDBRANCH   6   7
ENDBRANCH   5   6
ENDBRANCH   4   5
ENDBRANCH   3   4
ENDBRANCH   2   3
ENDBRANCH   1   2
BRANCH   1  17
ATOM     17  C   UNL     1      -2.698  -0.433 -17.541  1.00  0.00     0.000 C 
BRANCH  17  18
ATOM     18  C   UNL     1      -1.877   0.858 -17.374  1.00  0.00     0.000 C 
BRANCH  18  19
ATOM     19  C   UNL     1      -2.607   2.097 -17.917  1.00  0.00     0.000 C 
BRANCH  19  20
ATOM     20  C   UNL     1      -1.965   3.414 -17.456  1.00  0.00     0.000 C 
BRANCH  20  21
ATOM     21  C   UNL     1      -3.019   4.524 -17.336  1.00  0.00     0.000 C 
BRANCH  21  22
ATOM     22  C   UNL     1      -2.537   5.877 -17.890  1.00  0.00    -0.000 C 
BRANCH  22  23
ATOM     23  C   UNL     1      -3.332   7.104 -17.407  1.00  0.00    -0.000 C 
BRANCH  23  24
ATOM     24  C   UNL     1      -4.416   6.748 -16.376  1.00  0.00    -0.000 C 
BRANCH  24  25
ATOM     25  C   UNL     1      -4.212   7.450 -15.020  1.00  0.00    -0.000 C 
BRANCH  25  26
ATOM     26  C   UNL     1      -5.055   6.897 -13.856  1.00  0.00    -0.000 C 
BRANCH  26  27
ATOM     27  C   UNL     1      -5.996   5.758 -14.283  1.00  0.00    -0.000 C 
BRANCH  27  28
ATOM     28  C   UNL     1      -7.345   5.801 -13.545  1.00  0.00    -0.000 C 
BRANCH  28  29
ATOM     29  C   UNL     1      -7.262   6.562 -12.213  1.00  0.00    -0.003 C 
ATOM     30  C   UNL     1      -8.097   5.874 -11.137  1.00  0.00     0.004 C 
ENDBRANCH  28  29
ENDBRANCH  27  28
ENDBRANCH  26  27
ENDBRANCH  25  26
ENDBRANCH  24  25
ENDBRANCH  23  24
ENDBRANCH  22  23
ENDBRANCH  21  22
ENDBRANCH  20  21
ENDBRANCH  19  20
ENDBRANCH  18  19
ENDBRANCH  17  18
ENDBRANCH   1  17
TORSDOF 26
ENDMDL
MODEL 9
REMARK VINA RESULT:    -6.844      4.750     13.011
REMARK INTER + INTRA:         -19.183
REMARK INTER:                 -17.604
REMARK INTRA:                  -1.580
REMARK UNBOUND:                -1.935
REMARK SMILES CCCCCCCCCCCCCCCCCCCCCCCCCCCC(=O)[O-]
REMARK SMILES IDX 15 1 16 2 17 3 18 4 19 5 20 6 21 7 22 8 23 9 24 10 25 11
REMARK SMILES IDX 26 12 27 13 28 14 29 15 30 16 14 17 13 18 12 19 11 20 10 21
REMARK SMILES IDX 9 22 8 23 7 24 6 25 5 26 4 27 3 28 2 29 1 30
REMARK H PARENT
REMARK Flexibility Score: inf
ROOT
ATOM      1  C   UNL     1      -1.942   4.475 -17.748  1.00  0.00     0.000 C 
ENDROOT
BRANCH   1   2
ATOM      2  C   UNL     1      -3.269   5.190 -17.435  1.00  0.00     0.000 C 
BRANCH   2   3
ATOM      3  C   UNL     1      -3.108   6.712 -17.272  1.00  0.00     0.000 C 
BRANCH   3   4
ATOM      4  C   UNL     1      -3.763   7.314 -16.014  1.00  0.00     0.000 C 
BRANCH   4   5
ATOM      5  C   UNL     1      -2.789   7.437 -14.829  1.00  0.00     0.000 C 
BRANCH   5   6
ATOM      6  C   UNL     1      -3.502   7.502 -13.467  1.00  0.00     0.000 C 
BRANCH   6   7
ATOM      7  C   UNL     1      -2.802   6.757 -12.315  1.00  0.00     0.000 C 
BRANCH   7   8
ATOM      8  C   UNL     1      -3.774   6.313 -11.209  1.00  0.00     0.000 C 
BRANCH   8   9
ATOM      9  C   UNL     1      -4.194   7.466 -10.278  1.00  0.00     0.000 C 
BRANCH   9  10
ATOM     10  C   UNL     1      -5.673   7.460  -9.850  1.00  0.00     0.000 C 
BRANCH  10  11
ATOM     11  C   UNL     1      -6.415   6.181 -10.263  1.00  0.00     0.000 C 
BRANCH  11  12
ATOM     12  C   UNL     1      -7.745   6.517 -10.953  1.00  0.00     0.006 C 
BRANCH  12  13
ATOM     13  C   UNL     1      -7.940   5.727 -12.255  1.00  0.00     0.053 C 
BRANCH  13  14
ATOM     14  C   UNL     1      -6.941   6.120 -13.300  1.00  0.00     0.041 C 
ATOM     15  O   UNL     1      -6.197   5.250 -13.825  1.00  0.00    -0.550 OA
ATOM     16  O   UNL     1      -6.856   7.441 -13.720  1.00  0.00    -0.550 OA
ENDBRANCH  13  14
ENDBRANCH  12  13
ENDBRANCH  11  12
ENDBRANCH  10  11
ENDBRANCH   9  10
ENDBRANCH   8   9
ENDBRANCH   7   8
ENDBRANCH   6   7
ENDBRANCH   5   6
ENDBRANCH   4   5
ENDBRANCH   3   4
ENDBRANCH   2   3
ENDBRANCH   1   2
BRANCH   1  17
ATOM     17  C   UNL     1      -1.875   3.067 -17.133  1.00  0.00     0.000 C 
BRANCH  17  18
ATOM     18  C   UNL     1      -2.804   2.068 -17.846  1.00  0.00     0.000 C 
BRANCH  18  19
ATOM     19  C   UNL     1      -2.719   0.653 -17.250  1.00  0.00     0.000 C 
BRANCH  19  20
ATOM     20  C   UNL     1      -3.207  -0.430 -18.222  1.00  0.00     0.000 C 
BRANCH  20  21
ATOM     21  C   UNL     1      -4.740  -0.533 -18.203  1.00  0.00     0.000 C 
BRANCH  21  22
ATOM     22  C   UNL     1      -5.313  -1.231 -19.450  1.00  0.00    -0.000 C 
BRANCH  22  23
ATOM     23  C   UNL     1      -6.849  -1.343 -19.490  1.00  0.00    -0.000 C 
BRANCH  23  24
ATOM     24  C   UNL     1      -7.388  -1.684 -20.889  1.00  0.00    -0.000 C 
BRANCH  24  25
ATOM     25  C   UNL     1      -7.384  -3.196 -21.185  1.00  0.00    -0.000 C 
BRANCH  25  26
ATOM     26  C   UNL     1      -7.405  -4.112 -19.947  1.00  0.00    -0.000 C 
BRANCH  26  27
ATOM     27  C   UNL     1      -8.288  -5.357 -20.133  1.00  0.00    -0.000 C 
BRANCH  27  28
ATOM     28  C   UNL     1      -7.602  -6.643 -19.645  1.00  0.00    -0.000 C 
BRANCH  28  29
ATOM     29  C   UNL     1      -8.588  -7.809 -19.479  1.00  0.00    -0.003 C 
ATOM     30  C   UNL     1      -8.178  -9.000 -20.341  1.00  0.00     0.004 C 
ENDBRANCH  28  29
ENDBRANCH  27  28
ENDBRANCH  26  27
ENDBRANCH  25  26
ENDBRANCH  24  25
ENDBRANCH  23  24
ENDBRANCH  22  23
ENDBRANCH  21  22
ENDBRANCH  20  21
ENDBRANCH  19  20
ENDBRANCH  18  19
ENDBRANCH  17  18
ENDBRANCH   1  17
TORSDOF 26
ENDMDL
