MODEL 1
REMARK VINA RESULT:    -5.827      0.000      0.000
REMARK INTER + INTRA:          -7.084
REMARK INTER:                  -7.020
REMARK INTRA:                  -0.065
REMARK UNBOUND:                -0.065
REMARK SMILES O=c1c(O)c(-c2ccc(O)c(O)c2)oc2cc(O)cc(O)c12
REMARK SMILES IDX 5 1 3 2 2 3 1 4 22 5 20 6 19 7 17 8 16 9 15 10 14 11 6 12
REMARK SMILES IDX 7 13 8 14 9 15 13 16 11 17 10 18 12 20 4 22 21 24 18 26
REMARK H PARENT 10 19 12 21 4 23 21 25 18 27
REMARK Flexibility Score: inf
ROOT
ATOM      1  C   UNL     1      -2.518  67.846 165.469  1.00  0.00     0.180 A 
ATOM      2  C   UNL     1      -2.385  68.882 164.529  1.00  0.00     0.208 A 
ATOM      3  C   UNL     1      -1.238  69.691 164.565  1.00  0.00     0.238 A 
ATOM      4  O   UNL     1      -1.148  70.651 163.756  1.00  0.00    -0.285 OA
ATOM      5  C   UNL     1      -0.231  69.443 165.530  1.00  0.00     0.111 A 
ATOM      6  C   UNL     1       0.991  70.174 165.632  1.00  0.00     0.134 A 
ATOM      7  C   UNL     1       1.855  69.928 166.707  1.00  0.00     0.093 A 
ATOM      8  C   UNL     1       1.574  68.934 167.644  1.00  0.00     0.123 A 
ATOM      9  C   UNL     1       0.411  68.173 167.519  1.00  0.00     0.094 A 
ATOM     10  C   UNL     1      -0.488  68.420 166.479  1.00  0.00     0.146 A 
ATOM     11  O   UNL     1      -1.588  67.680 166.402  1.00  0.00    -0.452 OA
ENDROOT
BRANCH   1  12
ATOM     12  C   UNL     1      -3.687  66.936 165.479  1.00  0.00     0.025 A 
ATOM     13  C   UNL     1      -3.530  65.541 165.388  1.00  0.00     0.016 A 
ATOM     14  C   UNL     1      -4.645  64.700 165.424  1.00  0.00     0.051 A 
ATOM     15  C   UNL     1      -5.930  65.239 165.564  1.00  0.00     0.157 A 
ATOM     16  C   UNL     1      -4.976  67.468 165.641  1.00  0.00     0.062 A 
ATOM     17  C   UNL     1      -6.096  66.625 165.676  1.00  0.00     0.158 A 
BRANCH  15  18
ATOM     18  O   UNL     1      -7.046  64.404 165.598  1.00  0.00    -0.504 OA
ATOM     19  H   UNL     1      -7.042  63.497 165.149  1.00  0.00     0.293 HD
ENDBRANCH  15  18
BRANCH  17  20
ATOM     20  O   UNL     1      -7.376  67.158 165.824  1.00  0.00    -0.504 OA
ATOM     21  H   UNL     1      -7.738  67.425 166.733  1.00  0.00     0.293 HD
ENDBRANCH  17  20
ENDBRANCH   1  12
BRANCH   2  22
ATOM     22  O   UNL     1      -3.400  69.123 163.599  1.00  0.00    -0.502 OA
ATOM     23  H   UNL     1      -4.327  69.422 163.872  1.00  0.00     0.293 HD
ENDBRANCH   2  22
BRANCH   6  24
ATOM     24  O   UNL     1       1.413  71.125 164.699  1.00  0.00    -0.507 OA
ATOM     25  H   UNL     1       1.095  72.083 164.671  1.00  0.00     0.293 HD
ENDBRANCH   6  24
BRANCH   8  26
ATOM     26  O   UNL     1       2.464  68.706 168.691  1.00  0.00    -0.508 OA
ATOM     27  H   UNL     1       2.503  67.813 169.168  1.00  0.00     0.293 HD
ENDBRANCH   8  26
TORSDOF 6
ENDMDL
MODEL 2
REMARK VINA RESULT:    -5.533      0.963      1.602
REMARK INTER + INTRA:          -6.730
REMARK INTER:                  -6.599
REMARK INTRA:                  -0.131
REMARK UNBOUND:                -0.065
REMARK SMILES O=c1c(O)c(-c2ccc(O)c(O)c2)oc2cc(O)cc(O)c12
REMARK SMILES IDX 5 1 3 2 2 3 1 4 22 5 20 6 19 7 17 8 16 9 15 10 14 11 6 12
REMARK SMILES IDX 7 13 8 14 9 15 13 16 11 17 10 18 12 20 4 22 21 24 18 26
REMARK H PARENT 10 19 12 21 4 23 21 25 18 27
REMARK Flexibility Score: inf
ROOT
ATOM      1  C   UNL     1      -2.019  68.450 165.384  1.00  0.00     0.180 A 
ATOM      2  C   UNL     1      -1.697  69.342 164.347  1.00  0.00     0.208 A 
ATOM      3  C   UNL     1      -0.454  69.995 164.372  1.00  0.00     0.238 A 
ATOM      4  O   UNL     1      -0.193  70.833 163.470  1.00  0.00    -0.285 OA
ATOM      5  C   UNL     1       0.458  69.734 165.423  1.00  0.00     0.111 A 
ATOM      6  C   UNL     1       1.761  70.308 165.527  1.00  0.00     0.134 A 
ATOM      7  C   UNL     1       2.526  70.081 166.678  1.00  0.00     0.093 A 
ATOM      8  C   UNL     1       2.064  69.249 167.697  1.00  0.00     0.123 A 
ATOM      9  C   UNL     1       0.816  68.635 167.579  1.00  0.00     0.094 A 
ATOM     10  C   UNL     1       0.015  68.872 166.459  1.00  0.00     0.146 A 
ATOM     11  O   UNL     1      -1.170  68.276 166.390  1.00  0.00    -0.452 OA
ENDROOT
BRANCH   1  12
ATOM     12  C   UNL     1      -3.299  67.706 165.415  1.00  0.00     0.025 A 
ATOM     13  C   UNL     1      -4.533  68.377 165.490  1.00  0.00     0.016 A 
ATOM     14  C   UNL     1      -5.731  67.657 165.493  1.00  0.00     0.051 A 
ATOM     15  C   UNL     1      -5.713  66.259 165.407  1.00  0.00     0.157 A 
ATOM     16  C   UNL     1      -3.289  66.306 165.307  1.00  0.00     0.062 A 
ATOM     17  C   UNL     1      -4.491  65.582 165.311  1.00  0.00     0.158 A 
BRANCH  15  18
ATOM     18  O   UNL     1      -6.905  65.536 165.412  1.00  0.00    -0.504 OA
ATOM     19  H   UNL     1      -7.327  65.217 166.275  1.00  0.00     0.293 HD
ENDBRANCH  15  18
BRANCH  17  20
ATOM     20  O   UNL     1      -4.476  64.192 165.218  1.00  0.00    -0.504 OA
ATOM     21  H   UNL     1      -3.675  63.693 164.848  1.00  0.00     0.293 HD
ENDBRANCH  17  20
ENDBRANCH   1  12
BRANCH   2  22
ATOM     22  O   UNL     1      -2.620  69.601 163.330  1.00  0.00    -0.502 OA
ATOM     23  H   UNL     1      -2.598  70.450 162.779  1.00  0.00     0.293 HD
ENDBRANCH   2  22
BRANCH   6  24
ATOM     24  O   UNL     1       2.356  71.080 164.525  1.00  0.00    -0.507 OA
ATOM     25  H   UNL     1       2.623  70.734 163.615  1.00  0.00     0.293 HD
ENDBRANCH   6  24
BRANCH   8  26
ATOM     26  O   UNL     1       2.859  69.033 168.821  1.00  0.00    -0.508 OA
ATOM     27  H   UNL     1       2.587  68.376 169.543  1.00  0.00     0.293 HD
ENDBRANCH   8  26
TORSDOF 6
ENDMDL
MODEL 3
REMARK VINA RESULT:    -5.298      1.967      7.272
REMARK INTER + INTRA:          -6.446
REMARK INTER:                  -6.755
REMARK INTRA:                   0.308
REMARK UNBOUND:                -0.065
REMARK SMILES O=c1c(O)c(-c2ccc(O)c(O)c2)oc2cc(O)cc(O)c12
REMARK SMILES IDX 5 1 3 2 2 3 1 4 22 5 20 6 19 7 17 8 16 9 15 10 14 11 6 12
REMARK SMILES IDX 7 13 8 14 9 15 13 16 11 17 10 18 12 20 4 22 21 24 18 26
REMARK H PARENT 10 19 12 21 4 23 21 25 18 27
REMARK Flexibility Score: inf
ROOT
ATOM      1  C   UNL     1       0.771  69.662 166.118  1.00  0.00     0.180 A 
ATOM      2  C   UNL     1       0.591  70.341 164.900  1.00  0.00     0.208 A 
ATOM      3  C   UNL     1      -0.620  70.185 164.207  1.00  0.00     0.238 A 
ATOM      4  O   UNL     1      -0.756  70.751 163.092  1.00  0.00    -0.285 OA
ATOM      5  C   UNL     1      -1.642  69.369 164.750  1.00  0.00     0.111 A 
ATOM      6  C   UNL     1      -2.925  69.172 164.153  1.00  0.00     0.134 A 
ATOM      7  C   UNL     1      -3.808  68.239 164.709  1.00  0.00     0.093 A 
ATOM      8  C   UNL     1      -3.485  67.545 165.874  1.00  0.00     0.123 A 
ATOM      9  C   UNL     1      -2.257  67.774 166.499  1.00  0.00     0.094 A 
ATOM     10  C   UNL     1      -1.340  68.671 165.948  1.00  0.00     0.146 A 
ATOM     11  O   UNL     1      -0.180  68.852 166.567  1.00  0.00    -0.452 OA
ENDROOT
BRANCH   1  12
ATOM     12  C   UNL     1       2.011  69.795 166.918  1.00  0.00     0.025 A 
ATOM     13  C   UNL     1       1.995  69.671 168.319  1.00  0.00     0.016 A 
ATOM     14  C   UNL     1       3.180  69.775 169.051  1.00  0.00     0.051 A 
ATOM     15  C   UNL     1       4.399  69.991 168.395  1.00  0.00     0.157 A 
ATOM     16  C   UNL     1       3.239  69.990 166.264  1.00  0.00     0.062 A 
ATOM     17  C   UNL     1       4.429  70.095 166.999  1.00  0.00     0.158 A 
BRANCH  15  18
ATOM     18  O   UNL     1       5.583  70.097 169.122  1.00  0.00    -0.504 OA
ATOM     19  H   UNL     1       6.461  70.328 168.673  1.00  0.00     0.293 HD
ENDBRANCH  15  18
BRANCH  17  20
ATOM     20  O   UNL     1       5.643  70.302 166.347  1.00  0.00    -0.504 OA
ATOM     21  H   UNL     1       5.686  70.498 165.354  1.00  0.00     0.293 HD
ENDBRANCH  17  20
ENDBRANCH   1  12
BRANCH   2  22
ATOM     22  O   UNL     1       1.621  71.125 164.373  1.00  0.00    -0.502 OA
ATOM     23  H   UNL     1       1.981  70.991 163.437  1.00  0.00     0.293 HD
ENDBRANCH   2  22
BRANCH   6  24
ATOM     24  O   UNL     1      -3.385  69.881 163.040  1.00  0.00    -0.507 OA
ATOM     25  H   UNL     1      -2.940  69.880 162.134  1.00  0.00     0.293 HD
ENDBRANCH   6  24
BRANCH   8  26
ATOM     26  O   UNL     1      -4.396  66.636 166.408  1.00  0.00    -0.508 OA
ATOM     27  H   UNL     1      -4.108  65.712 166.708  1.00  0.00     0.293 HD
ENDBRANCH   8  26
TORSDOF 6
ENDMDL
MODEL 4
REMARK VINA RESULT:    -5.154      3.917      7.277
REMARK INTER + INTRA:          -6.274
REMARK INTER:                  -6.395
REMARK INTRA:                   0.121
REMARK UNBOUND:                -0.065
REMARK SMILES O=c1c(O)c(-c2ccc(O)c(O)c2)oc2cc(O)cc(O)c12
REMARK SMILES IDX 5 1 3 2 2 3 1 4 22 5 20 6 19 7 17 8 16 9 15 10 14 11 6 12
REMARK SMILES IDX 7 13 8 14 9 15 13 16 11 17 10 18 12 20 4 22 21 24 18 26
REMARK H PARENT 10 19 12 21 4 23 21 25 18 27
REMARK Flexibility Score: inf
ROOT
ATOM      1  C   UNL     1       0.400  70.228 165.306  1.00  0.00     0.180 A 
ATOM      2  C   UNL     1      -0.932  70.506 165.661  1.00  0.00     0.208 A 
ATOM      3  C   UNL     1      -1.878  70.710 164.644  1.00  0.00     0.238 A 
ATOM      4  O   UNL     1      -3.056  71.013 164.966  1.00  0.00    -0.285 OA
ATOM      5  C   UNL     1      -1.486  70.615 163.287  1.00  0.00     0.111 A 
ATOM      6  C   UNL     1      -2.370  70.763 162.175  1.00  0.00     0.134 A 
ATOM      7  C   UNL     1      -1.848  70.781 160.876  1.00  0.00     0.093 A 
ATOM      8  C   UNL     1      -0.486  70.590 160.643  1.00  0.00     0.123 A 
ATOM      9  C   UNL     1       0.378  70.385 161.720  1.00  0.00     0.094 A 
ATOM     10  C   UNL     1      -0.107  70.399 163.029  1.00  0.00     0.146 A 
ATOM     11  O   UNL     1       0.750  70.211 164.026  1.00  0.00    -0.452 OA
ENDROOT
BRANCH   1  12
ATOM     12  C   UNL     1       1.449  69.977 166.321  1.00  0.00     0.025 A 
ATOM     13  C   UNL     1       1.180  69.235 167.485  1.00  0.00     0.016 A 
ATOM     14  C   UNL     1       2.192  68.990 168.417  1.00  0.00     0.051 A 
ATOM     15  C   UNL     1       3.488  69.471 168.194  1.00  0.00     0.157 A 
ATOM     16  C   UNL     1       2.756  70.438 166.093  1.00  0.00     0.062 A 
ATOM     17  C   UNL     1       3.772  70.194 167.028  1.00  0.00     0.158 A 
BRANCH  15  18
ATOM     18  O   UNL     1       4.500  69.231 169.122  1.00  0.00    -0.504 OA
ATOM     19  H   UNL     1       4.294  68.899 170.056  1.00  0.00     0.293 HD
ENDBRANCH  15  18
BRANCH  17  20
ATOM     20  O   UNL     1       5.065  70.664 166.805  1.00  0.00    -0.504 OA
ATOM     21  H   UNL     1       5.873  70.212 167.217  1.00  0.00     0.293 HD
ENDBRANCH  17  20
ENDBRANCH   1  12
BRANCH   2  22
ATOM     22  O   UNL     1      -1.293  70.616 167.006  1.00  0.00    -0.502 OA
ATOM     23  H   UNL     1      -0.714  71.090 167.688  1.00  0.00     0.293 HD
ENDBRANCH   2  22
BRANCH   6  24
ATOM     24  O   UNL     1      -3.759  70.869 162.291  1.00  0.00    -0.507 OA
ATOM     25  H   UNL     1      -4.391  71.010 161.517  1.00  0.00     0.293 HD
ENDBRANCH   6  24
BRANCH   8  26
ATOM     26  O   UNL     1      -0.005  70.598 159.336  1.00  0.00    -0.508 OA
ATOM     27  H   UNL     1       0.968  70.793 159.131  1.00  0.00     0.293 HD
ENDBRANCH   8  26
TORSDOF 6
ENDMDL
MODEL 5
REMARK VINA RESULT:    -5.111      3.417      5.358
REMARK INTER + INTRA:          -6.222
REMARK INTER:                  -6.519
REMARK INTRA:                   0.298
REMARK UNBOUND:                -0.065
REMARK SMILES O=c1c(O)c(-c2ccc(O)c(O)c2)oc2cc(O)cc(O)c12
REMARK SMILES IDX 5 1 3 2 2 3 1 4 22 5 20 6 19 7 17 8 16 9 15 10 14 11 6 12
REMARK SMILES IDX 7 13 8 14 9 15 13 16 11 17 10 18 12 20 4 22 21 24 18 26
REMARK H PARENT 10 19 12 21 4 23 21 25 18 27
REMARK Flexibility Score: inf
ROOT
ATOM      1  C   UNL     1      -0.906  70.246 163.089  1.00  0.00     0.180 A 
ATOM      2  C   UNL     1      -1.629  69.609 164.113  1.00  0.00     0.208 A 
ATOM      3  C   UNL     1      -1.022  69.432 165.366  1.00  0.00     0.238 A 
ATOM      4  O   UNL     1      -1.654  68.814 166.262  1.00  0.00    -0.285 OA
ATOM      5  C   UNL     1       0.293  69.909 165.586  1.00  0.00     0.111 A 
ATOM      6  C   UNL     1       0.991  69.819 166.829  1.00  0.00     0.134 A 
ATOM      7  C   UNL     1       2.336  70.205 166.894  1.00  0.00     0.093 A 
ATOM      8  C   UNL     1       2.988  70.737 165.783  1.00  0.00     0.123 A 
ATOM      9  C   UNL     1       2.298  70.884 164.579  1.00  0.00     0.094 A 
ATOM     10  C   UNL     1       0.967  70.475 164.473  1.00  0.00     0.146 A 
ATOM     11  O   UNL     1       0.349  70.622 163.306  1.00  0.00    -0.452 OA
ENDROOT
BRANCH   1  12
ATOM     12  C   UNL     1      -1.486  70.491 161.749  1.00  0.00     0.025 A 
ATOM     13  C   UNL     1      -0.690  70.462 160.590  1.00  0.00     0.016 A 
ATOM     14  C   UNL     1      -1.263  70.672 159.333  1.00  0.00     0.051 A 
ATOM     15  C   UNL     1      -2.640  70.898 159.214  1.00  0.00     0.157 A 
ATOM     16  C   UNL     1      -2.870  70.697 161.621  1.00  0.00     0.062 A 
ATOM     17  C   UNL     1      -3.445  70.908 160.360  1.00  0.00     0.158 A 
BRANCH  15  18
ATOM     18  O   UNL     1      -3.215  71.109 157.963  1.00  0.00    -0.504 OA
ATOM     19  H   UNL     1      -4.219  71.179 157.846  1.00  0.00     0.293 HD
ENDBRANCH  15  18
BRANCH  17  20
ATOM     20  O   UNL     1      -4.817  71.125 160.238  1.00  0.00    -0.504 OA
ATOM     21  H   UNL     1      -5.227  72.035 160.414  1.00  0.00     0.293 HD
ENDBRANCH  17  20
ENDBRANCH   1  12
BRANCH   2  22
ATOM     22  O   UNL     1      -2.918  69.128 163.868  1.00  0.00    -0.502 OA
ATOM     23  H   UNL     1      -3.628  69.684 163.409  1.00  0.00     0.293 HD
ENDBRANCH   2  22
BRANCH   6  24
ATOM     24  O   UNL     1       0.406  69.387 168.022  1.00  0.00    -0.507 OA
ATOM     25  H   UNL     1      -0.223  68.602 168.103  1.00  0.00     0.293 HD
ENDBRANCH   6  24
BRANCH   8  26
ATOM     26  O   UNL     1       4.322  71.125 165.890  1.00  0.00    -0.508 OA
ATOM     27  H   UNL     1       5.069  70.443 165.950  1.00  0.00     0.293 HD
ENDBRANCH   8  26
TORSDOF 6
ENDMDL
MODEL 6
REMARK VINA RESULT:    -4.560      3.574      7.233
REMARK INTER + INTRA:          -5.558
REMARK INTER:                  -5.532
REMARK INTRA:                  -0.026
REMARK UNBOUND:                -0.065
REMARK SMILES O=c1c(O)c(-c2ccc(O)c(O)c2)oc2cc(O)cc(O)c12
REMARK SMILES IDX 5 1 3 2 2 3 1 4 22 5 20 6 19 7 17 8 16 9 15 10 14 11 6 12
REMARK SMILES IDX 7 13 8 14 9 15 13 16 11 17 10 18 12 20 4 22 21 24 18 26
REMARK H PARENT 10 19 12 21 4 23 21 25 18 27
REMARK Flexibility Score: inf
ROOT
ATOM      1  C   UNL     1       0.459  70.450 164.777  1.00  0.00     0.180 A 
ATOM      2  C   UNL     1       0.439  70.334 163.376  1.00  0.00     0.208 A 
ATOM      3  C   UNL     1      -0.787  70.453 162.701  1.00  0.00     0.238 A 
ATOM      4  O   UNL     1      -0.807  70.295 161.453  1.00  0.00    -0.285 OA
ATOM      5  C   UNL     1      -1.972  70.703 163.433  1.00  0.00     0.111 A 
ATOM      6  C   UNL     1      -3.263  70.881 162.849  1.00  0.00     0.134 A 
ATOM      7  C   UNL     1      -4.387  70.991 163.677  1.00  0.00     0.093 A 
ATOM      8  C   UNL     1      -4.261  70.996 165.066  1.00  0.00     0.123 A 
ATOM      9  C   UNL     1      -2.997  70.882 165.647  1.00  0.00     0.094 A 
ATOM     10  C   UNL     1      -1.861  70.734 164.847  1.00  0.00     0.146 A 
ATOM     11  O   UNL     1      -0.679  70.618 165.440  1.00  0.00    -0.452 OA
ENDROOT
BRANCH   1  12
ATOM     12  C   UNL     1       1.715  70.360 165.557  1.00  0.00     0.025 A 
ATOM     13  C   UNL     1       2.846  71.124 165.214  1.00  0.00     0.016 A 
ATOM     14  C   UNL     1       4.013  71.042 165.979  1.00  0.00     0.051 A 
ATOM     15  C   UNL     1       4.062  70.208 167.103  1.00  0.00     0.157 A 
ATOM     16  C   UNL     1       1.765  69.542 166.698  1.00  0.00     0.062 A 
ATOM     17  C   UNL     1       2.936  69.459 167.465  1.00  0.00     0.158 A 
BRANCH  15  18
ATOM     18  O   UNL     1       5.225  70.122 167.867  1.00  0.00    -0.504 OA
ATOM     19  H   UNL     1       5.620  69.228 168.131  1.00  0.00     0.293 HD
ENDBRANCH  15  18
BRANCH  17  20
ATOM     20  O   UNL     1       2.985  68.636 168.589  1.00  0.00    -0.504 OA
ATOM     21  H   UNL     1       2.952  67.626 168.509  1.00  0.00     0.293 HD
ENDBRANCH  17  20
ENDBRANCH   1  12
BRANCH   2  22
ATOM     22  O   UNL     1       1.618  70.067 162.676  1.00  0.00    -0.502 OA
ATOM     23  H   UNL     1       2.062  69.158 162.686  1.00  0.00     0.293 HD
ENDBRANCH   2  22
BRANCH   6  24
ATOM     24  O   UNL     1      -3.490  70.982 161.473  1.00  0.00    -0.507 OA
ATOM     25  H   UNL     1      -4.343  70.705 161.010  1.00  0.00     0.293 HD
ENDBRANCH   6  24
BRANCH   8  26
ATOM     26  O   UNL     1      -5.399  71.124 165.859  1.00  0.00    -0.508 OA
ATOM     27  H   UNL     1      -5.597  70.473 166.609  1.00  0.00     0.293 HD
ENDBRANCH   8  26
TORSDOF 6
ENDMDL
MODEL 7
REMARK VINA RESULT:    -4.461      1.804      3.367
REMARK INTER + INTRA:          -5.438
REMARK INTER:                  -5.367
REMARK INTRA:                  -0.071
REMARK UNBOUND:                -0.065
REMARK SMILES O=c1c(O)c(-c2ccc(O)c(O)c2)oc2cc(O)cc(O)c12
REMARK SMILES IDX 5 1 3 2 2 3 1 4 22 5 20 6 19 7 17 8 16 9 15 10 14 11 6 12
REMARK SMILES IDX 7 13 8 14 9 15 13 16 11 17 10 18 12 20 4 22 21 24 18 26
REMARK H PARENT 10 19 12 21 4 23 21 25 18 27
REMARK Flexibility Score: inf
ROOT
ATOM      1  C   UNL     1      -1.876  67.992 165.160  1.00  0.00     0.180 A 
ATOM      2  C   UNL     1      -0.882  68.372 166.079  1.00  0.00     0.208 A 
ATOM      3  C   UNL     1       0.174  69.186 165.641  1.00  0.00     0.238 A 
ATOM      4  O   UNL     1       1.089  69.479 166.453  1.00  0.00    -0.285 OA
ATOM      5  C   UNL     1       0.214  69.625 164.295  1.00  0.00     0.111 A 
ATOM      6  C   UNL     1       1.215  70.487 163.753  1.00  0.00     0.134 A 
ATOM      7  C   UNL     1       1.229  70.749 162.377  1.00  0.00     0.093 A 
ATOM      8  C   UNL     1       0.242  70.237 161.536  1.00  0.00     0.123 A 
ATOM      9  C   UNL     1      -0.777  69.442 162.066  1.00  0.00     0.094 A 
ATOM     10  C   UNL     1      -0.796  69.133 163.428  1.00  0.00     0.146 A 
ATOM     11  O   UNL     1      -1.776  68.365 163.890  1.00  0.00    -0.452 OA
ENDROOT
BRANCH   1  12
ATOM     12  C   UNL     1      -3.034  67.155 165.553  1.00  0.00     0.025 A 
ATOM     13  C   UNL     1      -2.855  65.888 166.137  1.00  0.00     0.016 A 
ATOM     14  C   UNL     1      -3.961  65.125 166.521  1.00  0.00     0.051 A 
ATOM     15  C   UNL     1      -5.258  65.622 166.342  1.00  0.00     0.157 A 
ATOM     16  C   UNL     1      -4.336  67.657 165.395  1.00  0.00     0.062 A 
ATOM     17  C   UNL     1      -5.446  66.891 165.781  1.00  0.00     0.158 A 
BRANCH  15  18
ATOM     18  O   UNL     1      -6.364  64.864 166.723  1.00  0.00    -0.504 OA
ATOM     19  H   UNL     1      -6.472  64.524 167.670  1.00  0.00     0.293 HD
ENDBRANCH  15  18
BRANCH  17  20
ATOM     20  O   UNL     1      -6.737  67.387 165.611  1.00  0.00    -0.504 OA
ATOM     21  H   UNL     1      -6.985  67.959 164.811  1.00  0.00     0.293 HD
ENDBRANCH  17  20
ENDBRANCH   1  12
BRANCH   2  22
ATOM     22  O   UNL     1      -0.930  67.910 167.397  1.00  0.00    -0.502 OA
ATOM     23  H   UNL     1      -1.509  67.130 167.679  1.00  0.00     0.293 HD
ENDBRANCH   2  22
BRANCH   6  24
ATOM     24  O   UNL     1       2.195  71.125 164.519  1.00  0.00    -0.507 OA
ATOM     25  H   UNL     1       2.025  71.914 165.126  1.00  0.00     0.293 HD
ENDBRANCH   6  24
BRANCH   8  26
ATOM     26  O   UNL     1       0.277  70.532 160.175  1.00  0.00    -0.508 OA
ATOM     27  H   UNL     1      -0.510  70.965 159.706  1.00  0.00     0.293 HD
ENDBRANCH   8  26
TORSDOF 6
ENDMDL
MODEL 8
REMARK VINA RESULT:    -4.211      3.371      6.578
REMARK INTER + INTRA:          -5.137
REMARK INTER:                  -4.828
REMARK INTRA:                  -0.308
REMARK UNBOUND:                -0.065
REMARK SMILES O=c1c(O)c(-c2ccc(O)c(O)c2)oc2cc(O)cc(O)c12
REMARK SMILES IDX 5 1 3 2 2 3 1 4 22 5 20 6 19 7 17 8 16 9 15 10 14 11 6 12
REMARK SMILES IDX 7 13 8 14 9 15 13 16 11 17 10 18 12 20 4 22 21 24 18 26
REMARK H PARENT 10 19 12 21 4 23 21 25 18 27
REMARK Flexibility Score: inf
ROOT
ATOM      1  C   UNL     1      -1.150  69.987 164.297  1.00  0.00     0.180 A 
ATOM      2  C   UNL     1      -2.526  70.272 164.317  1.00  0.00     0.208 A 
ATOM      3  C   UNL     1      -3.166  70.625 163.118  1.00  0.00     0.238 A 
ATOM      4  O   UNL     1      -4.386  70.931 163.151  1.00  0.00    -0.285 OA
ATOM      5  C   UNL     1      -2.426  70.672 161.912  1.00  0.00     0.111 A 
ATOM      6  C   UNL     1      -2.980  70.978 160.632  1.00  0.00     0.134 A 
ATOM      7  C   UNL     1      -2.130  71.125 159.529  1.00  0.00     0.093 A 
ATOM      8  C   UNL     1      -0.757  70.913 159.644  1.00  0.00     0.123 A 
ATOM      9  C   UNL     1      -0.212  70.555 160.878  1.00  0.00     0.094 A 
ATOM     10  C   UNL     1      -1.030  70.436 162.004  1.00  0.00     0.146 A 
ATOM     11  O   UNL     1      -0.470  70.104 163.162  1.00  0.00    -0.452 OA
ENDROOT
BRANCH   1  12
ATOM     12  C   UNL     1      -0.410  69.585 165.515  1.00  0.00     0.025 A 
ATOM     13  C   UNL     1      -0.463  68.266 166.001  1.00  0.00     0.016 A 
ATOM     14  C   UNL     1       0.262  67.902 167.139  1.00  0.00     0.051 A 
ATOM     15  C   UNL     1       1.060  68.846 167.799  1.00  0.00     0.157 A 
ATOM     16  C   UNL     1       0.409  70.521 166.168  1.00  0.00     0.062 A 
ATOM     17  C   UNL     1       1.137  70.156 167.311  1.00  0.00     0.158 A 
BRANCH  15  18
ATOM     18  O   UNL     1       1.784  68.488 168.935  1.00  0.00    -0.504 OA
ATOM     19  H   UNL     1       2.396  67.682 168.940  1.00  0.00     0.293 HD
ENDBRANCH  15  18
BRANCH  17  20
ATOM     20  O   UNL     1       1.938  71.091 167.964  1.00  0.00    -0.504 OA
ATOM     21  H   UNL     1       2.853  70.846 168.325  1.00  0.00     0.293 HD
ENDBRANCH  17  20
ENDBRANCH   1  12
BRANCH   2  22
ATOM     22  O   UNL     1      -3.233  70.240 165.522  1.00  0.00    -0.502 OA
ATOM     23  H   UNL     1      -4.208  70.503 165.587  1.00  0.00     0.293 HD
ENDBRANCH   2  22
BRANCH   6  24
ATOM     24  O   UNL     1      -4.349  71.119 160.388  1.00  0.00    -0.507 OA
ATOM     25  H   UNL     1      -4.994  71.605 160.995  1.00  0.00     0.293 HD
ENDBRANCH   6  24
BRANCH   8  26
ATOM     26  O   UNL     1       0.056  71.052 158.521  1.00  0.00    -0.508 OA
ATOM     27  H   UNL     1       0.976  70.628 158.477  1.00  0.00     0.293 HD
ENDBRANCH   8  26
TORSDOF 6
ENDMDL
