MODEL 1
REMARK VINA RESULT:    -0.338      0.000      0.000
REMARK INTER + INTRA:          -0.043
REMARK INTER:                  -0.852
REMARK INTRA:                   0.809
REMARK UNBOUND:                 0.809
REMARK SMILES CCCCCCCCCCCCCCCCCCCCCCCCCCCC(=O)[O-]
REMARK SMILES IDX 15 1 16 2 17 3 18 4 19 5 20 6 21 7 22 8 23 9 24 10 25 11
REMARK SMILES IDX 26 12 27 13 28 14 29 15 30 16 14 17 13 18 12 19 11 20 10 21
REMARK SMILES IDX 9 22 8 23 7 24 6 25 5 26 4 27 3 28 2 29 1 30
REMARK H PARENT
REMARK Flexibility Score: inf
ROOT
ATOM      1  C   UNL     1    -117.205 -99.190  36.543  1.00  0.00     0.000 C 
ENDROOT
BRANCH   1   2
ATOM      2  C   UNL     1    -115.741 -99.661  36.636  1.00  0.00     0.000 C 
BRANCH   2   3
ATOM      3  C   UNL     1    -114.808 -98.993  35.601  1.00  0.00     0.000 C 
BRANCH   3   4
ATOM      4  C   UNL     1    -115.580 -98.488  34.371  1.00  0.00     0.000 C 
BRANCH   4   5
ATOM      5  C   UNL     1    -115.455 -96.965  34.227  1.00  0.00     0.000 C 
BRANCH   5   6
ATOM      6  C   UNL     1    -116.773 -96.311  33.770  1.00  0.00     0.000 C 
BRANCH   6   7
ATOM      7  C   UNL     1    -117.665 -97.229  32.914  1.00  0.00     0.000 C 
BRANCH   7   8
ATOM      8  C   UNL     1    -118.990 -97.614  33.609  1.00  0.00     0.000 C 
BRANCH   8   9
ATOM      9  C   UNL     1    -118.932 -99.019  34.237  1.00  0.00     0.000 C 
BRANCH   9  10
ATOM     10  C   UNL     1    -118.868-100.125  33.171  1.00  0.00     0.000 C 
BRANCH  10  11
ATOM     11  C   UNL     1    -117.744 -99.883  32.147  1.00  0.00     0.000 C 
BRANCH  11  12
ATOM     12  C   UNL     1    -118.208-100.050  30.689  1.00  0.00     0.006 C 
BRANCH  12  13
ATOM     13  C   UNL     1    -119.124 -98.924  30.181  1.00  0.00     0.053 C 
BRANCH  13  14
ATOM     14  C   UNL     1    -118.415 -97.608  30.098  1.00  0.00     0.041 C 
ATOM     15  O   UNL     1    -117.181 -97.533  30.339  1.00  0.00    -0.550 OA
ATOM     16  O   UNL     1    -119.122 -96.457  29.773  1.00  0.00    -0.550 OA
ENDBRANCH  13  14
ENDBRANCH  12  13
ENDBRANCH  11  12
ENDBRANCH  10  11
ENDBRANCH   9  10
ENDBRANCH   8   9
ENDBRANCH   7   8
ENDBRANCH   6   7
ENDBRANCH   5   6
ENDBRANCH   4   5
ENDBRANCH   3   4
ENDBRANCH   2   3
ENDBRANCH   1   2
BRANCH   1  17
ATOM     17  C   UNL     1    -118.091 -99.602  37.733  1.00  0.00     0.000 C 
BRANCH  17  18
ATOM     18  C   UNL     1    -117.678 -98.982  39.078  1.00  0.00     0.000 C 
BRANCH  18  19
ATOM     19  C   UNL     1    -116.800 -99.919  39.920  1.00  0.00     0.000 C 
BRANCH  19  20
ATOM     20  C   UNL     1    -117.391-100.113  41.322  1.00  0.00     0.000 C 
BRANCH  20  21
ATOM     21  C   UNL     1    -117.447 -98.785  42.090  1.00  0.00     0.000 C 
BRANCH  21  22
ATOM     22  C   UNL     1    -118.855 -98.474  42.624  1.00  0.00    -0.000 C 
BRANCH  22  23
ATOM     23  C   UNL     1    -118.898 -98.378  44.159  1.00  0.00    -0.000 C 
BRANCH  23  24
ATOM     24  C   UNL     1    -118.067 -99.474  44.849  1.00  0.00    -0.000 C 
BRANCH  24  25
ATOM     25  C   UNL     1    -117.518 -99.093  46.236  1.00  0.00    -0.000 C 
BRANCH  25  26
ATOM     26  C   UNL     1    -118.107 -99.954  47.369  1.00  0.00    -0.000 C 
BRANCH  26  27
ATOM     27  C   UNL     1    -118.339 -99.154  48.662  1.00  0.00    -0.000 C 
BRANCH  27  28
ATOM     28  C   UNL     1    -118.917 -97.755  48.390  1.00  0.00    -0.000 C 
BRANCH  28  29
ATOM     29  C   UNL     1    -117.948 -96.632  48.793  1.00  0.00    -0.003 C 
ATOM     30  C   UNL     1    -118.505 -95.237  48.508  1.00  0.00     0.004 C 
ENDBRANCH  28  29
ENDBRANCH  27  28
ENDBRANCH  26  27
ENDBRANCH  25  26
ENDBRANCH  24  25
ENDBRANCH  23  24
ENDBRANCH  22  23
ENDBRANCH  21  22
ENDBRANCH  20  21
ENDBRANCH  19  20
ENDBRANCH  18  19
ENDBRANCH  17  18
ENDBRANCH   1  17
TORSDOF 26
ENDMDL
MODEL 2
REMARK VINA RESULT:     0.563      3.765      5.649
REMARK INTER + INTRA:           2.228
REMARK INTER:                   4.233
REMARK INTRA:                  -2.005
REMARK UNBOUND:                 0.809
REMARK SMILES CCCCCCCCCCCCCCCCCCCCCCCCCCCC(=O)[O-]
REMARK SMILES IDX 15 1 16 2 17 3 18 4 19 5 20 6 21 7 22 8 23 9 24 10 25 11
REMARK SMILES IDX 26 12 27 13 28 14 29 15 30 16 14 17 13 18 12 19 11 20 10 21
REMARK SMILES IDX 9 22 8 23 7 24 6 25 5 26 4 27 3 28 2 29 1 30
REMARK H PARENT
REMARK Flexibility Score: inf
ROOT
ATOM      1  C   UNL     1    -116.577 -99.195  37.548  1.00  0.00     0.000 C 
ENDROOT
BRANCH   1   2
ATOM      2  C   UNL     1    -116.160 -99.456  36.088  1.00  0.00     0.000 C 
BRANCH   2   3
ATOM      3  C   UNL     1    -117.343 -99.441  35.094  1.00  0.00     0.000 C 
BRANCH   3   4
ATOM      4  C   UNL     1    -116.892 -99.743  33.656  1.00  0.00     0.000 C 
BRANCH   4   5
ATOM      5  C   UNL     1    -116.092 -98.572  33.069  1.00  0.00     0.000 C 
BRANCH   5   6
ATOM      6  C   UNL     1    -116.719 -97.208  33.408  1.00  0.00     0.000 C 
BRANCH   6   7
ATOM      7  C   UNL     1    -115.771 -96.249  34.153  1.00  0.00     0.000 C 
BRANCH   7   8
ATOM      8  C   UNL     1    -114.410 -96.888  34.505  1.00  0.00     0.000 C 
BRANCH   8   9
ATOM      9  C   UNL     1    -113.797 -96.288  35.784  1.00  0.00     0.000 C 
BRANCH   9  10
ATOM     10  C   UNL     1    -112.413 -95.670  35.527  1.00  0.00     0.000 C 
BRANCH  10  11
ATOM     11  C   UNL     1    -111.508 -95.730  36.770  1.00  0.00     0.000 C 
BRANCH  11  12
ATOM     12  C   UNL     1    -110.357 -96.742  36.632  1.00  0.00     0.006 C 
BRANCH  12  13
ATOM     13  C   UNL     1    -110.146 -97.638  37.865  1.00  0.00     0.053 C 
BRANCH  13  14
ATOM     14  C   UNL     1    -108.947 -98.524  37.726  1.00  0.00     0.041 C 
ATOM     15  O   UNL     1    -109.047 -99.647  37.165  1.00  0.00    -0.550 OA
ATOM     16  O   UNL     1    -107.720 -98.117  38.235  1.00  0.00    -0.550 OA
ENDBRANCH  13  14
ENDBRANCH  12  13
ENDBRANCH  11  12
ENDBRANCH  10  11
ENDBRANCH   9  10
ENDBRANCH   8   9
ENDBRANCH   7   8
ENDBRANCH   6   7
ENDBRANCH   5   6
ENDBRANCH   4   5
ENDBRANCH   3   4
ENDBRANCH   2   3
ENDBRANCH   1   2
BRANCH   1  17
ATOM     17  C   UNL     1    -117.727-100.083  38.058  1.00  0.00     0.000 C 
BRANCH  17  18
ATOM     18  C   UNL     1    -118.014 -99.950  39.562  1.00  0.00     0.000 C 
BRANCH  18  19
ATOM     19  C   UNL     1    -116.739 -99.752  40.395  1.00  0.00     0.000 C 
BRANCH  19  20
ATOM     20  C   UNL     1    -116.887 -98.558  41.348  1.00  0.00     0.000 C 
BRANCH  20  21
ATOM     21  C   UNL     1    -118.343 -98.081  41.419  1.00  0.00     0.000 C 
BRANCH  21  22
ATOM     22  C   UNL     1    -119.063 -98.575  42.684  1.00  0.00    -0.000 C 
BRANCH  22  23
ATOM     23  C   UNL     1    -118.296 -98.235  43.973  1.00  0.00    -0.000 C 
BRANCH  23  24
ATOM     24  C   UNL     1    -118.100 -99.456  44.890  1.00  0.00    -0.000 C 
BRANCH  24  25
ATOM     25  C   UNL     1    -118.842 -99.380  46.237  1.00  0.00    -0.000 C 
BRANCH  25  26
ATOM     26  C   UNL     1    -117.908 -99.563  47.446  1.00  0.00    -0.000 C 
BRANCH  26  27
ATOM     27  C   UNL     1    -118.361 -98.756  48.674  1.00  0.00    -0.000 C 
BRANCH  27  28
ATOM     28  C   UNL     1    -119.120 -97.476  48.287  1.00  0.00    -0.000 C 
BRANCH  28  29
ATOM     29  C   UNL     1    -118.333 -96.201  48.628  1.00  0.00    -0.003 C 
ATOM     30  C   UNL     1    -118.203 -95.248  47.439  1.00  0.00     0.004 C 
ENDBRANCH  28  29
ENDBRANCH  27  28
ENDBRANCH  26  27
ENDBRANCH  25  26
ENDBRANCH  24  25
ENDBRANCH  23  24
ENDBRANCH  22  23
ENDBRANCH  21  22
ENDBRANCH  20  21
ENDBRANCH  19  20
ENDBRANCH  18  19
ENDBRANCH  17  18
ENDBRANCH   1  17
TORSDOF 26
ENDMDL
MODEL 3
REMARK VINA RESULT:     1.092      2.846      4.363
REMARK INTER + INTRA:           3.561
REMARK INTER:                   3.080
REMARK INTRA:                   0.481
REMARK UNBOUND:                 0.809
REMARK SMILES CCCCCCCCCCCCCCCCCCCCCCCCCCCC(=O)[O-]
REMARK SMILES IDX 15 1 16 2 17 3 18 4 19 5 20 6 21 7 22 8 23 9 24 10 25 11
REMARK SMILES IDX 26 12 27 13 28 14 29 15 30 16 14 17 13 18 12 19 11 20 10 21
REMARK SMILES IDX 9 22 8 23 7 24 6 25 5 26 4 27 3 28 2 29 1 30
REMARK H PARENT
REMARK Flexibility Score: inf
ROOT
ATOM      1  C   UNL     1    -116.860 -99.473  37.463  1.00  0.00     0.000 C 
ENDROOT
BRANCH   1   2
ATOM      2  C   UNL     1    -117.105 -99.904  36.004  1.00  0.00     0.000 C 
BRANCH   2   3
ATOM      3  C   UNL     1    -118.313 -99.202  35.345  1.00  0.00     0.000 C 
BRANCH   3   4
ATOM      4  C   UNL     1    -118.808 -99.954  34.099  1.00  0.00     0.000 C 
BRANCH   4   5
ATOM      5  C   UNL     1    -118.494 -99.170  32.818  1.00  0.00     0.000 C 
BRANCH   5   6
ATOM      6  C   UNL     1    -118.038 -97.729  33.112  1.00  0.00     0.000 C 
BRANCH   6   7
ATOM      7  C   UNL     1    -116.601 -97.418  32.650  1.00  0.00     0.000 C 
BRANCH   7   8
ATOM      8  C   UNL     1    -115.690 -98.664  32.611  1.00  0.00     0.000 C 
BRANCH   8   9
ATOM      9  C   UNL     1    -114.741 -98.731  33.822  1.00  0.00     0.000 C 
BRANCH   9  10
ATOM     10  C   UNL     1    -115.445 -98.332  35.129  1.00  0.00     0.000 C 
BRANCH  10  11
ATOM     11  C   UNL     1    -114.564 -97.432  36.014  1.00  0.00     0.000 C 
BRANCH  11  12
ATOM     12  C   UNL     1    -113.665 -96.481  35.203  1.00  0.00     0.006 C 
BRANCH  12  13
ATOM     13  C   UNL     1    -112.978 -95.389  36.041  1.00  0.00     0.053 C 
BRANCH  13  14
ATOM     14  C   UNL     1    -111.580 -95.765  36.427  1.00  0.00     0.041 C 
ATOM     15  O   UNL     1    -111.364 -96.810  37.096  1.00  0.00    -0.550 OA
ATOM     16  O   UNL     1    -110.516 -94.949  36.064  1.00  0.00    -0.550 OA
ENDBRANCH  13  14
ENDBRANCH  12  13
ENDBRANCH  11  12
ENDBRANCH  10  11
ENDBRANCH   9  10
ENDBRANCH   8   9
ENDBRANCH   7   8
ENDBRANCH   6   7
ENDBRANCH   5   6
ENDBRANCH   4   5
ENDBRANCH   3   4
ENDBRANCH   2   3
ENDBRANCH   1   2
BRANCH   1  17
ATOM     17  C   UNL     1    -117.801-100.124  38.493  1.00  0.00     0.000 C 
BRANCH  17  18
ATOM     18  C   UNL     1    -117.878 -99.387  39.840  1.00  0.00     0.000 C 
BRANCH  18  19
ATOM     19  C   UNL     1    -116.554 -99.432  40.618  1.00  0.00     0.000 C 
BRANCH  19  20
ATOM     20  C   UNL     1    -116.524 -98.357  41.712  1.00  0.00     0.000 C 
BRANCH  20  21
ATOM     21  C   UNL     1    -117.850 -97.587  41.771  1.00  0.00     0.000 C 
BRANCH  21  22
ATOM     22  C   UNL     1    -118.853 -98.220  42.749  1.00  0.00    -0.000 C 
BRANCH  22  23
ATOM     23  C   UNL     1    -118.637 -97.760  44.201  1.00  0.00    -0.000 C 
BRANCH  23  24
ATOM     24  C   UNL     1    -117.695 -98.689  44.987  1.00  0.00    -0.000 C 
BRANCH  24  25
ATOM     25  C   UNL     1    -118.371 -99.933  45.592  1.00  0.00    -0.000 C 
BRANCH  25  26
ATOM     26  C   UNL     1    -118.142-100.059  47.109  1.00  0.00    -0.000 C 
BRANCH  26  27
ATOM     27  C   UNL     1    -118.892 -98.984  47.914  1.00  0.00    -0.000 C 
BRANCH  27  28
ATOM     28  C   UNL     1    -117.949 -97.907  48.475  1.00  0.00    -0.000 C 
BRANCH  28  29
ATOM     29  C   UNL     1    -118.557 -96.497  48.398  1.00  0.00    -0.003 C 
ATOM     30  C   UNL     1    -118.246 -95.788  47.079  1.00  0.00     0.004 C 
ENDBRANCH  28  29
ENDBRANCH  27  28
ENDBRANCH  26  27
ENDBRANCH  25  26
ENDBRANCH  24  25
ENDBRANCH  23  24
ENDBRANCH  22  23
ENDBRANCH  21  22
ENDBRANCH  20  21
ENDBRANCH  19  20
ENDBRANCH  18  19
ENDBRANCH  17  18
ENDBRANCH   1  17
TORSDOF 26
ENDMDL
MODEL 4
REMARK VINA RESULT:     1.429      4.907     12.907
REMARK INTER + INTRA:           4.411
REMARK INTER:                   3.910
REMARK INTRA:                   0.501
REMARK UNBOUND:                 0.809
REMARK SMILES CCCCCCCCCCCCCCCCCCCCCCCCCCCC(=O)[O-]
REMARK SMILES IDX 15 1 16 2 17 3 18 4 19 5 20 6 21 7 22 8 23 9 24 10 25 11
REMARK SMILES IDX 26 12 27 13 28 14 29 15 30 16 14 17 13 18 12 19 11 20 10 21
REMARK SMILES IDX 9 22 8 23 7 24 6 25 5 26 4 27 3 28 2 29 1 30
REMARK H PARENT
REMARK Flexibility Score: inf
ROOT
ATOM      1  C   UNL     1    -115.503 -97.705  41.048  1.00  0.00     0.000 C 
ENDROOT
BRANCH   1   2
ATOM      2  C   UNL     1    -114.829 -97.679  42.433  1.00  0.00     0.000 C 
BRANCH   2   3
ATOM      3  C   UNL     1    -115.387 -98.734  43.413  1.00  0.00     0.000 C 
BRANCH   3   4
ATOM      4  C   UNL     1    -116.812 -98.395  43.877  1.00  0.00     0.000 C 
BRANCH   4   5
ATOM      5  C   UNL     1    -117.828 -99.407  43.330  1.00  0.00     0.000 C 
BRANCH   5   6
ATOM      6  C   UNL     1    -118.678-100.043  44.445  1.00  0.00     0.000 C 
BRANCH   6   7
ATOM      7  C   UNL     1    -118.536 -99.352  45.815  1.00  0.00     0.000 C 
BRANCH   7   8
ATOM      8  C   UNL     1    -117.335 -99.868  46.637  1.00  0.00     0.000 C 
BRANCH   8   9
ATOM      9  C   UNL     1    -117.338 -99.326  48.078  1.00  0.00     0.000 C 
BRANCH   9  10
ATOM     10  C   UNL     1    -118.756 -98.980  48.561  1.00  0.00     0.000 C 
BRANCH  10  11
ATOM     11  C   UNL     1    -118.867 -97.523  49.046  1.00  0.00     0.000 C 
BRANCH  11  12
ATOM     12  C   UNL     1    -119.120 -96.524  47.903  1.00  0.00     0.006 C 
BRANCH  12  13
ATOM     13  C   UNL     1    -117.878 -95.728  47.469  1.00  0.00     0.053 C 
BRANCH  13  14
ATOM     14  C   UNL     1    -117.972 -94.280  47.841  1.00  0.00     0.041 C 
ATOM     15  O   UNL     1    -117.672 -93.387  47.005  1.00  0.00    -0.550 OA
ATOM     16  O   UNL     1    -118.371 -93.916  49.121  1.00  0.00    -0.550 OA
ENDBRANCH  13  14
ENDBRANCH  12  13
ENDBRANCH  11  12
ENDBRANCH  10  11
ENDBRANCH   9  10
ENDBRANCH   8   9
ENDBRANCH   7   8
ENDBRANCH   6   7
ENDBRANCH   5   6
ENDBRANCH   4   5
ENDBRANCH   3   4
ENDBRANCH   2   3
ENDBRANCH   1   2
BRANCH   1  17
ATOM     17  C   UNL     1    -116.367 -98.950  40.775  1.00  0.00     0.000 C 
BRANCH  17  18
ATOM     18  C   UNL     1    -117.371 -98.787  39.623  1.00  0.00     0.000 C 
BRANCH  18  19
ATOM     19  C   UNL     1    -118.589 -99.714  39.760  1.00  0.00     0.000 C 
BRANCH  19  20
ATOM     20  C   UNL     1    -119.123-100.125  38.382  1.00  0.00     0.000 C 
BRANCH  20  21
ATOM     21  C   UNL     1    -118.029-100.030  37.311  1.00  0.00     0.000 C 
BRANCH  21  22
ATOM     22  C   UNL     1    -118.605 -99.927  35.889  1.00  0.00    -0.000 C 
BRANCH  22  23
ATOM     23  C   UNL     1    -117.514 -99.930  34.805  1.00  0.00    -0.000 C 
BRANCH  23  24
ATOM     24  C   UNL     1    -117.455 -98.612  34.014  1.00  0.00    -0.000 C 
BRANCH  24  25
ATOM     25  C   UNL     1    -116.268 -97.697  34.367  1.00  0.00    -0.000 C 
BRANCH  25  26
ATOM     26  C   UNL     1    -115.737 -96.911  33.154  1.00  0.00    -0.000 C 
BRANCH  26  27
ATOM     27  C   UNL     1    -116.596 -97.113  31.894  1.00  0.00    -0.000 C 
BRANCH  27  28
ATOM     28  C   UNL     1    -118.067 -96.724  32.119  1.00  0.00    -0.000 C 
BRANCH  28  29
ATOM     29  C   UNL     1    -119.035 -97.870  31.785  1.00  0.00    -0.003 C 
ATOM     30  C   UNL     1    -118.826 -98.432  30.378  1.00  0.00     0.004 C 
ENDBRANCH  28  29
ENDBRANCH  27  28
ENDBRANCH  26  27
ENDBRANCH  25  26
ENDBRANCH  24  25
ENDBRANCH  23  24
ENDBRANCH  22  23
ENDBRANCH  21  22
ENDBRANCH  20  21
ENDBRANCH  19  20
ENDBRANCH  18  19
ENDBRANCH  17  18
ENDBRANCH   1  17
TORSDOF 26
ENDMDL
MODEL 5
REMARK VINA RESULT:     1.495      2.268      4.675
REMARK INTER + INTRA:           4.577
REMARK INTER:                   2.976
REMARK INTRA:                   1.601
REMARK UNBOUND:                 0.809
REMARK SMILES CCCCCCCCCCCCCCCCCCCCCCCCCCCC(=O)[O-]
REMARK SMILES IDX 15 1 16 2 17 3 18 4 19 5 20 6 21 7 22 8 23 9 24 10 25 11
REMARK SMILES IDX 26 12 27 13 28 14 29 15 30 16 14 17 13 18 12 19 11 20 10 21
REMARK SMILES IDX 9 22 8 23 7 24 6 25 5 26 4 27 3 28 2 29 1 30
REMARK H PARENT
REMARK Flexibility Score: inf
ROOT
ATOM      1  C   UNL     1    -117.907 -97.538  41.609  1.00  0.00     0.000 C 
ENDROOT
BRANCH   1   2
ATOM      2  C   UNL     1    -117.399 -98.987  41.742  1.00  0.00     0.000 C 
BRANCH   2   3
ATOM      3  C   UNL     1    -118.451-100.050  41.357  1.00  0.00     0.000 C 
BRANCH   3   4
ATOM      4  C   UNL     1    -118.681-100.111  39.839  1.00  0.00     0.000 C 
BRANCH   4   5
ATOM      5  C   UNL     1    -117.712 -99.183  39.094  1.00  0.00     0.000 C 
BRANCH   5   6
ATOM      6  C   UNL     1    -116.639 -99.964  38.312  1.00  0.00     0.000 C 
BRANCH   6   7
ATOM      7  C   UNL     1    -116.512 -99.547  36.835  1.00  0.00     0.000 C 
BRANCH   7   8
ATOM      8  C   UNL     1    -117.745 -99.927  35.985  1.00  0.00     0.000 C 
BRANCH   8   9
ATOM      9  C   UNL     1    -117.587 -99.515  34.510  1.00  0.00     0.000 C 
BRANCH   9  10
ATOM     10  C   UNL     1    -116.236 -99.962  33.928  1.00  0.00     0.000 C 
BRANCH  10  11
ATOM     11  C   UNL     1    -115.833 -99.136  32.692  1.00  0.00     0.000 C 
BRANCH  11  12
ATOM     12  C   UNL     1    -116.236 -97.654  32.798  1.00  0.00     0.006 C 
BRANCH  12  13
ATOM     13  C   UNL     1    -117.738 -97.389  32.601  1.00  0.00     0.053 C 
BRANCH  13  14
ATOM     14  C   UNL     1    -118.173 -97.606  31.185  1.00  0.00     0.041 C 
ATOM     15  O   UNL     1    -118.225 -96.640  30.378  1.00  0.00    -0.550 OA
ATOM     16  O   UNL     1    -118.541 -98.877  30.759  1.00  0.00    -0.550 OA
ENDBRANCH  13  14
ENDBRANCH  12  13
ENDBRANCH  11  12
ENDBRANCH  10  11
ENDBRANCH   9  10
ENDBRANCH   8   9
ENDBRANCH   7   8
ENDBRANCH   6   7
ENDBRANCH   5   6
ENDBRANCH   4   5
ENDBRANCH   3   4
ENDBRANCH   2   3
ENDBRANCH   1   2
BRANCH   1  17
ATOM     17  C   UNL     1    -119.119 -97.197  42.496  1.00  0.00     0.000 C 
BRANCH  17  18
ATOM     18  C   UNL     1    -118.837 -97.245  44.006  1.00  0.00     0.000 C 
BRANCH  18  19
ATOM     19  C   UNL     1    -117.987 -98.458  44.414  1.00  0.00     0.000 C 
BRANCH  19  20
ATOM     20  C   UNL     1    -118.410 -98.986  45.790  1.00  0.00     0.000 C 
BRANCH  20  21
ATOM     21  C   UNL     1    -119.003 -97.867  46.656  1.00  0.00     0.000 C 
BRANCH  21  22
ATOM     22  C   UNL     1    -118.249 -96.537  46.496  1.00  0.00    -0.000 C 
BRANCH  22  23
ATOM     23  C   UNL     1    -118.427 -95.605  47.707  1.00  0.00    -0.000 C 
BRANCH  23  24
ATOM     24  C   UNL     1    -118.237 -96.331  49.051  1.00  0.00    -0.000 C 
BRANCH  24  25
ATOM     25  C   UNL     1    -117.160 -97.431  49.046  1.00  0.00    -0.000 C 
BRANCH  25  26
ATOM     26  C   UNL     1    -115.764 -96.899  48.676  1.00  0.00    -0.000 C 
BRANCH  26  27
ATOM     27  C   UNL     1    -114.828 -98.001  48.151  1.00  0.00    -0.000 C 
BRANCH  27  28
ATOM     28  C   UNL     1    -113.385 -97.837  48.658  1.00  0.00    -0.000 C 
BRANCH  28  29
ATOM     29  C   UNL     1    -112.343 -98.134  47.569  1.00  0.00    -0.003 C 
ATOM     30  C   UNL     1    -111.454 -96.931  47.254  1.00  0.00     0.004 C 
ENDBRANCH  28  29
ENDBRANCH  27  28
ENDBRANCH  26  27
ENDBRANCH  25  26
ENDBRANCH  24  25
ENDBRANCH  23  24
ENDBRANCH  22  23
ENDBRANCH  21  22
ENDBRANCH  20  21
ENDBRANCH  19  20
ENDBRANCH  18  19
ENDBRANCH  17  18
ENDBRANCH   1  17
TORSDOF 26
ENDMDL
MODEL 6
REMARK VINA RESULT:     1.571      1.594      3.786
REMARK INTER + INTRA:           4.767
REMARK INTER:                   4.289
REMARK INTRA:                   0.478
REMARK UNBOUND:                 0.809
REMARK SMILES CCCCCCCCCCCCCCCCCCCCCCCCCCCC(=O)[O-]
REMARK SMILES IDX 15 1 16 2 17 3 18 4 19 5 20 6 21 7 22 8 23 9 24 10 25 11
REMARK SMILES IDX 26 12 27 13 28 14 29 15 30 16 14 17 13 18 12 19 11 20 10 21
REMARK SMILES IDX 9 22 8 23 7 24 6 25 5 26 4 27 3 28 2 29 1 30
REMARK H PARENT
REMARK Flexibility Score: inf
ROOT
ATOM      1  C   UNL     1    -116.888 -97.577  41.580  1.00  0.00     0.000 C 
ENDROOT
BRANCH   1   2
ATOM      2  C   UNL     1    -117.339 -97.099  40.186  1.00  0.00     0.000 C 
BRANCH   2   3
ATOM      3  C   UNL     1    -116.774 -97.951  39.027  1.00  0.00     0.000 C 
BRANCH   3   4
ATOM      4  C   UNL     1    -117.277 -99.403  39.080  1.00  0.00     0.000 C 
BRANCH   4   5
ATOM      5  C   UNL     1    -117.026-100.124  37.749  1.00  0.00     0.000 C 
BRANCH   5   6
ATOM      6  C   UNL     1    -118.145 -99.864  36.723  1.00  0.00     0.000 C 
BRANCH   6   7
ATOM      7  C   UNL     1    -117.683 -99.096  35.470  1.00  0.00     0.000 C 
BRANCH   7   8
ATOM      8  C   UNL     1    -116.980 -99.994  34.429  1.00  0.00     0.000 C 
BRANCH   8   9
ATOM      9  C   UNL     1    -115.622 -99.419  33.984  1.00  0.00     0.000 C 
BRANCH   9  10
ATOM     10  C   UNL     1    -115.071 -98.397  34.991  1.00  0.00     0.000 C 
BRANCH  10  11
ATOM     11  C   UNL     1    -115.054 -96.967  34.419  1.00  0.00     0.000 C 
BRANCH  11  12
ATOM     12  C   UNL     1    -115.632 -96.879  32.995  1.00  0.00     0.006 C 
BRANCH  12  13
ATOM     13  C   UNL     1    -116.874 -95.981  32.869  1.00  0.00     0.053 C 
BRANCH  13  14
ATOM     14  C   UNL     1    -117.929 -96.590  31.997  1.00  0.00     0.041 C 
ATOM     15  O   UNL     1    -118.052 -97.842  31.926  1.00  0.00    -0.550 OA
ATOM     16  O   UNL     1    -118.765 -95.774  31.245  1.00  0.00    -0.550 OA
ENDBRANCH  13  14
ENDBRANCH  12  13
ENDBRANCH  11  12
ENDBRANCH  10  11
ENDBRANCH   9  10
ENDBRANCH   8   9
ENDBRANCH   7   8
ENDBRANCH   6   7
ENDBRANCH   5   6
ENDBRANCH   4   5
ENDBRANCH   3   4
ENDBRANCH   2   3
ENDBRANCH   1   2
BRANCH   1  17
ATOM     17  C   UNL     1    -117.991 -98.252  42.417  1.00  0.00     0.000 C 
BRANCH  17  18
ATOM     18  C   UNL     1    -117.696 -99.711  42.800  1.00  0.00     0.000 C 
BRANCH  18  19
ATOM     19  C   UNL     1    -118.360-100.125  44.122  1.00  0.00     0.000 C 
BRANCH  19  20
ATOM     20  C   UNL     1    -119.024 -98.921  44.803  1.00  0.00     0.000 C 
BRANCH  20  21
ATOM     21  C   UNL     1    -118.014 -97.792  45.045  1.00  0.00     0.000 C 
BRANCH  21  22
ATOM     22  C   UNL     1    -117.200 -97.998  46.332  1.00  0.00    -0.000 C 
BRANCH  22  23
ATOM     23  C   UNL     1    -117.073 -99.481  46.723  1.00  0.00    -0.000 C 
BRANCH  23  24
ATOM     24  C   UNL     1    -116.963 -99.690  48.243  1.00  0.00    -0.000 C 
BRANCH  24  25
ATOM     25  C   UNL     1    -117.649 -98.607  49.097  1.00  0.00    -0.000 C 
BRANCH  25  26
ATOM     26  C   UNL     1    -118.920 -98.042  48.437  1.00  0.00    -0.000 C 
BRANCH  26  27
ATOM     27  C   UNL     1    -119.125 -96.546  48.729  1.00  0.00    -0.000 C 
BRANCH  27  28
ATOM     28  C   UNL     1    -118.586 -95.649  47.602  1.00  0.00    -0.000 C 
BRANCH  28  29
ATOM     29  C   UNL     1    -117.704 -94.507  48.131  1.00  0.00    -0.003 C 
ATOM     30  C   UNL     1    -117.955 -93.181  47.412  1.00  0.00     0.004 C 
ENDBRANCH  28  29
ENDBRANCH  27  28
ENDBRANCH  26  27
ENDBRANCH  25  26
ENDBRANCH  24  25
ENDBRANCH  23  24
ENDBRANCH  22  23
ENDBRANCH  21  22
ENDBRANCH  20  21
ENDBRANCH  19  20
ENDBRANCH  18  19
ENDBRANCH  17  18
ENDBRANCH   1  17
TORSDOF 26
ENDMDL
MODEL 7
REMARK VINA RESULT:     1.710      1.354      2.939
REMARK INTER + INTRA:           5.119
REMARK INTER:                   1.235
REMARK INTRA:                   3.884
REMARK UNBOUND:                 0.809
REMARK SMILES CCCCCCCCCCCCCCCCCCCCCCCCCCCC(=O)[O-]
REMARK SMILES IDX 15 1 16 2 17 3 18 4 19 5 20 6 21 7 22 8 23 9 24 10 25 11
REMARK SMILES IDX 26 12 27 13 28 14 29 15 30 16 14 17 13 18 12 19 11 20 10 21
REMARK SMILES IDX 9 22 8 23 7 24 6 25 5 26 4 27 3 28 2 29 1 30
REMARK H PARENT
REMARK Flexibility Score: inf
ROOT
ATOM      1  C   UNL     1    -117.530 -99.633  36.829  1.00  0.00     0.000 C 
ENDROOT
BRANCH   1   2
ATOM      2  C   UNL     1    -117.813-100.025  35.366  1.00  0.00     0.000 C 
BRANCH   2   3
ATOM      3  C   UNL     1    -118.879 -99.139  34.683  1.00  0.00     0.000 C 
BRANCH   3   4
ATOM      4  C   UNL     1    -119.124 -99.553  33.223  1.00  0.00     0.000 C 
BRANCH   4   5
ATOM      5  C   UNL     1    -117.848-100.121  32.587  1.00  0.00     0.000 C 
BRANCH   5   6
ATOM      6  C   UNL     1    -117.011 -99.035  31.886  1.00  0.00     0.000 C 
BRANCH   6   7
ATOM      7  C   UNL     1    -115.637 -98.784  32.536  1.00  0.00     0.000 C 
BRANCH   7   8
ATOM      8  C   UNL     1    -115.196 -99.918  33.487  1.00  0.00     0.000 C 
BRANCH   8   9
ATOM      9  C   UNL     1    -114.165 -99.440  34.526  1.00  0.00     0.000 C 
BRANCH   9  10
ATOM     10  C   UNL     1    -114.820 -98.639  35.663  1.00  0.00     0.000 C 
BRANCH  10  11
ATOM     11  C   UNL     1    -115.743 -97.526  35.135  1.00  0.00     0.000 C 
BRANCH  11  12
ATOM     12  C   UNL     1    -115.353 -97.034  33.729  1.00  0.00     0.006 C 
BRANCH  12  13
ATOM     13  C   UNL     1    -116.085 -95.759  33.277  1.00  0.00     0.053 C 
BRANCH  13  14
ATOM     14  C   UNL     1    -117.239 -96.058  32.371  1.00  0.00     0.041 C 
ATOM     15  O   UNL     1    -117.085 -96.057  31.121  1.00  0.00    -0.550 OA
ATOM     16  O   UNL     1    -118.494 -96.317  32.908  1.00  0.00    -0.550 OA
ENDBRANCH  13  14
ENDBRANCH  12  13
ENDBRANCH  11  12
ENDBRANCH  10  11
ENDBRANCH   9  10
ENDBRANCH   8   9
ENDBRANCH   7   8
ENDBRANCH   6   7
ENDBRANCH   5   6
ENDBRANCH   4   5
ENDBRANCH   3   4
ENDBRANCH   2   3
ENDBRANCH   1   2
BRANCH   1  17
ATOM     17  C   UNL     1    -118.597-100.098  37.838  1.00  0.00     0.000 C 
BRANCH  17  18
ATOM     18  C   UNL     1    -118.168 -99.993  39.310  1.00  0.00     0.000 C 
BRANCH  18  19
ATOM     19  C   UNL     1    -117.146 -98.872  39.554  1.00  0.00     0.000 C 
BRANCH  19  20
ATOM     20  C   UNL     1    -117.653 -97.889  40.616  1.00  0.00     0.000 C 
BRANCH  20  21
ATOM     21  C   UNL     1    -118.974 -98.368  41.232  1.00  0.00     0.000 C 
BRANCH  21  22
ATOM     22  C   UNL     1    -118.765 -99.134  42.548  1.00  0.00    -0.000 C 
BRANCH  22  23
ATOM     23  C   UNL     1    -118.394 -98.209  43.720  1.00  0.00    -0.000 C 
BRANCH  23  24
ATOM     24  C   UNL     1    -117.766 -98.966  44.903  1.00  0.00    -0.000 C 
BRANCH  24  25
ATOM     25  C   UNL     1    -118.726 -99.253  46.072  1.00  0.00    -0.000 C 
BRANCH  25  26
ATOM     26  C   UNL     1    -118.041 -99.152  47.446  1.00  0.00    -0.000 C 
BRANCH  26  27
ATOM     27  C   UNL     1    -118.641 -98.044  48.329  1.00  0.00    -0.000 C 
BRANCH  27  28
ATOM     28  C   UNL     1    -118.314 -96.636  47.804  1.00  0.00    -0.000 C 
BRANCH  28  29
ATOM     29  C   UNL     1    -118.107 -95.621  48.940  1.00  0.00    -0.003 C 
ATOM     30  C   UNL     1    -119.063 -94.431  48.853  1.00  0.00     0.004 C 
ENDBRANCH  28  29
ENDBRANCH  27  28
ENDBRANCH  26  27
ENDBRANCH  25  26
ENDBRANCH  24  25
ENDBRANCH  23  24
ENDBRANCH  22  23
ENDBRANCH  21  22
ENDBRANCH  20  21
ENDBRANCH  19  20
ENDBRANCH  18  19
ENDBRANCH  17  18
ENDBRANCH   1  17
TORSDOF 26
ENDMDL
MODEL 8
REMARK VINA RESULT:     2.315      2.524      4.457
REMARK INTER + INTRA:           6.642
REMARK INTER:                   6.109
REMARK INTRA:                   0.533
REMARK UNBOUND:                 0.809
REMARK SMILES CCCCCCCCCCCCCCCCCCCCCCCCCCCC(=O)[O-]
REMARK SMILES IDX 15 1 16 2 17 3 18 4 19 5 20 6 21 7 22 8 23 9 24 10 25 11
REMARK SMILES IDX 26 12 27 13 28 14 29 15 30 16 14 17 13 18 12 19 11 20 10 21
REMARK SMILES IDX 9 22 8 23 7 24 6 25 5 26 4 27 3 28 2 29 1 30
REMARK H PARENT
REMARK Flexibility Score: inf
ROOT
ATOM      1  C   UNL     1    -117.965 -97.480  41.294  1.00  0.00     0.000 C 
ENDROOT
BRANCH   1   2
ATOM      2  C   UNL     1    -117.707 -98.982  41.062  1.00  0.00     0.000 C 
BRANCH   2   3
ATOM      3  C   UNL     1    -117.848 -99.413  39.585  1.00  0.00     0.000 C 
BRANCH   3   4
ATOM      4  C   UNL     1    -117.088 -98.474  38.635  1.00  0.00     0.000 C 
BRANCH   4   5
ATOM      5  C   UNL     1    -116.519 -99.243  37.435  1.00  0.00     0.000 C 
BRANCH   5   6
ATOM      6  C   UNL     1    -117.580-100.124  36.749  1.00  0.00     0.000 C 
BRANCH   6   7
ATOM      7  C   UNL     1    -117.657 -99.939  35.221  1.00  0.00     0.000 C 
BRANCH   7   8
ATOM      8  C   UNL     1    -119.093-100.049  34.664  1.00  0.00     0.000 C 
BRANCH   8   9
ATOM      9  C   UNL     1    -119.124-100.038  33.125  1.00  0.00     0.000 C 
BRANCH   9  10
ATOM     10  C   UNL     1    -117.742 -99.741  32.521  1.00  0.00     0.000 C 
BRANCH  10  11
ATOM     11  C   UNL     1    -117.786 -98.584  31.507  1.00  0.00     0.000 C 
BRANCH  11  12
ATOM     12  C   UNL     1    -116.892 -97.396  31.905  1.00  0.00     0.006 C 
BRANCH  12  13
ATOM     13  C   UNL     1    -115.674 -97.778  32.763  1.00  0.00     0.053 C 
BRANCH  13  14
ATOM     14  C   UNL     1    -115.639 -97.036  34.063  1.00  0.00     0.041 C 
ATOM     15  O   UNL     1    -115.732 -95.779  34.082  1.00  0.00    -0.550 OA
ATOM     16  O   UNL     1    -115.483 -97.731  35.256  1.00  0.00    -0.550 OA
ENDBRANCH  13  14
ENDBRANCH  12  13
ENDBRANCH  11  12
ENDBRANCH  10  11
ENDBRANCH   9  10
ENDBRANCH   8   9
ENDBRANCH   7   8
ENDBRANCH   6   7
ENDBRANCH   5   6
ENDBRANCH   4   5
ENDBRANCH   3   4
ENDBRANCH   2   3
ENDBRANCH   1   2
BRANCH   1  17
ATOM     17  C   UNL     1    -119.103 -97.168  42.283  1.00  0.00     0.000 C 
BRANCH  17  18
ATOM     18  C   UNL     1    -118.728 -97.349  43.762  1.00  0.00     0.000 C 
BRANCH  18  19
ATOM     19  C   UNL     1    -117.570 -98.337  43.965  1.00  0.00     0.000 C 
BRANCH  19  20
ATOM     20  C   UNL     1    -117.920 -99.379  45.035  1.00  0.00     0.000 C 
BRANCH  20  21
ATOM     21  C   UNL     1    -118.626 -98.731  46.233  1.00  0.00     0.000 C 
BRANCH  21  22
ATOM     22  C   UNL     1    -118.265 -97.245  46.394  1.00  0.00    -0.000 C 
BRANCH  22  23
ATOM     23  C   UNL     1    -118.667 -96.683  47.768  1.00  0.00    -0.000 C 
BRANCH  23  24
ATOM     24  C   UNL     1    -118.557 -97.726  48.895  1.00  0.00    -0.000 C 
BRANCH  24  25
ATOM     25  C   UNL     1    -117.158 -98.344  49.070  1.00  0.00    -0.000 C 
BRANCH  25  26
ATOM     26  C   UNL     1    -116.023 -97.350  48.764  1.00  0.00    -0.000 C 
BRANCH  26  27
ATOM     27  C   UNL     1    -114.835 -98.010  48.042  1.00  0.00    -0.000 C 
BRANCH  27  28
ATOM     28  C   UNL     1    -113.626 -97.067  47.922  1.00  0.00    -0.000 C 
BRANCH  28  29
ATOM     29  C   UNL     1    -112.299 -97.771  48.249  1.00  0.00    -0.003 C 
ATOM     30  C   UNL     1    -111.192 -97.444  47.246  1.00  0.00     0.004 C 
ENDBRANCH  28  29
ENDBRANCH  27  28
ENDBRANCH  26  27
ENDBRANCH  25  26
ENDBRANCH  24  25
ENDBRANCH  23  24
ENDBRANCH  22  23
ENDBRANCH  21  22
ENDBRANCH  20  21
ENDBRANCH  19  20
ENDBRANCH  18  19
ENDBRANCH  17  18
ENDBRANCH   1  17
TORSDOF 26
ENDMDL
MODEL 9
REMARK VINA RESULT:     2.436      5.377     11.575
REMARK INTER + INTRA:           6.946
REMARK INTER:                   7.416
REMARK INTRA:                  -0.469
REMARK UNBOUND:                 0.809
REMARK SMILES CCCCCCCCCCCCCCCCCCCCCCCCCCCC(=O)[O-]
REMARK SMILES IDX 15 1 16 2 17 3 18 4 19 5 20 6 21 7 22 8 23 9 24 10 25 11
REMARK SMILES IDX 26 12 27 13 28 14 29 15 30 16 14 17 13 18 12 19 11 20 10 21
REMARK SMILES IDX 9 22 8 23 7 24 6 25 5 26 4 27 3 28 2 29 1 30
REMARK H PARENT
REMARK Flexibility Score: inf
ROOT
ATOM      1  C   UNL     1    -115.360 -99.521  35.651  1.00  0.00     0.000 C 
ENDROOT
BRANCH   1   2
ATOM      2  C   UNL     1    -116.606 -99.006  36.397  1.00  0.00     0.000 C 
BRANCH   2   3
ATOM      3  C   UNL     1    -117.594-100.124  36.798  1.00  0.00     0.000 C 
BRANCH   3   4
ATOM      4  C   UNL     1    -117.961-100.062  38.289  1.00  0.00     0.000 C 
BRANCH   4   5
ATOM      5  C   UNL     1    -116.723 -99.782  39.152  1.00  0.00     0.000 C 
BRANCH   5   6
ATOM      6  C   UNL     1    -117.017 -98.788  40.291  1.00  0.00     0.000 C 
BRANCH   6   7
ATOM      7  C   UNL     1    -116.951 -99.410  41.699  1.00  0.00     0.000 C 
BRANCH   7   8
ATOM      8  C   UNL     1    -118.297-100.007  42.167  1.00  0.00     0.000 C 
BRANCH   8   9
ATOM      9  C   UNL     1    -118.598 -99.682  43.642  1.00  0.00     0.000 C 
BRANCH   9  10
ATOM     10  C   UNL     1    -117.886 -98.402  44.108  1.00  0.00     0.000 C 
BRANCH  10  11
ATOM     11  C   UNL     1    -118.422 -97.897  45.460  1.00  0.00     0.000 C 
BRANCH  11  12
ATOM     12  C   UNL     1    -118.615 -99.022  46.492  1.00  0.00     0.006 C 
BRANCH  12  13
ATOM     13  C   UNL     1    -118.786 -98.533  47.940  1.00  0.00     0.053 C 
BRANCH  13  14
ATOM     14  C   UNL     1    -118.200 -97.171  48.152  1.00  0.00     0.041 C 
ATOM     15  O   UNL     1    -116.976 -97.038  48.418  1.00  0.00    -0.550 OA
ATOM     16  O   UNL     1    -119.013 -96.046  48.077  1.00  0.00    -0.550 OA
ENDBRANCH  13  14
ENDBRANCH  12  13
ENDBRANCH  11  12
ENDBRANCH  10  11
ENDBRANCH   9  10
ENDBRANCH   8   9
ENDBRANCH   7   8
ENDBRANCH   6   7
ENDBRANCH   5   6
ENDBRANCH   4   5
ENDBRANCH   3   4
ENDBRANCH   2   3
ENDBRANCH   1   2
BRANCH   1  17
ATOM     17  C   UNL     1    -115.632-100.054  34.232  1.00  0.00     0.000 C 
BRANCH  17  18
ATOM     18  C   UNL     1    -117.086 -99.892  33.760  1.00  0.00     0.000 C 
BRANCH  18  19
ATOM     19  C   UNL     1    -117.301 -98.623  32.922  1.00  0.00     0.000 C 
BRANCH  19  20
ATOM     20  C   UNL     1    -117.213 -97.366  33.797  1.00  0.00     0.000 C 
BRANCH  20  21
ATOM     21  C   UNL     1    -116.025 -96.487  33.388  1.00  0.00     0.000 C 
BRANCH  21  22
ATOM     22  C   UNL     1    -114.733 -96.861  34.132  1.00  0.00    -0.000 C 
BRANCH  22  23
ATOM     23  C   UNL     1    -113.705 -95.717  34.148  1.00  0.00    -0.000 C 
BRANCH  23  24
ATOM     24  C   UNL     1    -113.361 -95.243  35.571  1.00  0.00    -0.000 C 
BRANCH  24  25
ATOM     25  C   UNL     1    -112.510 -96.228  36.394  1.00  0.00    -0.000 C 
BRANCH  25  26
ATOM     26  C   UNL     1    -111.063 -95.744  36.594  1.00  0.00    -0.000 C 
BRANCH  26  27
ATOM     27  C   UNL     1    -110.239 -96.691  37.484  1.00  0.00    -0.000 C 
BRANCH  27  28
ATOM     28  C   UNL     1    -109.723 -97.918  36.713  1.00  0.00    -0.000 C 
BRANCH  28  29
ATOM     29  C   UNL     1    -109.377 -99.091  37.644  1.00  0.00    -0.003 C 
ATOM     30  C   UNL     1    -107.956 -99.617  37.433  1.00  0.00     0.004 C 
ENDBRANCH  28  29
ENDBRANCH  27  28
ENDBRANCH  26  27
ENDBRANCH  25  26
ENDBRANCH  24  25
ENDBRANCH  23  24
ENDBRANCH  22  23
ENDBRANCH  21  22
ENDBRANCH  20  21
ENDBRANCH  19  20
ENDBRANCH  18  19
ENDBRANCH  17  18
ENDBRANCH   1  17
TORSDOF 26
ENDMDL
