MODEL 1
REMARK VINA RESULT:    -5.168      0.000      0.000
REMARK INTER + INTRA:          -6.212
REMARK INTER:                  -6.075
REMARK INTRA:                  -0.137
REMARK UNBOUND:                -0.137
REMARK SMILES O=C([O-])C=Cc1ccc(O)c(O)c1
REMARK SMILES IDX 6 1 13 2 7 3 11 4 8 5 9 6 5 7 4 8 2 9 1 10 3 11 12 12 10 14
REMARK H PARENT 12 13 10 15
REMARK Flexibility Score: inf
ROOT
ATOM      1  C   UNL     1      11.576 -15.541   8.051  1.00  0.00    -0.022 A 
ATOM      2  C   UNL     1      12.817 -16.133   8.339  1.00  0.00     0.058 A 
ATOM      3  C   UNL     1      11.555 -14.258   7.468  1.00  0.00     0.012 A 
ATOM      4  C   UNL     1      14.016 -15.474   8.030  1.00  0.00     0.157 A 
ATOM      5  C   UNL     1      12.749 -13.602   7.160  1.00  0.00     0.051 A 
ATOM      6  C   UNL     1      13.980 -14.203   7.434  1.00  0.00     0.157 A 
ENDROOT
BRANCH   1   7
ATOM      7  C   UNL     1      10.338 -16.277   8.409  1.00  0.00     0.010 C 
ATOM      8  C   UNL     1       9.119 -15.947   7.960  1.00  0.00     0.025 C 
BRANCH   8   9
ATOM      9  C   UNL     1       7.913 -16.708   8.327  1.00  0.00     0.064 C 
ATOM     10  O   UNL     1       6.967 -16.166   8.958  1.00  0.00    -0.545 OA
ATOM     11  O   UNL     1       7.817 -18.046   7.971  1.00  0.00    -0.545 OA
ENDBRANCH   8   9
ENDBRANCH   1   7
BRANCH   4  12
ATOM     12  O   UNL     1      15.241 -16.078   8.311  1.00  0.00    -0.504 OA
ATOM     13  H   UNL     1      15.765 -15.851   9.149  1.00  0.00     0.293 HD
ENDBRANCH   4  12
BRANCH   6  14
ATOM     14  O   UNL     1      15.153 -13.522   7.113  1.00  0.00    -0.504 OA
ATOM     15  H   UNL     1      15.687 -13.734   6.278  1.00  0.00     0.293 HD
ENDBRANCH   6  14
TORSDOF 4
ENDMDL
MODEL 2
REMARK VINA RESULT:    -4.964      1.676      2.579
REMARK INTER + INTRA:          -5.972
REMARK INTER:                  -5.841
REMARK INTRA:                  -0.131
REMARK UNBOUND:                -0.137
REMARK SMILES O=C([O-])C=Cc1ccc(O)c(O)c1
REMARK SMILES IDX 6 1 13 2 7 3 11 4 8 5 9 6 5 7 4 8 2 9 1 10 3 11 12 12 10 14
REMARK H PARENT 12 13 10 15
REMARK Flexibility Score: inf
ROOT
ATOM      1  C   UNL     1      10.400 -16.262   8.076  1.00  0.00    -0.022 A 
ATOM      2  C   UNL     1      10.187 -14.996   7.505  1.00  0.00     0.058 A 
ATOM      3  C   UNL     1      11.710 -16.628   8.446  1.00  0.00     0.012 A 
ATOM      4  C   UNL     1      11.251 -14.099   7.329  1.00  0.00     0.157 A 
ATOM      5  C   UNL     1      12.770 -15.735   8.271  1.00  0.00     0.051 A 
ATOM      6  C   UNL     1      12.548 -14.471   7.717  1.00  0.00     0.157 A 
ENDROOT
BRANCH   1   7
ATOM      7  C   UNL     1       9.241 -17.176   8.231  1.00  0.00     0.010 C 
ATOM      8  C   UNL     1       7.968 -16.760   8.306  1.00  0.00     0.025 C 
BRANCH   8   9
ATOM      9  C   UNL     1       6.842 -17.698   8.448  1.00  0.00     0.064 C 
ATOM     10  O   UNL     1       6.218 -18.125   7.441  1.00  0.00    -0.545 OA
ATOM     11  O   UNL     1       6.462 -18.119   9.715  1.00  0.00    -0.545 OA
ENDBRANCH   8   9
ENDBRANCH   1   7
BRANCH   4  12
ATOM     12  O   UNL     1      11.023 -12.842   6.771  1.00  0.00    -0.504 OA
ATOM     13  H   UNL     1      11.642 -12.453   6.069  1.00  0.00     0.293 HD
ENDBRANCH   4  12
BRANCH   6  14
ATOM     14  O   UNL     1      13.627 -13.603   7.555  1.00  0.00    -0.504 OA
ATOM     15  H   UNL     1      13.870 -12.911   8.256  1.00  0.00     0.293 HD
ENDBRANCH   6  14
TORSDOF 4
ENDMDL
MODEL 3
REMARK VINA RESULT:    -4.778      0.870      1.989
REMARK INTER + INTRA:          -5.753
REMARK INTER:                  -5.614
REMARK INTRA:                  -0.139
REMARK UNBOUND:                -0.137
REMARK SMILES O=C([O-])C=Cc1ccc(O)c(O)c1
REMARK SMILES IDX 6 1 13 2 7 3 11 4 8 5 9 6 5 7 4 8 2 9 1 10 3 11 12 12 10 14
REMARK H PARENT 12 13 10 15
REMARK Flexibility Score: inf
ROOT
ATOM      1  C   UNL     1      11.077 -15.886   8.059  1.00  0.00    -0.022 A 
ATOM      2  C   UNL     1      11.826 -14.787   7.609  1.00  0.00     0.058 A 
ATOM      3  C   UNL     1      11.759 -17.025   8.532  1.00  0.00     0.012 A 
ATOM      4  C   UNL     1      13.228 -14.807   7.651  1.00  0.00     0.157 A 
ATOM      5  C   UNL     1      13.156 -17.046   8.575  1.00  0.00     0.051 A 
ATOM      6  C   UNL     1      13.895 -15.943   8.140  1.00  0.00     0.157 A 
ENDROOT
BRANCH   1   7
ATOM      7  C   UNL     1       9.596 -15.817   7.983  1.00  0.00     0.010 C 
ATOM      8  C   UNL     1       8.784 -16.825   8.329  1.00  0.00     0.025 C 
BRANCH   8   9
ATOM      9  C   UNL     1       7.318 -16.716   8.250  1.00  0.00     0.064 C 
ATOM     10  O   UNL     1       6.709 -15.735   8.754  1.00  0.00    -0.545 OA
ATOM     11  O   UNL     1       6.593 -17.711   7.608  1.00  0.00    -0.545 OA
ENDBRANCH   8   9
ENDBRANCH   1   7
BRANCH   4  12
ATOM     12  O   UNL     1      13.959 -13.705   7.211  1.00  0.00    -0.504 OA
ATOM     13  H   UNL     1      13.869 -13.352   6.265  1.00  0.00     0.293 HD
ENDBRANCH   4  12
BRANCH   6  14
ATOM     14  O   UNL     1      15.287 -15.995   8.196  1.00  0.00    -0.504 OA
ATOM     15  H   UNL     1      15.812 -16.774   7.814  1.00  0.00     0.293 HD
ENDBRANCH   6  14
TORSDOF 4
ENDMDL
MODEL 4
REMARK VINA RESULT:    -4.523      1.322      1.706
REMARK INTER + INTRA:          -5.454
REMARK INTER:                  -5.313
REMARK INTRA:                  -0.140
REMARK UNBOUND:                -0.137
REMARK SMILES O=C([O-])C=Cc1ccc(O)c(O)c1
REMARK SMILES IDX 6 1 13 2 7 3 11 4 8 5 9 6 5 7 4 8 2 9 1 10 3 11 12 12 10 14
REMARK H PARENT 12 13 10 15
REMARK Flexibility Score: inf
ROOT
ATOM      1  C   UNL     1      11.239 -16.579   7.713  1.00  0.00    -0.022 A 
ATOM      2  C   UNL     1      12.178 -17.456   7.146  1.00  0.00     0.058 A 
ATOM      3  C   UNL     1      11.703 -15.478   8.461  1.00  0.00     0.012 A 
ATOM      4  C   UNL     1      13.554 -17.230   7.297  1.00  0.00     0.157 A 
ATOM      5  C   UNL     1      13.074 -15.253   8.612  1.00  0.00     0.051 A 
ATOM      6  C   UNL     1      14.003 -16.121   8.032  1.00  0.00     0.157 A 
ENDROOT
BRANCH   1   7
ATOM      7  C   UNL     1       9.795 -16.869   7.532  1.00  0.00     0.010 C 
ATOM      8  C   UNL     1       8.833 -16.406   8.343  1.00  0.00     0.025 C 
BRANCH   8   9
ATOM      9  C   UNL     1       7.409 -16.706   8.126  1.00  0.00     0.064 C 
ATOM     10  O   UNL     1       6.508 -16.082   8.748  1.00  0.00    -0.545 OA
ATOM     11  O   UNL     1       7.051 -17.694   7.218  1.00  0.00    -0.545 OA
ENDBRANCH   8   9
ENDBRANCH   1   7
BRANCH   4  12
ATOM     12  O   UNL     1      14.475 -18.104   6.720  1.00  0.00    -0.504 OA
ATOM     13  H   UNL     1      14.656 -18.101   5.723  1.00  0.00     0.293 HD
ENDBRANCH   4  12
BRANCH   6  14
ATOM     14  O   UNL     1      15.363 -15.868   8.200  1.00  0.00    -0.504 OA
ATOM     15  H   UNL     1      16.015 -15.889   7.424  1.00  0.00     0.293 HD
ENDBRANCH   6  14
TORSDOF 4
ENDMDL
MODEL 5
REMARK VINA RESULT:    -4.475      1.108      6.117
REMARK INTER + INTRA:          -5.397
REMARK INTER:                  -5.268
REMARK INTRA:                  -0.129
REMARK UNBOUND:                -0.137
REMARK SMILES O=C([O-])C=Cc1ccc(O)c(O)c1
REMARK SMILES IDX 6 1 13 2 7 3 11 4 8 5 9 6 5 7 4 8 2 9 1 10 3 11 12 12 10 14
REMARK H PARENT 12 13 10 15
REMARK Flexibility Score: inf
ROOT
ATOM      1  C   UNL     1      10.414 -16.505   7.927  1.00  0.00    -0.022 A 
ATOM      2  C   UNL     1       9.307 -15.869   8.514  1.00  0.00     0.058 A 
ATOM      3  C   UNL     1      10.197 -17.650   7.134  1.00  0.00     0.012 A 
ATOM      4  C   UNL     1       8.006 -16.345   8.297  1.00  0.00     0.157 A 
ATOM      5  C   UNL     1       8.901 -18.125   6.918  1.00  0.00     0.051 A 
ATOM      6  C   UNL     1       7.804 -17.478   7.492  1.00  0.00     0.157 A 
ENDROOT
BRANCH   1   7
ATOM      7  C   UNL     1      11.770 -15.965   8.198  1.00  0.00     0.010 C 
ATOM      8  C   UNL     1      12.685 -15.737   7.245  1.00  0.00     0.025 C 
BRANCH   8   9
ATOM      9  C   UNL     1      14.017 -15.190   7.550  1.00  0.00     0.064 C 
ATOM     10  O   UNL     1      14.375 -14.063   7.115  1.00  0.00    -0.545 OA
ATOM     11  O   UNL     1      14.895 -15.929   8.332  1.00  0.00    -0.545 OA
ENDBRANCH   8   9
ENDBRANCH   1   7
BRANCH   4  12
ATOM     12  O   UNL     1       6.916 -15.698   8.877  1.00  0.00    -0.504 OA
ATOM     13  H   UNL     1       6.087 -16.207   9.163  1.00  0.00     0.293 HD
ENDBRANCH   4  12
BRANCH   6  14
ATOM     14  O   UNL     1       6.524 -17.977   7.256  1.00  0.00    -0.504 OA
ATOM     15  H   UNL     1       5.763 -17.839   7.912  1.00  0.00     0.293 HD
ENDBRANCH   6  14
TORSDOF 4
ENDMDL
MODEL 6
REMARK VINA RESULT:    -4.181      1.337      6.089
REMARK INTER + INTRA:          -5.052
REMARK INTER:                  -4.924
REMARK INTRA:                  -0.128
REMARK UNBOUND:                -0.137
REMARK SMILES O=C([O-])C=Cc1ccc(O)c(O)c1
REMARK SMILES IDX 6 1 13 2 7 3 11 4 8 5 9 6 5 7 4 8 2 9 1 10 3 11 12 12 10 14
REMARK H PARENT 12 13 10 15
REMARK Flexibility Score: inf
ROOT
ATOM      1  C   UNL     1       9.603 -15.825   7.887  1.00  0.00    -0.022 A 
ATOM      2  C   UNL     1       9.268 -16.642   6.794  1.00  0.00     0.058 A 
ATOM      3  C   UNL     1       8.665 -15.663   8.927  1.00  0.00     0.012 A 
ATOM      4  C   UNL     1       8.034 -17.308   6.747  1.00  0.00     0.157 A 
ATOM      5  C   UNL     1       7.436 -16.326   8.879  1.00  0.00     0.051 A 
ATOM      6  C   UNL     1       7.116 -17.150   7.797  1.00  0.00     0.157 A 
ENDROOT
BRANCH   1   7
ATOM      7  C   UNL     1      10.917 -15.136   7.883  1.00  0.00     0.010 C 
ATOM      8  C   UNL     1      12.082 -15.750   8.135  1.00  0.00     0.025 C 
BRANCH   8   9
ATOM      9  C   UNL     1      13.368 -15.035   8.111  1.00  0.00     0.064 C 
ATOM     10  O   UNL     1      13.419 -13.789   7.931  1.00  0.00    -0.545 OA
ATOM     11  O   UNL     1      14.547 -15.747   8.290  1.00  0.00    -0.545 OA
ENDBRANCH   8   9
ENDBRANCH   1   7
BRANCH   4  12
ATOM     12  O   UNL     1       7.720 -18.124   5.661  1.00  0.00    -0.504 OA
ATOM     13  H   UNL     1       7.694 -19.134   5.746  1.00  0.00     0.293 HD
ENDBRANCH   4  12
BRANCH   6  14
ATOM     14  O   UNL     1       5.881 -17.798   7.780  1.00  0.00    -0.504 OA
ATOM     15  H   UNL     1       5.082 -17.421   7.282  1.00  0.00     0.293 HD
ENDBRANCH   6  14
TORSDOF 4
ENDMDL
MODEL 7
REMARK VINA RESULT:    -4.042      1.704      2.386
REMARK INTER + INTRA:          -4.888
REMARK INTER:                  -4.761
REMARK INTRA:                  -0.127
REMARK UNBOUND:                -0.137
REMARK SMILES O=C([O-])C=Cc1ccc(O)c(O)c1
REMARK SMILES IDX 6 1 13 2 7 3 11 4 8 5 9 6 5 7 4 8 2 9 1 10 3 11 12 12 10 14
REMARK H PARENT 12 13 10 15
REMARK Flexibility Score: inf
ROOT
ATOM      1  C   UNL     1      10.718 -17.163   7.817  1.00  0.00    -0.022 A 
ATOM      2  C   UNL     1      11.085 -15.825   8.036  1.00  0.00     0.058 A 
ATOM      3  C   UNL     1      11.603 -18.004   7.114  1.00  0.00     0.012 A 
ATOM      4  C   UNL     1      12.321 -15.337   7.587  1.00  0.00     0.157 A 
ATOM      5  C   UNL     1      12.835 -17.518   6.667  1.00  0.00     0.051 A 
ATOM      6  C   UNL     1      13.201 -16.190   6.901  1.00  0.00     0.157 A 
ENDROOT
BRANCH   1   7
ATOM      7  C   UNL     1       9.394 -17.625   8.304  1.00  0.00     0.010 C 
ATOM      8  C   UNL     1       8.226 -17.122   7.880  1.00  0.00     0.025 C 
BRANCH   8   9
ATOM      9  C   UNL     1       6.931 -17.613   8.377  1.00  0.00     0.064 C 
ATOM     10  O   UNL     1       6.647 -17.577   9.604  1.00  0.00    -0.545 OA
ATOM     11  O   UNL     1       6.005 -18.125   7.478  1.00  0.00    -0.545 OA
ENDBRANCH   8   9
ENDBRANCH   1   7
BRANCH   4  12
ATOM     12  O   UNL     1      12.677 -14.009   7.820  1.00  0.00    -0.504 OA
ATOM     13  H   UNL     1      12.042 -13.361   8.272  1.00  0.00     0.293 HD
ENDBRANCH   4  12
BRANCH   6  14
ATOM     14  O   UNL     1      14.436 -15.737   6.442  1.00  0.00    -0.504 OA
ATOM     15  H   UNL     1      15.262 -15.735   7.032  1.00  0.00     0.293 HD
ENDBRANCH   6  14
TORSDOF 4
ENDMDL
