MODEL 1
REMARK VINA RESULT:    -2.911      0.000      0.000
REMARK INTER + INTRA:          -6.378
REMARK INTER:                  -4.954
REMARK INTRA:                  -1.424
REMARK UNBOUND:                -1.424
REMARK SMILES CCCCCCCCCCCCCC(=O)[O-]
REMARK SMILES IDX 8 1 9 2 10 3 11 4 12 5 13 6 14 7 15 8 16 9 7 10 6 11 5 12
REMARK SMILES IDX 4 13 3 14 2 15 1 16
REMARK H PARENT
REMARK Flexibility Score: inf
ROOT
ATOM      1  C   UNL     1     -23.648   1.949 -33.146  1.00  0.00     0.000 C 
ENDROOT
BRANCH   1   2
ATOM      2  C   UNL     1     -25.028   2.593 -32.938  1.00  0.00     0.000 C 
BRANCH   2   3
ATOM      3  C   UNL     1     -24.957   3.880 -32.099  1.00  0.00     0.000 C 
BRANCH   3   4
ATOM      4  C   UNL     1     -25.487   5.115 -32.849  1.00  0.00     0.000 C 
BRANCH   4   5
ATOM      5  C   UNL     1     -26.978   5.059 -33.227  1.00  0.00     0.006 C 
BRANCH   5   6
ATOM      6  C   UNL     1     -27.213   5.102 -34.742  1.00  0.00     0.053 C 
BRANCH   6   7
ATOM      7  C   UNL     1     -28.517   4.454 -35.087  1.00  0.00     0.041 C 
ATOM      8  O   UNL     1     -29.090   3.703 -34.256  1.00  0.00    -0.550 OA
ATOM      9  O   UNL     1     -29.125   4.720 -36.307  1.00  0.00    -0.550 OA
ENDBRANCH   6   7
ENDBRANCH   5   6
ENDBRANCH   4   5
ENDBRANCH   3   4
ENDBRANCH   2   3
ENDBRANCH   1   2
BRANCH   1  10
ATOM     10  C   UNL     1     -23.070   2.231 -34.544  1.00  0.00     0.000 C 
BRANCH  10  11
ATOM     11  C   UNL     1     -22.378   3.601 -34.637  1.00  0.00    -0.000 C 
BRANCH  11  12
ATOM     12  C   UNL     1     -23.064   4.617 -35.573  1.00  0.00    -0.000 C 
BRANCH  12  13
ATOM     13  C   UNL     1     -24.298   4.085 -36.328  1.00  0.00    -0.000 C 
BRANCH  13  14
ATOM     14  C   UNL     1     -24.390   4.512 -37.804  1.00  0.00    -0.000 C 
BRANCH  14  15
ATOM     15  C   UNL     1     -23.039   4.963 -38.378  1.00  0.00    -0.003 C 
ATOM     16  C   UNL     1     -22.323   3.808 -39.071  1.00  0.00     0.004 C 
ENDBRANCH  14  15
ENDBRANCH  13  14
ENDBRANCH  12  13
ENDBRANCH  11  12
ENDBRANCH  10  11
ENDBRANCH   1  10
TORSDOF 12
ENDMDL
MODEL 2
REMARK VINA RESULT:    -2.877      2.657      4.948
REMARK INTER + INTRA:          -6.320
REMARK INTER:                  -4.884
REMARK INTRA:                  -1.436
REMARK UNBOUND:                -1.424
REMARK SMILES CCCCCCCCCCCCCC(=O)[O-]
REMARK SMILES IDX 8 1 9 2 10 3 11 4 12 5 13 6 14 7 15 8 16 9 7 10 6 11 5 12
REMARK SMILES IDX 4 13 3 14 2 15 1 16
REMARK H PARENT
REMARK Flexibility Score: inf
ROOT
ATOM      1  C   UNL     1     -23.574   1.881 -33.796  1.00  0.00     0.000 C 
ENDROOT
BRANCH   1   2
ATOM      2  C   UNL     1     -23.128   2.564 -35.100  1.00  0.00     0.000 C 
BRANCH   2   3
ATOM      3  C   UNL     1     -22.737   4.037 -34.889  1.00  0.00     0.000 C 
BRANCH   3   4
ATOM      4  C   UNL     1     -23.503   4.999 -35.817  1.00  0.00     0.000 C 
BRANCH   4   5
ATOM      5  C   UNL     1     -24.693   4.373 -36.566  1.00  0.00     0.006 C 
BRANCH   5   6
ATOM      6  C   UNL     1     -24.626   4.591 -38.083  1.00  0.00     0.053 C 
BRANCH   6   7
ATOM      7  C   UNL     1     -23.330   4.076 -38.627  1.00  0.00     0.041 C 
ATOM      8  O   UNL     1     -22.398   4.876 -38.905  1.00  0.00    -0.550 OA
ATOM      9  O   UNL     1     -23.134   2.710 -38.781  1.00  0.00    -0.550 OA
ENDBRANCH   6   7
ENDBRANCH   5   6
ENDBRANCH   4   5
ENDBRANCH   3   4
ENDBRANCH   2   3
ENDBRANCH   1   2
BRANCH   1  10
ATOM     10  C   UNL     1     -24.244   2.861 -32.818  1.00  0.00     0.000 C 
BRANCH  10  11
ATOM     11  C   UNL     1     -25.673   3.244 -33.242  1.00  0.00    -0.000 C 
BRANCH  11  12
ATOM     12  C   UNL     1     -26.045   4.724 -33.017  1.00  0.00    -0.000 C 
BRANCH  12  13
ATOM     13  C   UNL     1     -27.458   5.124 -33.486  1.00  0.00    -0.000 C 
BRANCH  13  14
ATOM     14  C   UNL     1     -28.216   4.035 -34.265  1.00  0.00    -0.000 C 
BRANCH  14  15
ATOM     15  C   UNL     1     -29.124   4.611 -35.362  1.00  0.00    -0.003 C 
ATOM     16  C   UNL     1     -28.365   4.774 -36.675  1.00  0.00     0.004 C 
ENDBRANCH  14  15
ENDBRANCH  13  14
ENDBRANCH  12  13
ENDBRANCH  11  12
ENDBRANCH  10  11
ENDBRANCH   1  10
TORSDOF 12
ENDMDL
MODEL 3
REMARK VINA RESULT:    -2.394      2.178      4.891
REMARK INTER + INTRA:          -5.497
REMARK INTER:                  -5.260
REMARK INTRA:                  -0.237
REMARK UNBOUND:                -1.424
REMARK SMILES CCCCCCCCCCCCCC(=O)[O-]
REMARK SMILES IDX 8 1 9 2 10 3 11 4 12 5 13 6 14 7 15 8 16 9 7 10 6 11 5 12
REMARK SMILES IDX 4 13 3 14 2 15 1 16
REMARK H PARENT
REMARK Flexibility Score: inf
ROOT
ATOM      1  C   UNL     1     -23.492   1.949 -33.139  1.00  0.00     0.000 C 
ENDROOT
BRANCH   1   2
ATOM      2  C   UNL     1     -22.671   2.468 -34.331  1.00  0.00     0.000 C 
BRANCH   2   3
ATOM      3  C   UNL     1     -23.440   2.377 -35.660  1.00  0.00     0.000 C 
BRANCH   3   4
ATOM      4  C   UNL     1     -24.180   3.680 -36.016  1.00  0.00     0.000 C 
BRANCH   4   5
ATOM      5  C   UNL     1     -23.274   4.903 -36.241  1.00  0.00     0.006 C 
BRANCH   5   6
ATOM      6  C   UNL     1     -22.746   5.001 -37.678  1.00  0.00     0.053 C 
BRANCH   6   7
ATOM      7  C   UNL     1     -23.735   4.421 -38.638  1.00  0.00     0.041 C 
ATOM      8  O   UNL     1     -23.549   3.274 -39.125  1.00  0.00    -0.550 OA
ATOM      9  O   UNL     1     -24.889   5.125 -38.959  1.00  0.00    -0.550 OA
ENDBRANCH   6   7
ENDBRANCH   5   6
ENDBRANCH   4   5
ENDBRANCH   3   4
ENDBRANCH   2   3
ENDBRANCH   1   2
BRANCH   1  10
ATOM     10  C   UNL     1     -24.910   2.542 -33.097  1.00  0.00     0.000 C 
BRANCH  10  11
ATOM     11  C   UNL     1     -25.015   3.775 -32.182  1.00  0.00    -0.000 C 
BRANCH  11  12
ATOM     12  C   UNL     1     -25.384   5.090 -32.899  1.00  0.00    -0.000 C 
BRANCH  12  13
ATOM     13  C   UNL     1     -26.716   5.065 -33.673  1.00  0.00    -0.000 C 
BRANCH  13  14
ATOM     14  C   UNL     1     -27.459   3.717 -33.643  1.00  0.00    -0.000 C 
BRANCH  14  15
ATOM     15  C   UNL     1     -28.804   3.763 -34.384  1.00  0.00    -0.003 C 
ATOM     16  C   UNL     1     -28.744   4.715 -35.574  1.00  0.00     0.004 C 
ENDBRANCH  14  15
ENDBRANCH  13  14
ENDBRANCH  12  13
ENDBRANCH  11  12
ENDBRANCH  10  11
ENDBRANCH   1  10
TORSDOF 12
ENDMDL
MODEL 4
REMARK VINA RESULT:    -2.383      1.090      1.938
REMARK INTER + INTRA:          -5.479
REMARK INTER:                  -4.472
REMARK INTRA:                  -1.006
REMARK UNBOUND:                -1.424
REMARK SMILES CCCCCCCCCCCCCC(=O)[O-]
REMARK SMILES IDX 8 1 9 2 10 3 11 4 12 5 13 6 14 7 15 8 16 9 7 10 6 11 5 12
REMARK SMILES IDX 4 13 3 14 2 15 1 16
REMARK H PARENT
REMARK Flexibility Score: inf
ROOT
ATOM      1  C   UNL     1     -23.312   1.895 -34.176  1.00  0.00     0.000 C 
ENDROOT
BRANCH   1   2
ATOM      2  C   UNL     1     -24.279   2.187 -33.017  1.00  0.00     0.000 C 
BRANCH   2   3
ATOM      3  C   UNL     1     -24.211   3.651 -32.549  1.00  0.00     0.000 C 
BRANCH   3   4
ATOM      4  C   UNL     1     -25.598   4.314 -32.452  1.00  0.00     0.000 C 
BRANCH   4   5
ATOM      5  C   UNL     1     -26.111   4.946 -33.758  1.00  0.00     0.006 C 
BRANCH   5   6
ATOM      6  C   UNL     1     -26.997   3.997 -34.574  1.00  0.00     0.053 C 
BRANCH   6   7
ATOM      7  C   UNL     1     -28.371   4.571 -34.732  1.00  0.00     0.041 C 
ATOM      8  O   UNL     1     -28.864   4.725 -35.880  1.00  0.00    -0.550 OA
ATOM      9  O   UNL     1     -29.125   4.888 -33.610  1.00  0.00    -0.550 OA
ENDBRANCH   6   7
ENDBRANCH   5   6
ENDBRANCH   4   5
ENDBRANCH   3   4
ENDBRANCH   2   3
ENDBRANCH   1   2
BRANCH   1  10
ATOM     10  C   UNL     1     -23.623   2.732 -35.429  1.00  0.00     0.000 C 
BRANCH  10  11
ATOM     11  C   UNL     1     -22.481   2.709 -36.460  1.00  0.00    -0.000 C 
BRANCH  11  12
ATOM     12  C   UNL     1     -22.931   2.556 -37.927  1.00  0.00    -0.000 C 
BRANCH  12  13
ATOM     13  C   UNL     1     -22.396   3.630 -38.894  1.00  0.00    -0.000 C 
BRANCH  13  14
ATOM     14  C   UNL     1     -22.990   5.036 -38.695  1.00  0.00    -0.000 C 
BRANCH  14  15
ATOM     15  C   UNL     1     -24.463   5.125 -39.118  1.00  0.00    -0.003 C 
ATOM     16  C   UNL     1     -25.391   4.809 -37.949  1.00  0.00     0.004 C 
ENDBRANCH  14  15
ENDBRANCH  13  14
ENDBRANCH  12  13
ENDBRANCH  11  12
ENDBRANCH  10  11
ENDBRANCH   1  10
TORSDOF 12
ENDMDL
MODEL 5
REMARK VINA RESULT:    -2.218      3.518      6.093
REMARK INTER + INTRA:          -5.198
REMARK INTER:                  -4.162
REMARK INTRA:                  -1.036
REMARK UNBOUND:                -1.424
REMARK SMILES CCCCCCCCCCCCCC(=O)[O-]
REMARK SMILES IDX 8 1 9 2 10 3 11 4 12 5 13 6 14 7 15 8 16 9 7 10 6 11 5 12
REMARK SMILES IDX 4 13 3 14 2 15 1 16
REMARK H PARENT
REMARK Flexibility Score: inf
ROOT
ATOM      1  C   UNL     1     -22.985   2.725 -34.975  1.00  0.00     0.000 C 
ENDROOT
BRANCH   1   2
ATOM      2  C   UNL     1     -22.842   3.999 -35.824  1.00  0.00     0.000 C 
BRANCH   2   3
ATOM      3  C   UNL     1     -22.203   3.724 -37.197  1.00  0.00     0.000 C 
BRANCH   3   4
ATOM      4  C   UNL     1     -23.244   3.555 -38.319  1.00  0.00     0.000 C 
BRANCH   4   5
ATOM      5  C   UNL     1     -23.351   2.135 -38.902  1.00  0.00     0.006 C 
BRANCH   5   6
ATOM      6  C   UNL     1     -22.488   1.113 -38.151  1.00  0.00     0.053 C 
BRANCH   6   7
ATOM      7  C   UNL     1     -22.759  -0.270 -38.653  1.00  0.00     0.041 C 
ATOM      8  O   UNL     1     -23.890  -0.562 -39.125  1.00  0.00    -0.550 OA
ATOM      9  O   UNL     1     -21.750  -1.224 -38.646  1.00  0.00    -0.550 OA
ENDBRANCH   6   7
ENDBRANCH   5   6
ENDBRANCH   4   5
ENDBRANCH   3   4
ENDBRANCH   2   3
ENDBRANCH   1   2
BRANCH   1  10
ATOM     10  C   UNL     1     -24.432   2.484 -34.514  1.00  0.00     0.000 C 
BRANCH  10  11
ATOM     11  C   UNL     1     -24.589   2.547 -32.985  1.00  0.00    -0.000 C 
BRANCH  11  12
ATOM     12  C   UNL     1     -24.796   3.962 -32.408  1.00  0.00    -0.000 C 
BRANCH  12  13
ATOM     13  C   UNL     1     -25.498   4.960 -33.350  1.00  0.00    -0.000 C 
BRANCH  13  14
ATOM     14  C   UNL     1     -27.036   4.921 -33.308  1.00  0.00    -0.000 C 
BRANCH  14  15
ATOM     15  C   UNL     1     -27.649   4.281 -34.562  1.00  0.00    -0.003 C 
ATOM     16  C   UNL     1     -29.119   3.937 -34.340  1.00  0.00     0.004 C 
ENDBRANCH  14  15
ENDBRANCH  13  14
ENDBRANCH  12  13
ENDBRANCH  11  12
ENDBRANCH  10  11
ENDBRANCH   1  10
TORSDOF 12
ENDMDL
MODEL 6
REMARK VINA RESULT:    -2.202     13.789     15.877
REMARK INTER + INTRA:          -5.171
REMARK INTER:                  -4.709
REMARK INTRA:                  -0.462
REMARK UNBOUND:                -1.424
REMARK SMILES CCCCCCCCCCCCCC(=O)[O-]
REMARK SMILES IDX 8 1 9 2 10 3 11 4 12 5 13 6 14 7 15 8 16 9 7 10 6 11 5 12
REMARK SMILES IDX 4 13 3 14 2 15 1 16
REMARK H PARENT
REMARK Flexibility Score: inf
ROOT
ATOM      1  C   UNL     1     -10.310   0.466 -35.371  1.00  0.00     0.000 C 
ENDROOT
BRANCH   1   2
ATOM      2  C   UNL     1      -9.064   1.367 -35.384  1.00  0.00     0.000 C 
BRANCH   2   3
ATOM      3  C   UNL     1      -9.214   2.565 -36.338  1.00  0.00     0.000 C 
BRANCH   3   4
ATOM      4  C   UNL     1      -9.501   3.886 -35.600  1.00  0.00     0.000 C 
BRANCH   4   5
ATOM      5  C   UNL     1     -10.542   4.796 -36.275  1.00  0.00     0.006 C 
BRANCH   5   6
ATOM      6  C   UNL     1     -10.714   4.503 -37.770  1.00  0.00     0.053 C 
BRANCH   6   7
ATOM      7  C   UNL     1     -12.102   4.019 -38.052  1.00  0.00     0.041 C 
ATOM      8  O   UNL     1     -12.912   4.748 -38.682  1.00  0.00    -0.550 OA
ATOM      9  O   UNL     1     -12.486   2.742 -37.661  1.00  0.00    -0.550 OA
ENDBRANCH   6   7
ENDBRANCH   5   6
ENDBRANCH   4   5
ENDBRANCH   3   4
ENDBRANCH   2   3
ENDBRANCH   1   2
BRANCH   1  10
ATOM     10  C   UNL     1     -10.425  -0.399 -36.637  1.00  0.00     0.000 C 
BRANCH  10  11
ATOM     11  C   UNL     1      -9.209  -0.258 -37.569  1.00  0.00    -0.000 C 
BRANCH  11  12
ATOM     12  C   UNL     1      -9.082  -1.352 -38.648  1.00  0.00    -0.000 C 
BRANCH  12  13
ATOM     13  C   UNL     1      -8.958  -2.792 -38.112  1.00  0.00    -0.000 C 
BRANCH  13  14
ATOM     14  C   UNL     1      -9.314  -3.895 -39.125  1.00  0.00    -0.000 C 
BRANCH  14  15
ATOM     15  C   UNL     1     -10.547  -4.710 -38.708  1.00  0.00    -0.003 C 
ATOM     16  C   UNL     1     -10.836  -4.548 -37.219  1.00  0.00     0.004 C 
ENDBRANCH  14  15
ENDBRANCH  13  14
ENDBRANCH  12  13
ENDBRANCH  11  12
ENDBRANCH  10  11
ENDBRANCH   1  10
TORSDOF 12
ENDMDL
MODEL 7
REMARK VINA RESULT:    -1.968     15.319     16.818
REMARK INTER + INTRA:          -4.772
REMARK INTER:                  -4.215
REMARK INTRA:                  -0.556
REMARK UNBOUND:                -1.424
REMARK SMILES CCCCCCCCCCCCCC(=O)[O-]
REMARK SMILES IDX 8 1 9 2 10 3 11 4 12 5 13 6 14 7 15 8 16 9 7 10 6 11 5 12
REMARK SMILES IDX 4 13 3 14 2 15 1 16
REMARK H PARENT
REMARK Flexibility Score: inf
ROOT
ATOM      1  C   UNL     1      -9.041   0.072 -36.357  1.00  0.00     0.000 C 
ENDROOT
BRANCH   1   2
ATOM      2  C   UNL     1      -9.944  -0.095 -37.591  1.00  0.00     0.000 C 
BRANCH   2   3
ATOM      3  C   UNL     1      -9.156  -0.514 -38.844  1.00  0.00     0.000 C 
BRANCH   3   4
ATOM      4  C   UNL     1      -9.100  -2.042 -39.034  1.00  0.00     0.000 C 
BRANCH   4   5
ATOM      5  C   UNL     1      -8.875  -2.852 -37.746  1.00  0.00     0.006 C 
BRANCH   5   6
ATOM      6  C   UNL     1      -9.399  -4.290 -37.844  1.00  0.00     0.053 C 
BRANCH   6   7
ATOM      7  C   UNL     1     -10.778  -4.384 -37.270  1.00  0.00     0.041 C 
ATOM      8  O   UNL     1     -11.152  -3.572 -36.383  1.00  0.00    -0.550 OA
ATOM      9  O   UNL     1     -11.668  -5.336 -37.751  1.00  0.00    -0.550 OA
ENDBRANCH   6   7
ENDBRANCH   5   6
ENDBRANCH   4   5
ENDBRANCH   3   4
ENDBRANCH   2   3
ENDBRANCH   1   2
BRANCH   1  10
ATOM     10  C   UNL     1      -9.269   1.412 -35.638  1.00  0.00     0.000 C 
BRANCH  10  11
ATOM     11  C   UNL     1     -10.418   2.231 -36.252  1.00  0.00    -0.000 C 
BRANCH  11  12
ATOM     12  C   UNL     1      -9.988   3.542 -36.943  1.00  0.00    -0.000 C 
BRANCH  12  13
ATOM     13  C   UNL     1     -10.071   4.805 -36.065  1.00  0.00    -0.000 C 
BRANCH  13  14
ATOM     14  C   UNL     1      -9.220   4.762 -34.783  1.00  0.00    -0.000 C 
BRANCH  14  15
ATOM     15  C   UNL     1     -10.068   4.798 -33.503  1.00  0.00    -0.003 C 
ATOM     16  C   UNL     1      -9.442   3.945 -32.404  1.00  0.00     0.004 C 
ENDBRANCH  14  15
ENDBRANCH  13  14
ENDBRANCH  12  13
ENDBRANCH  11  12
ENDBRANCH  10  11
ENDBRANCH   1  10
TORSDOF 12
ENDMDL
