MODEL 1
REMARK VINA RESULT:    -5.131      0.000      0.000
REMARK INTER + INTRA:          -8.000
REMARK INTER:                  -6.781
REMARK INTRA:                  -1.219
REMARK UNBOUND:                -1.219
REMARK SMILES CC[C@H](C=C[C@H](C)[C@H]1CC[C@@H]2[C@H]3CC=C4C[C@H](O)CC[C@]4(C)[C@H]3CC[C@]21C)C(C)C
REMARK SMILES IDX 6 1 7 2 5 3 4 4 3 5 2 6 1 7 28 8 29 9 30 10 8 11 9 12 26 13
REMARK SMILES IDX 10 14 11 15 25 16 27 17 12 18 24 19 23 20 13 21 21 22 14 23
REMARK SMILES IDX 15 24 20 25 22 26 16 27 19 28 17 29 18 30
REMARK H PARENT 18 31
REMARK Flexibility Score: inf
ROOT
ATOM      1  C   UNL     1       2.754  -5.358  -1.850  1.00  0.00     0.012 C 
ATOM      2  C   UNL     1       2.607  -6.362  -0.689  1.00  0.00     0.012 C 
ENDROOT
BRANCH   1   3
ATOM      3  C   UNL     1       3.891  -4.412  -1.507  1.00  0.00    -0.028 C 
ATOM      4  C   UNL     1       3.743  -3.076  -1.440  1.00  0.00    -0.027 C 
BRANCH   4   5
ATOM      5  C   UNL     1       4.904  -2.174  -1.070  1.00  0.00     0.014 C 
BRANCH   5   6
ATOM      6  C   UNL     1       6.232  -2.955  -1.226  1.00  0.00     0.004 C 
ATOM      7  C   UNL     1       7.091  -2.912   0.039  1.00  0.00     0.004 C 
ENDBRANCH   5   6
BRANCH   5   8
ATOM      8  C   UNL     1       4.884  -0.875  -1.938  1.00  0.00    -0.011 C 
ATOM      9  C   UNL     1       5.637   0.282  -1.248  1.00  0.00     0.008 C 
ATOM     10  C   UNL     1       5.499  -1.110  -3.331  1.00  0.00     0.008 C 
ENDBRANCH   5   8
ENDBRANCH   4   5
ENDBRANCH   1   3
BRANCH   1  11
ATOM     11  C   UNL     1       2.959  -6.011  -3.272  1.00  0.00     0.002 C 
ATOM     12  C   UNL     1       2.601  -7.528  -3.331  1.00  0.00     0.005 C 
ATOM     13  C   UNL     1       2.110  -5.400  -4.447  1.00  0.00    -0.026 C 
ATOM     14  C   UNL     1       1.306  -7.680  -4.136  1.00  0.00     0.005 C 
ATOM     15  C   UNL     1       0.832  -6.259  -4.398  1.00  0.00    -0.001 C 
ATOM     16  C   UNL     1       1.706  -3.884  -4.389  1.00  0.00     0.007 C 
ATOM     17  C   UNL     1       2.920  -5.623  -5.766  1.00  0.00     0.012 C 
ATOM     18  C   UNL     1      -0.074  -6.054  -5.637  1.00  0.00     0.000 C 
ATOM     19  C   UNL     1       0.246  -3.598  -4.819  1.00  0.00     0.005 C 
ATOM     20  C   UNL     1      -0.284  -4.521  -5.957  1.00  0.00     0.003 C 
ATOM     21  C   UNL     1      -1.396  -6.828  -5.498  1.00  0.00     0.031 C 
ATOM     22  C   UNL     1      -1.752  -4.133  -6.437  1.00  0.00    -0.008 C 
ATOM     23  C   UNL     1      -2.253  -6.563  -6.697  1.00  0.00    -0.027 C 
ATOM     24  C   UNL     1      -2.401  -5.312  -7.167  1.00  0.00    -0.065 C 
ATOM     25  C   UNL     1      -1.663  -2.929  -7.425  1.00  0.00     0.014 C 
ATOM     26  C   UNL     1      -2.669  -3.729  -5.249  1.00  0.00     0.016 C 
ATOM     27  C   UNL     1      -3.107  -5.091  -8.488  1.00  0.00     0.063 C 
ATOM     28  C   UNL     1      -3.009  -2.555  -8.080  1.00  0.00     0.033 C 
ATOM     29  C   UNL     1      -3.888  -3.771  -8.475  1.00  0.00     0.118 C 
BRANCH  29  30
ATOM     30  O   UNL     1      -4.453  -3.567  -9.743  1.00  0.00    -0.393 OA
ATOM     31  H   UNL     1      -4.400  -4.435 -10.223  1.00  0.00     0.210 HD
ENDBRANCH  29  30
ENDBRANCH   1  11
TORSDOF 6
ENDMDL
MODEL 2
REMARK VINA RESULT:    -5.035      4.848      9.343
REMARK INTER + INTRA:          -7.873
REMARK INTER:                  -6.347
REMARK INTRA:                  -1.526
REMARK UNBOUND:                -1.219
REMARK SMILES CC[C@H](C=C[C@H](C)[C@H]1CC[C@@H]2[C@H]3CC=C4C[C@H](O)CC[C@]4(C)[C@H]3CC[C@]21C)C(C)C
REMARK SMILES IDX 6 1 7 2 5 3 4 4 3 5 2 6 1 7 28 8 29 9 30 10 8 11 9 12 26 13
REMARK SMILES IDX 10 14 11 15 25 16 27 17 12 18 24 19 23 20 13 21 21 22 14 23
REMARK SMILES IDX 15 24 20 25 22 26 16 27 19 28 17 29 18 30
REMARK H PARENT 18 31
REMARK Flexibility Score: inf
ROOT
ATOM      1  C   UNL     1       7.162  -2.726  -2.453  1.00  0.00     0.012 C 
ATOM      2  C   UNL     1       8.511  -3.470  -2.473  1.00  0.00     0.012 C 
ENDROOT
BRANCH   1   3
ATOM      3  C   UNL     1       6.056  -3.766  -2.423  1.00  0.00    -0.028 C 
ATOM      4  C   UNL     1       5.153  -3.852  -1.429  1.00  0.00    -0.027 C 
BRANCH   4   5
ATOM      5  C   UNL     1       4.051  -4.895  -1.456  1.00  0.00     0.014 C 
BRANCH   5   6
ATOM      6  C   UNL     1       4.141  -5.770  -0.182  1.00  0.00     0.004 C 
ATOM      7  C   UNL     1       2.770  -6.249   0.300  1.00  0.00     0.004 C 
ENDBRANCH   5   6
BRANCH   5   8
ATOM      8  C   UNL     1       2.655  -4.209  -1.597  1.00  0.00    -0.011 C 
ATOM      9  C   UNL     1       2.667  -2.771  -1.036  1.00  0.00     0.008 C 
ATOM     10  C   UNL     1       2.183  -4.169  -3.063  1.00  0.00     0.008 C 
ENDBRANCH   5   8
ENDBRANCH   4   5
ENDBRANCH   1   3
BRANCH   1  11
ATOM     11  C   UNL     1       6.997  -1.680  -1.283  1.00  0.00     0.002 C 
ATOM     12  C   UNL     1       8.348  -1.153  -0.709  1.00  0.00     0.005 C 
ATOM     13  C   UNL     1       6.222  -0.357  -1.637  1.00  0.00    -0.026 C 
ATOM     14  C   UNL     1       8.517   0.305  -1.151  1.00  0.00     0.005 C 
ATOM     15  C   UNL     1       7.363   0.566  -2.106  1.00  0.00    -0.001 C 
ATOM     16  C   UNL     1       5.111  -0.397  -2.746  1.00  0.00     0.007 C 
ATOM     17  C   UNL     1       5.555   0.154  -0.318  1.00  0.00     0.012 C 
ATOM     18  C   UNL     1       6.916   2.041  -2.255  1.00  0.00     0.000 C 
ATOM     19  C   UNL     1       5.137   0.811  -3.715  1.00  0.00     0.005 C 
ATOM     20  C   UNL     1       5.558   2.159  -3.056  1.00  0.00     0.003 C 
ATOM     21  C   UNL     1       8.040   2.910  -2.844  1.00  0.00     0.031 C 
ATOM     22  C   UNL     1       5.479   3.392  -4.061  1.00  0.00    -0.008 C 
ATOM     23  C   UNL     1       7.546   4.314  -3.011  1.00  0.00    -0.027 C 
ATOM     24  C   UNL     1       6.336   4.552  -3.546  1.00  0.00    -0.065 C 
ATOM     25  C   UNL     1       3.999   3.876  -4.158  1.00  0.00     0.014 C 
ATOM     26  C   UNL     1       5.970   3.017  -5.487  1.00  0.00     0.016 C 
ATOM     27  C   UNL     1       5.774   5.958  -3.525  1.00  0.00     0.063 C 
ATOM     28  C   UNL     1       3.814   5.164  -4.986  1.00  0.00     0.033 C 
ATOM     29  C   UNL     1       4.926   6.226  -4.774  1.00  0.00     0.118 C 
BRANCH  29  30
ATOM     30  O   UNL     1       4.358   7.505  -4.670  1.00  0.00    -0.393 OA
ATOM     31  H   UNL     1       3.942   7.561  -3.769  1.00  0.00     0.210 HD
ENDBRANCH  29  30
ENDBRANCH   1  11
TORSDOF 6
ENDMDL
MODEL 3
REMARK VINA RESULT:    -5.020      8.933     10.790
REMARK INTER + INTRA:          -7.853
REMARK INTER:                  -6.747
REMARK INTRA:                  -1.106
REMARK UNBOUND:                -1.219
REMARK SMILES CC[C@H](C=C[C@H](C)[C@H]1CC[C@@H]2[C@H]3CC=C4C[C@H](O)CC[C@]4(C)[C@H]3CC[C@]21C)C(C)C
REMARK SMILES IDX 6 1 7 2 5 3 4 4 3 5 2 6 1 7 28 8 29 9 30 10 8 11 9 12 26 13
REMARK SMILES IDX 10 14 11 15 25 16 27 17 12 18 24 19 23 20 13 21 21 22 14 23
REMARK SMILES IDX 15 24 20 25 22 26 16 27 19 28 17 29 18 30
REMARK H PARENT 18 31
REMARK Flexibility Score: inf
ROOT
ATOM      1  C   UNL     1       7.619   0.626   0.705  1.00  0.00     0.012 C 
ATOM      2  C   UNL     1       7.293  -0.803   0.228  1.00  0.00     0.012 C 
ENDROOT
BRANCH   1   3
ATOM      3  C   UNL     1       8.009   0.551   2.171  1.00  0.00    -0.028 C 
ATOM      4  C   UNL     1       7.922   1.598   3.011  1.00  0.00    -0.027 C 
BRANCH   4   5
ATOM      5  C   UNL     1       8.302   1.467   4.474  1.00  0.00     0.014 C 
BRANCH   5   6
ATOM      6  C   UNL     1       9.818   1.177   4.587  1.00  0.00     0.004 C 
ATOM      7  C   UNL     1      10.111  -0.172   5.248  1.00  0.00     0.004 C 
ENDBRANCH   5   6
BRANCH   5   8
ATOM      8  C   UNL     1       7.892   2.752   5.261  1.00  0.00    -0.011 C 
ATOM      9  C   UNL     1       6.777   2.460   6.288  1.00  0.00     0.008 C 
ATOM     10  C   UNL     1       9.093   3.380   5.994  1.00  0.00     0.008 C 
ENDBRANCH   5   8
ENDBRANCH   4   5
ENDBRANCH   1   3
BRANCH   1  11
ATOM     11  C   UNL     1       8.718   1.376  -0.143  1.00  0.00     0.002 C 
ATOM     12  C   UNL     1       9.420   0.477  -1.207  1.00  0.00     0.005 C 
ATOM     13  C   UNL     1       8.223   2.607  -0.990  1.00  0.00    -0.026 C 
ATOM     14  C   UNL     1       8.940   0.918  -2.594  1.00  0.00     0.005 C 
ATOM     15  C   UNL     1       7.850   1.944  -2.329  1.00  0.00    -0.001 C 
ATOM     16  C   UNL     1       6.998   3.443  -0.476  1.00  0.00     0.007 C 
ATOM     17  C   UNL     1       9.436   3.584  -1.134  1.00  0.00     0.012 C 
ATOM     18  C   UNL     1       7.589   2.975  -3.454  1.00  0.00     0.000 C 
ATOM     19  C   UNL     1       5.989   3.837  -1.583  1.00  0.00     0.005 C 
ATOM     20  C   UNL     1       6.635   4.137  -2.969  1.00  0.00     0.003 C 
ATOM     21  C   UNL     1       7.098   2.288  -4.740  1.00  0.00     0.031 C 
ATOM     22  C   UNL     1       5.578   4.632  -4.052  1.00  0.00    -0.008 C 
ATOM     23  C   UNL     1       6.818   3.328  -5.781  1.00  0.00    -0.027 C 
ATOM     24  C   UNL     1       6.138   4.445  -5.465  1.00  0.00    -0.065 C 
ATOM     25  C   UNL     1       5.293   6.149  -3.831  1.00  0.00     0.014 C 
ATOM     26  C   UNL     1       4.233   3.858  -3.954  1.00  0.00     0.016 C 
ATOM     27  C   UNL     1       6.037   5.567  -6.476  1.00  0.00     0.063 C 
ATOM     28  C   UNL     1       4.397   6.783  -4.915  1.00  0.00     0.033 C 
ATOM     29  C   UNL     1       4.689   6.289  -6.356  1.00  0.00     0.118 C 
BRANCH  29  30
ATOM     30  O   UNL     1       4.675   7.372  -7.249  1.00  0.00    -0.393 OA
ATOM     31  H   UNL     1       3.872   7.259  -7.823  1.00  0.00     0.210 HD
ENDBRANCH  29  30
ENDBRANCH   1  11
TORSDOF 6
ENDMDL
MODEL 4
REMARK VINA RESULT:    -5.008      8.527     11.984
REMARK INTER + INTRA:          -7.837
REMARK INTER:                  -6.420
REMARK INTRA:                  -1.417
REMARK UNBOUND:                -1.219
REMARK SMILES CC[C@H](C=C[C@H](C)[C@H]1CC[C@@H]2[C@H]3CC=C4C[C@H](O)CC[C@]4(C)[C@H]3CC[C@]21C)C(C)C
REMARK SMILES IDX 6 1 7 2 5 3 4 4 3 5 2 6 1 7 28 8 29 9 30 10 8 11 9 12 26 13
REMARK SMILES IDX 10 14 11 15 25 16 27 17 12 18 24 19 23 20 13 21 21 22 14 23
REMARK SMILES IDX 15 24 20 25 22 26 16 27 19 28 17 29 18 30
REMARK H PARENT 18 31
REMARK Flexibility Score: inf
ROOT
ATOM      1  C   UNL     1       4.814   7.099  -7.190  1.00  0.00     0.012 C 
ATOM      2  C   UNL     1       5.318   7.980  -6.029  1.00  0.00     0.012 C 
ENDROOT
BRANCH   1   3
ATOM      3  C   UNL     1       6.023   6.450  -7.841  1.00  0.00    -0.028 C 
ATOM      4  C   UNL     1       7.235   6.402  -7.259  1.00  0.00    -0.027 C 
BRANCH   4   5
ATOM      5  C   UNL     1       8.408   5.720  -7.939  1.00  0.00     0.014 C 
BRANCH   5   6
ATOM      6  C   UNL     1       9.661   6.623  -7.829  1.00  0.00     0.004 C 
ATOM      7  C   UNL     1       9.313   8.112  -7.805  1.00  0.00     0.004 C 
ENDBRANCH   5   6
BRANCH   5   8
ATOM      8  C   UNL     1       8.649   4.306  -7.322  1.00  0.00    -0.011 C 
ATOM      9  C   UNL     1       8.389   4.296  -5.801  1.00  0.00     0.008 C 
ATOM     10  C   UNL     1       7.764   3.234  -7.986  1.00  0.00     0.008 C 
ENDBRANCH   5   8
ENDBRANCH   4   5
ENDBRANCH   1   3
BRANCH   1  11
ATOM     11  C   UNL     1       3.732   6.023  -6.788  1.00  0.00     0.002 C 
ATOM     12  C   UNL     1       3.690   4.784  -7.733  1.00  0.00     0.005 C 
ATOM     13  C   UNL     1       3.891   5.377  -5.362  1.00  0.00    -0.026 C 
ATOM     14  C   UNL     1       4.262   3.584  -6.971  1.00  0.00     0.005 C 
ATOM     15  C   UNL     1       4.782   4.157  -5.662  1.00  0.00    -0.001 C 
ATOM     16  C   UNL     1       4.550   6.218  -4.212  1.00  0.00     0.007 C 
ATOM     17  C   UNL     1       2.462   4.960  -4.884  1.00  0.00     0.012 C 
ATOM     18  C   UNL     1       4.870   3.173  -4.469  1.00  0.00     0.000 C 
ATOM     19  C   UNL     1       5.550   5.423  -3.337  1.00  0.00     0.005 C 
ATOM     20  C   UNL     1       5.168   3.929  -3.113  1.00  0.00     0.003 C 
ATOM     21  C   UNL     1       5.864   2.035  -4.755  1.00  0.00     0.031 C 
ATOM     22  C   UNL     1       6.167   3.173  -2.131  1.00  0.00    -0.008 C 
ATOM     23  C   UNL     1       5.948   1.139  -3.558  1.00  0.00    -0.027 C 
ATOM     24  C   UNL     1       6.055   1.658  -2.322  1.00  0.00    -0.065 C 
ATOM     25  C   UNL     1       5.787   3.514  -0.657  1.00  0.00     0.014 C 
ATOM     26  C   UNL     1       7.646   3.588  -2.367  1.00  0.00     0.016 C 
ATOM     27  C   UNL     1       5.940   0.748  -1.118  1.00  0.00     0.063 C 
ATOM     28  C   UNL     1       6.589   2.721   0.396  1.00  0.00     0.033 C 
ATOM     29  C   UNL     1       6.841   1.236   0.023  1.00  0.00     0.118 C 
BRANCH  29  30
ATOM     30  O   UNL     1       6.637   0.416   1.143  1.00  0.00    -0.393 OA
ATOM     31  H   UNL     1       6.068  -0.342   0.843  1.00  0.00     0.210 HD
ENDBRANCH  29  30
ENDBRANCH   1  11
TORSDOF 6
ENDMDL
MODEL 5
REMARK VINA RESULT:    -4.883      3.090      8.720
REMARK INTER + INTRA:          -7.671
REMARK INTER:                  -6.212
REMARK INTRA:                  -1.460
REMARK UNBOUND:                -1.219
REMARK SMILES CC[C@H](C=C[C@H](C)[C@H]1CC[C@@H]2[C@H]3CC=C4C[C@H](O)CC[C@]4(C)[C@H]3CC[C@]21C)C(C)C
REMARK SMILES IDX 6 1 7 2 5 3 4 4 3 5 2 6 1 7 28 8 29 9 30 10 8 11 9 12 26 13
REMARK SMILES IDX 10 14 11 15 25 16 27 17 12 18 24 19 23 20 13 21 21 22 14 23
REMARK SMILES IDX 15 24 20 25 22 26 16 27 19 28 17 29 18 30
REMARK H PARENT 18 31
REMARK Flexibility Score: inf
ROOT
ATOM      1  C   UNL     1      -1.302  -4.369  -8.734  1.00  0.00     0.012 C 
ATOM      2  C   UNL     1      -0.843  -4.849 -10.125  1.00  0.00     0.012 C 
ENDROOT
BRANCH   1   3
ATOM      3  C   UNL     1      -2.532  -3.499  -8.924  1.00  0.00    -0.028 C 
ATOM      4  C   UNL     1      -3.703  -3.735  -8.304  1.00  0.00    -0.027 C 
BRANCH   4   5
ATOM      5  C   UNL     1      -4.898  -2.822  -8.507  1.00  0.00     0.014 C 
BRANCH   5   6
ATOM      6  C   UNL     1      -6.080  -3.643  -9.080  1.00  0.00     0.004 C 
ATOM      7  C   UNL     1      -5.618  -4.897  -9.825  1.00  0.00     0.004 C 
ENDBRANCH   5   6
BRANCH   5   8
ATOM      8  C   UNL     1      -5.275  -2.110  -7.169  1.00  0.00    -0.011 C 
ATOM      9  C   UNL     1      -6.790  -2.189  -6.889  1.00  0.00     0.008 C 
ATOM     10  C   UNL     1      -4.515  -2.708  -5.970  1.00  0.00     0.008 C 
ENDBRANCH   5   8
ENDBRANCH   4   5
ENDBRANCH   1   3
BRANCH   1  11
ATOM     11  C   UNL     1      -1.569  -5.520  -7.688  1.00  0.00     0.002 C 
ATOM     12  C   UNL     1      -1.025  -6.914  -8.127  1.00  0.00     0.005 C 
ATOM     13  C   UNL     1      -0.934  -5.324  -6.262  1.00  0.00    -0.026 C 
ATOM     14  C   UNL     1       0.186  -7.249  -7.251  1.00  0.00     0.005 C 
ATOM     15  C   UNL     1       0.442  -5.995  -6.430  1.00  0.00    -0.001 C 
ATOM     16  C   UNL     1      -0.727  -3.869  -5.712  1.00  0.00     0.007 C 
ATOM     17  C   UNL     1      -1.842  -6.089  -5.244  1.00  0.00     0.012 C 
ATOM     18  C   UNL     1       1.179  -6.195  -5.082  1.00  0.00     0.000 C 
ATOM     19  C   UNL     1       0.630  -3.645  -5.000  1.00  0.00     0.005 C 
ATOM     20  C   UNL     1       1.154  -4.880  -4.206  1.00  0.00     0.003 C 
ATOM     21  C   UNL     1       2.597  -6.749  -5.297  1.00  0.00     0.031 C 
ATOM     22  C   UNL     1       2.500  -4.580  -3.410  1.00  0.00    -0.008 C 
ATOM     23  C   UNL     1       3.283  -6.881  -3.972  1.00  0.00    -0.027 C 
ATOM     24  C   UNL     1       3.217  -5.889  -3.067  1.00  0.00    -0.065 C 
ATOM     25  C   UNL     1       2.153  -3.844  -2.080  1.00  0.00     0.014 C 
ATOM     26  C   UNL     1       3.477  -3.689  -4.228  1.00  0.00     0.016 C 
ATOM     27  C   UNL     1       3.746  -6.120  -1.668  1.00  0.00     0.063 C 
ATOM     28  C   UNL     1       3.363  -3.632  -1.147  1.00  0.00     0.033 C 
ATOM     29  C   UNL     1       4.346  -4.831  -1.092  1.00  0.00     0.118 C 
BRANCH  29  30
ATOM     30  O   UNL     1       4.743  -5.070   0.233  1.00  0.00    -0.393 OA
ATOM     31  H   UNL     1       5.686  -4.764   0.308  1.00  0.00     0.210 HD
ENDBRANCH  29  30
ENDBRANCH   1  11
TORSDOF 6
ENDMDL
MODEL 6
REMARK VINA RESULT:    -4.858      6.254     10.264
REMARK INTER + INTRA:          -7.639
REMARK INTER:                  -6.308
REMARK INTRA:                  -1.332
REMARK UNBOUND:                -1.219
REMARK SMILES CC[C@H](C=C[C@H](C)[C@H]1CC[C@@H]2[C@H]3CC=C4C[C@H](O)CC[C@]4(C)[C@H]3CC[C@]21C)C(C)C
REMARK SMILES IDX 6 1 7 2 5 3 4 4 3 5 2 6 1 7 28 8 29 9 30 10 8 11 9 12 26 13
REMARK SMILES IDX 10 14 11 15 25 16 27 17 12 18 24 19 23 20 13 21 21 22 14 23
REMARK SMILES IDX 15 24 20 25 22 26 16 27 19 28 17 29 18 30
REMARK H PARENT 18 31
REMARK Flexibility Score: inf
ROOT
ATOM      1  C   UNL     1       8.057   0.532   0.197  1.00  0.00     0.012 C 
ATOM      2  C   UNL     1       7.171   1.272   1.218  1.00  0.00     0.012 C 
ENDROOT
BRANCH   1   3
ATOM      3  C   UNL     1       7.144  -0.208  -0.764  1.00  0.00    -0.028 C 
ATOM      4  C   UNL     1       5.801  -0.176  -0.675  1.00  0.00    -0.027 C 
BRANCH   4   5
ATOM      5  C   UNL     1       4.930  -0.913  -1.674  1.00  0.00     0.014 C 
BRANCH   5   6
ATOM      6  C   UNL     1       5.599  -0.870  -3.070  1.00  0.00     0.004 C 
ATOM      7  C   UNL     1       5.055   0.259  -3.948  1.00  0.00     0.004 C 
ENDBRANCH   5   6
BRANCH   5   8
ATOM      8  C   UNL     1       4.670  -2.377  -1.195  1.00  0.00    -0.011 C 
ATOM      9  C   UNL     1       3.163  -2.709  -1.168  1.00  0.00     0.008 C 
ATOM     10  C   UNL     1       5.391  -3.406  -2.086  1.00  0.00     0.008 C 
ENDBRANCH   5   8
ENDBRANCH   4   5
ENDBRANCH   1   3
BRANCH   1  11
ATOM     11  C   UNL     1       9.084   1.447  -0.577  1.00  0.00     0.002 C 
ATOM     12  C   UNL     1       9.879   0.702  -1.694  1.00  0.00     0.005 C 
ATOM     13  C   UNL     1       8.478   2.683  -1.338  1.00  0.00    -0.026 C 
ATOM     14  C   UNL     1       9.368   1.196  -3.052  1.00  0.00     0.005 C 
ATOM     15  C   UNL     1       8.181   2.090  -2.728  1.00  0.00    -0.001 C 
ATOM     16  C   UNL     1       7.173   3.356  -0.782  1.00  0.00     0.007 C 
ATOM     17  C   UNL     1       9.590   3.781  -1.392  1.00  0.00     0.012 C 
ATOM     18  C   UNL     1       7.829   3.172  -3.778  1.00  0.00     0.000 C 
ATOM     19  C   UNL     1       6.139   3.732  -1.871  1.00  0.00     0.005 C 
ATOM     20  C   UNL     1       6.763   4.197  -3.222  1.00  0.00     0.003 C 
ATOM     21  C   UNL     1       7.417   2.539  -5.117  1.00  0.00     0.031 C 
ATOM     22  C   UNL     1       5.670   4.667  -4.281  1.00  0.00    -0.008 C 
ATOM     23  C   UNL     1       7.044   3.622  -6.083  1.00  0.00    -0.027 C 
ATOM     24  C   UNL     1       6.257   4.641  -5.695  1.00  0.00    -0.065 C 
ATOM     25  C   UNL     1       5.237   6.128  -3.952  1.00  0.00     0.014 C 
ATOM     26  C   UNL     1       4.407   3.761  -4.259  1.00  0.00     0.016 C 
ATOM     27  C   UNL     1       6.054   5.821  -6.622  1.00  0.00     0.063 C 
ATOM     28  C   UNL     1       4.291   6.752  -4.999  1.00  0.00     0.033 C 
ATOM     29  C   UNL     1       4.641   6.398  -6.469  1.00  0.00     0.118 C 
BRANCH  29  30
ATOM     30  O   UNL     1       4.528   7.538  -7.280  1.00  0.00    -0.393 OA
ATOM     31  H   UNL     1       5.452   7.800  -7.536  1.00  0.00     0.210 HD
ENDBRANCH  29  30
ENDBRANCH   1  11
TORSDOF 6
ENDMDL
MODEL 7
REMARK VINA RESULT:    -4.802      3.501      8.795
REMARK INTER + INTRA:          -7.565
REMARK INTER:                  -6.049
REMARK INTRA:                  -1.515
REMARK UNBOUND:                -1.219
REMARK SMILES CC[C@H](C=C[C@H](C)[C@H]1CC[C@@H]2[C@H]3CC=C4C[C@H](O)CC[C@]4(C)[C@H]3CC[C@]21C)C(C)C
REMARK SMILES IDX 6 1 7 2 5 3 4 4 3 5 2 6 1 7 28 8 29 9 30 10 8 11 9 12 26 13
REMARK SMILES IDX 10 14 11 15 25 16 27 17 12 18 24 19 23 20 13 21 21 22 14 23
REMARK SMILES IDX 15 24 20 25 22 26 16 27 19 28 17 29 18 30
REMARK H PARENT 18 31
REMARK Flexibility Score: inf
ROOT
ATOM      1  C   UNL     1       3.908  -6.231  -3.445  1.00  0.00     0.012 C 
ATOM      2  C   UNL     1       4.388  -7.676  -3.204  1.00  0.00     0.012 C 
ENDROOT
BRANCH   1   3
ATOM      3  C   UNL     1       2.864  -6.265  -4.547  1.00  0.00    -0.028 C 
ATOM      4  C   UNL     1       1.566  -5.977  -4.341  1.00  0.00    -0.027 C 
BRANCH   4   5
ATOM      5  C   UNL     1       0.565  -6.001  -5.481  1.00  0.00     0.014 C 
BRANCH   5   6
ATOM      6  C   UNL     1      -0.518  -7.069  -5.191  1.00  0.00     0.004 C 
ATOM      7  C   UNL     1      -1.924  -6.599  -5.570  1.00  0.00     0.004 C 
ENDBRANCH   5   6
BRANCH   5   8
ATOM      8  C   UNL     1      -0.055  -4.582  -5.692  1.00  0.00    -0.011 C 
ATOM      9  C   UNL     1       0.259  -3.642  -4.510  1.00  0.00     0.008 C 
ATOM     10  C   UNL     1       0.443  -3.929  -6.995  1.00  0.00     0.008 C 
ENDBRANCH   5   8
ENDBRANCH   4   5
ENDBRANCH   1   3
BRANCH   1  11
ATOM     11  C   UNL     1       3.364  -5.489  -2.163  1.00  0.00     0.002 C 
ATOM     12  C   UNL     1       3.961  -6.019  -0.823  1.00  0.00     0.005 C 
ATOM     13  C   UNL     1       3.640  -3.942  -2.086  1.00  0.00    -0.026 C 
ATOM     14  C   UNL     1       4.915  -4.953  -0.272  1.00  0.00     0.005 C 
ATOM     15  C   UNL     1       4.997  -3.894  -1.360  1.00  0.00    -0.001 C 
ATOM     16  C   UNL     1       3.747  -3.119  -3.419  1.00  0.00     0.007 C 
ATOM     17  C   UNL     1       2.492  -3.311  -1.232  1.00  0.00     0.012 C 
ATOM     18  C   UNL     1       5.380  -2.466  -0.900  1.00  0.00     0.000 C 
ATOM     19  C   UNL     1       4.896  -2.081  -3.435  1.00  0.00     0.005 C 
ATOM     20  C   UNL     1       5.179  -1.409  -2.057  1.00  0.00     0.003 C 
ATOM     21  C   UNL     1       6.792  -2.434  -0.293  1.00  0.00     0.031 C 
ATOM     22  C   UNL     1       6.299  -0.281  -2.136  1.00  0.00    -0.008 C 
ATOM     23  C   UNL     1       7.133  -1.027   0.094  1.00  0.00    -0.027 C 
ATOM     24  C   UNL     1       6.876  -0.007  -0.744  1.00  0.00    -0.065 C 
ATOM     25  C   UNL     1       5.660   1.036  -2.673  1.00  0.00     0.014 C 
ATOM     26  C   UNL     1       7.469  -0.682  -3.079  1.00  0.00     0.016 C 
ATOM     27  C   UNL     1       7.044   1.417  -0.259  1.00  0.00     0.063 C 
ATOM     28  C   UNL     1       6.613   2.249  -2.652  1.00  0.00     0.033 C 
ATOM     29  C   UNL     1       7.521   2.328  -1.396  1.00  0.00     0.118 C 
BRANCH  29  30
ATOM     30  O   UNL     1       7.579   3.648  -0.925  1.00  0.00    -0.393 OA
ATOM     31  H   UNL     1       6.715   3.827  -0.466  1.00  0.00     0.210 HD
ENDBRANCH  29  30
ENDBRANCH   1  11
TORSDOF 6
ENDMDL
MODEL 8
REMARK VINA RESULT:    -4.791      4.724      7.893
REMARK INTER + INTRA:          -7.550
REMARK INTER:                  -6.523
REMARK INTRA:                  -1.027
REMARK UNBOUND:                -1.219
REMARK SMILES CC[C@H](C=C[C@H](C)[C@H]1CC[C@@H]2[C@H]3CC=C4C[C@H](O)CC[C@]4(C)[C@H]3CC[C@]21C)C(C)C
REMARK SMILES IDX 6 1 7 2 5 3 4 4 3 5 2 6 1 7 28 8 29 9 30 10 8 11 9 12 26 13
REMARK SMILES IDX 10 14 11 15 25 16 27 17 12 18 24 19 23 20 13 21 21 22 14 23
REMARK SMILES IDX 15 24 20 25 22 26 16 27 19 28 17 29 18 30
REMARK H PARENT 18 31
REMARK Flexibility Score: inf
ROOT
ATOM      1  C   UNL     1      -2.919   0.861  -6.512  1.00  0.00     0.012 C 
ATOM      2  C   UNL     1      -2.633   1.923  -7.593  1.00  0.00     0.012 C 
ENDROOT
BRANCH   1   3
ATOM      3  C   UNL     1      -3.311   1.588  -5.238  1.00  0.00    -0.028 C 
ATOM      4  C   UNL     1      -2.509   2.475  -4.620  1.00  0.00    -0.027 C 
BRANCH   4   5
ATOM      5  C   UNL     1      -2.955   3.194  -3.360  1.00  0.00     0.014 C 
BRANCH   5   6
ATOM      6  C   UNL     1      -1.849   4.180  -2.913  1.00  0.00     0.004 C 
ATOM      7  C   UNL     1      -1.531   4.069  -1.420  1.00  0.00     0.004 C 
ENDBRANCH   5   6
BRANCH   5   8
ATOM      8  C   UNL     1      -4.320   3.915  -3.599  1.00  0.00    -0.011 C 
ATOM      9  C   UNL     1      -5.232   3.834  -2.356  1.00  0.00     0.008 C 
ATOM     10  C   UNL     1      -4.126   5.395  -3.978  1.00  0.00     0.008 C 
ENDBRANCH   5   8
ENDBRANCH   4   5
ENDBRANCH   1   3
BRANCH   1  11
ATOM     11  C   UNL     1      -3.997  -0.220  -6.910  1.00  0.00     0.002 C 
ATOM     12  C   UNL     1      -4.267  -0.310  -8.444  1.00  0.00     0.005 C 
ATOM     13  C   UNL     1      -3.666  -1.708  -6.520  1.00  0.00    -0.026 C 
ATOM     14  C   UNL     1      -3.668  -1.625  -8.956  1.00  0.00     0.005 C 
ATOM     15  C   UNL     1      -2.916  -2.207  -7.769  1.00  0.00    -0.001 C 
ATOM     16  C   UNL     1      -2.784  -1.986  -5.252  1.00  0.00     0.007 C 
ATOM     17  C   UNL     1      -5.031  -2.445  -6.318  1.00  0.00     0.012 C 
ATOM     18  C   UNL     1      -2.713  -3.742  -7.772  1.00  0.00     0.000 C 
ATOM     19  C   UNL     1      -1.718  -3.092  -5.449  1.00  0.00     0.005 C 
ATOM     20  C   UNL     1      -2.162  -4.258  -6.383  1.00  0.00     0.003 C 
ATOM     21  C   UNL     1      -1.854  -4.191  -8.965  1.00  0.00     0.031 C 
ATOM     22  C   UNL     1      -1.078  -5.420  -6.483  1.00  0.00    -0.008 C 
ATOM     23  C   UNL     1      -1.649  -5.673  -8.898  1.00  0.00    -0.027 C 
ATOM     24  C   UNL     1      -1.320  -6.265  -7.737  1.00  0.00    -0.065 C 
ATOM     25  C   UNL     1      -1.204  -6.343  -5.233  1.00  0.00     0.014 C 
ATOM     26  C   UNL     1       0.372  -4.864  -6.541  1.00  0.00     0.016 C 
ATOM     27  C   UNL     1      -1.311  -7.776  -7.646  1.00  0.00     0.063 C 
ATOM     28  C   UNL     1      -0.307  -7.597  -5.287  1.00  0.00     0.033 C 
ATOM     29  C   UNL     1      -0.216  -8.259  -6.687  1.00  0.00     0.118 C 
BRANCH  29  30
ATOM     30  O   UNL     1      -0.301  -9.654  -6.568  1.00  0.00    -0.393 OA
ATOM     31  H   UNL     1      -1.268  -9.883  -6.563  1.00  0.00     0.210 HD
ENDBRANCH  29  30
ENDBRANCH   1  11
TORSDOF 6
ENDMDL
MODEL 9
REMARK VINA RESULT:    -4.773      7.672     11.738
REMARK INTER + INTRA:          -7.527
REMARK INTER:                  -5.922
REMARK INTRA:                  -1.604
REMARK UNBOUND:                -1.219
REMARK SMILES CC[C@H](C=C[C@H](C)[C@H]1CC[C@@H]2[C@H]3CC=C4C[C@H](O)CC[C@]4(C)[C@H]3CC[C@]21C)C(C)C
REMARK SMILES IDX 6 1 7 2 5 3 4 4 3 5 2 6 1 7 28 8 29 9 30 10 8 11 9 12 26 13
REMARK SMILES IDX 10 14 11 15 25 16 27 17 12 18 24 19 23 20 13 21 21 22 14 23
REMARK SMILES IDX 15 24 20 25 22 26 16 27 19 28 17 29 18 30
REMARK H PARENT 18 31
REMARK Flexibility Score: inf
ROOT
ATOM      1  C   UNL     1       3.365   3.810  -5.322  1.00  0.00     0.012 C 
ATOM      2  C   UNL     1       2.218   4.837  -5.249  1.00  0.00     0.012 C 
ENDROOT
BRANCH   1   3
ATOM      3  C   UNL     1       3.345   3.187  -6.707  1.00  0.00    -0.028 C 
ATOM      4  C   UNL     1       4.362   3.301  -7.580  1.00  0.00    -0.027 C 
BRANCH   4   5
ATOM      5  C   UNL     1       4.306   2.641  -8.945  1.00  0.00     0.014 C 
BRANCH   5   6
ATOM      6  C   UNL     1       4.776   3.647 -10.023  1.00  0.00     0.004 C 
ATOM      7  C   UNL     1       5.595   4.798  -9.435  1.00  0.00     0.004 C 
ENDBRANCH   5   6
BRANCH   5   8
ATOM      8  C   UNL     1       5.160   1.333  -8.953  1.00  0.00    -0.011 C 
ATOM      9  C   UNL     1       6.329   1.409  -7.949  1.00  0.00     0.008 C 
ATOM     10  C   UNL     1       4.307   0.091  -8.632  1.00  0.00     0.008 C 
ENDBRANCH   5   8
ENDBRANCH   4   5
ENDBRANCH   1   3
BRANCH   1  11
ATOM     11  C   UNL     1       4.793   4.382  -4.971  1.00  0.00     0.002 C 
ATOM     12  C   UNL     1       4.760   5.695  -4.130  1.00  0.00     0.005 C 
ATOM     13  C   UNL     1       5.730   3.442  -4.125  1.00  0.00    -0.026 C 
ATOM     14  C   UNL     1       5.230   5.362  -2.709  1.00  0.00     0.005 C 
ATOM     15  C   UNL     1       5.372   3.848  -2.683  1.00  0.00    -0.001 C 
ATOM     16  C   UNL     1       5.579   1.886  -4.268  1.00  0.00     0.007 C 
ATOM     17  C   UNL     1       7.205   3.810  -4.493  1.00  0.00     0.012 C 
ATOM     18  C   UNL     1       6.357   3.269  -1.637  1.00  0.00     0.000 C 
ATOM     19  C   UNL     1       5.645   1.115  -2.926  1.00  0.00     0.005 C 
ATOM     20  C   UNL     1       6.619   1.730  -1.876  1.00  0.00     0.003 C 
ATOM     21  C   UNL     1       5.901   3.588  -0.203  1.00  0.00     0.031 C 
ATOM     22  C   UNL     1       6.732   0.856  -0.549  1.00  0.00    -0.008 C 
ATOM     23  C   UNL     1       6.858   2.970   0.769  1.00  0.00    -0.027 C 
ATOM     24  C   UNL     1       7.282   1.706   0.600  1.00  0.00    -0.065 C 
ATOM     25  C   UNL     1       7.714  -0.329  -0.801  1.00  0.00     0.014 C 
ATOM     26  C   UNL     1       5.358   0.274  -0.113  1.00  0.00     0.016 C 
ATOM     27  C   UNL     1       8.393   1.168   1.476  1.00  0.00     0.063 C 
ATOM     28  C   UNL     1       8.026  -1.163   0.459  1.00  0.00     0.033 C 
ATOM     29  C   UNL     1       8.195  -0.327   1.755  1.00  0.00     0.118 C 
BRANCH  29  30
ATOM     30  O   UNL     1       9.290  -0.799   2.494  1.00  0.00    -0.393 OA
ATOM     31  H   UNL     1       9.107  -0.580   3.447  1.00  0.00     0.210 HD
ENDBRANCH  29  30
ENDBRANCH   1  11
TORSDOF 6
ENDMDL
