MODEL 1
REMARK VINA RESULT:     9.795      0.000      0.000
REMARK INTER + INTRA:          24.872
REMARK INTER:                  25.829
REMARK INTRA:                  -0.957
REMARK UNBOUND:                -0.957
REMARK SMILES CCCCCCCCCCCCCCCCCCCCCCCCCCCCCC(=O)[O-]
REMARK SMILES IDX 16 1 17 2 18 3 19 4 20 5 21 6 22 7 23 8 24 9 25 10 26 11
REMARK SMILES IDX 27 12 28 13 29 14 30 15 31 16 32 17 15 18 14 19 13 20 12 21
REMARK SMILES IDX 11 22 10 23 9 24 8 25 7 26 6 27 5 28 4 29 3 30 2 31 1 32
REMARK H PARENT
REMARK Flexibility Score: inf
ROOT
ATOM      1  C   UNL     1      30.737  20.132  37.542  1.00  0.00     0.000 C 
ENDROOT
BRANCH   1   2
ATOM      2  C   UNL     1      31.266  18.899  36.789  1.00  0.00     0.000 C 
BRANCH   2   3
ATOM      3  C   UNL     1      32.320  18.082  37.565  1.00  0.00     0.000 C 
BRANCH   3   4
ATOM      4  C   UNL     1      32.210  18.249  39.090  1.00  0.00     0.000 C 
BRANCH   4   5
ATOM      5  C   UNL     1      33.428  17.685  39.843  1.00  0.00     0.000 C 
BRANCH   5   6
ATOM      6  C   UNL     1      33.271  17.685  41.378  1.00  0.00     0.000 C 
BRANCH   6   7
ATOM      7  C   UNL     1      34.556  17.237  42.097  1.00  0.00     0.000 C 
BRANCH   7   8
ATOM      8  C   UNL     1      34.408  15.868  42.781  1.00  0.00     0.000 C 
BRANCH   8   9
ATOM      9  C   UNL     1      35.583  15.544  43.718  1.00  0.00     0.000 C 
BRANCH   9  10
ATOM     10  C   UNL     1      36.027  14.082  43.557  1.00  0.00     0.000 C 
BRANCH  10  11
ATOM     11  C   UNL     1      36.138  13.656  42.084  1.00  0.00     0.000 C 
BRANCH  11  12
ATOM     12  C   UNL     1      34.860  12.968  41.571  1.00  0.00     0.000 C 
BRANCH  12  13
ATOM     13  C   UNL     1      35.152  11.794  40.617  1.00  0.00     0.006 C 
BRANCH  13  14
ATOM     14  C   UNL     1      33.992  10.795  40.458  1.00  0.00     0.053 C 
BRANCH  14  15
ATOM     15  C   UNL     1      32.724  11.297  41.075  1.00  0.00     0.041 C 
ATOM     16  O   UNL     1      32.408  10.962  42.249  1.00  0.00    -0.550 OA
ATOM     17  O   UNL     1      31.882  12.126  40.344  1.00  0.00    -0.550 OA
ENDBRANCH  14  15
ENDBRANCH  13  14
ENDBRANCH  12  13
ENDBRANCH  11  12
ENDBRANCH  10  11
ENDBRANCH   9  10
ENDBRANCH   8   9
ENDBRANCH   7   8
ENDBRANCH   6   7
ENDBRANCH   5   6
ENDBRANCH   4   5
ENDBRANCH   3   4
ENDBRANCH   2   3
ENDBRANCH   1   2
BRANCH   1  18
ATOM     18  C   UNL     1      31.858  21.062  38.044  1.00  0.00     0.000 C 
BRANCH  18  19
ATOM     19  C   UNL     1      31.367  22.510  38.240  1.00  0.00     0.000 C 
BRANCH  19  20
ATOM     20  C   UNL     1      32.281  23.556  37.572  1.00  0.00     0.000 C 
BRANCH  20  21
ATOM     21  C   UNL     1      32.185  23.516  36.037  1.00  0.00     0.000 C 
BRANCH  21  22
ATOM     22  C   UNL     1      31.961  24.907  35.424  1.00  0.00     0.000 C 
BRANCH  22  23
ATOM     23  C   UNL     1      31.001  24.883  34.223  1.00  0.00     0.000 C 
BRANCH  23  24
ATOM     24  C   UNL     1      31.733  25.035  32.878  1.00  0.00    -0.000 C 
BRANCH  24  25
ATOM     25  C   UNL     1      31.260  24.013  31.838  1.00  0.00    -0.000 C 
BRANCH  25  26
ATOM     26  C   UNL     1      30.361  24.663  30.779  1.00  0.00    -0.000 C 
BRANCH  26  27
ATOM     27  C   UNL     1      30.415  23.872  29.466  1.00  0.00    -0.000 C 
BRANCH  27  28
ATOM     28  C   UNL     1      31.025  24.703  28.329  1.00  0.00    -0.000 C 
BRANCH  28  29
ATOM     29  C   UNL     1      32.469  25.125  28.650  1.00  0.00    -0.000 C 
BRANCH  29  30
ATOM     30  C   UNL     1      33.472  23.978  28.416  1.00  0.00    -0.000 C 
BRANCH  30  31
ATOM     31  C   UNL     1      34.797  24.188  29.172  1.00  0.00    -0.003 C 
ATOM     32  C   UNL     1      34.596  24.992  30.462  1.00  0.00     0.004 C 
ENDBRANCH  30  31
ENDBRANCH  29  30
ENDBRANCH  28  29
ENDBRANCH  27  28
ENDBRANCH  26  27
ENDBRANCH  25  26
ENDBRANCH  24  25
ENDBRANCH  23  24
ENDBRANCH  22  23
ENDBRANCH  21  22
ENDBRANCH  20  21
ENDBRANCH  19  20
ENDBRANCH  18  19
ENDBRANCH   1  18
TORSDOF 28
ENDMDL
MODEL 2
REMARK VINA RESULT:    10.182      1.215      2.009
REMARK INTER + INTRA:          25.892
REMARK INTER:                  26.160
REMARK INTRA:                  -0.268
REMARK UNBOUND:                -0.957
REMARK SMILES CCCCCCCCCCCCCCCCCCCCCCCCCCCCCC(=O)[O-]
REMARK SMILES IDX 16 1 17 2 18 3 19 4 20 5 21 6 22 7 23 8 24 9 25 10 26 11
REMARK SMILES IDX 27 12 28 13 29 14 30 15 31 16 32 17 15 18 14 19 13 20 12 21
REMARK SMILES IDX 11 22 10 23 9 24 8 25 7 26 6 27 5 28 4 29 3 30 2 31 1 32
REMARK H PARENT
REMARK Flexibility Score: inf
ROOT
ATOM      1  C   UNL     1      31.942  18.595  37.702  1.00  0.00     0.000 C 
ENDROOT
BRANCH   1   2
ATOM      2  C   UNL     1      32.143  18.410  39.216  1.00  0.00     0.000 C 
BRANCH   2   3
ATOM      3  C   UNL     1      33.592  18.086  39.632  1.00  0.00     0.000 C 
BRANCH   3   4
ATOM      4  C   UNL     1      33.693  17.479  41.042  1.00  0.00     0.000 C 
BRANCH   4   5
ATOM      5  C   UNL     1      34.074  18.515  42.114  1.00  0.00     0.000 C 
BRANCH   5   6
ATOM      6  C   UNL     1      35.181  18.040  43.080  1.00  0.00     0.000 C 
BRANCH   6   7
ATOM      7  C   UNL     1      34.817  16.717  43.779  1.00  0.00     0.000 C 
BRANCH   7   8
ATOM      8  C   UNL     1      35.101  15.485  42.904  1.00  0.00     0.000 C 
BRANCH   8   9
ATOM      9  C   UNL     1      36.402  14.767  43.296  1.00  0.00     0.000 C 
BRANCH   9  10
ATOM     10  C   UNL     1      36.233  13.242  43.218  1.00  0.00     0.000 C 
BRANCH  10  11
ATOM     11  C   UNL     1      35.324  12.805  42.058  1.00  0.00     0.000 C 
BRANCH  11  12
ATOM     12  C   UNL     1      34.210  11.845  42.510  1.00  0.00     0.000 C 
BRANCH  12  13
ATOM     13  C   UNL     1      32.968  11.895  41.600  1.00  0.00     0.006 C 
BRANCH  13  14
ATOM     14  C   UNL     1      33.240  11.548  40.126  1.00  0.00     0.053 C 
BRANCH  14  15
ATOM     15  C   UNL     1      33.270  10.070  39.889  1.00  0.00     0.041 C 
ATOM     16  O   UNL     1      32.198   9.424  39.742  1.00  0.00    -0.550 OA
ATOM     17  O   UNL     1      34.489   9.403  39.843  1.00  0.00    -0.550 OA
ENDBRANCH  14  15
ENDBRANCH  13  14
ENDBRANCH  12  13
ENDBRANCH  11  12
ENDBRANCH  10  11
ENDBRANCH   9  10
ENDBRANCH   8   9
ENDBRANCH   7   8
ENDBRANCH   6   7
ENDBRANCH   5   6
ENDBRANCH   4   5
ENDBRANCH   3   4
ENDBRANCH   2   3
ENDBRANCH   1   2
BRANCH   1  18
ATOM     18  C   UNL     1      30.838  19.614  37.358  1.00  0.00     0.000 C 
BRANCH  18  19
ATOM     19  C   UNL     1      31.406  20.879  36.684  1.00  0.00     0.000 C 
BRANCH  19  20
ATOM     20  C   UNL     1      31.716  22.011  37.683  1.00  0.00     0.000 C 
BRANCH  20  21
ATOM     21  C   UNL     1      31.450  23.403  37.084  1.00  0.00     0.000 C 
BRANCH  21  22
ATOM     22  C   UNL     1      32.631  23.922  36.250  1.00  0.00     0.000 C 
BRANCH  22  23
ATOM     23  C   UNL     1      32.221  25.019  35.252  1.00  0.00     0.000 C 
BRANCH  23  24
ATOM     24  C   UNL     1      31.256  24.504  34.170  1.00  0.00    -0.000 C 
BRANCH  24  25
ATOM     25  C   UNL     1      31.535  25.125  32.797  1.00  0.00    -0.000 C 
BRANCH  25  26
ATOM     26  C   UNL     1      30.886  24.312  31.670  1.00  0.00    -0.000 C 
BRANCH  26  27
ATOM     27  C   UNL     1      31.004  25.054  30.333  1.00  0.00    -0.000 C 
BRANCH  27  28
ATOM     28  C   UNL     1      29.992  24.529  29.304  1.00  0.00    -0.000 C 
BRANCH  28  29
ATOM     29  C   UNL     1      30.526  23.287  28.569  1.00  0.00    -0.000 C 
BRANCH  29  30
ATOM     30  C   UNL     1      32.060  23.169  28.673  1.00  0.00    -0.000 C 
BRANCH  30  31
ATOM     31  C   UNL     1      32.782  24.458  28.238  1.00  0.00    -0.003 C 
ATOM     32  C   UNL     1      34.275  24.216  27.982  1.00  0.00     0.004 C 
ENDBRANCH  30  31
ENDBRANCH  29  30
ENDBRANCH  28  29
ENDBRANCH  27  28
ENDBRANCH  26  27
ENDBRANCH  25  26
ENDBRANCH  24  25
ENDBRANCH  23  24
ENDBRANCH  22  23
ENDBRANCH  21  22
ENDBRANCH  20  21
ENDBRANCH  19  20
ENDBRANCH  18  19
ENDBRANCH   1  18
TORSDOF 28
ENDMDL
MODEL 3
REMARK VINA RESULT:    10.443      1.369      2.331
REMARK INTER + INTRA:          26.579
REMARK INTER:                  28.033
REMARK INTRA:                  -1.454
REMARK UNBOUND:                -0.957
REMARK SMILES CCCCCCCCCCCCCCCCCCCCCCCCCCCCCC(=O)[O-]
REMARK SMILES IDX 16 1 17 2 18 3 19 4 20 5 21 6 22 7 23 8 24 9 25 10 26 11
REMARK SMILES IDX 27 12 28 13 29 14 30 15 31 16 32 17 15 18 14 19 13 20 12 21
REMARK SMILES IDX 11 22 10 23 9 24 8 25 7 26 6 27 5 28 4 29 3 30 2 31 1 32
REMARK H PARENT
REMARK Flexibility Score: inf
ROOT
ATOM      1  C   UNL     1      31.788  21.469  37.369  1.00  0.00     0.000 C 
ENDROOT
BRANCH   1   2
ATOM      2  C   UNL     1      31.576  20.006  36.940  1.00  0.00     0.000 C 
BRANCH   2   3
ATOM      3  C   UNL     1      31.252  19.042  38.099  1.00  0.00     0.000 C 
BRANCH   3   4
ATOM      4  C   UNL     1      32.190  19.214  39.307  1.00  0.00     0.000 C 
BRANCH   4   5
ATOM      5  C   UNL     1      32.735  17.876  39.837  1.00  0.00     0.000 C 
BRANCH   5   6
ATOM      6  C   UNL     1      34.174  17.960  40.388  1.00  0.00     0.000 C 
BRANCH   6   7
ATOM      7  C   UNL     1      34.575  16.696  41.171  1.00  0.00     0.000 C 
BRANCH   7   8
ATOM      8  C   UNL     1      34.208  16.780  42.662  1.00  0.00     0.000 C 
BRANCH   8   9
ATOM      9  C   UNL     1      35.203  16.028  43.560  1.00  0.00     0.000 C 
BRANCH   9  10
ATOM     10  C   UNL     1      34.832  14.540  43.665  1.00  0.00     0.000 C 
BRANCH  10  11
ATOM     11  C   UNL     1      35.322  13.721  42.461  1.00  0.00     0.000 C 
BRANCH  11  12
ATOM     12  C   UNL     1      34.281  12.693  41.983  1.00  0.00     0.000 C 
BRANCH  12  13
ATOM     13  C   UNL     1      34.162  12.629  40.448  1.00  0.00     0.006 C 
BRANCH  13  14
ATOM     14  C   UNL     1      32.922  11.876  39.933  1.00  0.00     0.053 C 
BRANCH  14  15
ATOM     15  C   UNL     1      33.063  10.392  40.072  1.00  0.00     0.041 C 
ATOM     16  O   UNL     1      32.415   9.769  40.955  1.00  0.00    -0.550 OA
ATOM     17  O   UNL     1      33.925   9.699  39.230  1.00  0.00    -0.550 OA
ENDBRANCH  14  15
ENDBRANCH  13  14
ENDBRANCH  12  13
ENDBRANCH  11  12
ENDBRANCH  10  11
ENDBRANCH   9  10
ENDBRANCH   8   9
ENDBRANCH   7   8
ENDBRANCH   6   7
ENDBRANCH   5   6
ENDBRANCH   4   5
ENDBRANCH   3   4
ENDBRANCH   2   3
ENDBRANCH   1   2
BRANCH   1  18
ATOM     18  C   UNL     1      32.086  22.409  36.186  1.00  0.00     0.000 C 
BRANCH  18  19
ATOM     19  C   UNL     1      31.304  23.734  36.287  1.00  0.00     0.000 C 
BRANCH  19  20
ATOM     20  C   UNL     1      31.788  24.802  35.287  1.00  0.00     0.000 C 
BRANCH  20  21
ATOM     21  C   UNL     1      30.767  25.052  34.163  1.00  0.00     0.000 C 
BRANCH  21  22
ATOM     22  C   UNL     1      31.334  24.737  32.770  1.00  0.00     0.000 C 
BRANCH  22  23
ATOM     23  C   UNL     1      30.464  23.743  31.983  1.00  0.00     0.000 C 
BRANCH  23  24
ATOM     24  C   UNL     1      30.621  23.896  30.460  1.00  0.00    -0.000 C 
BRANCH  24  25
ATOM     25  C   UNL     1      31.457  25.123  30.081  1.00  0.00    -0.000 C 
BRANCH  25  26
ATOM     26  C   UNL     1      32.604  24.751  29.133  1.00  0.00    -0.000 C 
BRANCH  26  27
ATOM     27  C   UNL     1      33.922  24.618  29.907  1.00  0.00    -0.000 C 
BRANCH  27  28
ATOM     28  C   UNL     1      34.925  23.723  29.166  1.00  0.00    -0.000 C 
BRANCH  28  29
ATOM     29  C   UNL     1      36.256  24.454  28.915  1.00  0.00    -0.000 C 
BRANCH  29  30
ATOM     30  C   UNL     1      36.801  25.118  30.195  1.00  0.00    -0.000 C 
BRANCH  30  31
ATOM     31  C   UNL     1      37.071  24.100  31.319  1.00  0.00    -0.003 C 
ATOM     32  C   UNL     1      36.260  24.416  32.582  1.00  0.00     0.004 C 
ENDBRANCH  30  31
ENDBRANCH  29  30
ENDBRANCH  28  29
ENDBRANCH  27  28
ENDBRANCH  26  27
ENDBRANCH  25  26
ENDBRANCH  24  25
ENDBRANCH  23  24
ENDBRANCH  22  23
ENDBRANCH  21  22
ENDBRANCH  20  21
ENDBRANCH  19  20
ENDBRANCH  18  19
ENDBRANCH   1  18
TORSDOF 28
ENDMDL
MODEL 4
REMARK VINA RESULT:    10.956      1.560      3.153
REMARK INTER + INTRA:          27.933
REMARK INTER:                  28.282
REMARK INTRA:                  -0.349
REMARK UNBOUND:                -0.957
REMARK SMILES CCCCCCCCCCCCCCCCCCCCCCCCCCCCCC(=O)[O-]
REMARK SMILES IDX 16 1 17 2 18 3 19 4 20 5 21 6 22 7 23 8 24 9 25 10 26 11
REMARK SMILES IDX 27 12 28 13 29 14 30 15 31 16 32 17 15 18 14 19 13 20 12 21
REMARK SMILES IDX 11 22 10 23 9 24 8 25 7 26 6 27 5 28 4 29 3 30 2 31 1 32
REMARK H PARENT
REMARK Flexibility Score: inf
ROOT
ATOM      1  C   UNL     1      33.474  18.125  38.761  1.00  0.00     0.000 C 
ENDROOT
BRANCH   1   2
ATOM      2  C   UNL     1      33.910  17.172  39.888  1.00  0.00     0.000 C 
BRANCH   2   3
ATOM      3  C   UNL     1      33.637  17.700  41.311  1.00  0.00     0.000 C 
BRANCH   3   4
ATOM      4  C   UNL     1      34.870  18.352  41.959  1.00  0.00     0.000 C 
BRANCH   4   5
ATOM      5  C   UNL     1      35.043  17.964  43.439  1.00  0.00     0.000 C 
BRANCH   5   6
ATOM      6  C   UNL     1      34.980  16.444  43.699  1.00  0.00     0.000 C 
BRANCH   6   7
ATOM      7  C   UNL     1      36.205  15.703  43.133  1.00  0.00     0.000 C 
BRANCH   7   8
ATOM      8  C   UNL     1      36.011  14.178  43.094  1.00  0.00     0.000 C 
BRANCH   8   9
ATOM      9  C   UNL     1      34.682  13.766  42.440  1.00  0.00     0.000 C 
BRANCH   9  10
ATOM     10  C   UNL     1      34.724  12.298  41.987  1.00  0.00     0.000 C 
BRANCH  10  11
ATOM     11  C   UNL     1      33.669  11.431  42.692  1.00  0.00     0.000 C 
BRANCH  11  12
ATOM     12  C   UNL     1      32.476  11.096  41.780  1.00  0.00     0.000 C 
BRANCH  12  13
ATOM     13  C   UNL     1      32.645  11.638  40.347  1.00  0.00     0.006 C 
BRANCH  13  14
ATOM     14  C   UNL     1      32.882  10.557  39.277  1.00  0.00     0.053 C 
BRANCH  14  15
ATOM     15  C   UNL     1      33.855   9.514  39.732  1.00  0.00     0.041 C 
ATOM     16  O   UNL     1      33.580   8.290  39.617  1.00  0.00    -0.550 OA
ATOM     17  O   UNL     1      35.065   9.900  40.298  1.00  0.00    -0.550 OA
ENDBRANCH  14  15
ENDBRANCH  13  14
ENDBRANCH  12  13
ENDBRANCH  11  12
ENDBRANCH  10  11
ENDBRANCH   9  10
ENDBRANCH   8   9
ENDBRANCH   7   8
ENDBRANCH   6   7
ENDBRANCH   5   6
ENDBRANCH   4   5
ENDBRANCH   3   4
ENDBRANCH   2   3
ENDBRANCH   1   2
BRANCH   1  18
ATOM     18  C   UNL     1      32.130  18.823  39.045  1.00  0.00     0.000 C 
BRANCH  18  19
ATOM     19  C   UNL     1      31.445  19.312  37.753  1.00  0.00     0.000 C 
BRANCH  19  20
ATOM     20  C   UNL     1      30.877  20.740  37.871  1.00  0.00     0.000 C 
BRANCH  20  21
ATOM     21  C   UNL     1      31.964  21.814  37.690  1.00  0.00     0.000 C 
BRANCH  21  22
ATOM     22  C   UNL     1      31.377  23.226  37.537  1.00  0.00     0.000 C 
BRANCH  22  23
ATOM     23  C   UNL     1      32.260  24.149  36.679  1.00  0.00     0.000 C 
BRANCH  23  24
ATOM     24  C   UNL     1      31.721  24.322  35.249  1.00  0.00    -0.000 C 
BRANCH  24  25
ATOM     25  C   UNL     1      32.783  24.868  34.288  1.00  0.00    -0.000 C 
BRANCH  25  26
ATOM     26  C   UNL     1      32.296  24.831  32.834  1.00  0.00    -0.000 C 
BRANCH  26  27
ATOM     27  C   UNL     1      30.962  24.081  32.730  1.00  0.00    -0.000 C 
BRANCH  27  28
ATOM     28  C   UNL     1      29.907  24.906  31.980  1.00  0.00    -0.000 C 
BRANCH  28  29
ATOM     29  C   UNL     1      30.301  25.125  30.509  1.00  0.00    -0.000 C 
BRANCH  29  30
ATOM     30  C   UNL     1      31.644  24.451  30.164  1.00  0.00    -0.000 C 
BRANCH  30  31
ATOM     31  C   UNL     1      31.471  23.227  29.245  1.00  0.00    -0.003 C 
ATOM     32  C   UNL     1      32.303  23.355  27.963  1.00  0.00     0.004 C 
ENDBRANCH  30  31
ENDBRANCH  29  30
ENDBRANCH  28  29
ENDBRANCH  27  28
ENDBRANCH  26  27
ENDBRANCH  25  26
ENDBRANCH  24  25
ENDBRANCH  23  24
ENDBRANCH  22  23
ENDBRANCH  21  22
ENDBRANCH  20  21
ENDBRANCH  19  20
ENDBRANCH  18  19
ENDBRANCH   1  18
TORSDOF 28
ENDMDL
MODEL 5
REMARK VINA RESULT:    11.138      4.508     13.837
REMARK INTER + INTRA:          28.413
REMARK INTER:                  29.758
REMARK INTRA:                  -1.345
REMARK UNBOUND:                -0.957
REMARK SMILES CCCCCCCCCCCCCCCCCCCCCCCCCCCCCC(=O)[O-]
REMARK SMILES IDX 16 1 17 2 18 3 19 4 20 5 21 6 22 7 23 8 24 9 25 10 26 11
REMARK SMILES IDX 27 12 28 13 29 14 30 15 31 16 32 17 15 18 14 19 13 20 12 21
REMARK SMILES IDX 11 22 10 23 9 24 8 25 7 26 6 27 5 28 4 29 3 30 2 31 1 32
REMARK H PARENT
REMARK Flexibility Score: inf
ROOT
ATOM      1  C   UNL     1      31.140  17.737  37.117  1.00  0.00     0.000 C 
ENDROOT
BRANCH   1   2
ATOM      2  C   UNL     1      31.786  19.109  36.855  1.00  0.00     0.000 C 
BRANCH   2   3
ATOM      3  C   UNL     1      31.360  20.214  37.843  1.00  0.00     0.000 C 
BRANCH   3   4
ATOM      4  C   UNL     1      31.085  21.562  37.158  1.00  0.00     0.000 C 
BRANCH   4   5
ATOM      5  C   UNL     1      31.888  22.722  37.774  1.00  0.00     0.000 C 
BRANCH   5   6
ATOM      6  C   UNL     1      31.725  24.063  37.027  1.00  0.00     0.000 C 
BRANCH   6   7
ATOM      7  C   UNL     1      32.921  24.367  36.105  1.00  0.00     0.000 C 
BRANCH   7   8
ATOM      8  C   UNL     1      32.511  25.123  34.830  1.00  0.00     0.000 C 
BRANCH   8   9
ATOM      9  C   UNL     1      31.477  24.353  33.992  1.00  0.00     0.000 C 
BRANCH   9  10
ATOM     10  C   UNL     1      31.173  25.093  32.680  1.00  0.00     0.000 C 
BRANCH  10  11
ATOM     11  C   UNL     1      30.153  24.348  31.804  1.00  0.00     0.000 C 
BRANCH  11  12
ATOM     12  C   UNL     1      30.716  23.995  30.416  1.00  0.00     0.000 C 
BRANCH  12  13
ATOM     13  C   UNL     1      30.104  24.846  29.285  1.00  0.00     0.006 C 
BRANCH  13  14
ATOM     14  C   UNL     1      30.998  24.997  28.042  1.00  0.00     0.053 C 
BRANCH  14  15
ATOM     15  C   UNL     1      32.291  24.256  28.181  1.00  0.00     0.041 C 
ATOM     16  O   UNL     1      33.366  24.881  28.392  1.00  0.00    -0.550 OA
ATOM     17  O   UNL     1      32.309  22.871  28.065  1.00  0.00    -0.550 OA
ENDBRANCH  14  15
ENDBRANCH  13  14
ENDBRANCH  12  13
ENDBRANCH  11  12
ENDBRANCH  10  11
ENDBRANCH   9  10
ENDBRANCH   8   9
ENDBRANCH   7   8
ENDBRANCH   6   7
ENDBRANCH   5   6
ENDBRANCH   4   5
ENDBRANCH   3   4
ENDBRANCH   2   3
ENDBRANCH   1   2
BRANCH   1  18
ATOM     18  C   UNL     1      31.700  17.034  38.369  1.00  0.00     0.000 C 
BRANCH  18  19
ATOM     19  C   UNL     1      33.136  17.488  38.696  1.00  0.00     0.000 C 
BRANCH  19  20
ATOM     20  C   UNL     1      33.759  16.724  39.881  1.00  0.00     0.000 C 
BRANCH  20  21
ATOM     21  C   UNL     1      33.849  17.592  41.149  1.00  0.00     0.000 C 
BRANCH  21  22
ATOM     22  C   UNL     1      33.923  16.753  42.433  1.00  0.00     0.000 C 
BRANCH  22  23
ATOM     23  C   UNL     1      35.051  17.206  43.377  1.00  0.00     0.000 C 
BRANCH  23  24
ATOM     24  C   UNL     1      36.253  16.246  43.365  1.00  0.00    -0.000 C 
BRANCH  24  25
ATOM     25  C   UNL     1      35.972  14.950  44.133  1.00  0.00    -0.000 C 
BRANCH  25  26
ATOM     26  C   UNL     1      36.678  13.751  43.489  1.00  0.00    -0.000 C 
BRANCH  26  27
ATOM     27  C   UNL     1      36.237  13.586  42.029  1.00  0.00    -0.000 C 
BRANCH  27  28
ATOM     28  C   UNL     1      34.771  13.142  41.928  1.00  0.00    -0.000 C 
BRANCH  28  29
ATOM     29  C   UNL     1      34.609  11.935  40.988  1.00  0.00    -0.000 C 
BRANCH  29  30
ATOM     30  C   UNL     1      33.151  11.757  40.522  1.00  0.00    -0.000 C 
BRANCH  30  31
ATOM     31  C   UNL     1      32.990  10.604  39.514  1.00  0.00    -0.003 C 
ATOM     32  C   UNL     1      33.630   9.306  40.023  1.00  0.00     0.004 C 
ENDBRANCH  30  31
ENDBRANCH  29  30
ENDBRANCH  28  29
ENDBRANCH  27  28
ENDBRANCH  26  27
ENDBRANCH  25  26
ENDBRANCH  24  25
ENDBRANCH  23  24
ENDBRANCH  22  23
ENDBRANCH  21  22
ENDBRANCH  20  21
ENDBRANCH  19  20
ENDBRANCH  18  19
ENDBRANCH   1  18
TORSDOF 28
ENDMDL
MODEL 6
REMARK VINA RESULT:    11.171      0.984      1.419
REMARK INTER + INTRA:          28.499
REMARK INTER:                  28.534
REMARK INTRA:                  -0.036
REMARK UNBOUND:                -0.957
REMARK SMILES CCCCCCCCCCCCCCCCCCCCCCCCCCCCCC(=O)[O-]
REMARK SMILES IDX 16 1 17 2 18 3 19 4 20 5 21 6 22 7 23 8 24 9 25 10 26 11
REMARK SMILES IDX 27 12 28 13 29 14 30 15 31 16 32 17 15 18 14 19 13 20 12 21
REMARK SMILES IDX 11 22 10 23 9 24 8 25 7 26 6 27 5 28 4 29 3 30 2 31 1 32
REMARK H PARENT
REMARK Flexibility Score: inf
ROOT
ATOM      1  C   UNL     1      30.752  20.395  37.602  1.00  0.00     0.000 C 
ENDROOT
BRANCH   1   2
ATOM      2  C   UNL     1      31.215  19.127  36.864  1.00  0.00     0.000 C 
BRANCH   2   3
ATOM      3  C   UNL     1      32.217  18.260  37.652  1.00  0.00     0.000 C 
BRANCH   3   4
ATOM      4  C   UNL     1      32.153  18.494  39.171  1.00  0.00     0.000 C 
BRANCH   4   5
ATOM      5  C   UNL     1      33.061  17.536  39.963  1.00  0.00     0.000 C 
BRANCH   5   6
ATOM      6  C   UNL     1      33.215  17.907  41.454  1.00  0.00     0.000 C 
BRANCH   6   7
ATOM      7  C   UNL     1      34.547  17.411  42.045  1.00  0.00     0.000 C 
BRANCH   7   8
ATOM      8  C   UNL     1      34.384  16.138  42.891  1.00  0.00     0.000 C 
BRANCH   8   9
ATOM      9  C   UNL     1      35.731  15.500  43.267  1.00  0.00     0.000 C 
BRANCH   9  10
ATOM     10  C   UNL     1      35.574  13.993  43.523  1.00  0.00     0.000 C 
BRANCH  10  11
ATOM     11  C   UNL     1      35.922  13.144  42.290  1.00  0.00     0.000 C 
BRANCH  11  12
ATOM     12  C   UNL     1      34.819  13.182  41.217  1.00  0.00     0.000 C 
BRANCH  12  13
ATOM     13  C   UNL     1      34.804  11.924  40.327  1.00  0.00     0.006 C 
BRANCH  13  14
ATOM     14  C   UNL     1      33.416  11.543  39.780  1.00  0.00     0.053 C 
BRANCH  14  15
ATOM     15  C   UNL     1      32.650  10.679  40.733  1.00  0.00     0.041 C 
ATOM     16  O   UNL     1      32.325   9.505  40.410  1.00  0.00    -0.550 OA
ATOM     17  O   UNL     1      32.282  11.181  41.976  1.00  0.00    -0.550 OA
ENDBRANCH  14  15
ENDBRANCH  13  14
ENDBRANCH  12  13
ENDBRANCH  11  12
ENDBRANCH  10  11
ENDBRANCH   9  10
ENDBRANCH   8   9
ENDBRANCH   7   8
ENDBRANCH   6   7
ENDBRANCH   5   6
ENDBRANCH   4   5
ENDBRANCH   3   4
ENDBRANCH   2   3
ENDBRANCH   1   2
BRANCH   1  18
ATOM     18  C   UNL     1      31.898  21.124  38.329  1.00  0.00     0.000 C 
BRANCH  18  19
ATOM     19  C   UNL     1      31.504  22.555  38.743  1.00  0.00     0.000 C 
BRANCH  19  20
ATOM     20  C   UNL     1      32.173  23.643  37.879  1.00  0.00     0.000 C 
BRANCH  20  21
ATOM     21  C   UNL     1      31.397  23.908  36.577  1.00  0.00     0.000 C 
BRANCH  21  22
ATOM     22  C   UNL     1      32.196  24.759  35.578  1.00  0.00     0.000 C 
BRANCH  22  23
ATOM     23  C   UNL     1      31.386  25.125  34.323  1.00  0.00     0.000 C 
BRANCH  23  24
ATOM     24  C   UNL     1      32.060  24.652  33.024  1.00  0.00    -0.000 C 
BRANCH  24  25
ATOM     25  C   UNL     1      31.114  23.830  32.142  1.00  0.00    -0.000 C 
BRANCH  25  26
ATOM     26  C   UNL     1      30.137  24.730  31.375  1.00  0.00    -0.000 C 
BRANCH  26  27
ATOM     27  C   UNL     1      29.818  24.131  29.999  1.00  0.00    -0.000 C 
BRANCH  27  28
ATOM     28  C   UNL     1      30.460  24.944  28.866  1.00  0.00    -0.000 C 
BRANCH  28  29
ATOM     29  C   UNL     1      31.994  24.832  28.889  1.00  0.00    -0.000 C 
BRANCH  29  30
ATOM     30  C   UNL     1      32.480  23.451  28.403  1.00  0.00    -0.000 C 
BRANCH  30  31
ATOM     31  C   UNL     1      31.322  22.456  28.200  1.00  0.00    -0.003 C 
ATOM     32  C   UNL     1      31.831  21.044  27.887  1.00  0.00     0.004 C 
ENDBRANCH  30  31
ENDBRANCH  29  30
ENDBRANCH  28  29
ENDBRANCH  27  28
ENDBRANCH  26  27
ENDBRANCH  25  26
ENDBRANCH  24  25
ENDBRANCH  23  24
ENDBRANCH  22  23
ENDBRANCH  21  22
ENDBRANCH  20  21
ENDBRANCH  19  20
ENDBRANCH  18  19
ENDBRANCH   1  18
TORSDOF 28
ENDMDL
MODEL 7
REMARK VINA RESULT:    11.196      9.721     15.405
REMARK INTER + INTRA:          28.566
REMARK INTER:                  29.363
REMARK INTRA:                  -0.797
REMARK UNBOUND:                -0.957
REMARK SMILES CCCCCCCCCCCCCCCCCCCCCCCCCCCCCC(=O)[O-]
REMARK SMILES IDX 16 1 17 2 18 3 19 4 20 5 21 6 22 7 23 8 24 9 25 10 26 11
REMARK SMILES IDX 27 12 28 13 29 14 30 15 31 16 32 17 15 18 14 19 13 20 12 21
REMARK SMILES IDX 11 22 10 23 9 24 8 25 7 26 6 27 5 28 4 29 3 30 2 31 1 32
REMARK H PARENT
REMARK Flexibility Score: inf
ROOT
ATOM      1  C   UNL     1      30.489  22.006  44.241  1.00  0.00     0.000 C 
ENDROOT
BRANCH   1   2
ATOM      2  C   UNL     1      29.234  21.940  45.129  1.00  0.00     0.000 C 
BRANCH   2   3
ATOM      3  C   UNL     1      28.974  23.212  45.961  1.00  0.00     0.000 C 
BRANCH   3   4
ATOM      4  C   UNL     1      27.652  23.909  45.599  1.00  0.00     0.000 C 
BRANCH   4   5
ATOM      5  C   UNL     1      26.451  23.363  46.392  1.00  0.00     0.000 C 
BRANCH   5   6
ATOM      6  C   UNL     1      25.161  23.220  45.556  1.00  0.00     0.000 C 
BRANCH   6   7
ATOM      7  C   UNL     1      23.910  23.050  46.437  1.00  0.00     0.000 C 
BRANCH   7   8
ATOM      8  C   UNL     1      22.628  22.840  45.613  1.00  0.00     0.000 C 
BRANCH   8   9
ATOM      9  C   UNL     1      21.533  22.104  46.401  1.00  0.00     0.000 C 
BRANCH   9  10
ATOM     10  C   UNL     1      20.271  22.971  46.529  1.00  0.00     0.000 C 
BRANCH  10  11
ATOM     11  C   UNL     1      19.538  22.756  47.863  1.00  0.00     0.000 C 
BRANCH  11  12
ATOM     12  C   UNL     1      18.460  23.823  48.123  1.00  0.00     0.000 C 
BRANCH  12  13
ATOM     13  C   UNL     1      18.305  24.816  46.955  1.00  0.00     0.006 C 
BRANCH  13  14
ATOM     14  C   UNL     1      17.422  24.312  45.799  1.00  0.00     0.053 C 
BRANCH  14  15
ATOM     15  C   UNL     1      17.973  24.691  44.459  1.00  0.00     0.041 C 
ATOM     16  O   UNL     1      19.216  24.810  44.290  1.00  0.00    -0.550 OA
ATOM     17  O   UNL     1      17.106  24.927  43.399  1.00  0.00    -0.550 OA
ENDBRANCH  14  15
ENDBRANCH  13  14
ENDBRANCH  12  13
ENDBRANCH  11  12
ENDBRANCH  10  11
ENDBRANCH   9  10
ENDBRANCH   8   9
ENDBRANCH   7   8
ENDBRANCH   6   7
ENDBRANCH   5   6
ENDBRANCH   4   5
ENDBRANCH   3   4
ENDBRANCH   2   3
ENDBRANCH   1   2
BRANCH   1  18
ATOM     18  C   UNL     1      31.095  20.620  43.945  1.00  0.00     0.000 C 
BRANCH  18  19
ATOM     19  C   UNL     1      30.897  20.203  42.474  1.00  0.00     0.000 C 
BRANCH  19  20
ATOM     20  C   UNL     1      31.513  18.828  42.145  1.00  0.00     0.000 C 
BRANCH  20  21
ATOM     21  C   UNL     1      32.972  18.944  41.672  1.00  0.00     0.000 C 
BRANCH  21  22
ATOM     22  C   UNL     1      33.744  17.623  41.813  1.00  0.00     0.000 C 
BRANCH  22  23
ATOM     23  C   UNL     1      34.022  17.249  43.279  1.00  0.00     0.000 C 
BRANCH  23  24
ATOM     24  C   UNL     1      35.187  16.254  43.425  1.00  0.00    -0.000 C 
BRANCH  24  25
ATOM     25  C   UNL     1      34.734  14.799  43.263  1.00  0.00    -0.000 C 
BRANCH  25  26
ATOM     26  C   UNL     1      35.835  13.934  42.637  1.00  0.00    -0.000 C 
BRANCH  26  27
ATOM     27  C   UNL     1      35.252  12.617  42.110  1.00  0.00    -0.000 C 
BRANCH  27  28
ATOM     28  C   UNL     1      33.717  12.636  42.115  1.00  0.00    -0.000 C 
BRANCH  28  29
ATOM     29  C   UNL     1      33.134  11.403  41.402  1.00  0.00    -0.000 C 
BRANCH  29  30
ATOM     30  C   UNL     1      34.171  10.718  40.490  1.00  0.00    -0.000 C 
BRANCH  30  31
ATOM     31  C   UNL     1      33.583   9.519  39.724  1.00  0.00    -0.003 C 
ATOM     32  C   UNL     1      32.056   9.456  39.847  1.00  0.00     0.004 C 
ENDBRANCH  30  31
ENDBRANCH  29  30
ENDBRANCH  28  29
ENDBRANCH  27  28
ENDBRANCH  26  27
ENDBRANCH  25  26
ENDBRANCH  24  25
ENDBRANCH  23  24
ENDBRANCH  22  23
ENDBRANCH  21  22
ENDBRANCH  20  21
ENDBRANCH  19  20
ENDBRANCH  18  19
ENDBRANCH   1  18
TORSDOF 28
ENDMDL
MODEL 8
REMARK VINA RESULT:    11.735      8.877     12.494
REMARK INTER + INTRA:          29.988
REMARK INTER:                  30.762
REMARK INTRA:                  -0.775
REMARK UNBOUND:                -0.957
REMARK SMILES CCCCCCCCCCCCCCCCCCCCCCCCCCCCCC(=O)[O-]
REMARK SMILES IDX 16 1 17 2 18 3 19 4 20 5 21 6 22 7 23 8 24 9 25 10 26 11
REMARK SMILES IDX 27 12 28 13 29 14 30 15 31 16 32 17 15 18 14 19 13 20 12 21
REMARK SMILES IDX 11 22 10 23 9 24 8 25 7 26 6 27 5 28 4 29 3 30 2 31 1 32
REMARK H PARENT
REMARK Flexibility Score: inf
ROOT
ATOM      1  C   UNL     1      30.710  21.185  44.275  1.00  0.00     0.000 C 
ENDROOT
BRANCH   1   2
ATOM      2  C   UNL     1      30.408  20.655  42.862  1.00  0.00     0.000 C 
BRANCH   2   3
ATOM      3  C   UNL     1      31.311  19.488  42.413  1.00  0.00     0.000 C 
BRANCH   3   4
ATOM      4  C   UNL     1      32.740  19.581  42.973  1.00  0.00     0.000 C 
BRANCH   4   5
ATOM      5  C   UNL     1      33.613  18.372  42.590  1.00  0.00     0.000 C 
BRANCH   5   6
ATOM      6  C   UNL     1      34.888  18.224  43.447  1.00  0.00     0.000 C 
BRANCH   6   7
ATOM      7  C   UNL     1      34.978  16.846  44.127  1.00  0.00     0.000 C 
BRANCH   7   8
ATOM      8  C   UNL     1      35.722  15.808  43.270  1.00  0.00     0.000 C 
BRANCH   8   9
ATOM      9  C   UNL     1      34.896  14.533  43.035  1.00  0.00     0.000 C 
BRANCH   9  10
ATOM     10  C   UNL     1      35.809  13.333  42.739  1.00  0.00     0.000 C 
BRANCH  10  11
ATOM     11  C   UNL     1      35.883  13.001  41.240  1.00  0.00     0.000 C 
BRANCH  11  12
ATOM     12  C   UNL     1      34.577  12.386  40.707  1.00  0.00     0.000 C 
BRANCH  12  13
ATOM     13  C   UNL     1      33.714  11.754  41.817  1.00  0.00     0.006 C 
BRANCH  13  14
ATOM     14  C   UNL     1      32.578  10.849  41.308  1.00  0.00     0.053 C 
BRANCH  14  15
ATOM     15  C   UNL     1      32.989  10.042  40.115  1.00  0.00     0.041 C 
ATOM     16  O   UNL     1      32.168   9.809  39.188  1.00  0.00    -0.550 OA
ATOM     17  O   UNL     1      34.281   9.534  40.038  1.00  0.00    -0.550 OA
ENDBRANCH  14  15
ENDBRANCH  13  14
ENDBRANCH  12  13
ENDBRANCH  11  12
ENDBRANCH  10  11
ENDBRANCH   9  10
ENDBRANCH   8   9
ENDBRANCH   7   8
ENDBRANCH   6   7
ENDBRANCH   5   6
ENDBRANCH   4   5
ENDBRANCH   3   4
ENDBRANCH   2   3
ENDBRANCH   1   2
BRANCH   1  18
ATOM     18  C   UNL     1      29.935  22.473  44.616  1.00  0.00     0.000 C 
BRANCH  18  19
ATOM     19  C   UNL     1      28.713  22.194  45.512  1.00  0.00     0.000 C 
BRANCH  19  20
ATOM     20  C   UNL     1      27.933  23.470  45.888  1.00  0.00     0.000 C 
BRANCH  20  21
ATOM     21  C   UNL     1      26.620  23.152  46.625  1.00  0.00     0.000 C 
BRANCH  21  22
ATOM     22  C   UNL     1      25.377  23.481  45.784  1.00  0.00     0.000 C 
BRANCH  22  23
ATOM     23  C   UNL     1      24.107  22.780  46.295  1.00  0.00     0.000 C 
BRANCH  23  24
ATOM     24  C   UNL     1      22.896  23.002  45.372  1.00  0.00    -0.000 C 
BRANCH  24  25
ATOM     25  C   UNL     1      21.608  22.403  45.946  1.00  0.00    -0.000 C 
BRANCH  25  26
ATOM     26  C   UNL     1      21.699  22.227  47.467  1.00  0.00    -0.000 C 
BRANCH  26  27
ATOM     27  C   UNL     1      20.327  22.439  48.118  1.00  0.00    -0.000 C 
BRANCH  27  28
ATOM     28  C   UNL     1      19.559  23.593  47.457  1.00  0.00    -0.000 C 
BRANCH  28  29
ATOM     29  C   UNL     1      18.191  23.816  48.123  1.00  0.00    -0.000 C 
BRANCH  29  30
ATOM     30  C   UNL     1      17.185  24.487  47.167  1.00  0.00    -0.000 C 
BRANCH  30  31
ATOM     31  C   UNL     1      17.858  25.047  45.900  1.00  0.00    -0.003 C 
ATOM     32  C   UNL     1      17.221  24.491  44.621  1.00  0.00     0.004 C 
ENDBRANCH  30  31
ENDBRANCH  29  30
ENDBRANCH  28  29
ENDBRANCH  27  28
ENDBRANCH  26  27
ENDBRANCH  25  26
ENDBRANCH  24  25
ENDBRANCH  23  24
ENDBRANCH  22  23
ENDBRANCH  21  22
ENDBRANCH  20  21
ENDBRANCH  19  20
ENDBRANCH  18  19
ENDBRANCH   1  18
TORSDOF 28
ENDMDL
