MODEL 1
REMARK VINA RESULT:    -4.488      0.000      0.000
REMARK INTER + INTRA:         -13.384
REMARK INTER:                  -9.735
REMARK INTRA:                  -3.649
REMARK UNBOUND:                -3.649
REMARK SMILES CCCCCCCCCCCCCCCCCCCCCC(=O)[O-]
REMARK SMILES IDX 12 1 11 2 10 3 9 4 8 5 7 6 6 7 5 8 4 9 3 10 2 11 1 12 13 13
REMARK SMILES IDX 14 14 15 15 16 16 17 17 18 18 19 19 20 20 21 21 22 22 23 23
REMARK SMILES IDX 24 24
REMARK H PARENT
REMARK Flexibility Score: inf
ROOT
ATOM      1  C   UNL     1      20.421  -6.380  48.020  1.00  0.00     0.000 C 
ENDROOT
BRANCH   1   2
ATOM      2  C   UNL     1      21.622  -6.431  47.059  1.00  0.00     0.000 C 
BRANCH   2   3
ATOM      3  C   UNL     1      21.690  -5.287  46.026  1.00  0.00     0.000 C 
BRANCH   3   4
ATOM      4  C   UNL     1      20.611  -4.201  46.183  1.00  0.00    -0.000 C 
BRANCH   4   5
ATOM      5  C   UNL     1      20.129  -3.641  44.837  1.00  0.00    -0.000 C 
BRANCH   5   6
ATOM      6  C   UNL     1      20.824  -4.347  43.667  1.00  0.00    -0.000 C 
BRANCH   6   7
ATOM      7  C   UNL     1      19.794  -4.923  42.682  1.00  0.00    -0.000 C 
BRANCH   7   8
ATOM      8  C   UNL     1      18.418  -5.151  43.326  1.00  0.00    -0.000 C 
BRANCH   8   9
ATOM      9  C   UNL     1      18.099  -6.642  43.527  1.00  0.00    -0.000 C 
BRANCH   9  10
ATOM     10  C   UNL     1      18.800  -7.243  44.760  1.00  0.00    -0.000 C 
BRANCH  10  11
ATOM     11  C   UNL     1      19.714  -8.445  44.467  1.00  0.00    -0.003 C 
ATOM     12  C   UNL     1      20.882  -8.099  43.544  1.00  0.00     0.004 C 
ENDBRANCH  10  11
ENDBRANCH   9  10
ENDBRANCH   8   9
ENDBRANCH   7   8
ENDBRANCH   6   7
ENDBRANCH   5   6
ENDBRANCH   4   5
ENDBRANCH   3   4
ENDBRANCH   2   3
ENDBRANCH   1   2
BRANCH   1  13
ATOM     13  C   UNL     1      20.421  -7.533  49.039  1.00  0.00     0.000 C 
BRANCH  13  14
ATOM     14  C   UNL     1      20.761  -7.063  50.463  1.00  0.00     0.000 C 
BRANCH  14  15
ATOM     15  C   UNL     1      22.129  -7.576  50.947  1.00  0.00     0.000 C 
BRANCH  15  16
ATOM     16  C   UNL     1      23.215  -6.489  50.897  1.00  0.00     0.000 C 
BRANCH  16  17
ATOM     17  C   UNL     1      22.729  -5.143  51.462  1.00  0.00     0.000 C 
BRANCH  17  18
ATOM     18  C   UNL     1      23.338  -3.932  50.734  1.00  0.00     0.000 C 
BRANCH  18  19
ATOM     19  C   UNL     1      23.206  -3.960  49.201  1.00  0.00     0.000 C 
BRANCH  19  20
ATOM     20  C   UNL     1      22.832  -2.592  48.606  1.00  0.00     0.006 C 
BRANCH  20  21
ATOM     21  C   UNL     1      23.871  -2.098  47.590  1.00  0.00     0.053 C 
BRANCH  21  22
ATOM     22  C   UNL     1      23.252  -1.830  46.252  1.00  0.00     0.041 C 
ATOM     23  O   UNL     1      23.780  -2.290  45.206  1.00  0.00    -0.550 OA
ATOM     24  O   UNL     1      22.112  -1.042  46.159  1.00  0.00    -0.550 OA
ENDBRANCH  21  22
ENDBRANCH  20  21
ENDBRANCH  19  20
ENDBRANCH  18  19
ENDBRANCH  17  18
ENDBRANCH  16  17
ENDBRANCH  15  16
ENDBRANCH  14  15
ENDBRANCH  13  14
ENDBRANCH   1  13
TORSDOF 20
ENDMDL
MODEL 2
REMARK VINA RESULT:    -4.377      2.159      6.004
REMARK INTER + INTRA:         -13.145
REMARK INTER:                  -9.958
REMARK INTRA:                  -3.187
REMARK UNBOUND:                -3.649
REMARK SMILES CCCCCCCCCCCCCCCCCCCCCC(=O)[O-]
REMARK SMILES IDX 12 1 11 2 10 3 9 4 8 5 7 6 6 7 5 8 4 9 3 10 2 11 1 12 13 13
REMARK SMILES IDX 14 14 15 15 16 16 17 17 18 18 19 19 20 20 21 21 22 22 23 23
REMARK SMILES IDX 24 24
REMARK H PARENT
REMARK Flexibility Score: inf
ROOT
ATOM      1  C   UNL     1      20.618  -7.143  50.439  1.00  0.00     0.000 C 
ENDROOT
BRANCH   1   2
ATOM      2  C   UNL     1      21.930  -7.579  51.114  1.00  0.00     0.000 C 
BRANCH   2   3
ATOM      3  C   UNL     1      23.113  -6.603  50.949  1.00  0.00     0.000 C 
BRANCH   3   4
ATOM      4  C   UNL     1      22.789  -5.128  51.244  1.00  0.00    -0.000 C 
BRANCH   4   5
ATOM      5  C   UNL     1      23.444  -4.161  50.246  1.00  0.00    -0.000 C 
BRANCH   5   6
ATOM      6  C   UNL     1      23.094  -2.706  50.581  1.00  0.00    -0.000 C 
BRANCH   6   7
ATOM      7  C   UNL     1      22.704  -1.929  49.314  1.00  0.00    -0.000 C 
BRANCH   7   8
ATOM      8  C   UNL     1      23.923  -1.495  48.484  1.00  0.00    -0.000 C 
BRANCH   8   9
ATOM      9  C   UNL     1      23.758  -1.809  46.987  1.00  0.00    -0.000 C 
BRANCH   9  10
ATOM     10  C   UNL     1      22.311  -2.174  46.607  1.00  0.00    -0.000 C 
BRANCH  10  11
ATOM     11  C   UNL     1      22.141  -2.777  45.202  1.00  0.00    -0.003 C 
ATOM     12  C   UNL     1      23.432  -3.376  44.646  1.00  0.00     0.004 C 
ENDBRANCH  10  11
ENDBRANCH   9  10
ENDBRANCH   8   9
ENDBRANCH   7   8
ENDBRANCH   6   7
ENDBRANCH   5   6
ENDBRANCH   4   5
ENDBRANCH   3   4
ENDBRANCH   2   3
ENDBRANCH   1   2
BRANCH   1  13
ATOM     13  C   UNL     1      20.575  -7.484  48.940  1.00  0.00     0.000 C 
BRANCH  13  14
ATOM     14  C   UNL     1      19.834  -6.421  48.112  1.00  0.00     0.000 C 
BRANCH  14  15
ATOM     15  C   UNL     1      20.735  -5.756  47.057  1.00  0.00     0.000 C 
BRANCH  15  16
ATOM     16  C   UNL     1      22.231  -5.952  47.356  1.00  0.00     0.000 C 
BRANCH  16  17
ATOM     17  C   UNL     1      22.988  -6.598  46.181  1.00  0.00     0.000 C 
BRANCH  17  18
ATOM     18  C   UNL     1      22.060  -7.359  45.217  1.00  0.00     0.000 C 
BRANCH  18  19
ATOM     19  C   UNL     1      22.019  -6.808  43.781  1.00  0.00     0.000 C 
BRANCH  19  20
ATOM     20  C   UNL     1      20.588  -6.658  43.237  1.00  0.00     0.006 C 
BRANCH  20  21
ATOM     21  C   UNL     1      20.204  -5.189  43.013  1.00  0.00     0.053 C 
BRANCH  21  22
ATOM     22  C   UNL     1      18.729  -4.974  43.162  1.00  0.00     0.041 C 
ATOM     23  O   UNL     1      18.260  -3.807  43.207  1.00  0.00    -0.550 OA
ATOM     24  O   UNL     1      17.877  -6.065  43.287  1.00  0.00    -0.550 OA
ENDBRANCH  21  22
ENDBRANCH  20  21
ENDBRANCH  19  20
ENDBRANCH  18  19
ENDBRANCH  17  18
ENDBRANCH  16  17
ENDBRANCH  15  16
ENDBRANCH  14  15
ENDBRANCH  13  14
ENDBRANCH   1  13
TORSDOF 20
ENDMDL
MODEL 3
REMARK VINA RESULT:    -4.304      0.906      1.999
REMARK INTER + INTRA:         -12.985
REMARK INTER:                  -9.734
REMARK INTRA:                  -3.251
REMARK UNBOUND:                -3.649
REMARK SMILES CCCCCCCCCCCCCCCCCCCCCC(=O)[O-]
REMARK SMILES IDX 12 1 11 2 10 3 9 4 8 5 7 6 6 7 5 8 4 9 3 10 2 11 1 12 13 13
REMARK SMILES IDX 14 14 15 15 16 16 17 17 18 18 19 19 20 20 21 21 22 22 23 23
REMARK SMILES IDX 24 24
REMARK H PARENT
REMARK Flexibility Score: inf
ROOT
ATOM      1  C   UNL     1      19.884  -6.374  47.998  1.00  0.00     0.000 C 
ENDROOT
BRANCH   1   2
ATOM      2  C   UNL     1      21.117  -5.624  47.464  1.00  0.00     0.000 C 
BRANCH   2   3
ATOM      3  C   UNL     1      20.857  -4.704  46.253  1.00  0.00     0.000 C 
BRANCH   3   4
ATOM      4  C   UNL     1      21.730  -4.987  45.018  1.00  0.00    -0.000 C 
BRANCH   4   5
ATOM      5  C   UNL     1      22.043  -6.480  44.838  1.00  0.00    -0.000 C 
BRANCH   5   6
ATOM      6  C   UNL     1      21.767  -6.929  43.398  1.00  0.00    -0.000 C 
BRANCH   6   7
ATOM      7  C   UNL     1      20.496  -7.790  43.324  1.00  0.00    -0.000 C 
BRANCH   7   8
ATOM      8  C   UNL     1      19.762  -7.883  44.671  1.00  0.00    -0.000 C 
BRANCH   8   9
ATOM      9  C   UNL     1      18.456  -7.072  44.690  1.00  0.00    -0.000 C 
BRANCH   9  10
ATOM     10  C   UNL     1      18.174  -6.361  43.353  1.00  0.00    -0.000 C 
BRANCH  10  11
ATOM     11  C   UNL     1      18.401  -4.839  43.365  1.00  0.00    -0.003 C 
ATOM     12  C   UNL     1      19.287  -4.356  42.217  1.00  0.00     0.004 C 
ENDBRANCH  10  11
ENDBRANCH   9  10
ENDBRANCH   8   9
ENDBRANCH   7   8
ENDBRANCH   6   7
ENDBRANCH   5   6
ENDBRANCH   4   5
ENDBRANCH   3   4
ENDBRANCH   2   3
ENDBRANCH   1   2
BRANCH   1  13
ATOM     13  C   UNL     1      20.250  -7.512  48.965  1.00  0.00     0.000 C 
BRANCH  13  14
ATOM     14  C   UNL     1      20.564  -7.005  50.383  1.00  0.00     0.000 C 
BRANCH  14  15
ATOM     15  C   UNL     1      22.074  -6.960  50.677  1.00  0.00     0.000 C 
BRANCH  15  16
ATOM     16  C   UNL     1      22.537  -5.575  51.159  1.00  0.00     0.000 C 
BRANCH  16  17
ATOM     17  C   UNL     1      23.669  -4.997  50.291  1.00  0.00     0.000 C 
BRANCH  17  18
ATOM     18  C   UNL     1      24.111  -3.593  50.741  1.00  0.00     0.000 C 
BRANCH  18  19
ATOM     19  C   UNL     1      23.543  -2.432  49.906  1.00  0.00     0.000 C 
BRANCH  19  20
ATOM     20  C   UNL     1      23.153  -2.854  48.479  1.00  0.00     0.006 C 
BRANCH  20  21
ATOM     21  C   UNL     1      22.539  -1.697  47.680  1.00  0.00     0.053 C 
BRANCH  21  22
ATOM     22  C   UNL     1      23.076  -1.644  46.282  1.00  0.00     0.041 C 
ATOM     23  O   UNL     1      24.157  -2.222  45.995  1.00  0.00    -0.550 OA
ATOM     24  O   UNL     1      22.398  -0.926  45.305  1.00  0.00    -0.550 OA
ENDBRANCH  21  22
ENDBRANCH  20  21
ENDBRANCH  19  20
ENDBRANCH  18  19
ENDBRANCH  17  18
ENDBRANCH  16  17
ENDBRANCH  15  16
ENDBRANCH  14  15
ENDBRANCH  13  14
ENDBRANCH   1  13
TORSDOF 20
ENDMDL
MODEL 4
REMARK VINA RESULT:    -4.268      1.326      6.200
REMARK INTER + INTRA:         -12.907
REMARK INTER:                  -9.104
REMARK INTRA:                  -3.802
REMARK UNBOUND:                -3.649
REMARK SMILES CCCCCCCCCCCCCCCCCCCCCC(=O)[O-]
REMARK SMILES IDX 12 1 11 2 10 3 9 4 8 5 7 6 6 7 5 8 4 9 3 10 2 11 1 12 13 13
REMARK SMILES IDX 14 14 15 15 16 16 17 17 18 18 19 19 20 20 21 21 22 22 23 23
REMARK SMILES IDX 24 24
REMARK H PARENT
REMARK Flexibility Score: inf
ROOT
ATOM      1  C   UNL     1      19.543  -6.558  47.983  1.00  0.00     0.000 C 
ENDROOT
BRANCH   1   2
ATOM      2  C   UNL     1      20.453  -7.455  48.842  1.00  0.00     0.000 C 
BRANCH   2   3
ATOM      3  C   UNL     1      20.526  -7.081  50.337  1.00  0.00     0.000 C 
BRANCH   3   4
ATOM      4  C   UNL     1      21.529  -7.901  51.167  1.00  0.00    -0.000 C 
BRANCH   4   5
ATOM      5  C   UNL     1      22.865  -7.173  51.378  1.00  0.00    -0.000 C 
BRANCH   5   6
ATOM      6  C   UNL     1      24.007  -7.903  50.661  1.00  0.00    -0.000 C 
BRANCH   6   7
ATOM      7  C   UNL     1      24.725  -6.968  49.676  1.00  0.00    -0.000 C 
BRANCH   7   8
ATOM      8  C   UNL     1      24.074  -6.956  48.284  1.00  0.00    -0.000 C 
BRANCH   8   9
ATOM      9  C   UNL     1      23.866  -5.531  47.742  1.00  0.00    -0.000 C 
BRANCH   9  10
ATOM     10  C   UNL     1      22.833  -4.727  48.554  1.00  0.00    -0.000 C 
BRANCH  10  11
ATOM     11  C   UNL     1      23.388  -3.473  49.252  1.00  0.00    -0.003 C 
ATOM     12  C   UNL     1      23.285  -3.540  50.775  1.00  0.00     0.004 C 
ENDBRANCH  10  11
ENDBRANCH   9  10
ENDBRANCH   8   9
ENDBRANCH   7   8
ENDBRANCH   6   7
ENDBRANCH   5   6
ENDBRANCH   4   5
ENDBRANCH   3   4
ENDBRANCH   2   3
ENDBRANCH   1   2
BRANCH   1  13
ATOM     13  C   UNL     1      19.755  -6.764  46.473  1.00  0.00     0.000 C 
BRANCH  13  14
ATOM     14  C   UNL     1      21.081  -7.475  46.154  1.00  0.00     0.000 C 
BRANCH  14  15
ATOM     15  C   UNL     1      21.671  -7.051  44.798  1.00  0.00     0.000 C 
BRANCH  15  16
ATOM     16  C   UNL     1      20.630  -7.093  43.666  1.00  0.00     0.000 C 
BRANCH  16  17
ATOM     17  C   UNL     1      20.573  -5.778  42.868  1.00  0.00     0.000 C 
BRANCH  17  18
ATOM     18  C   UNL     1      19.425  -4.855  43.315  1.00  0.00     0.000 C 
BRANCH  18  19
ATOM     19  C   UNL     1      19.805  -3.811  44.379  1.00  0.00     0.000 C 
BRANCH  19  20
ATOM     20  C   UNL     1      21.180  -3.169  44.127  1.00  0.00     0.006 C 
BRANCH  20  21
ATOM     21  C   UNL     1      22.131  -3.349  45.318  1.00  0.00     0.053 C 
BRANCH  21  22
ATOM     22  C   UNL     1      22.625  -2.033  45.835  1.00  0.00     0.041 C 
ATOM     23  O   UNL     1      21.809  -1.126  46.147  1.00  0.00    -0.550 OA
ATOM     24  O   UNL     1      23.991  -1.796  45.937  1.00  0.00    -0.550 OA
ENDBRANCH  21  22
ENDBRANCH  20  21
ENDBRANCH  19  20
ENDBRANCH  18  19
ENDBRANCH  17  18
ENDBRANCH  16  17
ENDBRANCH  15  16
ENDBRANCH  14  15
ENDBRANCH  13  14
ENDBRANCH   1  13
TORSDOF 20
ENDMDL
MODEL 5
REMARK VINA RESULT:    -4.233      2.399      6.845
REMARK INTER + INTRA:         -12.831
REMARK INTER:                  -9.043
REMARK INTRA:                  -3.788
REMARK UNBOUND:                -3.649
REMARK SMILES CCCCCCCCCCCCCCCCCCCCCC(=O)[O-]
REMARK SMILES IDX 12 1 11 2 10 3 9 4 8 5 7 6 6 7 5 8 4 9 3 10 2 11 1 12 13 13
REMARK SMILES IDX 14 14 15 15 16 16 17 17 18 18 19 19 20 20 21 21 22 22 23 23
REMARK SMILES IDX 24 24
REMARK H PARENT
REMARK Flexibility Score: inf
ROOT
ATOM      1  C   UNL     1      23.783  -4.601  47.033  1.00  0.00     0.000 C 
ENDROOT
BRANCH   1   2
ATOM      2  C   UNL     1      22.579  -5.530  46.791  1.00  0.00     0.000 C 
BRANCH   2   3
ATOM      3  C   UNL     1      21.256  -5.077  47.442  1.00  0.00     0.000 C 
BRANCH   3   4
ATOM      4  C   UNL     1      20.181  -6.172  47.566  1.00  0.00    -0.000 C 
BRANCH   4   5
ATOM      5  C   UNL     1      20.666  -7.399  48.352  1.00  0.00    -0.000 C 
BRANCH   5   6
ATOM      6  C   UNL     1      20.164  -7.356  49.800  1.00  0.00    -0.000 C 
BRANCH   6   7
ATOM      7  C   UNL     1      21.245  -6.801  50.741  1.00  0.00    -0.000 C 
BRANCH   7   8
ATOM      8  C   UNL     1      22.664  -7.229  50.333  1.00  0.00    -0.000 C 
BRANCH   8   9
ATOM      9  C   UNL     1      23.662  -6.059  50.357  1.00  0.00    -0.000 C 
BRANCH   9  10
ATOM     10  C   UNL     1      23.105  -4.811  51.067  1.00  0.00    -0.000 C 
BRANCH  10  11
ATOM     11  C   UNL     1      23.808  -3.490  50.707  1.00  0.00    -0.003 C 
ATOM     12  C   UNL     1      22.935  -2.557  49.868  1.00  0.00     0.004 C 
ENDBRANCH  10  11
ENDBRANCH   9  10
ENDBRANCH   8   9
ENDBRANCH   7   8
ENDBRANCH   6   7
ENDBRANCH   5   6
ENDBRANCH   4   5
ENDBRANCH   3   4
ENDBRANCH   2   3
ENDBRANCH   1   2
BRANCH   1  13
ATOM     13  C   UNL     1      24.730  -4.524  45.824  1.00  0.00     0.000 C 
BRANCH  13  14
ATOM     14  C   UNL     1      24.977  -3.079  45.357  1.00  0.00     0.000 C 
BRANCH  14  15
ATOM     15  C   UNL     1      23.949  -2.608  44.315  1.00  0.00     0.000 C 
BRANCH  15  16
ATOM     16  C   UNL     1      22.944  -1.600  44.895  1.00  0.00     0.000 C 
BRANCH  16  17
ATOM     17  C   UNL     1      21.586  -2.245  45.228  1.00  0.00     0.000 C 
BRANCH  17  18
ATOM     18  C   UNL     1      21.099  -3.213  44.135  1.00  0.00     0.000 C 
BRANCH  18  19
ATOM     19  C   UNL     1      19.751  -3.896  44.424  1.00  0.00     0.000 C 
BRANCH  19  20
ATOM     20  C   UNL     1      19.577  -5.224  43.668  1.00  0.00     0.006 C 
BRANCH  20  21
ATOM     21  C   UNL     1      20.911  -5.956  43.470  1.00  0.00     0.053 C 
BRANCH  21  22
ATOM     22  C   UNL     1      20.798  -7.412  43.807  1.00  0.00     0.041 C 
ATOM     23  O   UNL     1      21.731  -8.205  43.514  1.00  0.00    -0.550 OA
ATOM     24  O   UNL     1      19.645  -7.897  44.412  1.00  0.00    -0.550 OA
ENDBRANCH  21  22
ENDBRANCH  20  21
ENDBRANCH  19  20
ENDBRANCH  18  19
ENDBRANCH  17  18
ENDBRANCH  16  17
ENDBRANCH  15  16
ENDBRANCH  14  15
ENDBRANCH  13  14
ENDBRANCH   1  13
TORSDOF 20
ENDMDL
MODEL 6
REMARK VINA RESULT:    -4.229      1.319      6.423
REMARK INTER + INTRA:         -12.824
REMARK INTER:                 -10.547
REMARK INTRA:                  -2.277
REMARK UNBOUND:                -3.649
REMARK SMILES CCCCCCCCCCCCCCCCCCCCCC(=O)[O-]
REMARK SMILES IDX 12 1 11 2 10 3 9 4 8 5 7 6 6 7 5 8 4 9 3 10 2 11 1 12 13 13
REMARK SMILES IDX 14 14 15 15 16 16 17 17 18 18 19 19 20 20 21 21 22 22 23 23
REMARK SMILES IDX 24 24
REMARK H PARENT
REMARK Flexibility Score: inf
ROOT
ATOM      1  C   UNL     1      18.489  -7.145  45.497  1.00  0.00     0.000 C 
ENDROOT
BRANCH   1   2
ATOM      2  C   UNL     1      19.853  -7.132  46.210  1.00  0.00     0.000 C 
BRANCH   2   3
ATOM      3  C   UNL     1      19.881  -6.400  47.568  1.00  0.00     0.000 C 
BRANCH   3   4
ATOM      4  C   UNL     1      20.893  -6.953  48.588  1.00  0.00    -0.000 C 
BRANCH   4   5
ATOM      5  C   UNL     1      20.261  -7.249  49.956  1.00  0.00    -0.000 C 
BRANCH   5   6
ATOM      6  C   UNL     1      21.339  -7.453  51.026  1.00  0.00    -0.000 C 
BRANCH   6   7
ATOM      7  C   UNL     1      22.701  -6.933  50.540  1.00  0.00    -0.000 C 
BRANCH   7   8
ATOM      8  C   UNL     1      23.090  -5.592  51.182  1.00  0.00    -0.000 C 
BRANCH   8   9
ATOM      9  C   UNL     1      23.337  -4.489  50.140  1.00  0.00    -0.000 C 
BRANCH   9  10
ATOM     10  C   UNL     1      23.373  -3.078  50.758  1.00  0.00    -0.000 C 
BRANCH  10  11
ATOM     11  C   UNL     1      23.179  -1.925  49.759  1.00  0.00    -0.003 C 
ATOM     12  C   UNL     1      21.978  -1.040  50.092  1.00  0.00     0.004 C 
ENDBRANCH  10  11
ENDBRANCH   9  10
ENDBRANCH   8   9
ENDBRANCH   7   8
ENDBRANCH   6   7
ENDBRANCH   5   6
ENDBRANCH   4   5
ENDBRANCH   3   4
ENDBRANCH   2   3
ENDBRANCH   1   2
BRANCH   1  13
ATOM     13  C   UNL     1      18.610  -6.964  43.974  1.00  0.00     0.000 C 
BRANCH  13  14
ATOM     14  C   UNL     1      19.951  -6.336  43.558  1.00  0.00     0.000 C 
BRANCH  14  15
ATOM     15  C   UNL     1      19.779  -5.164  42.576  1.00  0.00     0.000 C 
BRANCH  15  16
ATOM     16  C   UNL     1      19.410  -3.851  43.286  1.00  0.00     0.000 C 
BRANCH  16  17
ATOM     17  C   UNL     1      19.889  -3.817  44.749  1.00  0.00     0.000 C 
BRANCH  17  18
ATOM     18  C   UNL     1      21.195  -3.024  44.933  1.00  0.00     0.000 C 
BRANCH  18  19
ATOM     19  C   UNL     1      22.027  -3.417  46.166  1.00  0.00     0.000 C 
BRANCH  19  20
ATOM     20  C   UNL     1      23.507  -3.676  45.835  1.00  0.00     0.006 C 
BRANCH  20  21
ATOM     21  C   UNL     1      24.421  -2.558  46.356  1.00  0.00     0.053 C 
BRANCH  21  22
ATOM     22  C   UNL     1      24.675  -1.518  45.308  1.00  0.00     0.041 C 
ATOM     23  O   UNL     1      25.802  -1.442  44.750  1.00  0.00    -0.550 OA
ATOM     24  O   UNL     1      23.678  -0.610  44.973  1.00  0.00    -0.550 OA
ENDBRANCH  21  22
ENDBRANCH  20  21
ENDBRANCH  19  20
ENDBRANCH  18  19
ENDBRANCH  17  18
ENDBRANCH  16  17
ENDBRANCH  15  16
ENDBRANCH  14  15
ENDBRANCH  13  14
ENDBRANCH   1  13
TORSDOF 20
ENDMDL
MODEL 7
REMARK VINA RESULT:    -4.225      1.174      2.568
REMARK INTER + INTRA:         -12.814
REMARK INTER:                  -9.120
REMARK INTRA:                  -3.694
REMARK UNBOUND:                -3.649
REMARK SMILES CCCCCCCCCCCCCCCCCCCCCC(=O)[O-]
REMARK SMILES IDX 12 1 11 2 10 3 9 4 8 5 7 6 6 7 5 8 4 9 3 10 2 11 1 12 13 13
REMARK SMILES IDX 14 14 15 15 16 16 17 17 18 18 19 19 20 20 21 21 22 22 23 23
REMARK SMILES IDX 24 24
REMARK H PARENT
REMARK Flexibility Score: inf
ROOT
ATOM      1  C   UNL     1      20.787  -7.108  50.585  1.00  0.00     0.000 C 
ENDROOT
BRANCH   1   2
ATOM      2  C   UNL     1      20.247  -7.491  49.195  1.00  0.00     0.000 C 
BRANCH   2   3
ATOM      3  C   UNL     1      20.961  -6.821  48.003  1.00  0.00     0.000 C 
BRANCH   3   4
ATOM      4  C   UNL     1      20.234  -5.603  47.406  1.00  0.00    -0.000 C 
BRANCH   4   5
ATOM      5  C   UNL     1      21.176  -4.661  46.642  1.00  0.00    -0.000 C 
BRANCH   5   6
ATOM      6  C   UNL     1      20.485  -4.083  45.401  1.00  0.00    -0.000 C 
BRANCH   6   7
ATOM      7  C   UNL     1      21.001  -4.758  44.120  1.00  0.00    -0.000 C 
BRANCH   7   8
ATOM      8  C   UNL     1      22.188  -5.698  44.380  1.00  0.00    -0.000 C 
BRANCH   8   9
ATOM      9  C   UNL     1      21.879  -7.157  44.003  1.00  0.00    -0.000 C 
BRANCH   9  10
ATOM     10  C   UNL     1      20.459  -7.340  43.435  1.00  0.00    -0.000 C 
BRANCH  10  11
ATOM     11  C   UNL     1      19.495  -8.131  44.337  1.00  0.00    -0.003 C 
ATOM     12  C   UNL     1      18.343  -7.282  44.873  1.00  0.00     0.004 C 
ENDBRANCH  10  11
ENDBRANCH   9  10
ENDBRANCH   8   9
ENDBRANCH   7   8
ENDBRANCH   6   7
ENDBRANCH   5   6
ENDBRANCH   4   5
ENDBRANCH   3   4
ENDBRANCH   2   3
ENDBRANCH   1   2
BRANCH   1  13
ATOM     13  C   UNL     1      22.200  -7.657  50.848  1.00  0.00     0.000 C 
BRANCH  13  14
ATOM     14  C   UNL     1      23.230  -6.542  51.098  1.00  0.00     0.000 C 
BRANCH  14  15
ATOM     15  C   UNL     1      22.593  -5.142  51.128  1.00  0.00     0.000 C 
BRANCH  15  16
ATOM     16  C   UNL     1      23.339  -4.139  50.232  1.00  0.00     0.000 C 
BRANCH  16  17
ATOM     17  C   UNL     1      24.415  -4.812  49.362  1.00  0.00     0.000 C 
BRANCH  17  18
ATOM     18  C   UNL     1      24.909  -3.911  48.216  1.00  0.00     0.000 C 
BRANCH  18  19
ATOM     19  C   UNL     1      24.775  -4.516  46.807  1.00  0.00     0.000 C 
BRANCH  19  20
ATOM     20  C   UNL     1      24.802  -3.456  45.694  1.00  0.00     0.006 C 
BRANCH  20  21
ATOM     21  C   UNL     1      24.317  -2.086  46.187  1.00  0.00     0.053 C 
BRANCH  21  22
ATOM     22  C   UNL     1      23.133  -1.604  45.406  1.00  0.00     0.041 C 
ATOM     23  O   UNL     1      22.161  -1.063  45.996  1.00  0.00    -0.550 OA
ATOM     24  O   UNL     1      23.089  -1.785  44.029  1.00  0.00    -0.550 OA
ENDBRANCH  21  22
ENDBRANCH  20  21
ENDBRANCH  19  20
ENDBRANCH  18  19
ENDBRANCH  17  18
ENDBRANCH  16  17
ENDBRANCH  15  16
ENDBRANCH  14  15
ENDBRANCH  13  14
ENDBRANCH   1  13
TORSDOF 20
ENDMDL
MODEL 8
REMARK VINA RESULT:    -4.192      1.692      5.490
REMARK INTER + INTRA:         -12.743
REMARK INTER:                  -8.877
REMARK INTRA:                  -3.866
REMARK UNBOUND:                -3.649
REMARK SMILES CCCCCCCCCCCCCCCCCCCCCC(=O)[O-]
REMARK SMILES IDX 12 1 11 2 10 3 9 4 8 5 7 6 6 7 5 8 4 9 3 10 2 11 1 12 13 13
REMARK SMILES IDX 14 14 15 15 16 16 17 17 18 18 19 19 20 20 21 21 22 22 23 23
REMARK SMILES IDX 24 24
REMARK H PARENT
REMARK Flexibility Score: inf
ROOT
ATOM      1  C   UNL     1      20.494  -7.830  44.153  1.00  0.00     0.000 C 
ENDROOT
BRANCH   1   2
ATOM      2  C   UNL     1      20.703  -6.327  44.413  1.00  0.00     0.000 C 
BRANCH   2   3
ATOM      3  C   UNL     1      19.876  -5.737  45.575  1.00  0.00     0.000 C 
BRANCH   3   4
ATOM      4  C   UNL     1      19.469  -6.745  46.665  1.00  0.00    -0.000 C 
BRANCH   4   5
ATOM      5  C   UNL     1      19.888  -6.302  48.074  1.00  0.00    -0.000 C 
BRANCH   5   6
ATOM      6  C   UNL     1      20.287  -7.508  48.933  1.00  0.00    -0.000 C 
BRANCH   6   7
ATOM      7  C   UNL     1      20.630  -7.073  50.366  1.00  0.00    -0.000 C 
BRANCH   7   8
ATOM      8  C   UNL     1      21.905  -7.743  50.902  1.00  0.00    -0.000 C 
BRANCH   8   9
ATOM      9  C   UNL     1      23.115  -6.792  50.905  1.00  0.00    -0.000 C 
BRANCH   9  10
ATOM     10  C   UNL     1      22.717  -5.319  51.115  1.00  0.00    -0.000 C 
BRANCH  10  11
ATOM     11  C   UNL     1      23.780  -4.292  50.685  1.00  0.00    -0.003 C 
ATOM     12  C   UNL     1      23.234  -2.868  50.595  1.00  0.00     0.004 C 
ENDBRANCH  10  11
ENDBRANCH   9  10
ENDBRANCH   8   9
ENDBRANCH   7   8
ENDBRANCH   6   7
ENDBRANCH   5   6
ENDBRANCH   4   5
ENDBRANCH   3   4
ENDBRANCH   2   3
ENDBRANCH   1   2
BRANCH   1  13
ATOM     13  C   UNL     1      21.788  -8.549  43.736  1.00  0.00     0.000 C 
BRANCH  13  14
ATOM     14  C   UNL     1      22.221  -9.622  44.749  1.00  0.00     0.000 C 
BRANCH  14  15
ATOM     15  C   UNL     1      22.188  -9.115  46.201  1.00  0.00     0.000 C 
BRANCH  15  16
ATOM     16  C   UNL     1      23.547  -9.265  46.906  1.00  0.00     0.000 C 
BRANCH  16  17
ATOM     17  C   UNL     1      24.209  -7.908  47.206  1.00  0.00     0.000 C 
BRANCH  17  18
ATOM     18  C   UNL     1      23.227  -6.727  47.102  1.00  0.00     0.000 C 
BRANCH  18  19
ATOM     19  C   UNL     1      23.884  -5.335  47.069  1.00  0.00     0.000 C 
BRANCH  19  20
ATOM     20  C   UNL     1      22.859  -4.189  47.042  1.00  0.00     0.006 C 
BRANCH  20  21
ATOM     21  C   UNL     1      22.896  -3.411  45.720  1.00  0.00     0.053 C 
BRANCH  21  22
ATOM     22  C   UNL     1      23.550  -2.073  45.884  1.00  0.00     0.041 C 
ATOM     23  O   UNL     1      23.942  -1.693  47.018  1.00  0.00    -0.550 OA
ATOM     24  O   UNL     1      23.693  -1.230  44.788  1.00  0.00    -0.550 OA
ENDBRANCH  21  22
ENDBRANCH  20  21
ENDBRANCH  19  20
ENDBRANCH  18  19
ENDBRANCH  17  18
ENDBRANCH  16  17
ENDBRANCH  15  16
ENDBRANCH  14  15
ENDBRANCH  13  14
ENDBRANCH   1  13
TORSDOF 20
ENDMDL
MODEL 9
REMARK VINA RESULT:    -4.187      2.247      5.559
REMARK INTER + INTRA:         -12.732
REMARK INTER:                  -9.160
REMARK INTRA:                  -3.572
REMARK UNBOUND:                -3.649
REMARK SMILES CCCCCCCCCCCCCCCCCCCCCC(=O)[O-]
REMARK SMILES IDX 12 1 11 2 10 3 9 4 8 5 7 6 6 7 5 8 4 9 3 10 2 11 1 12 13 13
REMARK SMILES IDX 14 14 15 15 16 16 17 17 18 18 19 19 20 20 21 21 22 22 23 23
REMARK SMILES IDX 24 24
REMARK H PARENT
REMARK Flexibility Score: inf
ROOT
ATOM      1  C   UNL     1      22.747  -5.656  51.059  1.00  0.00     0.000 C 
ENDROOT
BRANCH   1   2
ATOM      2  C   UNL     1      23.460  -4.933  49.902  1.00  0.00     0.000 C 
BRANCH   2   3
ATOM      3  C   UNL     1      23.840  -5.825  48.702  1.00  0.00     0.000 C 
BRANCH   3   4
ATOM      4  C   UNL     1      23.232  -5.399  47.353  1.00  0.00    -0.000 C 
BRANCH   4   5
ATOM      5  C   UNL     1      24.295  -5.141  46.275  1.00  0.00    -0.000 C 
BRANCH   5   6
ATOM      6  C   UNL     1      23.653  -4.601  44.990  1.00  0.00    -0.000 C 
BRANCH   6   7
ATOM      7  C   UNL     1      22.331  -3.881  45.296  1.00  0.00    -0.000 C 
BRANCH   7   8
ATOM      8  C   UNL     1      22.313  -2.430  44.790  1.00  0.00    -0.000 C 
BRANCH   8   9
ATOM      9  C   UNL     1      22.132  -1.410  45.927  1.00  0.00    -0.000 C 
BRANCH   9  10
ATOM     10  C   UNL     1      23.092  -1.652  47.107  1.00  0.00    -0.000 C 
BRANCH  10  11
ATOM     11  C   UNL     1      22.408  -1.870  48.468  1.00  0.00    -0.003 C 
ATOM     12  C   UNL     1      23.155  -1.210  49.626  1.00  0.00     0.004 C 
ENDBRANCH  10  11
ENDBRANCH   9  10
ENDBRANCH   8   9
ENDBRANCH   7   8
ENDBRANCH   6   7
ENDBRANCH   5   6
ENDBRANCH   4   5
ENDBRANCH   3   4
ENDBRANCH   2   3
ENDBRANCH   1   2
BRANCH   1  13
ATOM     13  C   UNL     1      22.296  -7.079  50.687  1.00  0.00     0.000 C 
BRANCH  13  14
ATOM     14  C   UNL     1      20.790  -7.161  50.384  1.00  0.00     0.000 C 
BRANCH  14  15
ATOM     15  C   UNL     1      20.498  -7.529  48.919  1.00  0.00     0.000 C 
BRANCH  15  16
ATOM     16  C   UNL     1      19.770  -6.403  48.165  1.00  0.00     0.000 C 
BRANCH  16  17
ATOM     17  C   UNL     1      19.824  -6.586  46.638  1.00  0.00     0.000 C 
BRANCH  17  18
ATOM     18  C   UNL     1      20.747  -7.738  46.204  1.00  0.00     0.000 C 
BRANCH  18  19
ATOM     19  C   UNL     1      21.474  -7.522  44.865  1.00  0.00     0.000 C 
BRANCH  19  20
ATOM     20  C   UNL     1      20.519  -7.513  43.659  1.00  0.00     0.006 C 
BRANCH  20  21
ATOM     21  C   UNL     1      20.482  -6.147  42.960  1.00  0.00     0.053 C 
BRANCH  21  22
ATOM     22  C   UNL     1      19.197  -5.424  43.227  1.00  0.00     0.041 C 
ATOM     23  O   UNL     1      18.120  -6.065  43.341  1.00  0.00    -0.550 OA
ATOM     24  O   UNL     1      19.186  -4.037  43.314  1.00  0.00    -0.550 OA
ENDBRANCH  21  22
ENDBRANCH  20  21
ENDBRANCH  19  20
ENDBRANCH  18  19
ENDBRANCH  17  18
ENDBRANCH  16  17
ENDBRANCH  15  16
ENDBRANCH  14  15
ENDBRANCH  13  14
ENDBRANCH   1  13
TORSDOF 20
ENDMDL
