MODEL 1
REMARK VINA RESULT:    -3.422      0.000      0.000
REMARK INTER + INTRA:          -6.447
REMARK INTER:                  -5.422
REMARK INTRA:                  -1.026
REMARK UNBOUND:                -1.026
REMARK SMILES CCCCCCCCCCCC(=O)[O-]
REMARK SMILES IDX 7 1 8 2 9 3 10 4 11 5 12 6 13 7 14 8 6 9 5 10 4 11 3 12 2 13
REMARK SMILES IDX 1 14
REMARK H PARENT
REMARK Flexibility Score: inf
ROOT
ATOM      1  C   UNL     1      11.185  32.159  -9.930  1.00  0.00     0.000 C 
ENDROOT
BRANCH   1   2
ATOM      2  C   UNL     1      12.113  32.819 -10.960  1.00  0.00     0.000 C 
BRANCH   2   3
ATOM      3  C   UNL     1      13.601  32.637 -10.620  1.00  0.00     0.000 C 
BRANCH   3   4
ATOM      4  C   UNL     1      13.824  31.719  -9.409  1.00  0.00     0.006 C 
BRANCH   4   5
ATOM      5  C   UNL     1      14.848  32.324  -8.444  1.00  0.00     0.053 C 
BRANCH   5   6
ATOM      6  C   UNL     1      16.131  32.617  -9.156  1.00  0.00     0.041 C 
ATOM      7  O   UNL     1      16.807  31.679  -9.655  1.00  0.00    -0.550 OA
ATOM      8  O   UNL     1      16.556  33.930  -9.312  1.00  0.00    -0.550 OA
ENDBRANCH   5   6
ENDBRANCH   4   5
ENDBRANCH   3   4
ENDBRANCH   2   3
ENDBRANCH   1   2
BRANCH   1   9
ATOM      9  C   UNL     1       9.809  31.862 -10.546  1.00  0.00     0.000 C 
BRANCH   9  10
ATOM     10  C   UNL     1       9.667  30.402 -11.009  1.00  0.00    -0.000 C 
BRANCH  10  11
ATOM     11  C   UNL     1      10.732  29.481 -10.390  1.00  0.00    -0.000 C 
BRANCH  11  12
ATOM     12  C   UNL     1      10.149  28.501  -9.354  1.00  0.00    -0.000 C 
BRANCH  12  13
ATOM     13  C   UNL     1      10.642  28.710  -7.912  1.00  0.00    -0.003 C 
ATOM     14  C   UNL     1      12.143  28.988  -7.826  1.00  0.00     0.004 C 
ENDBRANCH  12  13
ENDBRANCH  11  12
ENDBRANCH  10  11
ENDBRANCH   9  10
ENDBRANCH   1   9
TORSDOF 10
ENDMDL
MODEL 2
REMARK VINA RESULT:    -3.309     12.502     13.883
REMARK INTER + INTRA:          -6.269
REMARK INTER:                  -5.787
REMARK INTRA:                  -0.482
REMARK UNBOUND:                -1.026
REMARK SMILES CCCCCCCCCCCC(=O)[O-]
REMARK SMILES IDX 7 1 8 2 9 3 10 4 11 5 12 6 13 7 14 8 6 9 5 10 4 11 3 12 2 13
REMARK SMILES IDX 1 14
REMARK H PARENT
REMARK Flexibility Score: inf
ROOT
ATOM      1  C   UNL     1      19.574  18.028 -11.122  1.00  0.00     0.000 C 
ENDROOT
BRANCH   1   2
ATOM      2  C   UNL     1      21.016  17.576 -10.848  1.00  0.00     0.000 C 
BRANCH   2   3
ATOM      3  C   UNL     1      22.047  18.684 -11.117  1.00  0.00     0.000 C 
BRANCH   3   4
ATOM      4  C   UNL     1      21.591  20.056 -10.597  1.00  0.00     0.006 C 
BRANCH   4   5
ATOM      5  C   UNL     1      22.790  20.904 -10.164  1.00  0.00     0.053 C 
BRANCH   5   6
ATOM      6  C   UNL     1      22.356  22.300  -9.843  1.00  0.00     0.041 C 
ATOM      7  O   UNL     1      22.941  22.952  -8.939  1.00  0.00    -0.550 OA
ATOM      8  O   UNL     1      21.339  22.897 -10.575  1.00  0.00    -0.550 OA
ENDBRANCH   5   6
ENDBRANCH   4   5
ENDBRANCH   3   4
ENDBRANCH   2   3
ENDBRANCH   1   2
BRANCH   1   9
ATOM      9  C   UNL     1      18.583  16.886 -10.853  1.00  0.00     0.000 C 
BRANCH   9  10
ATOM     10  C   UNL     1      17.182  17.391 -10.471  1.00  0.00    -0.000 C 
BRANCH  10  11
ATOM     11  C   UNL     1      17.152  18.906 -10.211  1.00  0.00    -0.000 C 
BRANCH  11  12
ATOM     12  C   UNL     1      16.147  19.306  -9.114  1.00  0.00    -0.000 C 
BRANCH  12  13
ATOM     13  C   UNL     1      14.704  18.825  -9.348  1.00  0.00    -0.003 C 
ATOM     14  C   UNL     1      14.267  17.739  -8.364  1.00  0.00     0.004 C 
ENDBRANCH  12  13
ENDBRANCH  11  12
ENDBRANCH  10  11
ENDBRANCH   9  10
ENDBRANCH   1   9
TORSDOF 10
ENDMDL
MODEL 3
REMARK VINA RESULT:    -3.285      2.659      5.722
REMARK INTER + INTRA:          -6.231
REMARK INTER:                  -5.377
REMARK INTRA:                  -0.854
REMARK UNBOUND:                -1.026
REMARK SMILES CCCCCCCCCCCC(=O)[O-]
REMARK SMILES IDX 7 1 8 2 9 3 10 4 11 5 12 6 13 7 14 8 6 9 5 10 4 11 3 12 2 13
REMARK SMILES IDX 1 14
REMARK H PARENT
REMARK Flexibility Score: inf
ROOT
ATOM      1  C   UNL     1      11.885  31.544 -10.707  1.00  0.00     0.000 C 
ENDROOT
BRANCH   1   2
ATOM      2  C   UNL     1      10.823  32.306  -9.899  1.00  0.00     0.000 C 
BRANCH   2   3
ATOM      3  C   UNL     1       9.637  31.416  -9.490  1.00  0.00     0.000 C 
BRANCH   3   4
ATOM      4  C   UNL     1       9.580  30.103 -10.285  1.00  0.00     0.006 C 
BRANCH   4   5
ATOM      5  C   UNL     1       9.507  28.896  -9.345  1.00  0.00     0.053 C 
BRANCH   5   6
ATOM      6  C   UNL     1      10.804  28.715  -8.622  1.00  0.00     0.041 C 
ATOM      7  O   UNL     1      10.869  28.911  -7.380  1.00  0.00    -0.550 OA
ATOM      8  O   UNL     1      11.929  28.281  -9.311  1.00  0.00    -0.550 OA
ENDBRANCH   5   6
ENDBRANCH   4   5
ENDBRANCH   3   4
ENDBRANCH   2   3
ENDBRANCH   1   2
BRANCH   1   9
ATOM      9  C   UNL     1      13.299  31.987 -10.304  1.00  0.00     0.000 C 
BRANCH   9  10
ATOM     10  C   UNL     1      13.760  31.369  -8.973  1.00  0.00    -0.000 C 
BRANCH  10  11
ATOM     11  C   UNL     1      14.784  32.249  -8.237  1.00  0.00    -0.000 C 
BRANCH  11  12
ATOM     12  C   UNL     1      16.082  32.456  -9.040  1.00  0.00    -0.000 C 
BRANCH  12  13
ATOM     13  C   UNL     1      16.378  33.914  -9.432  1.00  0.00    -0.003 C 
ATOM     14  C   UNL     1      15.980  34.241 -10.872  1.00  0.00     0.004 C 
ENDBRANCH  12  13
ENDBRANCH  11  12
ENDBRANCH  10  11
ENDBRANCH   9  10
ENDBRANCH   1   9
TORSDOF 10
ENDMDL
MODEL 4
REMARK VINA RESULT:    -2.902      1.289      2.813
REMARK INTER + INTRA:          -5.624
REMARK INTER:                  -4.605
REMARK INTRA:                  -1.019
REMARK UNBOUND:                -1.026
REMARK SMILES CCCCCCCCCCCC(=O)[O-]
REMARK SMILES IDX 7 1 8 2 9 3 10 4 11 5 12 6 13 7 14 8 6 9 5 10 4 11 3 12 2 13
REMARK SMILES IDX 1 14
REMARK H PARENT
REMARK Flexibility Score: inf
ROOT
ATOM      1  C   UNL     1      12.621  30.002  -8.489  1.00  0.00     0.000 C 
ENDROOT
BRANCH   1   2
ATOM      2  C   UNL     1      12.357  30.185  -9.991  1.00  0.00     0.000 C 
BRANCH   2   3
ATOM      3  C   UNL     1      12.658  31.611 -10.478  1.00  0.00     0.000 C 
BRANCH   3   4
ATOM      4  C   UNL     1      14.060  31.744 -11.092  1.00  0.00     0.006 C 
BRANCH   4   5
ATOM      5  C   UNL     1      14.746  33.028 -10.619  1.00  0.00     0.053 C 
BRANCH   5   6
ATOM      6  C   UNL     1      15.972  32.706  -9.825  1.00  0.00     0.041 C 
ATOM      7  O   UNL     1      16.324  33.450  -8.872  1.00  0.00    -0.550 OA
ATOM      8  O   UNL     1      16.700  31.557 -10.105  1.00  0.00    -0.550 OA
ENDBRANCH   5   6
ENDBRANCH   4   5
ENDBRANCH   3   4
ENDBRANCH   2   3
ENDBRANCH   1   2
BRANCH   1   9
ATOM      9  C   UNL     1      11.752  28.873  -7.915  1.00  0.00     0.000 C 
BRANCH   9  10
ATOM     10  C   UNL     1      10.782  28.283  -8.951  1.00  0.00    -0.000 C 
BRANCH  10  11
ATOM     11  C   UNL     1       9.309  28.479  -8.558  1.00  0.00    -0.000 C 
BRANCH  11  12
ATOM     12  C   UNL     1       8.942  29.956  -8.324  1.00  0.00    -0.000 C 
BRANCH  12  13
ATOM     13  C   UNL     1       8.875  30.820  -9.596  1.00  0.00    -0.003 C 
ATOM     14  C   UNL     1       9.148  32.300  -9.331  1.00  0.00     0.004 C 
ENDBRANCH  12  13
ENDBRANCH  11  12
ENDBRANCH  10  11
ENDBRANCH   9  10
ENDBRANCH   1   9
TORSDOF 10
ENDMDL
MODEL 5
REMARK VINA RESULT:    -2.763     13.052     15.154
REMARK INTER + INTRA:          -5.404
REMARK INTER:                  -5.189
REMARK INTRA:                  -0.215
REMARK UNBOUND:                -1.026
REMARK SMILES CCCCCCCCCCCC(=O)[O-]
REMARK SMILES IDX 7 1 8 2 9 3 10 4 11 5 12 6 13 7 14 8 6 9 5 10 4 11 3 12 2 13
REMARK SMILES IDX 1 14
REMARK H PARENT
REMARK Flexibility Score: inf
ROOT
ATOM      1  C   UNL     1      20.794  18.798 -10.718  1.00  0.00     0.000 C 
ENDROOT
BRANCH   1   2
ATOM      2  C   UNL     1      20.507  17.344 -11.125  1.00  0.00     0.000 C 
BRANCH   2   3
ATOM      3  C   UNL     1      19.006  17.014 -11.125  1.00  0.00     0.000 C 
BRANCH   3   4
ATOM      4  C   UNL     1      18.131  18.235 -10.808  1.00  0.00     0.006 C 
BRANCH   4   5
ATOM      5  C   UNL     1      16.643  17.882 -10.899  1.00  0.00     0.053 C 
BRANCH   5   6
ATOM      6  C   UNL     1      15.900  18.434  -9.724  1.00  0.00     0.041 C 
ATOM      7  O   UNL     1      15.181  19.460  -9.855  1.00  0.00    -0.550 OA
ATOM      8  O   UNL     1      15.961  17.788  -8.497  1.00  0.00    -0.550 OA
ENDBRANCH   5   6
ENDBRANCH   4   5
ENDBRANCH   3   4
ENDBRANCH   2   3
ENDBRANCH   1   2
BRANCH   1   9
ATOM      9  C   UNL     1      22.302  19.091 -10.765  1.00  0.00     0.000 C 
BRANCH   9  10
ATOM     10  C   UNL     1      22.613  20.553 -11.122  1.00  0.00    -0.000 C 
BRANCH  10  11
ATOM     11  C   UNL     1      21.444  21.500 -10.804  1.00  0.00    -0.000 C 
BRANCH  11  12
ATOM     12  C   UNL     1      21.899  22.814 -10.141  1.00  0.00    -0.000 C 
BRANCH  12  13
ATOM     13  C   UNL     1      23.373  22.841  -9.698  1.00  0.00    -0.003 C 
ATOM     14  C   UNL     1      24.336  23.175 -10.838  1.00  0.00     0.004 C 
ENDBRANCH  12  13
ENDBRANCH  11  12
ENDBRANCH  10  11
ENDBRANCH   9  10
ENDBRANCH   1   9
TORSDOF 10
ENDMDL
MODEL 6
REMARK VINA RESULT:    -2.741     18.710     20.359
REMARK INTER + INTRA:          -5.369
REMARK INTER:                  -5.025
REMARK INTRA:                  -0.344
REMARK UNBOUND:                -1.026
REMARK SMILES CCCCCCCCCCCC(=O)[O-]
REMARK SMILES IDX 7 1 8 2 9 3 10 4 11 5 12 6 13 7 14 8 6 9 5 10 4 11 3 12 2 13
REMARK SMILES IDX 1 14
REMARK H PARENT
REMARK Flexibility Score: inf
ROOT
ATOM      1  C   UNL     1      28.610  22.732  -2.603  1.00  0.00     0.000 C 
ENDROOT
BRANCH   1   2
ATOM      2  C   UNL     1      27.462  23.654  -2.166  1.00  0.00     0.000 C 
BRANCH   2   3
ATOM      3  C   UNL     1      27.959  24.990  -1.591  1.00  0.00     0.000 C 
BRANCH   3   4
ATOM      4  C   UNL     1      28.657  24.827  -0.233  1.00  0.00     0.006 C 
BRANCH   4   5
ATOM      5  C   UNL     1      27.704  25.169   0.917  1.00  0.00     0.053 C 
BRANCH   5   6
ATOM      6  C   UNL     1      28.467  25.697   2.091  1.00  0.00     0.041 C 
ATOM      7  O   UNL     1      29.118  26.770   1.992  1.00  0.00    -0.550 OA
ATOM      8  O   UNL     1      28.420  25.029   3.308  1.00  0.00    -0.550 OA
ENDBRANCH   5   6
ENDBRANCH   4   5
ENDBRANCH   3   4
ENDBRANCH   2   3
ENDBRANCH   1   2
BRANCH   1   9
ATOM      9  C   UNL     1      28.223  21.256  -2.430  1.00  0.00     0.000 C 
BRANCH   9  10
ATOM     10  C   UNL     1      28.382  20.443  -3.725  1.00  0.00    -0.000 C 
BRANCH  10  11
ATOM     11  C   UNL     1      28.644  18.952  -3.457  1.00  0.00    -0.000 C 
BRANCH  11  12
ATOM     12  C   UNL     1      29.067  18.669  -2.003  1.00  0.00    -0.000 C 
BRANCH  12  13
ATOM     13  C   UNL     1      27.980  18.027  -1.122  1.00  0.00    -0.003 C 
ATOM     14  C   UNL     1      28.512  16.892  -0.246  1.00  0.00     0.004 C 
ENDBRANCH  12  13
ENDBRANCH  11  12
ENDBRANCH  10  11
ENDBRANCH   9  10
ENDBRANCH   1   9
TORSDOF 10
ENDMDL
MODEL 7
REMARK VINA RESULT:    -2.679     18.839     20.330
REMARK INTER + INTRA:          -5.270
REMARK INTER:                  -4.872
REMARK INTRA:                  -0.398
REMARK UNBOUND:                -1.026
REMARK SMILES CCCCCCCCCCCC(=O)[O-]
REMARK SMILES IDX 7 1 8 2 9 3 10 4 11 5 12 6 13 7 14 8 6 9 5 10 4 11 3 12 2 13
REMARK SMILES IDX 1 14
REMARK H PARENT
REMARK Flexibility Score: inf
ROOT
ATOM      1  C   UNL     1      28.037  25.159   1.184  1.00  0.00     0.000 C 
ENDROOT
BRANCH   1   2
ATOM      2  C   UNL     1      28.593  25.646   2.531  1.00  0.00     0.000 C 
BRANCH   2   3
ATOM      3  C   UNL     1      29.018  27.123   2.498  1.00  0.00     0.000 C 
BRANCH   3   4
ATOM      4  C   UNL     1      29.104  27.746   3.899  1.00  0.00     0.006 C 
BRANCH   4   5
ATOM      5  C   UNL     1      29.125  29.275   3.819  1.00  0.00     0.053 C 
BRANCH   5   6
ATOM      6  C   UNL     1      28.330  29.870   4.938  1.00  0.00     0.041 C 
ATOM      7  O   UNL     1      28.545  31.054   5.309  1.00  0.00    -0.550 OA
ATOM      8  O   UNL     1      27.317  29.134   5.539  1.00  0.00    -0.550 OA
ENDBRANCH   5   6
ENDBRANCH   4   5
ENDBRANCH   3   4
ENDBRANCH   2   3
ENDBRANCH   1   2
BRANCH   1   9
ATOM      9  C   UNL     1      28.904  25.663   0.020  1.00  0.00     0.000 C 
BRANCH   9  10
ATOM     10  C   UNL     1      28.891  24.711  -1.187  1.00  0.00    -0.000 C 
BRANCH  10  11
ATOM     11  C   UNL     1      27.475  24.229  -1.543  1.00  0.00    -0.000 C 
BRANCH  11  12
ATOM     12  C   UNL     1      27.470  23.130  -2.622  1.00  0.00    -0.000 C 
BRANCH  12  13
ATOM     13  C   UNL     1      28.567  22.061  -2.466  1.00  0.00    -0.003 C 
ATOM     14  C   UNL     1      28.050  20.637  -2.674  1.00  0.00     0.004 C 
ENDBRANCH  12  13
ENDBRANCH  11  12
ENDBRANCH  10  11
ENDBRANCH   9  10
ENDBRANCH   1   9
TORSDOF 10
ENDMDL
MODEL 8
REMARK VINA RESULT:    -2.464     18.347     20.242
REMARK INTER + INTRA:          -4.929
REMARK INTER:                  -4.498
REMARK INTRA:                  -0.432
REMARK UNBOUND:                -1.026
REMARK SMILES CCCCCCCCCCCC(=O)[O-]
REMARK SMILES IDX 7 1 8 2 9 3 10 4 11 5 12 6 13 7 14 8 6 9 5 10 4 11 3 12 2 13
REMARK SMILES IDX 1 14
REMARK H PARENT
REMARK Flexibility Score: inf
ROOT
ATOM      1  C   UNL     1      26.531  24.242  -1.348  1.00  0.00     0.000 C 
ENDROOT
BRANCH   1   2
ATOM      2  C   UNL     1      26.811  23.314  -2.541  1.00  0.00     0.000 C 
BRANCH   2   3
ATOM      3  C   UNL     1      28.311  23.179  -2.848  1.00  0.00     0.000 C 
BRANCH   3   4
ATOM      4  C   UNL     1      28.849  21.769  -2.560  1.00  0.00     0.006 C 
BRANCH   4   5
ATOM      5  C   UNL     1      27.709  20.748  -2.502  1.00  0.00     0.053 C 
BRANCH   5   6
ATOM      6  C   UNL     1      28.232  19.364  -2.723  1.00  0.00     0.041 C 
ATOM      7  O   UNL     1      28.169  18.509  -1.801  1.00  0.00    -0.550 OA
ATOM      8  O   UNL     1      28.745  19.004  -3.962  1.00  0.00    -0.550 OA
ENDBRANCH   5   6
ENDBRANCH   4   5
ENDBRANCH   3   4
ENDBRANCH   2   3
ENDBRANCH   1   2
BRANCH   1   9
ATOM      9  C   UNL     1      27.791  24.419  -0.486  1.00  0.00     0.000 C 
BRANCH   9  10
ATOM     10  C   UNL     1      28.483  25.773  -0.714  1.00  0.00    -0.000 C 
BRANCH  10  11
ATOM     11  C   UNL     1      29.125  26.330   0.567  1.00  0.00    -0.000 C 
BRANCH  11  12
ATOM     12  C   UNL     1      29.082  25.334   1.741  1.00  0.00    -0.000 C 
BRANCH  12  13
ATOM     13  C   UNL     1      28.466  25.885   3.039  1.00  0.00    -0.003 C 
ATOM     14  C   UNL     1      29.123  27.183   3.510  1.00  0.00     0.004 C 
ENDBRANCH  12  13
ENDBRANCH  11  12
ENDBRANCH  10  11
ENDBRANCH   9  10
ENDBRANCH   1   9
TORSDOF 10
ENDMDL
MODEL 9
REMARK VINA RESULT:    -2.248     19.024     20.226
REMARK INTER + INTRA:          -4.587
REMARK INTER:                  -4.207
REMARK INTRA:                  -0.380
REMARK UNBOUND:                -1.026
REMARK SMILES CCCCCCCCCCCC(=O)[O-]
REMARK SMILES IDX 7 1 8 2 9 3 10 4 11 5 12 6 13 7 14 8 6 9 5 10 4 11 3 12 2 13
REMARK SMILES IDX 1 14
REMARK H PARENT
REMARK Flexibility Score: inf
ROOT
ATOM      1  C   UNL     1      27.987  25.085  -0.175  1.00  0.00     0.000 C 
ENDROOT
BRANCH   1   2
ATOM      2  C   UNL     1      28.904  25.809   0.823  1.00  0.00     0.000 C 
BRANCH   2   3
ATOM      3  C   UNL     1      28.663  25.369   2.276  1.00  0.00     0.000 C 
BRANCH   3   4
ATOM      4  C   UNL     1      29.066  26.447   3.294  1.00  0.00     0.006 C 
BRANCH   4   5
ATOM      5  C   UNL     1      29.125  27.828   2.636  1.00  0.00     0.053 C 
BRANCH   5   6
ATOM      6  C   UNL     1      29.059  28.906   3.671  1.00  0.00     0.041 C 
ATOM      7  O   UNL     1      29.002  30.115   3.324  1.00  0.00    -0.550 OA
ATOM      8  O   UNL     1      29.010  28.574   5.019  1.00  0.00    -0.550 OA
ENDBRANCH   5   6
ENDBRANCH   4   5
ENDBRANCH   3   4
ENDBRANCH   2   3
ENDBRANCH   1   2
BRANCH   1   9
ATOM      9  C   UNL     1      28.367  25.436  -1.621  1.00  0.00     0.000 C 
BRANCH   9  10
ATOM     10  C   UNL     1      29.124  24.301  -2.330  1.00  0.00    -0.000 C 
BRANCH  10  11
ATOM     11  C   UNL     1      28.190  23.177  -2.806  1.00  0.00    -0.000 C 
BRANCH  11  12
ATOM     12  C   UNL     1      28.534  21.809  -2.187  1.00  0.00    -0.000 C 
BRANCH  12  13
ATOM     13  C   UNL     1      27.927  20.595  -2.913  1.00  0.00    -0.003 C 
ATOM     14  C   UNL     1      28.029  19.301  -2.105  1.00  0.00     0.004 C 
ENDBRANCH  12  13
ENDBRANCH  11  12
ENDBRANCH  10  11
ENDBRANCH   9  10
ENDBRANCH   1   9
TORSDOF 10
ENDMDL
