MODEL 1
REMARK VINA RESULT:    -6.450      0.000      0.000
REMARK INTER + INTRA:          -7.494
REMARK INTER:                  -7.769
REMARK INTRA:                   0.275
REMARK UNBOUND:                 0.275
REMARK SMILES O=c1c(O)c(-c2ccc(O)c(O)c2)oc2cc(O)cc(O)c12
REMARK SMILES IDX 5 1 3 2 2 3 1 4 22 5 20 6 19 7 17 8 16 9 15 10 14 11 6 12
REMARK SMILES IDX 7 13 8 14 9 15 13 16 11 17 10 18 12 20 4 22 21 24 18 26
REMARK H PARENT 10 19 12 21 4 23 21 25 18 27
REMARK Flexibility Score: inf
ROOT
ATOM      1  C   UNL     1     -16.649 -36.453 -11.598  1.00  0.00     0.180 A 
ATOM      2  C   UNL     1     -17.644 -36.751 -12.544  1.00  0.00     0.208 A 
ATOM      3  C   UNL     1     -17.344 -36.630 -13.910  1.00  0.00     0.238 A 
ATOM      4  O   UNL     1     -18.255 -36.845 -14.751  1.00  0.00    -0.285 OA
ATOM      5  C   UNL     1     -16.047 -36.228 -14.313  1.00  0.00     0.111 A 
ATOM      6  C   UNL     1     -15.622 -36.110 -15.670  1.00  0.00     0.134 A 
ATOM      7  C   UNL     1     -14.357 -35.579 -15.953  1.00  0.00     0.093 A 
ATOM      8  C   UNL     1     -13.480 -35.222 -14.930  1.00  0.00     0.123 A 
ATOM      9  C   UNL     1     -13.864 -35.388 -13.599  1.00  0.00     0.094 A 
ATOM     10  C   UNL     1     -15.133 -35.882 -13.284  1.00  0.00     0.146 A 
ATOM     11  O   UNL     1     -15.463 -36.016 -12.006  1.00  0.00    -0.452 OA
ENDROOT
BRANCH   1  12
ATOM     12  C   UNL     1     -16.882 -36.582 -10.141  1.00  0.00     0.025 A 
ATOM     13  C   UNL     1     -15.825 -36.976  -9.305  1.00  0.00     0.016 A 
ATOM     14  C   UNL     1     -16.028 -37.124  -7.930  1.00  0.00     0.051 A 
ATOM     15  C   UNL     1     -17.293 -36.896  -7.374  1.00  0.00     0.157 A 
ATOM     16  C   UNL     1     -18.155 -36.373  -9.581  1.00  0.00     0.062 A 
ATOM     17  C   UNL     1     -18.360 -36.524  -8.202  1.00  0.00     0.158 A 
BRANCH  15  18
ATOM     18  O   UNL     1     -17.499 -37.040  -6.003  1.00  0.00    -0.504 OA
ATOM     19  H   UNL     1     -18.382 -36.796  -5.572  1.00  0.00     0.293 HD
ENDBRANCH  15  18
BRANCH  17  20
ATOM     20  O   UNL     1     -19.621 -36.311  -7.648  1.00  0.00    -0.504 OA
ATOM     21  H   UNL     1     -20.457 -36.702  -8.067  1.00  0.00     0.293 HD
ENDBRANCH  17  20
ENDBRANCH   1  12
BRANCH   2  22
ATOM     22  O   UNL     1     -18.924 -37.125 -12.123  1.00  0.00    -0.502 OA
ATOM     23  H   UNL     1     -19.077 -37.782 -11.368  1.00  0.00     0.293 HD
ENDBRANCH   2  22
BRANCH   6  24
ATOM     24  O   UNL     1     -16.384 -36.524 -16.766  1.00  0.00    -0.507 OA
ATOM     25  H   UNL     1     -16.730 -37.461 -16.905  1.00  0.00     0.293 HD
ENDBRANCH   6  24
BRANCH   8  26
ATOM     26  O   UNL     1     -12.223 -34.711 -15.248  1.00  0.00    -0.508 OA
ATOM     27  H   UNL     1     -11.988 -33.740 -15.078  1.00  0.00     0.293 HD
ENDBRANCH   8  26
TORSDOF 6
ENDMDL
