MODEL 1
REMARK VINA RESULT:    -3.711      0.000      0.000
REMARK INTER + INTRA:         -13.612
REMARK INTER:                  -9.352
REMARK INTRA:                  -4.260
REMARK UNBOUND:                -4.260
REMARK SMILES CCCCCCCCCCCCCCCCCCCCCCCCCCCC(=O)[O-]
REMARK SMILES IDX 15 1 16 2 17 3 18 4 19 5 20 6 21 7 22 8 23 9 24 10 25 11
REMARK SMILES IDX 26 12 27 13 28 14 29 15 30 16 14 17 13 18 12 19 11 20 10 21
REMARK SMILES IDX 9 22 8 23 7 24 6 25 5 26 4 27 3 28 2 29 1 30
REMARK H PARENT
REMARK Flexibility Score: inf
ROOT
ATOM      1  C   UNL     1     154.356 134.388 165.624  1.00  0.00     0.000 C 
ENDROOT
BRANCH   1   2
ATOM      2  C   UNL     1     153.960 132.943 165.264  1.00  0.00     0.000 C 
BRANCH   2   3
ATOM      3  C   UNL     1     154.993 131.903 165.747  1.00  0.00     0.000 C 
BRANCH   3   4
ATOM      4  C   UNL     1     155.763 132.317 167.012  1.00  0.00     0.000 C 
BRANCH   4   5
ATOM      5  C   UNL     1     157.287 132.212 166.845  1.00  0.00     0.000 C 
BRANCH   5   6
ATOM      6  C   UNL     1     158.072 133.023 167.895  1.00  0.00     0.000 C 
BRANCH   6   7
ATOM      7  C   UNL     1     157.700 132.746 169.366  1.00  0.00     0.000 C 
BRANCH   7   8
ATOM      8  C   UNL     1     157.126 133.975 170.090  1.00  0.00     0.000 C 
BRANCH   8   9
ATOM      9  C   UNL     1     155.685 134.302 169.662  1.00  0.00     0.000 C 
BRANCH   9  10
ATOM     10  C   UNL     1     155.479 135.774 169.241  1.00  0.00     0.000 C 
BRANCH  10  11
ATOM     11  C   UNL     1     156.771 136.405 168.695  1.00  0.00     0.000 C 
BRANCH  11  12
ATOM     12  C   UNL     1     156.779 136.521 167.163  1.00  0.00     0.006 C 
BRANCH  12  13
ATOM     13  C   UNL     1     155.999 137.742 166.658  1.00  0.00     0.053 C 
BRANCH  13  14
ATOM     14  C   UNL     1     156.680 139.005 167.084  1.00  0.00     0.041 C 
ATOM     15  O   UNL     1     156.060 139.857 167.775  1.00  0.00    -0.550 OA
ATOM     16  O   UNL     1     158.018 139.213 166.773  1.00  0.00    -0.550 OA
ENDBRANCH  13  14
ENDBRANCH  12  13
ENDBRANCH  11  12
ENDBRANCH  10  11
ENDBRANCH   9  10
ENDBRANCH   8   9
ENDBRANCH   7   8
ENDBRANCH   6   7
ENDBRANCH   5   6
ENDBRANCH   4   5
ENDBRANCH   3   4
ENDBRANCH   2   3
ENDBRANCH   1   2
BRANCH   1  17
ATOM     17  C   UNL     1     153.204 135.162 166.288  1.00  0.00     0.000 C 
BRANCH  17  18
ATOM     18  C   UNL     1     152.587 134.381 167.461  1.00  0.00     0.000 C 
BRANCH  18  19
ATOM     19  C   UNL     1     151.053 134.314 167.393  1.00  0.00     0.000 C 
BRANCH  19  20
ATOM     20  C   UNL     1     150.531 132.923 166.984  1.00  0.00     0.000 C 
BRANCH  20  21
ATOM     21  C   UNL     1     149.721 132.947 165.669  1.00  0.00     0.000 C 
BRANCH  21  22
ATOM     22  C   UNL     1     150.546 132.642 164.403  1.00  0.00    -0.000 C 
BRANCH  22  23
ATOM     23  C   UNL     1     149.829 132.898 163.068  1.00  0.00    -0.000 C 
BRANCH  23  24
ATOM     24  C   UNL     1     148.345 132.499 163.094  1.00  0.00    -0.000 C 
BRANCH  24  25
ATOM     25  C   UNL     1     147.460 133.638 162.563  1.00  0.00    -0.000 C 
BRANCH  25  26
ATOM     26  C   UNL     1     147.146 134.698 163.631  1.00  0.00    -0.000 C 
BRANCH  26  27
ATOM     27  C   UNL     1     147.448 136.148 163.210  1.00  0.00    -0.000 C 
BRANCH  27  28
ATOM     28  C   UNL     1     147.839 137.068 164.388  1.00  0.00    -0.000 C 
BRANCH  28  29
ATOM     29  C   UNL     1     149.290 137.562 164.283  1.00  0.00    -0.003 C 
ATOM     30  C   UNL     1     150.276 136.401 164.382  1.00  0.00     0.004 C 
ENDBRANCH  28  29
ENDBRANCH  27  28
ENDBRANCH  26  27
ENDBRANCH  25  26
ENDBRANCH  24  25
ENDBRANCH  23  24
ENDBRANCH  22  23
ENDBRANCH  21  22
ENDBRANCH  20  21
ENDBRANCH  19  20
ENDBRANCH  18  19
ENDBRANCH  17  18
ENDBRANCH   1  17
TORSDOF 26
ENDMDL
MODEL 2
REMARK VINA RESULT:    -3.656      3.504      9.268
REMARK INTER + INTRA:         -13.473
REMARK INTER:                  -9.268
REMARK INTRA:                  -4.204
REMARK UNBOUND:                -4.260
REMARK SMILES CCCCCCCCCCCCCCCCCCCCCCCCCCCC(=O)[O-]
REMARK SMILES IDX 15 1 16 2 17 3 18 4 19 5 20 6 21 7 22 8 23 9 24 10 25 11
REMARK SMILES IDX 26 12 27 13 28 14 29 15 30 16 14 17 13 18 12 19 11 20 10 21
REMARK SMILES IDX 9 22 8 23 7 24 6 25 5 26 4 27 3 28 2 29 1 30
REMARK H PARENT
REMARK Flexibility Score: inf
ROOT
ATOM      1  C   UNL     1     151.228 135.455 167.771  1.00  0.00     0.000 C 
ENDROOT
BRANCH   1   2
ATOM      2  C   UNL     1     150.452 134.275 168.388  1.00  0.00     0.000 C 
BRANCH   2   3
ATOM      3  C   UNL     1     150.910 132.908 167.836  1.00  0.00     0.000 C 
BRANCH   3   4
ATOM      4  C   UNL     1     150.447 132.619 166.399  1.00  0.00     0.000 C 
BRANCH   4   5
ATOM      5  C   UNL     1     151.589 132.137 165.490  1.00  0.00     0.000 C 
BRANCH   5   6
ATOM      6  C   UNL     1     151.539 132.748 164.075  1.00  0.00     0.000 C 
BRANCH   6   7
ATOM      7  C   UNL     1     150.376 133.726 163.811  1.00  0.00     0.000 C 
BRANCH   7   8
ATOM      8  C   UNL     1     149.373 133.210 162.765  1.00  0.00     0.000 C 
BRANCH   8   9
ATOM      9  C   UNL     1     148.328 132.252 163.361  1.00  0.00     0.000 C 
BRANCH   9  10
ATOM     10  C   UNL     1     146.961 132.296 162.641  1.00  0.00     0.000 C 
BRANCH  10  11
ATOM     11  C   UNL     1     147.052 132.988 161.270  1.00  0.00     0.000 C 
BRANCH  11  12
ATOM     12  C   UNL     1     145.735 133.656 160.849  1.00  0.00     0.006 C 
BRANCH  12  13
ATOM     13  C   UNL     1     145.015 134.337 162.021  1.00  0.00     0.053 C 
BRANCH  13  14
ATOM     14  C   UNL     1     145.277 135.810 162.004  1.00  0.00     0.041 C 
ATOM     15  O   UNL     1     144.330 136.621 161.816  1.00  0.00    -0.550 OA
ATOM     16  O   UNL     1     146.555 136.293 162.258  1.00  0.00    -0.550 OA
ENDBRANCH  13  14
ENDBRANCH  12  13
ENDBRANCH  11  12
ENDBRANCH  10  11
ENDBRANCH   9  10
ENDBRANCH   8   9
ENDBRANCH   7   8
ENDBRANCH   6   7
ENDBRANCH   5   6
ENDBRANCH   4   5
ENDBRANCH   3   4
ENDBRANCH   2   3
ENDBRANCH   1   2
BRANCH   1  17
ATOM     17  C   UNL     1     152.748 135.217 167.764  1.00  0.00     0.000 C 
BRANCH  17  18
ATOM     18  C   UNL     1     153.345 135.360 166.353  1.00  0.00     0.000 C 
BRANCH  18  19
ATOM     19  C   UNL     1     154.397 134.284 166.038  1.00  0.00     0.000 C 
BRANCH  19  20
ATOM     20  C   UNL     1     154.708 133.377 167.245  1.00  0.00     0.000 C 
BRANCH  20  21
ATOM     21  C   UNL     1     156.042 132.612 167.093  1.00  0.00     0.000 C 
BRANCH  21  22
ATOM     22  C   UNL     1     157.283 133.386 167.579  1.00  0.00    -0.000 C 
BRANCH  22  23
ATOM     23  C   UNL     1     157.955 132.831 168.845  1.00  0.00    -0.000 C 
BRANCH  23  24
ATOM     24  C   UNL     1     157.034 132.849 170.075  1.00  0.00    -0.000 C 
BRANCH  24  25
ATOM     25  C   UNL     1     156.985 134.249 170.705  1.00  0.00    -0.000 C 
BRANCH  25  26
ATOM     26  C   UNL     1     155.608 134.919 170.562  1.00  0.00    -0.000 C 
BRANCH  26  27
ATOM     27  C   UNL     1     155.578 136.141 169.625  1.00  0.00    -0.000 C 
BRANCH  27  28
ATOM     28  C   UNL     1     156.939 136.861 169.500  1.00  0.00    -0.000 C 
BRANCH  28  29
ATOM     29  C   UNL     1     156.997 137.787 168.275  1.00  0.00    -0.003 C 
ATOM     30  C   UNL     1     156.627 137.036 166.998  1.00  0.00     0.004 C 
ENDBRANCH  28  29
ENDBRANCH  27  28
ENDBRANCH  26  27
ENDBRANCH  25  26
ENDBRANCH  24  25
ENDBRANCH  23  24
ENDBRANCH  22  23
ENDBRANCH  21  22
ENDBRANCH  20  21
ENDBRANCH  19  20
ENDBRANCH  18  19
ENDBRANCH  17  18
ENDBRANCH   1  17
TORSDOF 26
ENDMDL
MODEL 3
REMARK VINA RESULT:    -3.613      4.021      9.014
REMARK INTER + INTRA:         -13.364
REMARK INTER:                  -9.597
REMARK INTRA:                  -3.767
REMARK UNBOUND:                -4.260
REMARK SMILES CCCCCCCCCCCCCCCCCCCCCCCCCCCC(=O)[O-]
REMARK SMILES IDX 15 1 16 2 17 3 18 4 19 5 20 6 21 7 22 8 23 9 24 10 25 11
REMARK SMILES IDX 26 12 27 13 28 14 29 15 30 16 14 17 13 18 12 19 11 20 10 21
REMARK SMILES IDX 9 22 8 23 7 24 6 25 5 26 4 27 3 28 2 29 1 30
REMARK H PARENT
REMARK Flexibility Score: inf
ROOT
ATOM      1  C   UNL     1     152.979 135.239 167.000  1.00  0.00     0.000 C 
ENDROOT
BRANCH   1   2
ATOM      2  C   UNL     1     153.221 135.196 168.521  1.00  0.00     0.000 C 
BRANCH   2   3
ATOM      3  C   UNL     1     153.314 133.756 169.069  1.00  0.00     0.000 C 
BRANCH   3   4
ATOM      4  C   UNL     1     151.959 133.131 169.438  1.00  0.00     0.000 C 
BRANCH   4   5
ATOM      5  C   UNL     1     151.448 132.143 168.377  1.00  0.00     0.000 C 
BRANCH   5   6
ATOM      6  C   UNL     1     150.265 132.690 167.555  1.00  0.00     0.000 C 
BRANCH   6   7
ATOM      7  C   UNL     1     150.434 132.635 166.023  1.00  0.00     0.000 C 
BRANCH   7   8
ATOM      8  C   UNL     1     150.093 133.961 165.324  1.00  0.00     0.000 C 
BRANCH   8   9
ATOM      9  C   UNL     1     150.366 133.927 163.811  1.00  0.00     0.000 C 
BRANCH   9  10
ATOM     10  C   UNL     1     149.867 132.640 163.117  1.00  0.00     0.000 C 
BRANCH  10  11
ATOM     11  C   UNL     1     148.334 132.599 163.008  1.00  0.00     0.000 C 
BRANCH  11  12
ATOM     12  C   UNL     1     147.779 133.614 161.996  1.00  0.00     0.006 C 
BRANCH  12  13
ATOM     13  C   UNL     1     146.754 132.995 161.038  1.00  0.00     0.053 C 
BRANCH  13  14
ATOM     14  C   UNL     1     145.395 133.568 161.291  1.00  0.00     0.041 C 
ATOM     15  O   UNL     1     144.541 132.910 161.943  1.00  0.00    -0.550 OA
ATOM     16  O   UNL     1     145.092 134.854 160.862  1.00  0.00    -0.550 OA
ENDBRANCH  13  14
ENDBRANCH  12  13
ENDBRANCH  11  12
ENDBRANCH  10  11
ENDBRANCH   9  10
ENDBRANCH   8   9
ENDBRANCH   7   8
ENDBRANCH   6   7
ENDBRANCH   5   6
ENDBRANCH   4   5
ENDBRANCH   3   4
ENDBRANCH   2   3
ENDBRANCH   1   2
BRANCH   1  17
ATOM     17  C   UNL     1     154.196 134.742 166.199  1.00  0.00     0.000 C 
BRANCH  17  18
ATOM     18  C   UNL     1     153.885 133.450 165.425  1.00  0.00     0.000 C 
BRANCH  18  19
ATOM     19  C   UNL     1     154.516 132.203 166.066  1.00  0.00     0.000 C 
BRANCH  19  20
ATOM     20  C   UNL     1     156.046 132.316 166.218  1.00  0.00     0.000 C 
BRANCH  20  21
ATOM     21  C   UNL     1     156.508 132.290 167.692  1.00  0.00     0.000 C 
BRANCH  21  22
ATOM     22  C   UNL     1     157.203 133.581 168.168  1.00  0.00    -0.000 C 
BRANCH  22  23
ATOM     23  C   UNL     1     156.815 134.060 169.576  1.00  0.00    -0.000 C 
BRANCH  23  24
ATOM     24  C   UNL     1     156.664 135.586 169.674  1.00  0.00    -0.000 C 
BRANCH  24  25
ATOM     25  C   UNL     1     156.732 136.236 168.284  1.00  0.00    -0.000 C 
BRANCH  25  26
ATOM     26  C   UNL     1     157.200 137.701 168.333  1.00  0.00    -0.000 C 
BRANCH  26  27
ATOM     27  C   UNL     1     156.728 138.568 167.151  1.00  0.00    -0.000 C 
BRANCH  27  28
ATOM     28  C   UNL     1     157.690 139.728 166.809  1.00  0.00    -0.000 C 
BRANCH  28  29
ATOM     29  C   UNL     1     156.995 141.097 166.869  1.00  0.00    -0.003 C 
ATOM     30  C   UNL     1     156.553 141.552 165.481  1.00  0.00     0.004 C 
ENDBRANCH  28  29
ENDBRANCH  27  28
ENDBRANCH  26  27
ENDBRANCH  25  26
ENDBRANCH  24  25
ENDBRANCH  23  24
ENDBRANCH  22  23
ENDBRANCH  21  22
ENDBRANCH  20  21
ENDBRANCH  19  20
ENDBRANCH  18  19
ENDBRANCH  17  18
ENDBRANCH   1  17
TORSDOF 26
ENDMDL
MODEL 4
REMARK VINA RESULT:    -3.604      4.665      9.247
REMARK INTER + INTRA:         -13.342
REMARK INTER:                  -9.949
REMARK INTRA:                  -3.393
REMARK UNBOUND:                -4.260
REMARK SMILES CCCCCCCCCCCCCCCCCCCCCCCCCCCC(=O)[O-]
REMARK SMILES IDX 15 1 16 2 17 3 18 4 19 5 20 6 21 7 22 8 23 9 24 10 25 11
REMARK SMILES IDX 26 12 27 13 28 14 29 15 30 16 14 17 13 18 12 19 11 20 10 21
REMARK SMILES IDX 9 22 8 23 7 24 6 25 5 26 4 27 3 28 2 29 1 30
REMARK H PARENT
REMARK Flexibility Score: inf
ROOT
ATOM      1  C   UNL     1     152.472 134.066 167.927  1.00  0.00     0.000 C 
ENDROOT
BRANCH   1   2
ATOM      2  C   UNL     1     153.039 132.638 167.804  1.00  0.00     0.000 C 
BRANCH   2   3
ATOM      3  C   UNL     1     154.515 132.619 167.355  1.00  0.00     0.000 C 
BRANCH   3   4
ATOM      4  C   UNL     1     154.737 132.088 165.930  1.00  0.00     0.000 C 
BRANCH   4   5
ATOM      5  C   UNL     1     154.197 133.036 164.848  1.00  0.00     0.000 C 
BRANCH   5   6
ATOM      6  C   UNL     1     152.914 132.519 164.169  1.00  0.00     0.000 C 
BRANCH   6   7
ATOM      7  C   UNL     1     151.689 133.452 164.258  1.00  0.00     0.000 C 
BRANCH   7   8
ATOM      8  C   UNL     1     150.430 132.754 164.797  1.00  0.00     0.000 C 
BRANCH   8   9
ATOM      9  C   UNL     1     149.565 132.138 163.684  1.00  0.00     0.000 C 
BRANCH   9  10
ATOM     10  C   UNL     1     148.067 132.503 163.786  1.00  0.00     0.000 C 
BRANCH  10  11
ATOM     11  C   UNL     1     147.268 132.005 162.569  1.00  0.00     0.000 C 
BRANCH  11  12
ATOM     12  C   UNL     1     147.090 133.084 161.490  1.00  0.00     0.006 C 
BRANCH  12  13
ATOM     13  C   UNL     1     145.696 133.725 161.518  1.00  0.00     0.053 C 
BRANCH  13  14
ATOM     14  C   UNL     1     144.639 132.671 161.418  1.00  0.00     0.041 C 
ATOM     15  O   UNL     1     144.597 131.908 160.415  1.00  0.00    -0.550 OA
ATOM     16  O   UNL     1     143.737 132.489 162.458  1.00  0.00    -0.550 OA
ENDBRANCH  13  14
ENDBRANCH  12  13
ENDBRANCH  11  12
ENDBRANCH  10  11
ENDBRANCH   9  10
ENDBRANCH   8   9
ENDBRANCH   7   8
ENDBRANCH   6   7
ENDBRANCH   5   6
ENDBRANCH   4   5
ENDBRANCH   3   4
ENDBRANCH   2   3
ENDBRANCH   1   2
BRANCH   1  17
ATOM     17  C   UNL     1     153.116 134.853 169.082  1.00  0.00     0.000 C 
BRANCH  17  18
ATOM     18  C   UNL     1     153.873 136.095 168.580  1.00  0.00     0.000 C 
BRANCH  18  19
ATOM     19  C   UNL     1     153.988 136.144 167.048  1.00  0.00     0.000 C 
BRANCH  19  20
ATOM     20  C   UNL     1     155.431 136.381 166.561  1.00  0.00     0.000 C 
BRANCH  20  21
ATOM     21  C   UNL     1     156.485 136.137 167.665  1.00  0.00     0.000 C 
BRANCH  21  22
ATOM     22  C   UNL     1     157.067 137.421 168.289  1.00  0.00    -0.000 C 
BRANCH  22  23
ATOM     23  C   UNL     1     157.350 138.566 167.303  1.00  0.00    -0.000 C 
BRANCH  23  24
ATOM     24  C   UNL     1     157.176 139.958 167.929  1.00  0.00    -0.000 C 
BRANCH  24  25
ATOM     25  C   UNL     1     157.733 141.051 167.003  1.00  0.00    -0.000 C 
BRANCH  25  26
ATOM     26  C   UNL     1     157.414 140.797 165.520  1.00  0.00    -0.000 C 
BRANCH  26  27
ATOM     27  C   UNL     1     155.943 141.029 165.128  1.00  0.00    -0.000 C 
BRANCH  27  28
ATOM     28  C   UNL     1     155.295 139.825 164.409  1.00  0.00    -0.000 C 
BRANCH  28  29
ATOM     29  C   UNL     1     153.938 139.444 165.021  1.00  0.00    -0.003 C 
ATOM     30  C   UNL     1     153.804 139.982 166.444  1.00  0.00     0.004 C 
ENDBRANCH  28  29
ENDBRANCH  27  28
ENDBRANCH  26  27
ENDBRANCH  25  26
ENDBRANCH  24  25
ENDBRANCH  23  24
ENDBRANCH  22  23
ENDBRANCH  21  22
ENDBRANCH  20  21
ENDBRANCH  19  20
ENDBRANCH  18  19
ENDBRANCH  17  18
ENDBRANCH   1  17
TORSDOF 26
ENDMDL
MODEL 5
REMARK VINA RESULT:    -3.548      3.480      7.987
REMARK INTER + INTRA:         -13.200
REMARK INTER:                  -8.714
REMARK INTRA:                  -4.486
REMARK UNBOUND:                -4.260
REMARK SMILES CCCCCCCCCCCCCCCCCCCCCCCCCCCC(=O)[O-]
REMARK SMILES IDX 15 1 16 2 17 3 18 4 19 5 20 6 21 7 22 8 23 9 24 10 25 11
REMARK SMILES IDX 26 12 27 13 28 14 29 15 30 16 14 17 13 18 12 19 11 20 10 21
REMARK SMILES IDX 9 22 8 23 7 24 6 25 5 26 4 27 3 28 2 29 1 30
REMARK H PARENT
REMARK Flexibility Score: inf
ROOT
ATOM      1  C   UNL     1     155.599 132.964 170.688  1.00  0.00     0.000 C 
ENDROOT
BRANCH   1   2
ATOM      2  C   UNL     1     154.514 133.830 170.018  1.00  0.00     0.000 C 
BRANCH   2   3
ATOM      3  C   UNL     1     153.418 132.987 169.333  1.00  0.00     0.000 C 
BRANCH   3   4
ATOM      4  C   UNL     1     152.144 132.802 170.173  1.00  0.00     0.000 C 
BRANCH   4   5
ATOM      5  C   UNL     1     150.862 132.811 169.325  1.00  0.00     0.000 C 
BRANCH   5   6
ATOM      6  C   UNL     1     151.085 132.325 167.879  1.00  0.00     0.000 C 
BRANCH   6   7
ATOM      7  C   UNL     1     150.120 132.904 166.824  1.00  0.00     0.000 C 
BRANCH   7   8
ATOM      8  C   UNL     1     150.500 134.321 166.364  1.00  0.00     0.000 C 
BRANCH   8   9
ATOM      9  C   UNL     1     150.570 134.453 164.833  1.00  0.00     0.000 C 
BRANCH   9  10
ATOM     10  C   UNL     1     151.209 133.234 164.132  1.00  0.00     0.000 C 
BRANCH  10  11
ATOM     11  C   UNL     1     150.186 132.444 163.298  1.00  0.00     0.000 C 
BRANCH  11  12
ATOM     12  C   UNL     1     148.860 133.198 163.109  1.00  0.00     0.006 C 
BRANCH  12  13
ATOM     13  C   UNL     1     147.638 132.273 163.174  1.00  0.00     0.053 C 
BRANCH  13  14
ATOM     14  C   UNL     1     146.733 132.688 164.291  1.00  0.00     0.041 C 
ATOM     15  O   UNL     1     147.125 133.527 165.147  1.00  0.00    -0.550 OA
ATOM     16  O   UNL     1     145.434 132.199 164.353  1.00  0.00    -0.550 OA
ENDBRANCH  13  14
ENDBRANCH  12  13
ENDBRANCH  11  12
ENDBRANCH  10  11
ENDBRANCH   9  10
ENDBRANCH   8   9
ENDBRANCH   7   8
ENDBRANCH   6   7
ENDBRANCH   5   6
ENDBRANCH   4   5
ENDBRANCH   3   4
ENDBRANCH   2   3
ENDBRANCH   1   2
BRANCH   1  17
ATOM     17  C   UNL     1     157.020 133.369 170.257  1.00  0.00     0.000 C 
BRANCH  17  18
ATOM     18  C   UNL     1     157.074 133.789 168.778  1.00  0.00     0.000 C 
BRANCH  18  19
ATOM     19  C   UNL     1     158.125 133.008 167.974  1.00  0.00     0.000 C 
BRANCH  19  20
ATOM     20  C   UNL     1     157.510 132.170 166.836  1.00  0.00     0.000 C 
BRANCH  20  21
ATOM     21  C   UNL     1     155.997 131.918 167.025  1.00  0.00     0.000 C 
BRANCH  21  22
ATOM     22  C   UNL     1     155.141 132.189 165.772  1.00  0.00    -0.000 C 
BRANCH  22  23
ATOM     23  C   UNL     1     154.018 133.224 165.951  1.00  0.00    -0.000 C 
BRANCH  23  24
ATOM     24  C   UNL     1     154.452 134.654 165.590  1.00  0.00    -0.000 C 
BRANCH  24  25
ATOM     25  C   UNL     1     154.135 135.630 166.733  1.00  0.00    -0.000 C 
BRANCH  25  26
ATOM     26  C   UNL     1     154.158 137.101 166.285  1.00  0.00    -0.000 C 
BRANCH  26  27
ATOM     27  C   UNL     1     155.123 138.002 167.078  1.00  0.00    -0.000 C 
BRANCH  27  28
ATOM     28  C   UNL     1     156.553 137.432 167.192  1.00  0.00    -0.000 C 
BRANCH  28  29
ATOM     29  C   UNL     1     157.043 137.378 168.647  1.00  0.00    -0.003 C 
ATOM     30  C   UNL     1     155.870 137.359 169.624  1.00  0.00     0.004 C 
ENDBRANCH  28  29
ENDBRANCH  27  28
ENDBRANCH  26  27
ENDBRANCH  25  26
ENDBRANCH  24  25
ENDBRANCH  23  24
ENDBRANCH  22  23
ENDBRANCH  21  22
ENDBRANCH  20  21
ENDBRANCH  19  20
ENDBRANCH  18  19
ENDBRANCH  17  18
ENDBRANCH   1  17
TORSDOF 26
ENDMDL
MODEL 6
REMARK VINA RESULT:    -3.542      3.137      6.581
REMARK INTER + INTRA:         -13.187
REMARK INTER:                  -8.803
REMARK INTRA:                  -4.383
REMARK UNBOUND:                -4.260
REMARK SMILES CCCCCCCCCCCCCCCCCCCCCCCCCCCC(=O)[O-]
REMARK SMILES IDX 15 1 16 2 17 3 18 4 19 5 20 6 21 7 22 8 23 9 24 10 25 11
REMARK SMILES IDX 26 12 27 13 28 14 29 15 30 16 14 17 13 18 12 19 11 20 10 21
REMARK SMILES IDX 9 22 8 23 7 24 6 25 5 26 4 27 3 28 2 29 1 30
REMARK H PARENT
REMARK Flexibility Score: inf
ROOT
ATOM      1  C   UNL     1     155.010 132.442 165.632  1.00  0.00     0.000 C 
ENDROOT
BRANCH   1   2
ATOM      2  C   UNL     1     155.781 132.260 166.954  1.00  0.00     0.000 C 
BRANCH   2   3
ATOM      3  C   UNL     1     157.310 132.211 166.751  1.00  0.00     0.000 C 
BRANCH   3   4
ATOM      4  C   UNL     1     158.112 133.025 167.779  1.00  0.00     0.000 C 
BRANCH   4   5
ATOM      5  C   UNL     1     157.631 132.803 169.222  1.00  0.00     0.000 C 
BRANCH   5   6
ATOM      6  C   UNL     1     156.960 134.047 169.839  1.00  0.00     0.000 C 
BRANCH   6   7
ATOM      7  C   UNL     1     155.841 133.763 170.861  1.00  0.00     0.000 C 
BRANCH   7   8
ATOM      8  C   UNL     1     154.867 132.664 170.408  1.00  0.00     0.000 C 
BRANCH   8   9
ATOM      9  C   UNL     1     153.570 133.227 169.802  1.00  0.00     0.000 C 
BRANCH   9  10
ATOM     10  C   UNL     1     152.292 132.505 170.286  1.00  0.00     0.000 C 
BRANCH  10  11
ATOM     11  C   UNL     1     151.297 132.261 169.139  1.00  0.00     0.000 C 
BRANCH  11  12
ATOM     12  C   UNL     1     151.950 132.354 167.751  1.00  0.00     0.006 C 
BRANCH  12  13
ATOM     13  C   UNL     1     150.925 132.543 166.625  1.00  0.00     0.053 C 
BRANCH  13  14
ATOM     14  C   UNL     1     150.840 133.986 166.239  1.00  0.00     0.041 C 
ATOM     15  O   UNL     1     151.235 134.880 167.034  1.00  0.00    -0.550 OA
ATOM     16  O   UNL     1     150.382 134.343 164.977  1.00  0.00    -0.550 OA
ENDBRANCH  13  14
ENDBRANCH  12  13
ENDBRANCH  11  12
ENDBRANCH  10  11
ENDBRANCH   9  10
ENDBRANCH   8   9
ENDBRANCH   7   8
ENDBRANCH   6   7
ENDBRANCH   5   6
ENDBRANCH   4   5
ENDBRANCH   3   4
ENDBRANCH   2   3
ENDBRANCH   1   2
BRANCH   1  17
ATOM     17  C   UNL     1     154.422 133.856 165.488  1.00  0.00     0.000 C 
BRANCH  17  18
ATOM     18  C   UNL     1     154.726 134.733 166.715  1.00  0.00     0.000 C 
BRANCH  18  19
ATOM     19  C   UNL     1     155.289 136.113 166.339  1.00  0.00     0.000 C 
BRANCH  19  20
ATOM     20  C   UNL     1     156.570 136.472 167.117  1.00  0.00     0.000 C 
BRANCH  20  21
ATOM     21  C   UNL     1     156.312 137.459 168.277  1.00  0.00     0.000 C 
BRANCH  21  22
ATOM     22  C   UNL     1     157.342 138.600 168.388  1.00  0.00    -0.000 C 
BRANCH  22  23
ATOM     23  C   UNL     1     158.019 139.010 167.070  1.00  0.00    -0.000 C 
BRANCH  23  24
ATOM     24  C   UNL     1     157.336 140.205 166.387  1.00  0.00    -0.000 C 
BRANCH  24  25
ATOM     25  C   UNL     1     156.377 139.734 165.283  1.00  0.00    -0.000 C 
BRANCH  25  26
ATOM     26  C   UNL     1     155.367 140.816 164.867  1.00  0.00    -0.000 C 
BRANCH  26  27
ATOM     27  C   UNL     1     154.136 140.292 164.105  1.00  0.00    -0.000 C 
BRANCH  27  28
ATOM     28  C   UNL     1     153.383 139.162 164.842  1.00  0.00    -0.000 C 
BRANCH  28  29
ATOM     29  C   UNL     1     153.161 139.484 166.327  1.00  0.00    -0.003 C 
ATOM     30  C   UNL     1     152.408 138.356 167.029  1.00  0.00     0.004 C 
ENDBRANCH  28  29
ENDBRANCH  27  28
ENDBRANCH  26  27
ENDBRANCH  25  26
ENDBRANCH  24  25
ENDBRANCH  23  24
ENDBRANCH  22  23
ENDBRANCH  21  22
ENDBRANCH  20  21
ENDBRANCH  19  20
ENDBRANCH  18  19
ENDBRANCH  17  18
ENDBRANCH   1  17
TORSDOF 26
ENDMDL
MODEL 7
REMARK VINA RESULT:    -3.538      2.763      6.608
REMARK INTER + INTRA:         -13.175
REMARK INTER:                  -8.711
REMARK INTRA:                  -4.464
REMARK UNBOUND:                -4.260
REMARK SMILES CCCCCCCCCCCCCCCCCCCCCCCCCCCC(=O)[O-]
REMARK SMILES IDX 15 1 16 2 17 3 18 4 19 5 20 6 21 7 22 8 23 9 24 10 25 11
REMARK SMILES IDX 26 12 27 13 28 14 29 15 30 16 14 17 13 18 12 19 11 20 10 21
REMARK SMILES IDX 9 22 8 23 7 24 6 25 5 26 4 27 3 28 2 29 1 30
REMARK H PARENT
REMARK Flexibility Score: inf
ROOT
ATOM      1  C   UNL     1     150.940 134.179 166.896  1.00  0.00     0.000 C 
ENDROOT
BRANCH   1   2
ATOM      2  C   UNL     1     151.410 134.767 168.241  1.00  0.00     0.000 C 
BRANCH   2   3
ATOM      3  C   UNL     1     152.834 135.358 168.167  1.00  0.00     0.000 C 
BRANCH   3   4
ATOM      4  C   UNL     1     152.950 136.625 167.305  1.00  0.00     0.000 C 
BRANCH   4   5
ATOM      5  C   UNL     1     154.123 136.567 166.313  1.00  0.00     0.000 C 
BRANCH   5   6
ATOM      6  C   UNL     1     155.313 135.732 166.825  1.00  0.00     0.000 C 
BRANCH   6   7
ATOM      7  C   UNL     1     156.644 136.494 166.984  1.00  0.00     0.000 C 
BRANCH   7   8
ATOM      8  C   UNL     1     156.844 137.082 168.390  1.00  0.00     0.000 C 
BRANCH   8   9
ATOM      9  C   UNL     1     157.419 138.508 168.365  1.00  0.00     0.000 C 
BRANCH   9  10
ATOM     10  C   UNL     1     156.837 139.395 167.241  1.00  0.00     0.000 C 
BRANCH  10  11
ATOM     11  C   UNL     1     155.414 139.880 167.567  1.00  0.00     0.000 C 
BRANCH  11  12
ATOM     12  C   UNL     1     154.838 140.810 166.488  1.00  0.00     0.006 C 
BRANCH  12  13
ATOM     13  C   UNL     1     154.634 142.245 166.990  1.00  0.00     0.053 C 
BRANCH  13  14
ATOM     14  C   UNL     1     155.956 142.904 167.230  1.00  0.00     0.041 C 
ATOM     15  O   UNL     1     156.538 143.517 166.296  1.00  0.00    -0.550 OA
ATOM     16  O   UNL     1     156.518 142.894 168.501  1.00  0.00    -0.550 OA
ENDBRANCH  13  14
ENDBRANCH  12  13
ENDBRANCH  11  12
ENDBRANCH  10  11
ENDBRANCH   9  10
ENDBRANCH   8   9
ENDBRANCH   7   8
ENDBRANCH   6   7
ENDBRANCH   5   6
ENDBRANCH   4   5
ENDBRANCH   3   4
ENDBRANCH   2   3
ENDBRANCH   1   2
BRANCH   1  17
ATOM     17  C   UNL     1     151.070 132.646 166.851  1.00  0.00     0.000 C 
BRANCH  17  18
ATOM     18  C   UNL     1     151.891 132.175 165.637  1.00  0.00     0.000 C 
BRANCH  18  19
ATOM     19  C   UNL     1     152.745 133.295 165.023  1.00  0.00     0.000 C 
BRANCH  19  20
ATOM     20  C   UNL     1     154.239 132.928 164.928  1.00  0.00     0.000 C 
BRANCH  20  21
ATOM     21  C   UNL     1     154.680 131.917 166.009  1.00  0.00     0.000 C 
BRANCH  21  22
ATOM     22  C   UNL     1     155.687 132.474 167.034  1.00  0.00    -0.000 C 
BRANCH  22  23
ATOM     23  C   UNL     1     157.168 132.218 166.712  1.00  0.00    -0.000 C 
BRANCH  23  24
ATOM     24  C   UNL     1     158.124 132.798 167.766  1.00  0.00    -0.000 C 
BRANCH  24  25
ATOM     25  C   UNL     1     157.344 133.435 168.926  1.00  0.00    -0.000 C 
BRANCH  25  26
ATOM     26  C   UNL     1     157.566 132.710 170.264  1.00  0.00    -0.000 C 
BRANCH  26  27
ATOM     27  C   UNL     1     156.335 132.666 171.187  1.00  0.00    -0.000 C 
BRANCH  27  28
ATOM     28  C   UNL     1     155.153 133.526 170.688  1.00  0.00    -0.000 C 
BRANCH  28  29
ATOM     29  C   UNL     1     153.950 132.671 170.262  1.00  0.00    -0.003 C 
ATOM     30  C   UNL     1     152.906 132.596 171.373  1.00  0.00     0.004 C 
ENDBRANCH  28  29
ENDBRANCH  27  28
ENDBRANCH  26  27
ENDBRANCH  25  26
ENDBRANCH  24  25
ENDBRANCH  23  24
ENDBRANCH  22  23
ENDBRANCH  21  22
ENDBRANCH  20  21
ENDBRANCH  19  20
ENDBRANCH  18  19
ENDBRANCH  17  18
ENDBRANCH   1  17
TORSDOF 26
ENDMDL
MODEL 8
REMARK VINA RESULT:    -3.537      3.299      7.178
REMARK INTER + INTRA:         -13.173
REMARK INTER:                  -9.144
REMARK INTRA:                  -4.028
REMARK UNBOUND:                -4.260
REMARK SMILES CCCCCCCCCCCCCCCCCCCCCCCCCCCC(=O)[O-]
REMARK SMILES IDX 15 1 16 2 17 3 18 4 19 5 20 6 21 7 22 8 23 9 24 10 25 11
REMARK SMILES IDX 26 12 27 13 28 14 29 15 30 16 14 17 13 18 12 19 11 20 10 21
REMARK SMILES IDX 9 22 8 23 7 24 6 25 5 26 4 27 3 28 2 29 1 30
REMARK H PARENT
REMARK Flexibility Score: inf
ROOT
ATOM      1  C   UNL     1     155.878 137.299 167.903  1.00  0.00     0.000 C 
ENDROOT
BRANCH   1   2
ATOM      2  C   UNL     1     156.757 136.305 168.688  1.00  0.00     0.000 C 
BRANCH   2   3
ATOM      3  C   UNL     1     155.970 135.544 169.775  1.00  0.00     0.000 C 
BRANCH   3   4
ATOM      4  C   UNL     1     156.827 134.595 170.629  1.00  0.00     0.000 C 
BRANCH   4   5
ATOM      5  C   UNL     1     156.676 133.122 170.219  1.00  0.00     0.000 C 
BRANCH   5   6
ATOM      6  C   UNL     1     157.749 132.655 169.215  1.00  0.00     0.000 C 
BRANCH   6   7
ATOM      7  C   UNL     1     157.351 132.733 167.728  1.00  0.00     0.000 C 
BRANCH   7   8
ATOM      8  C   UNL     1     155.854 132.479 167.485  1.00  0.00     0.000 C 
BRANCH   8   9
ATOM      9  C   UNL     1     155.520 132.251 166.001  1.00  0.00     0.000 C 
BRANCH   9  10
ATOM     10  C   UNL     1     154.016 132.019 165.730  1.00  0.00     0.000 C 
BRANCH  10  11
ATOM     11  C   UNL     1     153.586 132.564 164.357  1.00  0.00     0.000 C 
BRANCH  11  12
ATOM     12  C   UNL     1     152.093 132.346 164.069  1.00  0.00     0.006 C 
BRANCH  12  13
ATOM     13  C   UNL     1     151.205 132.646 165.285  1.00  0.00     0.053 C 
BRANCH  13  14
ATOM     14  C   UNL     1     149.802 132.925 164.845  1.00  0.00     0.041 C 
ATOM     15  O   UNL     1     149.406 132.546 163.710  1.00  0.00    -0.550 OA
ATOM     16  O   UNL     1     148.913 133.548 165.712  1.00  0.00    -0.550 OA
ENDBRANCH  13  14
ENDBRANCH  12  13
ENDBRANCH  11  12
ENDBRANCH  10  11
ENDBRANCH   9  10
ENDBRANCH   8   9
ENDBRANCH   7   8
ENDBRANCH   6   7
ENDBRANCH   5   6
ENDBRANCH   4   5
ENDBRANCH   3   4
ENDBRANCH   2   3
ENDBRANCH   1   2
BRANCH   1  17
ATOM     17  C   UNL     1     155.706 136.890 166.429  1.00  0.00     0.000 C 
BRANCH  17  18
ATOM     18  C   UNL     1     154.718 135.722 166.268  1.00  0.00     0.000 C 
BRANCH  18  19
ATOM     19  C   UNL     1     153.311 136.054 166.791  1.00  0.00     0.000 C 
BRANCH  19  20
ATOM     20  C   UNL     1     152.318 136.398 165.664  1.00  0.00     0.000 C 
BRANCH  20  21
ATOM     21  C   UNL     1     151.810 137.856 165.734  1.00  0.00     0.000 C 
BRANCH  21  22
ATOM     22  C   UNL     1     152.649 138.783 166.635  1.00  0.00    -0.000 C 
BRANCH  22  23
ATOM     23  C   UNL     1     153.084 140.111 165.995  1.00  0.00    -0.000 C 
BRANCH  23  24
ATOM     24  C   UNL     1     153.494 139.965 164.521  1.00  0.00    -0.000 C 
BRANCH  24  25
ATOM     25  C   UNL     1     155.009 139.745 164.391  1.00  0.00    -0.000 C 
BRANCH  25  26
ATOM     26  C   UNL     1     155.826 140.647 165.331  1.00  0.00    -0.000 C 
BRANCH  26  27
ATOM     27  C   UNL     1     157.283 140.199 165.551  1.00  0.00    -0.000 C 
BRANCH  27  28
ATOM     28  C   UNL     1     158.125 141.204 166.368  1.00  0.00    -0.000 C 
BRANCH  28  29
ATOM     29  C   UNL     1     157.323 141.838 167.515  1.00  0.00    -0.003 C 
ATOM     30  C   UNL     1     157.273 140.913 168.729  1.00  0.00     0.004 C 
ENDBRANCH  28  29
ENDBRANCH  27  28
ENDBRANCH  26  27
ENDBRANCH  25  26
ENDBRANCH  24  25
ENDBRANCH  23  24
ENDBRANCH  22  23
ENDBRANCH  21  22
ENDBRANCH  20  21
ENDBRANCH  19  20
ENDBRANCH  18  19
ENDBRANCH  17  18
ENDBRANCH   1  17
TORSDOF 26
ENDMDL
MODEL 9
REMARK VINA RESULT:    -3.509      2.890      6.980
REMARK INTER + INTRA:         -13.104
REMARK INTER:                  -8.183
REMARK INTRA:                  -4.921
REMARK UNBOUND:                -4.260
REMARK SMILES CCCCCCCCCCCCCCCCCCCCCCCCCCCC(=O)[O-]
REMARK SMILES IDX 15 1 16 2 17 3 18 4 19 5 20 6 21 7 22 8 23 9 24 10 25 11
REMARK SMILES IDX 26 12 27 13 28 14 29 15 30 16 14 17 13 18 12 19 11 20 10 21
REMARK SMILES IDX 9 22 8 23 7 24 6 25 5 26 4 27 3 28 2 29 1 30
REMARK H PARENT
REMARK Flexibility Score: inf
ROOT
ATOM      1  C   UNL     1     154.152 136.570 167.000  1.00  0.00     0.000 C 
ENDROOT
BRANCH   1   2
ATOM      2  C   UNL     1     155.663 136.823 166.832  1.00  0.00     0.000 C 
BRANCH   2   3
ATOM      3  C   UNL     1     156.357 137.189 168.161  1.00  0.00     0.000 C 
BRANCH   3   4
ATOM      4  C   UNL     1     157.401 138.311 168.042  1.00  0.00     0.000 C 
BRANCH   4   5
ATOM      5  C   UNL     1     156.781 139.715 168.123  1.00  0.00     0.000 C 
BRANCH   5   6
ATOM      6  C   UNL     1     157.626 140.795 167.420  1.00  0.00     0.000 C 
BRANCH   6   7
ATOM      7  C   UNL     1     157.976 140.514 165.944  1.00  0.00     0.000 C 
BRANCH   7   8
ATOM      8  C   UNL     1     156.743 140.223 165.072  1.00  0.00     0.000 C 
BRANCH   8   9
ATOM      9  C   UNL     1     155.851 141.459 164.866  1.00  0.00     0.000 C 
BRANCH   9  10
ATOM     10  C   UNL     1     154.374 141.118 164.568  1.00  0.00     0.000 C 
BRANCH  10  11
ATOM     11  C   UNL     1     153.988 139.721 165.082  1.00  0.00     0.000 C 
BRANCH  11  12
ATOM     12  C   UNL     1     152.675 139.202 164.476  1.00  0.00     0.006 C 
BRANCH  12  13
ATOM     13  C   UNL     1     151.606 138.912 165.538  1.00  0.00     0.053 C 
BRANCH  13  14
ATOM     14  C   UNL     1     150.830 137.687 165.170  1.00  0.00     0.041 C 
ATOM     15  O   UNL     1     150.709 137.352 163.961  1.00  0.00    -0.550 OA
ATOM     16  O   UNL     1     150.292 136.879 166.164  1.00  0.00    -0.550 OA
ENDBRANCH  13  14
ENDBRANCH  12  13
ENDBRANCH  11  12
ENDBRANCH  10  11
ENDBRANCH   9  10
ENDBRANCH   8   9
ENDBRANCH   7   8
ENDBRANCH   6   7
ENDBRANCH   5   6
ENDBRANCH   4   5
ENDBRANCH   3   4
ENDBRANCH   2   3
ENDBRANCH   1   2
BRANCH   1  17
ATOM     17  C   UNL     1     153.619 135.527 166.001  1.00  0.00     0.000 C 
BRANCH  17  18
ATOM     18  C   UNL     1     154.691 134.487 165.630  1.00  0.00     0.000 C 
BRANCH  18  19
ATOM     19  C   UNL     1     154.111 133.077 165.432  1.00  0.00     0.000 C 
BRANCH  19  20
ATOM     20  C   UNL     1     154.947 131.982 166.123  1.00  0.00     0.000 C 
BRANCH  20  21
ATOM     21  C   UNL     1     156.469 132.206 165.978  1.00  0.00     0.000 C 
BRANCH  21  22
ATOM     22  C   UNL     1     157.238 132.259 167.312  1.00  0.00    -0.000 C 
BRANCH  22  23
ATOM     23  C   UNL     1     157.430 133.662 167.909  1.00  0.00    -0.000 C 
BRANCH  23  24
ATOM     24  C   UNL     1     157.023 133.751 169.388  1.00  0.00    -0.000 C 
BRANCH  24  25
ATOM     25  C   UNL     1     155.743 132.944 169.655  1.00  0.00    -0.000 C 
BRANCH  25  26
ATOM     26  C   UNL     1     154.461 133.749 169.383  1.00  0.00    -0.000 C 
BRANCH  26  27
ATOM     27  C   UNL     1     153.166 132.917 169.365  1.00  0.00    -0.000 C 
BRANCH  27  28
ATOM     28  C   UNL     1     152.100 133.447 168.382  1.00  0.00    -0.000 C 
BRANCH  28  29
ATOM     29  C   UNL     1     151.303 132.313 167.720  1.00  0.00    -0.003 C 
ATOM     30  C   UNL     1     150.274 132.863 166.735  1.00  0.00     0.004 C 
ENDBRANCH  28  29
ENDBRANCH  27  28
ENDBRANCH  26  27
ENDBRANCH  25  26
ENDBRANCH  24  25
ENDBRANCH  23  24
ENDBRANCH  22  23
ENDBRANCH  21  22
ENDBRANCH  20  21
ENDBRANCH  19  20
ENDBRANCH  18  19
ENDBRANCH  17  18
ENDBRANCH   1  17
TORSDOF 26
ENDMDL
