MODEL 1
REMARK VINA RESULT:    -5.214      0.000      0.000
REMARK INTER + INTRA:         -18.027
REMARK INTER:                 -13.749
REMARK INTRA:                  -4.278
REMARK UNBOUND:                -4.278
REMARK SMILES CCCCCCCCCCCCCCCCCCCCCCCCCCCCCC(=O)[O-]
REMARK SMILES IDX 16 1 17 2 18 3 19 4 20 5 21 6 22 7 23 8 24 9 25 10 26 11
REMARK SMILES IDX 27 12 28 13 29 14 30 15 31 16 32 17 15 18 14 19 13 20 12 21
REMARK SMILES IDX 11 22 10 23 9 24 8 25 7 26 6 27 5 28 4 29 3 30 2 31 1 32
REMARK H PARENT
REMARK Flexibility Score: inf
ROOT
ATOM      1  C   UNL     1      16.915  72.471  20.287  1.00  0.00     0.000 C 
ENDROOT
BRANCH   1   2
ATOM      2  C   UNL     1      16.027  71.282  20.693  1.00  0.00     0.000 C 
BRANCH   2   3
ATOM      3  C   UNL     1      16.828  70.131  21.327  1.00  0.00     0.000 C 
BRANCH   3   4
ATOM      4  C   UNL     1      16.525  68.761  20.693  1.00  0.00     0.000 C 
BRANCH   4   5
ATOM      5  C   UNL     1      15.753  68.799  19.361  1.00  0.00     0.000 C 
BRANCH   5   6
ATOM      6  C   UNL     1      14.643  67.739  19.273  1.00  0.00     0.000 C 
BRANCH   6   7
ATOM      7  C   UNL     1      13.746  67.916  18.036  1.00  0.00     0.000 C 
BRANCH   7   8
ATOM      8  C   UNL     1      14.479  68.502  16.810  1.00  0.00     0.000 C 
BRANCH   8   9
ATOM      9  C   UNL     1      13.854  69.825  16.335  1.00  0.00     0.000 C 
BRANCH   9  10
ATOM     10  C   UNL     1      13.012  70.502  17.440  1.00  0.00     0.000 C 
BRANCH  10  11
ATOM     11  C   UNL     1      11.604  70.909  16.975  1.00  0.00     0.000 C 
BRANCH  11  12
ATOM     12  C   UNL     1      11.423  72.430  16.880  1.00  0.00     0.000 C 
BRANCH  12  13
ATOM     13  C   UNL     1       9.996  72.833  17.268  1.00  0.00     0.006 C 
BRANCH  13  14
ATOM     14  C   UNL     1       9.977  74.184  17.989  1.00  0.00     0.053 C 
BRANCH  14  15
ATOM     15  C   UNL     1       9.482  74.021  19.391  1.00  0.00     0.041 C 
ATOM     16  O   UNL     1      10.074  74.595  20.344  1.00  0.00    -0.550 OA
ATOM     17  O   UNL     1       8.320  73.302  19.637  1.00  0.00    -0.550 OA
ENDBRANCH  14  15
ENDBRANCH  13  14
ENDBRANCH  12  13
ENDBRANCH  11  12
ENDBRANCH  10  11
ENDBRANCH   9  10
ENDBRANCH   8   9
ENDBRANCH   7   8
ENDBRANCH   6   7
ENDBRANCH   5   6
ENDBRANCH   4   5
ENDBRANCH   3   4
ENDBRANCH   2   3
ENDBRANCH   1   2
BRANCH   1  18
ATOM     18  C   UNL     1      18.396  72.128  20.042  1.00  0.00     0.000 C 
BRANCH  18  19
ATOM     19  C   UNL     1      18.804  72.154  18.553  1.00  0.00     0.000 C 
BRANCH  19  20
ATOM     20  C   UNL     1      18.344  70.894  17.797  1.00  0.00     0.000 C 
BRANCH  20  21
ATOM     21  C   UNL     1      17.223  71.202  16.779  1.00  0.00     0.000 C 
BRANCH  21  22
ATOM     22  C   UNL     1      17.015  72.705  16.531  1.00  0.00     0.000 C 
BRANCH  22  23
ATOM     23  C   UNL     1      15.608  73.182  16.921  1.00  0.00     0.000 C 
BRANCH  23  24
ATOM     24  C   UNL     1      15.554  74.685  17.250  1.00  0.00    -0.000 C 
BRANCH  24  25
ATOM     25  C   UNL     1      16.923  75.395  17.257  1.00  0.00    -0.000 C 
BRANCH  25  26
ATOM     26  C   UNL     1      17.511  75.681  18.654  1.00  0.00    -0.000 C 
BRANCH  26  27
ATOM     27  C   UNL     1      18.319  76.985  18.771  1.00  0.00    -0.000 C 
BRANCH  27  28
ATOM     28  C   UNL     1      19.782  76.746  19.180  1.00  0.00    -0.000 C 
BRANCH  28  29
ATOM     29  C   UNL     1      20.777  77.573  18.342  1.00  0.00    -0.000 C 
BRANCH  29  30
ATOM     30  C   UNL     1      20.226  78.105  17.003  1.00  0.00    -0.000 C 
BRANCH  30  31
ATOM     31  C   UNL     1      20.022  79.629  16.942  1.00  0.00    -0.003 C 
ATOM     32  C   UNL     1      20.565  80.349  18.175  1.00  0.00     0.004 C 
ENDBRANCH  30  31
ENDBRANCH  29  30
ENDBRANCH  28  29
ENDBRANCH  27  28
ENDBRANCH  26  27
ENDBRANCH  25  26
ENDBRANCH  24  25
ENDBRANCH  23  24
ENDBRANCH  22  23
ENDBRANCH  21  22
ENDBRANCH  20  21
ENDBRANCH  19  20
ENDBRANCH  18  19
ENDBRANCH   1  18
TORSDOF 28
ENDMDL
MODEL 2
REMARK VINA RESULT:    -5.088      1.169      2.015
REMARK INTER + INTRA:         -17.694
REMARK INTER:                 -12.941
REMARK INTRA:                  -4.752
REMARK UNBOUND:                -4.278
REMARK SMILES CCCCCCCCCCCCCCCCCCCCCCCCCCCCCC(=O)[O-]
REMARK SMILES IDX 16 1 17 2 18 3 19 4 20 5 21 6 22 7 23 8 24 9 25 10 26 11
REMARK SMILES IDX 27 12 28 13 29 14 30 15 31 16 32 17 15 18 14 19 13 20 12 21
REMARK SMILES IDX 11 22 10 23 9 24 8 25 7 26 6 27 5 28 4 29 3 30 2 31 1 32
REMARK H PARENT
REMARK Flexibility Score: inf
ROOT
ATOM      1  C   UNL     1      16.628  72.501  20.048  1.00  0.00     0.000 C 
ENDROOT
BRANCH   1   2
ATOM      2  C   UNL     1      15.797  71.247  20.369  1.00  0.00     0.000 C 
BRANCH   2   3
ATOM      3  C   UNL     1      16.461  70.350  21.427  1.00  0.00     0.000 C 
BRANCH   3   4
ATOM      4  C   UNL     1      16.498  68.863  21.024  1.00  0.00     0.000 C 
BRANCH   4   5
ATOM      5  C   UNL     1      15.743  68.505  19.730  1.00  0.00     0.000 C 
BRANCH   5   6
ATOM      6  C   UNL     1      14.864  67.252  19.869  1.00  0.00     0.000 C 
BRANCH   6   7
ATOM      7  C   UNL     1      13.566  67.340  19.050  1.00  0.00     0.000 C 
BRANCH   7   8
ATOM      8  C   UNL     1      13.583  68.441  17.967  1.00  0.00     0.000 C 
BRANCH   8   9
ATOM      9  C   UNL     1      12.187  69.043  17.726  1.00  0.00     0.000 C 
BRANCH   9  10
ATOM     10  C   UNL     1      12.252  70.551  17.396  1.00  0.00     0.000 C 
BRANCH  10  11
ATOM     11  C   UNL     1      10.883  71.162  17.052  1.00  0.00     0.000 C 
BRANCH  11  12
ATOM     12  C   UNL     1      10.993  72.569  16.449  1.00  0.00     0.000 C 
BRANCH  12  13
ATOM     13  C   UNL     1      11.421  73.586  17.514  1.00  0.00     0.006 C 
BRANCH  13  14
ATOM     14  C   UNL     1      10.267  74.520  17.885  1.00  0.00     0.053 C 
BRANCH  14  15
ATOM     15  C   UNL     1       9.637  74.086  19.172  1.00  0.00     0.041 C 
ATOM     16  O   UNL     1       8.697  73.248  19.166  1.00  0.00    -0.550 OA
ATOM     17  O   UNL     1      10.140  74.547  20.381  1.00  0.00    -0.550 OA
ENDBRANCH  14  15
ENDBRANCH  13  14
ENDBRANCH  12  13
ENDBRANCH  11  12
ENDBRANCH  10  11
ENDBRANCH   9  10
ENDBRANCH   8   9
ENDBRANCH   7   8
ENDBRANCH   6   7
ENDBRANCH   5   6
ENDBRANCH   4   5
ENDBRANCH   3   4
ENDBRANCH   2   3
ENDBRANCH   1   2
BRANCH   1  18
ATOM     18  C   UNL     1      18.155  72.309  20.108  1.00  0.00     0.000 C 
BRANCH  18  19
ATOM     19  C   UNL     1      18.787  71.914  18.755  1.00  0.00     0.000 C 
BRANCH  19  20
ATOM     20  C   UNL     1      18.871  70.389  18.569  1.00  0.00     0.000 C 
BRANCH  20  21
ATOM     21  C   UNL     1      17.836  69.869  17.547  1.00  0.00     0.000 C 
BRANCH  21  22
ATOM     22  C   UNL     1      17.386  70.934  16.533  1.00  0.00     0.000 C 
BRANCH  22  23
ATOM     23  C   UNL     1      15.857  71.027  16.410  1.00  0.00     0.000 C 
BRANCH  23  24
ATOM     24  C   UNL     1      15.319  72.442  16.694  1.00  0.00    -0.000 C 
BRANCH  24  25
ATOM     25  C   UNL     1      16.356  73.572  16.535  1.00  0.00    -0.000 C 
BRANCH  25  26
ATOM     26  C   UNL     1      16.043  74.868  17.309  1.00  0.00    -0.000 C 
BRANCH  26  27
ATOM     27  C   UNL     1      17.097  75.982  17.177  1.00  0.00    -0.000 C 
BRANCH  27  28
ATOM     28  C   UNL     1      17.825  76.275  18.499  1.00  0.00    -0.000 C 
BRANCH  28  29
ATOM     29  C   UNL     1      19.025  77.225  18.320  1.00  0.00    -0.000 C 
BRANCH  29  30
ATOM     30  C   UNL     1      20.359  76.716  18.903  1.00  0.00    -0.000 C 
BRANCH  30  31
ATOM     31  C   UNL     1      20.343  75.258  19.393  1.00  0.00    -0.003 C 
ATOM     32  C   UNL     1      20.524  75.138  20.905  1.00  0.00     0.004 C 
ENDBRANCH  30  31
ENDBRANCH  29  30
ENDBRANCH  28  29
ENDBRANCH  27  28
ENDBRANCH  26  27
ENDBRANCH  25  26
ENDBRANCH  24  25
ENDBRANCH  23  24
ENDBRANCH  22  23
ENDBRANCH  21  22
ENDBRANCH  20  21
ENDBRANCH  19  20
ENDBRANCH  18  19
ENDBRANCH   1  18
TORSDOF 28
ENDMDL
MODEL 3
REMARK VINA RESULT:    -4.945      1.437      5.817
REMARK INTER + INTRA:         -17.317
REMARK INTER:                 -12.564
REMARK INTRA:                  -4.754
REMARK UNBOUND:                -4.278
REMARK SMILES CCCCCCCCCCCCCCCCCCCCCCCCCCCCCC(=O)[O-]
REMARK SMILES IDX 16 1 17 2 18 3 19 4 20 5 21 6 22 7 23 8 24 9 25 10 26 11
REMARK SMILES IDX 27 12 28 13 29 14 30 15 31 16 32 17 15 18 14 19 13 20 12 21
REMARK SMILES IDX 11 22 10 23 9 24 8 25 7 26 6 27 5 28 4 29 3 30 2 31 1 32
REMARK H PARENT
REMARK Flexibility Score: inf
ROOT
ATOM      1  C   UNL     1      18.627  75.528  15.954  1.00  0.00     0.000 C 
ENDROOT
BRANCH   1   2
ATOM      2  C   UNL     1      17.423  76.423  16.295  1.00  0.00     0.000 C 
BRANCH   2   3
ATOM      3  C   UNL     1      16.083  75.672  16.214  1.00  0.00     0.000 C 
BRANCH   3   4
ATOM      4  C   UNL     1      15.592  75.160  17.582  1.00  0.00     0.000 C 
BRANCH   4   5
ATOM      5  C   UNL     1      14.808  73.834  17.555  1.00  0.00     0.000 C 
BRANCH   5   6
ATOM      6  C   UNL     1      15.159  72.948  16.348  1.00  0.00     0.000 C 
BRANCH   6   7
ATOM      7  C   UNL     1      14.684  71.495  16.518  1.00  0.00     0.000 C 
BRANCH   7   8
ATOM      8  C   UNL     1      13.774  71.274  17.745  1.00  0.00     0.000 C 
BRANCH   8   9
ATOM      9  C   UNL     1      13.090  69.895  17.722  1.00  0.00     0.000 C 
BRANCH   9  10
ATOM     10  C   UNL     1      11.580  69.999  17.408  1.00  0.00     0.000 C 
BRANCH  10  11
ATOM     11  C   UNL     1      11.205  71.262  16.615  1.00  0.00     0.000 C 
BRANCH  11  12
ATOM     12  C   UNL     1      10.218  72.166  17.366  1.00  0.00     0.000 C 
BRANCH  12  13
ATOM     13  C   UNL     1      10.635  73.637  17.255  1.00  0.00     0.006 C 
BRANCH  13  14
ATOM     14  C   UNL     1      10.037  74.472  18.391  1.00  0.00     0.053 C 
BRANCH  14  15
ATOM     15  C   UNL     1      10.756  74.199  19.674  1.00  0.00     0.041 C 
ATOM     16  O   UNL     1      10.124  74.180  20.764  1.00  0.00    -0.550 OA
ATOM     17  O   UNL     1      12.109  73.886  19.658  1.00  0.00    -0.550 OA
ENDBRANCH  14  15
ENDBRANCH  13  14
ENDBRANCH  12  13
ENDBRANCH  11  12
ENDBRANCH  10  11
ENDBRANCH   9  10
ENDBRANCH   8   9
ENDBRANCH   7   8
ENDBRANCH   6   7
ENDBRANCH   5   6
ENDBRANCH   4   5
ENDBRANCH   3   4
ENDBRANCH   2   3
ENDBRANCH   1   2
BRANCH   1  18
ATOM     18  C   UNL     1      19.987  76.249  15.911  1.00  0.00     0.000 C 
BRANCH  18  19
ATOM     19  C   UNL     1      19.927  77.722  16.369  1.00  0.00     0.000 C 
BRANCH  19  20
ATOM     20  C   UNL     1      20.519  77.924  17.776  1.00  0.00     0.000 C 
BRANCH  20  21
ATOM     21  C   UNL     1      21.405  76.736  18.211  1.00  0.00     0.000 C 
BRANCH  21  22
ATOM     22  C   UNL     1      21.000  76.131  19.565  1.00  0.00     0.000 C 
BRANCH  22  23
ATOM     23  C   UNL     1      19.532  75.678  19.598  1.00  0.00     0.000 C 
BRANCH  23  24
ATOM     24  C   UNL     1      19.370  74.198  19.991  1.00  0.00    -0.000 C 
BRANCH  24  25
ATOM     25  C   UNL     1      18.414  73.391  19.090  1.00  0.00    -0.000 C 
BRANCH  25  26
ATOM     26  C   UNL     1      19.096  72.401  18.124  1.00  0.00    -0.000 C 
BRANCH  26  27
ATOM     27  C   UNL     1      18.169  71.331  17.519  1.00  0.00    -0.000 C 
BRANCH  27  28
ATOM     28  C   UNL     1      18.290  69.970  18.222  1.00  0.00    -0.000 C 
BRANCH  28  29
ATOM     29  C   UNL     1      16.930  69.415  18.685  1.00  0.00    -0.000 C 
BRANCH  29  30
ATOM     30  C   UNL     1      16.840  69.055  20.182  1.00  0.00    -0.000 C 
BRANCH  30  31
ATOM     31  C   UNL     1      16.832  70.258  21.142  1.00  0.00    -0.003 C 
ATOM     32  C   UNL     1      15.963  71.410  20.641  1.00  0.00     0.004 C 
ENDBRANCH  30  31
ENDBRANCH  29  30
ENDBRANCH  28  29
ENDBRANCH  27  28
ENDBRANCH  26  27
ENDBRANCH  25  26
ENDBRANCH  24  25
ENDBRANCH  23  24
ENDBRANCH  22  23
ENDBRANCH  21  22
ENDBRANCH  20  21
ENDBRANCH  19  20
ENDBRANCH  18  19
ENDBRANCH   1  18
TORSDOF 28
ENDMDL
MODEL 4
REMARK VINA RESULT:    -4.901      1.382      5.464
REMARK INTER + INTRA:         -17.202
REMARK INTER:                 -11.987
REMARK INTRA:                  -5.215
REMARK UNBOUND:                -4.278
REMARK SMILES CCCCCCCCCCCCCCCCCCCCCCCCCCCCCC(=O)[O-]
REMARK SMILES IDX 16 1 17 2 18 3 19 4 20 5 21 6 22 7 23 8 24 9 25 10 26 11
REMARK SMILES IDX 27 12 28 13 29 14 30 15 31 16 32 17 15 18 14 19 13 20 12 21
REMARK SMILES IDX 11 22 10 23 9 24 8 25 7 26 6 27 5 28 4 29 3 30 2 31 1 32
REMARK H PARENT
REMARK Flexibility Score: inf
ROOT
ATOM      1  C   UNL     1      16.553  75.403  17.327  1.00  0.00     0.000 C 
ENDROOT
BRANCH   1   2
ATOM      2  C   UNL     1      15.651  75.022  18.513  1.00  0.00     0.000 C 
BRANCH   2   3
ATOM      3  C   UNL     1      14.543  74.029  18.122  1.00  0.00     0.000 C 
BRANCH   3   4
ATOM      4  C   UNL     1      14.566  72.735  18.958  1.00  0.00     0.000 C 
BRANCH   4   5
ATOM      5  C   UNL     1      15.357  71.562  18.347  1.00  0.00     0.000 C 
BRANCH   5   6
ATOM      6  C   UNL     1      15.625  71.731  16.842  1.00  0.00     0.000 C 
BRANCH   6   7
ATOM      7  C   UNL     1      15.730  70.388  16.101  1.00  0.00     0.000 C 
BRANCH   7   8
ATOM      8  C   UNL     1      15.591  69.154  17.019  1.00  0.00     0.000 C 
BRANCH   8   9
ATOM      9  C   UNL     1      14.274  68.395  16.781  1.00  0.00     0.000 C 
BRANCH   9  10
ATOM     10  C   UNL     1      13.361  68.408  18.028  1.00  0.00     0.000 C 
BRANCH  10  11
ATOM     11  C   UNL     1      11.996  69.072  17.781  1.00  0.00     0.000 C 
BRANCH  11  12
ATOM     12  C   UNL     1      12.109  70.405  17.028  1.00  0.00     0.000 C 
BRANCH  12  13
ATOM     13  C   UNL     1      10.887  71.289  17.302  1.00  0.00     0.006 C 
BRANCH  13  14
ATOM     14  C   UNL     1      11.269  72.771  17.328  1.00  0.00     0.053 C 
BRANCH  14  15
ATOM     15  C   UNL     1      10.581  73.467  18.461  1.00  0.00     0.041 C 
ATOM     16  O   UNL     1      11.252  73.926  19.424  1.00  0.00    -0.550 OA
ATOM     17  O   UNL     1       9.210  73.681  18.415  1.00  0.00    -0.550 OA
ENDBRANCH  14  15
ENDBRANCH  13  14
ENDBRANCH  12  13
ENDBRANCH  11  12
ENDBRANCH  10  11
ENDBRANCH   9  10
ENDBRANCH   8   9
ENDBRANCH   7   8
ENDBRANCH   6   7
ENDBRANCH   5   6
ENDBRANCH   4   5
ENDBRANCH   3   4
ENDBRANCH   2   3
ENDBRANCH   1   2
BRANCH   1  18
ATOM     18  C   UNL     1      17.643  76.444  17.641  1.00  0.00     0.000 C 
BRANCH  18  19
ATOM     19  C   UNL     1      18.333  77.023  16.386  1.00  0.00     0.000 C 
BRANCH  19  20
ATOM     20  C   UNL     1      19.868  76.946  16.473  1.00  0.00     0.000 C 
BRANCH  20  21
ATOM     21  C   UNL     1      20.404  77.502  17.811  1.00  0.00     0.000 C 
BRANCH  21  22
ATOM     22  C   UNL     1      21.163  76.460  18.649  1.00  0.00     0.000 C 
BRANCH  22  23
ATOM     23  C   UNL     1      20.458  76.138  19.976  1.00  0.00     0.000 C 
BRANCH  23  24
ATOM     24  C   UNL     1      20.031  74.663  20.085  1.00  0.00    -0.000 C 
BRANCH  24  25
ATOM     25  C   UNL     1      19.913  73.923  18.737  1.00  0.00    -0.000 C 
BRANCH  25  26
ATOM     26  C   UNL     1      18.700  72.979  18.607  1.00  0.00    -0.000 C 
BRANCH  26  27
ATOM     27  C   UNL     1      19.026  71.555  18.124  1.00  0.00    -0.000 C 
BRANCH  27  28
ATOM     28  C   UNL     1      18.812  70.491  19.213  1.00  0.00    -0.000 C 
BRANCH  28  29
ATOM     29  C   UNL     1      18.350  71.096  20.552  1.00  0.00    -0.000 C 
BRANCH  29  30
ATOM     30  C   UNL     1      17.762  70.087  21.561  1.00  0.00    -0.000 C 
BRANCH  30  31
ATOM     31  C   UNL     1      16.304  69.675  21.296  1.00  0.00    -0.003 C 
ATOM     32  C   UNL     1      16.190  68.346  20.551  1.00  0.00     0.004 C 
ENDBRANCH  30  31
ENDBRANCH  29  30
ENDBRANCH  28  29
ENDBRANCH  27  28
ENDBRANCH  26  27
ENDBRANCH  25  26
ENDBRANCH  24  25
ENDBRANCH  23  24
ENDBRANCH  22  23
ENDBRANCH  21  22
ENDBRANCH  20  21
ENDBRANCH  19  20
ENDBRANCH  18  19
ENDBRANCH   1  18
TORSDOF 28
ENDMDL
MODEL 5
REMARK VINA RESULT:    -4.883      3.265      7.879
REMARK INTER + INTRA:         -17.153
REMARK INTER:                 -12.646
REMARK INTRA:                  -4.507
REMARK UNBOUND:                -4.278
REMARK SMILES CCCCCCCCCCCCCCCCCCCCCCCCCCCCCC(=O)[O-]
REMARK SMILES IDX 16 1 17 2 18 3 19 4 20 5 21 6 22 7 23 8 24 9 25 10 26 11
REMARK SMILES IDX 27 12 28 13 29 14 30 15 31 16 32 17 15 18 14 19 13 20 12 21
REMARK SMILES IDX 11 22 10 23 9 24 8 25 7 26 6 27 5 28 4 29 3 30 2 31 1 32
REMARK H PARENT
REMARK Flexibility Score: inf
ROOT
ATOM      1  C   UNL     1      18.254  75.243  16.106  1.00  0.00     0.000 C 
ENDROOT
BRANCH   1   2
ATOM      2  C   UNL     1      19.615  75.724  16.637  1.00  0.00     0.000 C 
BRANCH   2   3
ATOM      3  C   UNL     1      20.225  74.759  17.669  1.00  0.00     0.000 C 
BRANCH   3   4
ATOM      4  C   UNL     1      19.219  74.309  18.745  1.00  0.00     0.000 C 
BRANCH   4   5
ATOM      5  C   UNL     1      19.251  72.810  19.101  1.00  0.00     0.000 C 
BRANCH   5   6
ATOM      6  C   UNL     1      18.751  71.906  17.963  1.00  0.00     0.000 C 
BRANCH   6   7
ATOM      7  C   UNL     1      18.648  70.428  18.377  1.00  0.00     0.000 C 
BRANCH   7   8
ATOM      8  C   UNL     1      17.597  69.627  17.580  1.00  0.00     0.000 C 
BRANCH   8   9
ATOM      9  C   UNL     1      17.237  70.304  16.246  1.00  0.00     0.000 C 
BRANCH   9  10
ATOM     10  C   UNL     1      15.712  70.330  15.999  1.00  0.00     0.000 C 
BRANCH  10  11
ATOM     11  C   UNL     1      14.909  69.531  17.039  1.00  0.00     0.000 C 
BRANCH  11  12
ATOM     12  C   UNL     1      13.406  69.841  17.000  1.00  0.00     0.000 C 
BRANCH  12  13
ATOM     13  C   UNL     1      12.619  68.826  17.837  1.00  0.00     0.006 C 
BRANCH  13  14
ATOM     14  C   UNL     1      13.303  67.457  17.837  1.00  0.00     0.053 C 
BRANCH  14  15
ATOM     15  C   UNL     1      13.289  66.865  19.211  1.00  0.00     0.041 C 
ATOM     16  O   UNL     1      14.371  66.652  19.821  1.00  0.00    -0.550 OA
ATOM     17  O   UNL     1      12.080  66.624  19.851  1.00  0.00    -0.550 OA
ENDBRANCH  14  15
ENDBRANCH  13  14
ENDBRANCH  12  13
ENDBRANCH  11  12
ENDBRANCH  10  11
ENDBRANCH   9  10
ENDBRANCH   8   9
ENDBRANCH   7   8
ENDBRANCH   6   7
ENDBRANCH   5   6
ENDBRANCH   4   5
ENDBRANCH   3   4
ENDBRANCH   2   3
ENDBRANCH   1   2
BRANCH   1  18
ATOM     18  C   UNL     1      17.054  76.135  16.477  1.00  0.00     0.000 C 
BRANCH  18  19
ATOM     19  C   UNL     1      15.995  75.424  17.348  1.00  0.00     0.000 C 
BRANCH  19  20
ATOM     20  C   UNL     1      15.730  73.980  16.887  1.00  0.00     0.000 C 
BRANCH  20  21
ATOM     21  C   UNL     1      14.925  73.174  17.930  1.00  0.00     0.000 C 
BRANCH  21  22
ATOM     22  C   UNL     1      15.627  73.061  19.294  1.00  0.00     0.000 C 
BRANCH  22  23
ATOM     23  C   UNL     1      15.398  71.700  19.969  1.00  0.00     0.000 C 
BRANCH  23  24
ATOM     24  C   UNL     1      16.491  71.348  20.994  1.00  0.00    -0.000 C 
BRANCH  24  25
ATOM     25  C   UNL     1      16.584  69.851  21.352  1.00  0.00    -0.000 C 
BRANCH  25  26
ATOM     26  C   UNL     1      15.995  69.463  22.724  1.00  0.00    -0.000 C 
BRANCH  26  27
ATOM     27  C   UNL     1      16.940  68.668  23.642  1.00  0.00    -0.000 C 
BRANCH  27  28
ATOM     28  C   UNL     1      16.823  69.079  25.119  1.00  0.00    -0.000 C 
BRANCH  28  29
ATOM     29  C   UNL     1      17.214  67.944  26.085  1.00  0.00    -0.000 C 
BRANCH  29  30
ATOM     30  C   UNL     1      17.947  66.751  25.436  1.00  0.00    -0.000 C 
BRANCH  30  31
ATOM     31  C   UNL     1      17.155  65.432  25.418  1.00  0.00    -0.003 C 
ATOM     32  C   UNL     1      15.797  65.546  26.107  1.00  0.00     0.004 C 
ENDBRANCH  30  31
ENDBRANCH  29  30
ENDBRANCH  28  29
ENDBRANCH  27  28
ENDBRANCH  26  27
ENDBRANCH  25  26
ENDBRANCH  24  25
ENDBRANCH  23  24
ENDBRANCH  22  23
ENDBRANCH  21  22
ENDBRANCH  20  21
ENDBRANCH  19  20
ENDBRANCH  18  19
ENDBRANCH   1  18
TORSDOF 28
ENDMDL
MODEL 6
REMARK VINA RESULT:    -4.876      3.037      8.124
REMARK INTER + INTRA:         -17.135
REMARK INTER:                 -12.882
REMARK INTRA:                  -4.253
REMARK UNBOUND:                -4.278
REMARK SMILES CCCCCCCCCCCCCCCCCCCCCCCCCCCCCC(=O)[O-]
REMARK SMILES IDX 16 1 17 2 18 3 19 4 20 5 21 6 22 7 23 8 24 9 25 10 26 11
REMARK SMILES IDX 27 12 28 13 29 14 30 15 31 16 32 17 15 18 14 19 13 20 12 21
REMARK SMILES IDX 11 22 10 23 9 24 8 25 7 26 6 27 5 28 4 29 3 30 2 31 1 32
REMARK H PARENT
REMARK Flexibility Score: inf
ROOT
ATOM      1  C   UNL     1      20.031  76.152  19.826  1.00  0.00     0.000 C 
ENDROOT
BRANCH   1   2
ATOM      2  C   UNL     1      21.028  76.639  18.759  1.00  0.00     0.000 C 
BRANCH   2   3
ATOM      3  C   UNL     1      20.595  77.960  18.101  1.00  0.00     0.000 C 
BRANCH   3   4
ATOM      4  C   UNL     1      19.492  77.776  17.041  1.00  0.00     0.000 C 
BRANCH   4   5
ATOM      5  C   UNL     1      19.593  76.495  16.191  1.00  0.00     0.000 C 
BRANCH   5   6
ATOM      6  C   UNL     1      18.229  75.843  15.915  1.00  0.00     0.000 C 
BRANCH   6   7
ATOM      7  C   UNL     1      17.183  76.169  16.995  1.00  0.00     0.000 C 
BRANCH   7   8
ATOM      8  C   UNL     1      15.839  75.433  16.807  1.00  0.00     0.000 C 
BRANCH   8   9
ATOM      9  C   UNL     1      15.296  74.863  18.129  1.00  0.00     0.000 C 
BRANCH   9  10
ATOM     10  C   UNL     1      14.050  73.976  17.914  1.00  0.00     0.000 C 
BRANCH  10  11
ATOM     11  C   UNL     1      13.855  72.917  19.011  1.00  0.00     0.000 C 
BRANCH  11  12
ATOM     12  C   UNL     1      14.597  71.606  18.715  1.00  0.00     0.000 C 
BRANCH  12  13
ATOM     13  C   UNL     1      13.917  70.842  17.574  1.00  0.00     0.006 C 
BRANCH  13  14
ATOM     14  C   UNL     1      14.606  69.499  17.316  1.00  0.00     0.053 C 
BRANCH  14  15
ATOM     15  C   UNL     1      13.942  68.412  18.101  1.00  0.00     0.041 C 
ATOM     16  O   UNL     1      14.522  67.904  19.098  1.00  0.00    -0.550 OA
ATOM     17  O   UNL     1      12.650  68.015  17.781  1.00  0.00    -0.550 OA
ENDBRANCH  14  15
ENDBRANCH  13  14
ENDBRANCH  12  13
ENDBRANCH  11  12
ENDBRANCH  10  11
ENDBRANCH   9  10
ENDBRANCH   8   9
ENDBRANCH   7   8
ENDBRANCH   6   7
ENDBRANCH   5   6
ENDBRANCH   4   5
ENDBRANCH   3   4
ENDBRANCH   2   3
ENDBRANCH   1   2
BRANCH   1  18
ATOM     18  C   UNL     1      19.970  74.625  20.016  1.00  0.00     0.000 C 
BRANCH  18  19
ATOM     19  C   UNL     1      18.741  73.963  19.354  1.00  0.00     0.000 C 
BRANCH  19  20
ATOM     20  C   UNL     1      19.138  72.921  18.294  1.00  0.00     0.000 C 
BRANCH  20  21
ATOM     21  C   UNL     1      17.915  72.393  17.510  1.00  0.00     0.000 C 
BRANCH  21  22
ATOM     22  C   UNL     1      17.955  70.877  17.258  1.00  0.00     0.000 C 
BRANCH  22  23
ATOM     23  C   UNL     1      18.654  70.105  18.387  1.00  0.00     0.000 C 
BRANCH  23  24
ATOM     24  C   UNL     1      17.668  69.548  19.431  1.00  0.00    -0.000 C 
BRANCH  24  25
ATOM     25  C   UNL     1      17.356  70.504  20.600  1.00  0.00    -0.000 C 
BRANCH  25  26
ATOM     26  C   UNL     1      16.534  69.891  21.752  1.00  0.00    -0.000 C 
BRANCH  26  27
ATOM     27  C   UNL     1      17.359  69.398  22.955  1.00  0.00    -0.000 C 
BRANCH  27  28
ATOM     28  C   UNL     1      16.497  68.710  24.027  1.00  0.00    -0.000 C 
BRANCH  28  29
ATOM     29  C   UNL     1      17.006  68.973  25.457  1.00  0.00    -0.000 C 
BRANCH  29  30
ATOM     30  C   UNL     1      17.257  67.712  26.309  1.00  0.00    -0.000 C 
BRANCH  30  31
ATOM     31  C   UNL     1      16.464  66.466  25.877  1.00  0.00    -0.003 C 
ATOM     32  C   UNL     1      17.365  65.308  25.452  1.00  0.00     0.004 C 
ENDBRANCH  30  31
ENDBRANCH  29  30
ENDBRANCH  28  29
ENDBRANCH  27  28
ENDBRANCH  26  27
ENDBRANCH  25  26
ENDBRANCH  24  25
ENDBRANCH  23  24
ENDBRANCH  22  23
ENDBRANCH  21  22
ENDBRANCH  20  21
ENDBRANCH  19  20
ENDBRANCH  18  19
ENDBRANCH   1  18
TORSDOF 28
ENDMDL
MODEL 7
REMARK VINA RESULT:    -4.838      2.157      7.579
REMARK INTER + INTRA:         -17.034
REMARK INTER:                 -13.460
REMARK INTRA:                  -3.574
REMARK UNBOUND:                -4.278
REMARK SMILES CCCCCCCCCCCCCCCCCCCCCCCCCCCCCC(=O)[O-]
REMARK SMILES IDX 16 1 17 2 18 3 19 4 20 5 21 6 22 7 23 8 24 9 25 10 26 11
REMARK SMILES IDX 27 12 28 13 29 14 30 15 31 16 32 17 15 18 14 19 13 20 12 21
REMARK SMILES IDX 11 22 10 23 9 24 8 25 7 26 6 27 5 28 4 29 3 30 2 31 1 32
REMARK H PARENT
REMARK Flexibility Score: inf
ROOT
ATOM      1  C   UNL     1      20.280  76.075  19.713  1.00  0.00     0.000 C 
ENDROOT
BRANCH   1   2
ATOM      2  C   UNL     1      21.290  76.823  18.826  1.00  0.00     0.000 C 
BRANCH   2   3
ATOM      3  C   UNL     1      20.610  77.764  17.816  1.00  0.00     0.000 C 
BRANCH   3   4
ATOM      4  C   UNL     1      20.647  77.231  16.371  1.00  0.00     0.000 C 
BRANCH   4   5
ATOM      5  C   UNL     1      19.352  76.562  15.875  1.00  0.00     0.000 C 
BRANCH   5   6
ATOM      6  C   UNL     1      18.130  76.884  16.751  1.00  0.00     0.000 C 
BRANCH   6   7
ATOM      7  C   UNL     1      17.248  75.653  17.019  1.00  0.00     0.000 C 
BRANCH   7   8
ATOM      8  C   UNL     1      16.611  75.634  18.425  1.00  0.00     0.000 C 
BRANCH   8   9
ATOM      9  C   UNL     1      15.897  74.304  18.724  1.00  0.00     0.000 C 
BRANCH   9  10
ATOM     10  C   UNL     1      15.005  73.845  17.549  1.00  0.00     0.000 C 
BRANCH  10  11
ATOM     11  C   UNL     1      14.369  72.462  17.766  1.00  0.00     0.000 C 
BRANCH  11  12
ATOM     12  C   UNL     1      13.036  72.530  18.525  1.00  0.00     0.000 C 
BRANCH  12  13
ATOM     13  C   UNL     1      12.286  73.824  18.191  1.00  0.00     0.006 C 
BRANCH  13  14
ATOM     14  C   UNL     1      10.787  73.566  18.012  1.00  0.00     0.053 C 
BRANCH  14  15
ATOM     15  C   UNL     1      10.044  73.916  19.263  1.00  0.00     0.041 C 
ATOM     16  O   UNL     1      10.671  74.290  20.290  1.00  0.00    -0.550 OA
ATOM     17  O   UNL     1       8.655  73.907  19.271  1.00  0.00    -0.550 OA
ENDBRANCH  14  15
ENDBRANCH  13  14
ENDBRANCH  12  13
ENDBRANCH  11  12
ENDBRANCH  10  11
ENDBRANCH   9  10
ENDBRANCH   8   9
ENDBRANCH   7   8
ENDBRANCH   6   7
ENDBRANCH   5   6
ENDBRANCH   4   5
ENDBRANCH   3   4
ENDBRANCH   2   3
ENDBRANCH   1   2
BRANCH   1  18
ATOM     18  C   UNL     1      20.041  74.601  19.334  1.00  0.00     0.000 C 
BRANCH  18  19
ATOM     19  C   UNL     1      19.481  73.743  20.489  1.00  0.00     0.000 C 
BRANCH  19  20
ATOM     20  C   UNL     1      18.605  72.582  19.986  1.00  0.00     0.000 C 
BRANCH  20  21
ATOM     21  C   UNL     1      19.096  72.026  18.631  1.00  0.00     0.000 C 
BRANCH  21  22
ATOM     22  C   UNL     1      17.958  71.552  17.713  1.00  0.00     0.000 C 
BRANCH  22  23
ATOM     23  C   UNL     1      17.976  70.033  17.481  1.00  0.00     0.000 C 
BRANCH  23  24
ATOM     24  C   UNL     1      16.844  69.300  18.225  1.00  0.00    -0.000 C 
BRANCH  24  25
ATOM     25  C   UNL     1      16.997  69.262  19.759  1.00  0.00    -0.000 C 
BRANCH  25  26
ATOM     26  C   UNL     1      16.110  70.257  20.535  1.00  0.00    -0.000 C 
BRANCH  26  27
ATOM     27  C   UNL     1      16.072  70.050  22.060  1.00  0.00    -0.000 C 
BRANCH  27  28
ATOM     28  C   UNL     1      16.976  68.898  22.528  1.00  0.00    -0.000 C 
BRANCH  28  29
ATOM     29  C   UNL     1      16.885  68.650  24.046  1.00  0.00    -0.000 C 
BRANCH  29  30
ATOM     30  C   UNL     1      17.312  67.242  24.509  1.00  0.00    -0.000 C 
BRANCH  30  31
ATOM     31  C   UNL     1      16.907  66.878  25.947  1.00  0.00    -0.003 C 
ATOM     32  C   UNL     1      16.183  65.535  26.037  1.00  0.00     0.004 C 
ENDBRANCH  30  31
ENDBRANCH  29  30
ENDBRANCH  28  29
ENDBRANCH  27  28
ENDBRANCH  26  27
ENDBRANCH  25  26
ENDBRANCH  24  25
ENDBRANCH  23  24
ENDBRANCH  22  23
ENDBRANCH  21  22
ENDBRANCH  20  21
ENDBRANCH  19  20
ENDBRANCH  18  19
ENDBRANCH   1  18
TORSDOF 28
ENDMDL
MODEL 8
REMARK VINA RESULT:    -4.768      3.347      9.520
REMARK INTER + INTRA:         -16.851
REMARK INTER:                 -12.535
REMARK INTRA:                  -4.316
REMARK UNBOUND:                -4.278
REMARK SMILES CCCCCCCCCCCCCCCCCCCCCCCCCCCCCC(=O)[O-]
REMARK SMILES IDX 16 1 17 2 18 3 19 4 20 5 21 6 22 7 23 8 24 9 25 10 26 11
REMARK SMILES IDX 27 12 28 13 29 14 30 15 31 16 32 17 15 18 14 19 13 20 12 21
REMARK SMILES IDX 11 22 10 23 9 24 8 25 7 26 6 27 5 28 4 29 3 30 2 31 1 32
REMARK H PARENT
REMARK Flexibility Score: inf
ROOT
ATOM      1  C   UNL     1      16.699  69.176  16.239  1.00  0.00     0.000 C 
ENDROOT
BRANCH   1   2
ATOM      2  C   UNL     1      15.167  69.301  16.201  1.00  0.00     0.000 C 
BRANCH   2   3
ATOM      3  C   UNL     1      14.688  70.761  16.283  1.00  0.00     0.000 C 
BRANCH   3   4
ATOM      4  C   UNL     1      13.819  71.045  17.523  1.00  0.00     0.000 C 
BRANCH   4   5
ATOM      5  C   UNL     1      13.977  72.447  18.140  1.00  0.00     0.000 C 
BRANCH   5   6
ATOM      6  C   UNL     1      15.198  73.212  17.602  1.00  0.00     0.000 C 
BRANCH   6   7
ATOM      7  C   UNL     1      16.180  73.623  18.712  1.00  0.00     0.000 C 
BRANCH   7   8
ATOM      8  C   UNL     1      17.187  74.713  18.284  1.00  0.00     0.000 C 
BRANCH   8   9
ATOM      9  C   UNL     1      18.311  74.152  17.395  1.00  0.00     0.000 C 
BRANCH   9  10
ATOM     10  C   UNL     1      19.705  74.337  18.034  1.00  0.00     0.000 C 
BRANCH  10  11
ATOM     11  C   UNL     1      19.675  75.120  19.357  1.00  0.00     0.000 C 
BRANCH  11  12
ATOM     12  C   UNL     1      20.959  75.924  19.605  1.00  0.00     0.000 C 
BRANCH  12  13
ATOM     13  C   UNL     1      21.018  77.150  18.687  1.00  0.00     0.006 C 
BRANCH  13  14
ATOM     14  C   UNL     1      19.618  77.710  18.418  1.00  0.00     0.053 C 
BRANCH  14  15
ATOM     15  C   UNL     1      19.407  77.906  16.950  1.00  0.00     0.041 C 
ATOM     16  O   UNL     1      18.349  77.497  16.401  1.00  0.00    -0.550 OA
ATOM     17  O   UNL     1      20.341  78.611  16.202  1.00  0.00    -0.550 OA
ENDBRANCH  14  15
ENDBRANCH  13  14
ENDBRANCH  12  13
ENDBRANCH  11  12
ENDBRANCH  10  11
ENDBRANCH   9  10
ENDBRANCH   8   9
ENDBRANCH   7   8
ENDBRANCH   6   7
ENDBRANCH   5   6
ENDBRANCH   4   5
ENDBRANCH   3   4
ENDBRANCH   2   3
ENDBRANCH   1   2
BRANCH   1  18
ATOM     18  C   UNL     1      17.433  70.330  16.949  1.00  0.00     0.000 C 
BRANCH  18  19
ATOM     19  C   UNL     1      18.372  69.866  18.084  1.00  0.00     0.000 C 
BRANCH  19  20
ATOM     20  C   UNL     1      18.782  71.021  19.015  1.00  0.00     0.000 C 
BRANCH  20  21
ATOM     21  C   UNL     1      18.446  70.725  20.493  1.00  0.00     0.000 C 
BRANCH  21  22
ATOM     22  C   UNL     1      16.937  70.709  20.789  1.00  0.00     0.000 C 
BRANCH  22  23
ATOM     23  C   UNL     1      16.530  69.574  21.742  1.00  0.00     0.000 C 
BRANCH  23  24
ATOM     24  C   UNL     1      16.224  68.256  21.007  1.00  0.00    -0.000 C 
BRANCH  24  25
ATOM     25  C   UNL     1      15.418  68.416  19.702  1.00  0.00    -0.000 C 
BRANCH  25  26
ATOM     26  C   UNL     1      14.500  67.229  19.344  1.00  0.00    -0.000 C 
BRANCH  26  27
ATOM     27  C   UNL     1      13.138  67.613  18.741  1.00  0.00    -0.000 C 
BRANCH  27  28
ATOM     28  C   UNL     1      12.291  66.390  18.351  1.00  0.00    -0.000 C 
BRANCH  28  29
ATOM     29  C   UNL     1      12.830  65.668  17.101  1.00  0.00    -0.000 C 
BRANCH  29  30
ATOM     30  C   UNL     1      11.894  64.595  16.506  1.00  0.00    -0.000 C 
BRANCH  30  31
ATOM     31  C   UNL     1      10.449  65.059  16.253  1.00  0.00    -0.003 C 
ATOM     32  C   UNL     1       9.427  64.304  17.101  1.00  0.00     0.004 C 
ENDBRANCH  30  31
ENDBRANCH  29  30
ENDBRANCH  28  29
ENDBRANCH  27  28
ENDBRANCH  26  27
ENDBRANCH  25  26
ENDBRANCH  24  25
ENDBRANCH  23  24
ENDBRANCH  22  23
ENDBRANCH  21  22
ENDBRANCH  20  21
ENDBRANCH  19  20
ENDBRANCH  18  19
ENDBRANCH   1  18
TORSDOF 28
ENDMDL
MODEL 9
REMARK VINA RESULT:    -4.700      2.879      6.612
REMARK INTER + INTRA:         -16.671
REMARK INTER:                 -12.453
REMARK INTRA:                  -4.218
REMARK UNBOUND:                -4.278
REMARK SMILES CCCCCCCCCCCCCCCCCCCCCCCCCCCCCC(=O)[O-]
REMARK SMILES IDX 16 1 17 2 18 3 19 4 20 5 21 6 22 7 23 8 24 9 25 10 26 11
REMARK SMILES IDX 27 12 28 13 29 14 30 15 31 16 32 17 15 18 14 19 13 20 12 21
REMARK SMILES IDX 11 22 10 23 9 24 8 25 7 26 6 27 5 28 4 29 3 30 2 31 1 32
REMARK H PARENT
REMARK Flexibility Score: inf
ROOT
ATOM      1  C   UNL     1      16.929  75.683  16.536  1.00  0.00     0.000 C 
ENDROOT
BRANCH   1   2
ATOM      2  C   UNL     1      16.562  74.190  16.575  1.00  0.00     0.000 C 
BRANCH   2   3
ATOM      3  C   UNL     1      15.042  73.952  16.624  1.00  0.00     0.000 C 
BRANCH   3   4
ATOM      4  C   UNL     1      14.419  74.300  17.989  1.00  0.00     0.000 C 
BRANCH   4   5
ATOM      5  C   UNL     1      13.640  73.162  18.675  1.00  0.00     0.000 C 
BRANCH   5   6
ATOM      6  C   UNL     1      12.132  73.197  18.380  1.00  0.00     0.000 C 
BRANCH   6   7
ATOM      7  C   UNL     1      11.748  72.376  17.137  1.00  0.00     0.000 C 
BRANCH   7   8
ATOM      8  C   UNL     1      11.816  70.849  17.350  1.00  0.00     0.000 C 
BRANCH   8   9
ATOM      9  C   UNL     1      13.079  70.229  16.727  1.00  0.00     0.000 C 
BRANCH   9  10
ATOM     10  C   UNL     1      13.976  69.547  17.784  1.00  0.00     0.000 C 
BRANCH  10  11
ATOM     11  C   UNL     1      14.027  68.016  17.649  1.00  0.00     0.000 C 
BRANCH  11  12
ATOM     12  C   UNL     1      13.761  67.291  18.975  1.00  0.00     0.000 C 
BRANCH  12  13
ATOM     13  C   UNL     1      12.280  66.917  19.104  1.00  0.00     0.006 C 
BRANCH  13  14
ATOM     14  C   UNL     1      11.657  66.640  17.733  1.00  0.00     0.053 C 
BRANCH  14  15
ATOM     15  C   UNL     1      11.588  65.167  17.479  1.00  0.00     0.041 C 
ATOM     16  O   UNL     1      12.598  64.550  17.046  1.00  0.00    -0.550 OA
ATOM     17  O   UNL     1      10.434  64.461  17.796  1.00  0.00    -0.550 OA
ENDBRANCH  14  15
ENDBRANCH  13  14
ENDBRANCH  12  13
ENDBRANCH  11  12
ENDBRANCH  10  11
ENDBRANCH   9  10
ENDBRANCH   8   9
ENDBRANCH   7   8
ENDBRANCH   6   7
ENDBRANCH   5   6
ENDBRANCH   4   5
ENDBRANCH   3   4
ENDBRANCH   2   3
ENDBRANCH   1   2
BRANCH   1  18
ATOM     18  C   UNL     1      18.378  75.990  16.116  1.00  0.00     0.000 C 
BRANCH  18  19
ATOM     19  C   UNL     1      18.860  77.399  16.526  1.00  0.00     0.000 C 
BRANCH  19  20
ATOM     20  C   UNL     1      18.978  77.558  18.052  1.00  0.00     0.000 C 
BRANCH  20  21
ATOM     21  C   UNL     1      20.448  77.579  18.525  1.00  0.00     0.000 C 
BRANCH  21  22
ATOM     22  C   UNL     1      21.003  76.187  18.866  1.00  0.00     0.000 C 
BRANCH  22  23
ATOM     23  C   UNL     1      20.100  75.408  19.835  1.00  0.00     0.000 C 
BRANCH  23  24
ATOM     24  C   UNL     1      19.505  74.135  19.207  1.00  0.00    -0.000 C 
BRANCH  24  25
ATOM     25  C   UNL     1      18.739  73.226  20.189  1.00  0.00    -0.000 C 
BRANCH  25  26
ATOM     26  C   UNL     1      17.264  72.956  19.825  1.00  0.00    -0.000 C 
BRANCH  26  27
ATOM     27  C   UNL     1      16.547  71.926  20.715  1.00  0.00    -0.000 C 
BRANCH  27  28
ATOM     28  C   UNL     1      16.409  70.550  20.043  1.00  0.00    -0.000 C 
BRANCH  28  29
ATOM     29  C   UNL     1      17.759  69.825  19.886  1.00  0.00    -0.000 C 
BRANCH  29  30
ATOM     30  C   UNL     1      18.366  69.865  18.468  1.00  0.00    -0.000 C 
BRANCH  30  31
ATOM     31  C   UNL     1      17.393  69.500  17.333  1.00  0.00    -0.003 C 
ATOM     32  C   UNL     1      17.279  70.597  16.276  1.00  0.00     0.004 C 
ENDBRANCH  30  31
ENDBRANCH  29  30
ENDBRANCH  28  29
ENDBRANCH  27  28
ENDBRANCH  26  27
ENDBRANCH  25  26
ENDBRANCH  24  25
ENDBRANCH  23  24
ENDBRANCH  22  23
ENDBRANCH  21  22
ENDBRANCH  20  21
ENDBRANCH  19  20
ENDBRANCH  18  19
ENDBRANCH   1  18
TORSDOF 28
ENDMDL
