MODEL 1
REMARK VINA RESULT:    -6.813      0.000      0.000
REMARK INTER + INTRA:          -8.280
REMARK INTER:                  -8.008
REMARK INTRA:                  -0.273
REMARK UNBOUND:                -0.273
REMARK SMILES O=c1cc(-c2ccc(O)c(O)c2)oc2cc(O)cc(O)c12
REMARK SMILES IDX 4 1 3 2 2 3 1 4 21 5 19 6 18 7 16 8 15 9 14 10 13 11 5 12
REMARK SMILES IDX 6 13 7 14 8 15 12 16 10 17 9 18 11 20 20 22 17 24
REMARK H PARENT 9 19 11 21 20 23 17 25
REMARK Flexibility Score: inf
ROOT
ATOM      1  C   UNL     1      45.237  45.505   9.813  1.00  0.00     0.138 A 
ATOM      2  C   UNL     1      45.651  44.679  10.867  1.00  0.00     0.100 A 
ATOM      3  C   UNL     1      45.627  43.293  10.709  1.00  0.00     0.197 A 
ATOM      4  O   UNL     1      45.952  42.579  11.693  1.00  0.00    -0.289 OA
ATOM      5  C   UNL     1      45.221  42.732   9.474  1.00  0.00     0.107 A 
ATOM      6  C   UNL     1      45.189  41.335   9.187  1.00  0.00     0.134 A 
ATOM      7  C   UNL     1      44.674  40.894   7.961  1.00  0.00     0.093 A 
ATOM      8  C   UNL     1      44.242  41.803   6.992  1.00  0.00     0.123 A 
ATOM      9  C   UNL     1      44.317  43.170   7.244  1.00  0.00     0.094 A 
ATOM     10  C   UNL     1      44.793  43.641   8.469  1.00  0.00     0.146 A 
ATOM     11  O   UNL     1      44.829  44.952   8.675  1.00  0.00    -0.456 OA
ENDROOT
BRANCH   1  12
ATOM     12  C   UNL     1      45.243  46.986   9.925  1.00  0.00     0.021 A 
ATOM     13  C   UNL     1      44.127  47.761   9.557  1.00  0.00     0.016 A 
ATOM     14  C   UNL     1      44.165  49.154   9.664  1.00  0.00     0.051 A 
ATOM     15  C   UNL     1      45.319  49.797  10.131  1.00  0.00     0.157 A 
ATOM     16  C   UNL     1      46.401  47.640  10.380  1.00  0.00     0.062 A 
ATOM     17  C   UNL     1      46.442  49.034  10.489  1.00  0.00     0.158 A 
BRANCH  15  18
ATOM     18  O   UNL     1      45.352  51.185  10.237  1.00  0.00    -0.504 OA
ATOM     19  H   UNL     1      45.122  51.658  11.104  1.00  0.00     0.293 HD
ENDBRANCH  15  18
BRANCH  17  20
ATOM     20  O   UNL     1      47.608  49.644  10.954  1.00  0.00    -0.504 OA
ATOM     21  H   UNL     1      48.368  49.893  10.334  1.00  0.00     0.293 HD
ENDBRANCH  17  20
ENDBRANCH   1  12
BRANCH   6  22
ATOM     22  O   UNL     1      45.668  40.345  10.051  1.00  0.00    -0.507 OA
ATOM     23  H   UNL     1      45.739  39.365   9.828  1.00  0.00     0.293 HD
ENDBRANCH   6  22
BRANCH   8  24
ATOM     24  O   UNL     1      43.746  41.355   5.770  1.00  0.00    -0.508 OA
ATOM     25  H   UNL     1      44.165  40.572   5.281  1.00  0.00     0.293 HD
ENDBRANCH   8  24
TORSDOF 5
ENDMDL
MODEL 2
REMARK VINA RESULT:    -6.516      5.481      7.724
REMARK INTER + INTRA:          -7.931
REMARK INTER:                  -7.659
REMARK INTRA:                  -0.272
REMARK UNBOUND:                -0.273
REMARK SMILES O=c1cc(-c2ccc(O)c(O)c2)oc2cc(O)cc(O)c12
REMARK SMILES IDX 4 1 3 2 2 3 1 4 21 5 19 6 18 7 16 8 15 9 14 10 13 11 5 12
REMARK SMILES IDX 6 13 7 14 8 15 12 16 10 17 9 18 11 20 20 22 17 24
REMARK H PARENT 9 19 11 21 20 23 17 25
REMARK Flexibility Score: inf
ROOT
ATOM      1  C   UNL     1      45.026  39.078   9.639  1.00  0.00     0.138 A 
ATOM      2  C   UNL     1      44.259  37.982   9.220  1.00  0.00     0.100 A 
ATOM      3  C   UNL     1      43.434  38.104   8.102  1.00  0.00     0.197 A 
ATOM      4  O   UNL     1      42.716  37.120   7.785  1.00  0.00    -0.289 OA
ATOM      5  C   UNL     1      43.407  39.320   7.376  1.00  0.00     0.107 A 
ATOM      6  C   UNL     1      42.631  39.548   6.200  1.00  0.00     0.134 A 
ATOM      7  C   UNL     1      42.609  40.825   5.625  1.00  0.00     0.093 A 
ATOM      8  C   UNL     1      43.380  41.865   6.150  1.00  0.00     0.123 A 
ATOM      9  C   UNL     1      44.179  41.638   7.267  1.00  0.00     0.094 A 
ATOM     10  C   UNL     1      44.196  40.386   7.884  1.00  0.00     0.146 A 
ATOM     11  O   UNL     1      44.958  40.218   8.959  1.00  0.00    -0.456 OA
ENDROOT
BRANCH   1  12
ATOM     12  C   UNL     1      45.923  39.004  10.820  1.00  0.00     0.021 A 
ATOM     13  C   UNL     1      45.889  39.978  11.837  1.00  0.00     0.016 A 
ATOM     14  C   UNL     1      46.751  39.888  12.933  1.00  0.00     0.051 A 
ATOM     15  C   UNL     1      47.666  38.831  13.030  1.00  0.00     0.157 A 
ATOM     16  C   UNL     1      46.853  37.955  10.918  1.00  0.00     0.062 A 
ATOM     17  C   UNL     1      47.717  37.862  12.015  1.00  0.00     0.158 A 
BRANCH  15  18
ATOM     18  O   UNL     1      48.523  38.745  14.125  1.00  0.00    -0.504 OA
ATOM     19  H   UNL     1      48.179  38.817  15.075  1.00  0.00     0.293 HD
ENDBRANCH  15  18
BRANCH  17  20
ATOM     20  O   UNL     1      48.619  36.800  12.079  1.00  0.00    -0.504 OA
ATOM     21  H   UNL     1      48.783  36.186  11.291  1.00  0.00     0.293 HD
ENDBRANCH  17  20
ENDBRANCH   1  12
BRANCH   6  22
ATOM     22  O   UNL     1      41.887  38.560   5.547  1.00  0.00    -0.507 OA
ATOM     23  H   UNL     1      41.636  38.573   4.571  1.00  0.00     0.293 HD
ENDBRANCH   6  22
BRANCH   8  24
ATOM     24  O   UNL     1      43.364  43.127   5.561  1.00  0.00    -0.508 OA
ATOM     25  H   UNL     1      44.170  43.493   5.066  1.00  0.00     0.293 HD
ENDBRANCH   8  24
TORSDOF 5
ENDMDL
MODEL 3
REMARK VINA RESULT:    -6.460      5.110     10.851
REMARK INTER + INTRA:          -7.865
REMARK INTER:                  -7.592
REMARK INTRA:                  -0.273
REMARK UNBOUND:                -0.273
REMARK SMILES O=c1cc(-c2ccc(O)c(O)c2)oc2cc(O)cc(O)c12
REMARK SMILES IDX 4 1 3 2 2 3 1 4 21 5 19 6 18 7 16 8 15 9 14 10 13 11 5 12
REMARK SMILES IDX 6 13 7 14 8 15 12 16 10 17 9 18 11 20 20 22 17 24
REMARK H PARENT 9 19 11 21 20 23 17 25
REMARK Flexibility Score: inf
ROOT
ATOM      1  C   UNL     1      41.496  38.886   5.046  1.00  0.00     0.138 A 
ATOM      2  C   UNL     1      40.566  39.716   4.406  1.00  0.00     0.100 A 
ATOM      3  C   UNL     1      40.708  41.101   4.483  1.00  0.00     0.197 A 
ATOM      4  O   UNL     1      39.826  41.818   3.944  1.00  0.00    -0.289 OA
ATOM      5  C   UNL     1      41.811  41.658   5.175  1.00  0.00     0.107 A 
ATOM      6  C   UNL     1      42.077  43.056   5.291  1.00  0.00     0.134 A 
ATOM      7  C   UNL     1      43.145  43.491   6.085  1.00  0.00     0.093 A 
ATOM      8  C   UNL     1      43.990  42.577   6.722  1.00  0.00     0.123 A 
ATOM      9  C   UNL     1      43.768  41.211   6.574  1.00  0.00     0.094 A 
ATOM     10  C   UNL     1      42.691  40.745   5.816  1.00  0.00     0.146 A 
ATOM     11  O   UNL     1      42.504  39.434   5.717  1.00  0.00    -0.456 OA
ENDROOT
BRANCH   1  12
ATOM     12  C   UNL     1      41.395  37.405   4.996  1.00  0.00     0.021 A 
ATOM     13  C   UNL     1      41.502  36.616   6.157  1.00  0.00     0.016 A 
ATOM     14  C   UNL     1      41.413  35.223   6.077  1.00  0.00     0.051 A 
ATOM     15  C   UNL     1      41.223  34.595   4.840  1.00  0.00     0.157 A 
ATOM     16  C   UNL     1      41.219  36.766   3.756  1.00  0.00     0.062 A 
ATOM     17  C   UNL     1      41.128  35.372   3.674  1.00  0.00     0.158 A 
BRANCH  15  18
ATOM     18  O   UNL     1      41.133  33.207   4.765  1.00  0.00    -0.504 OA
ATOM     19  H   UNL     1      41.146  32.720   3.877  1.00  0.00     0.293 HD
ENDBRANCH  15  18
BRANCH  17  20
ATOM     20  O   UNL     1      40.944  34.778   2.425  1.00  0.00    -0.504 OA
ATOM     21  H   UNL     1      40.860  35.324   1.577  1.00  0.00     0.293 HD
ENDBRANCH  17  20
ENDBRANCH   1  12
BRANCH   6  22
ATOM     22  O   UNL     1      41.346  44.050   4.634  1.00  0.00    -0.507 OA
ATOM     23  H   UNL     1      40.340  44.114   4.616  1.00  0.00     0.293 HD
ENDBRANCH   6  22
BRANCH   8  24
ATOM     24  O   UNL     1      45.059  43.020   7.497  1.00  0.00    -0.508 OA
ATOM     25  H   UNL     1      45.187  42.709   8.453  1.00  0.00     0.293 HD
ENDBRANCH   8  24
TORSDOF 5
ENDMDL
MODEL 4
REMARK VINA RESULT:    -6.429      3.698      8.729
REMARK INTER + INTRA:          -7.829
REMARK INTER:                  -7.551
REMARK INTRA:                  -0.278
REMARK UNBOUND:                -0.273
REMARK SMILES O=c1cc(-c2ccc(O)c(O)c2)oc2cc(O)cc(O)c12
REMARK SMILES IDX 4 1 3 2 2 3 1 4 21 5 19 6 18 7 16 8 15 9 14 10 13 11 5 12
REMARK SMILES IDX 6 13 7 14 8 15 12 16 10 17 9 18 11 20 20 22 17 24
REMARK H PARENT 9 19 11 21 20 23 17 25
REMARK Flexibility Score: inf
ROOT
ATOM      1  C   UNL     1      45.297  39.023  10.013  1.00  0.00     0.138 A 
ATOM      2  C   UNL     1      45.723  39.871  11.043  1.00  0.00     0.100 A 
ATOM      3  C   UNL     1      45.690  41.254  10.858  1.00  0.00     0.197 A 
ATOM      4  O   UNL     1      46.131  41.986  11.781  1.00  0.00    -0.289 OA
ATOM      5  C   UNL     1      45.193  41.789   9.644  1.00  0.00     0.107 A 
ATOM      6  C   UNL     1      45.081  43.183   9.356  1.00  0.00     0.134 A 
ATOM      7  C   UNL     1      44.666  43.592   8.083  1.00  0.00     0.093 A 
ATOM      8  C   UNL     1      44.306  42.660   7.107  1.00  0.00     0.123 A 
ATOM      9  C   UNL     1      44.365  41.299   7.396  1.00  0.00     0.094 A 
ATOM     10  C   UNL     1      44.807  40.857   8.645  1.00  0.00     0.146 A 
ATOM     11  O   UNL     1      44.866  39.550   8.872  1.00  0.00    -0.456 OA
ENDROOT
BRANCH   1  12
ATOM     12  C   UNL     1      45.308  37.545  10.156  1.00  0.00     0.021 A 
ATOM     13  C   UNL     1      44.240  36.749   9.698  1.00  0.00     0.016 A 
ATOM     14  C   UNL     1      44.274  35.360   9.855  1.00  0.00     0.051 A 
ATOM     15  C   UNL     1      45.366  34.744  10.478  1.00  0.00     0.157 A 
ATOM     16  C   UNL     1      46.394  36.919  10.792  1.00  0.00     0.062 A 
ATOM     17  C   UNL     1      46.430  35.529  10.950  1.00  0.00     0.158 A 
BRANCH  15  18
ATOM     18  O   UNL     1      45.396  33.359  10.631  1.00  0.00    -0.504 OA
ATOM     19  H   UNL     1      44.720  32.760  10.173  1.00  0.00     0.293 HD
ENDBRANCH  15  18
BRANCH  17  20
ATOM     20  O   UNL     1      47.531  34.947  11.578  1.00  0.00    -0.504 OA
ATOM     21  H   UNL     1      47.498  34.637  12.542  1.00  0.00     0.293 HD
ENDBRANCH  17  20
ENDBRANCH   1  12
BRANCH   6  22
ATOM     22  O   UNL     1      45.338  44.199  10.283  1.00  0.00    -0.507 OA
ATOM     23  H   UNL     1      44.646  44.824  10.665  1.00  0.00     0.293 HD
ENDBRANCH   6  22
BRANCH   8  24
ATOM     24  O   UNL     1      43.881  43.078   5.848  1.00  0.00    -0.508 OA
ATOM     25  H   UNL     1      42.912  42.995   5.561  1.00  0.00     0.293 HD
ENDBRANCH   8  24
TORSDOF 5
ENDMDL
MODEL 5
REMARK VINA RESULT:    -6.413     11.070     13.201
REMARK INTER + INTRA:          -7.810
REMARK INTER:                  -7.504
REMARK INTRA:                  -0.306
REMARK UNBOUND:                -0.273
REMARK SMILES O=c1cc(-c2ccc(O)c(O)c2)oc2cc(O)cc(O)c12
REMARK SMILES IDX 4 1 3 2 2 3 1 4 21 5 19 6 18 7 16 8 15 9 14 10 13 11 5 12
REMARK SMILES IDX 6 13 7 14 8 15 12 16 10 17 9 18 11 20 20 22 17 24
REMARK H PARENT 9 19 11 21 20 23 17 25
REMARK Flexibility Score: inf
ROOT
ATOM      1  C   UNL     1      52.081  51.142   1.408  1.00  0.00     0.138 A 
ATOM      2  C   UNL     1      52.910  50.983   0.288  1.00  0.00     0.100 A 
ATOM      3  C   UNL     1      54.284  50.816   0.464  1.00  0.00     0.197 A 
ATOM      4  O   UNL     1      55.006  50.731  -0.562  1.00  0.00    -0.289 OA
ATOM      5  C   UNL     1      54.826  50.770   1.772  1.00  0.00     0.107 A 
ATOM      6  C   UNL     1      56.206  50.570   2.074  1.00  0.00     0.134 A 
ATOM      7  C   UNL     1      56.639  50.643   3.404  1.00  0.00     0.093 A 
ATOM      8  C   UNL     1      55.733  50.853   4.447  1.00  0.00     0.123 A 
ATOM      9  C   UNL     1      54.377  50.999   4.166  1.00  0.00     0.094 A 
ATOM     10  C   UNL     1      53.918  50.966   2.847  1.00  0.00     0.146 A 
ATOM     11  O   UNL     1      52.619  51.129   2.623  1.00  0.00    -0.456 OA
ENDROOT
BRANCH   1  12
ATOM     12  C   UNL     1      50.613  51.322   1.280  1.00  0.00     0.021 A 
ATOM     13  C   UNL     1      50.040  51.962   0.164  1.00  0.00     0.016 A 
ATOM     14  C   UNL     1      48.654  52.125   0.075  1.00  0.00     0.051 A 
ATOM     15  C   UNL     1      47.819  51.660   1.099  1.00  0.00     0.157 A 
ATOM     16  C   UNL     1      49.769  50.870   2.309  1.00  0.00     0.062 A 
ATOM     17  C   UNL     1      48.381  51.031   2.222  1.00  0.00     0.158 A 
BRANCH  15  18
ATOM     18  O   UNL     1      46.439  51.823   1.005  1.00  0.00    -0.504 OA
ATOM     19  H   UNL     1      45.931  51.578   0.164  1.00  0.00     0.293 HD
ENDBRANCH  15  18
BRANCH  17  20
ATOM     20  O   UNL     1      47.578  50.560   3.261  1.00  0.00    -0.504 OA
ATOM     21  H   UNL     1      46.633  50.233   3.103  1.00  0.00     0.293 HD
ENDBRANCH  17  20
ENDBRANCH   1  12
BRANCH   6  22
ATOM     22  O   UNL     1      57.183  50.275   1.118  1.00  0.00    -0.507 OA
ATOM     23  H   UNL     1      57.173  49.474   0.507  1.00  0.00     0.293 HD
ENDBRANCH   6  22
BRANCH   8  24
ATOM     24  O   UNL     1      56.172  50.908   5.767  1.00  0.00    -0.508 OA
ATOM     25  H   UNL     1      55.993  51.716   6.353  1.00  0.00     0.293 HD
ENDBRANCH   8  24
TORSDOF 5
ENDMDL
MODEL 6
REMARK VINA RESULT:    -6.389      1.568      6.678
REMARK INTER + INTRA:          -7.782
REMARK INTER:                  -7.466
REMARK INTRA:                  -0.317
REMARK UNBOUND:                -0.273
REMARK SMILES O=c1cc(-c2ccc(O)c(O)c2)oc2cc(O)cc(O)c12
REMARK SMILES IDX 4 1 3 2 2 3 1 4 21 5 19 6 18 7 16 8 15 9 14 10 13 11 5 12
REMARK SMILES IDX 6 13 7 14 8 15 12 16 10 17 9 18 11 20 20 22 17 24
REMARK H PARENT 9 19 11 21 20 23 17 25
REMARK Flexibility Score: inf
ROOT
ATOM      1  C   UNL     1      45.218  44.168   9.744  1.00  0.00     0.138 A 
ATOM      2  C   UNL     1      45.628  43.697  10.999  1.00  0.00     0.100 A 
ATOM      3  C   UNL     1      46.070  44.601  11.965  1.00  0.00     0.197 A 
ATOM      4  O   UNL     1      46.484  44.141  13.061  1.00  0.00    -0.289 OA
ATOM      5  C   UNL     1      46.068  45.989  11.684  1.00  0.00     0.107 A 
ATOM      6  C   UNL     1      46.465  47.006  12.604  1.00  0.00     0.134 A 
ATOM      7  C   UNL     1      46.514  48.339  12.179  1.00  0.00     0.093 A 
ATOM      8  C   UNL     1      46.127  48.699  10.886  1.00  0.00     0.123 A 
ATOM      9  C   UNL     1      45.690  47.720   9.998  1.00  0.00     0.094 A 
ATOM     10  C   UNL     1      45.662  46.377  10.380  1.00  0.00     0.146 A 
ATOM     11  O   UNL     1      45.257  45.473   9.495  1.00  0.00    -0.456 OA
ENDROOT
BRANCH   1  12
ATOM     12  C   UNL     1      44.736  43.252   8.680  1.00  0.00     0.021 A 
ATOM     13  C   UNL     1      44.898  41.857   8.774  1.00  0.00     0.016 A 
ATOM     14  C   UNL     1      44.442  41.019   7.752  1.00  0.00     0.051 A 
ATOM     15  C   UNL     1      43.824  41.560   6.617  1.00  0.00     0.157 A 
ATOM     16  C   UNL     1      44.127  43.787   7.531  1.00  0.00     0.062 A 
ATOM     17  C   UNL     1      43.668  42.951   6.507  1.00  0.00     0.158 A 
BRANCH  15  18
ATOM     18  O   UNL     1      43.370  40.721   5.601  1.00  0.00    -0.504 OA
ATOM     19  H   UNL     1      43.999  40.105   5.100  1.00  0.00     0.293 HD
ENDBRANCH  15  18
BRANCH  17  20
ATOM     20  O   UNL     1      43.062  43.521   5.387  1.00  0.00    -0.504 OA
ATOM     21  H   UNL     1      42.729  44.477   5.385  1.00  0.00     0.293 HD
ENDBRANCH  17  20
ENDBRANCH   1  12
BRANCH   6  22
ATOM     22  O   UNL     1      46.797  46.767  13.942  1.00  0.00    -0.507 OA
ATOM     23  H   UNL     1      46.411  46.031  14.512  1.00  0.00     0.293 HD
ENDBRANCH   6  22
BRANCH   8  24
ATOM     24  O   UNL     1      46.164  50.030  10.478  1.00  0.00    -0.508 OA
ATOM     25  H   UNL     1      45.943  50.300   9.526  1.00  0.00     0.293 HD
ENDBRANCH   8  24
TORSDOF 5
ENDMDL
MODEL 7
REMARK VINA RESULT:    -6.387      1.779      7.267
REMARK INTER + INTRA:          -7.779
REMARK INTER:                  -7.462
REMARK INTRA:                  -0.317
REMARK UNBOUND:                -0.273
REMARK SMILES O=c1cc(-c2ccc(O)c(O)c2)oc2cc(O)cc(O)c12
REMARK SMILES IDX 4 1 3 2 2 3 1 4 21 5 19 6 18 7 16 8 15 9 14 10 13 11 5 12
REMARK SMILES IDX 6 13 7 14 8 15 12 16 10 17 9 18 11 20 20 22 17 24
REMARK H PARENT 9 19 11 21 20 23 17 25
REMARK Flexibility Score: inf
ROOT
ATOM      1  C   UNL     1      43.772  45.508   8.130  1.00  0.00     0.138 A 
ATOM      2  C   UNL     1      42.889  46.571   7.894  1.00  0.00     0.100 A 
ATOM      3  C   UNL     1      43.055  47.772   8.584  1.00  0.00     0.197 A 
ATOM      4  O   UNL     1      42.213  48.687   8.391  1.00  0.00    -0.289 OA
ATOM      5  C   UNL     1      44.133  47.920   9.490  1.00  0.00     0.107 A 
ATOM      6  C   UNL     1      44.421  49.110  10.224  1.00  0.00     0.134 A 
ATOM      7  C   UNL     1      45.458  49.106  11.165  1.00  0.00     0.093 A 
ATOM      8  C   UNL     1      46.253  47.973  11.357  1.00  0.00     0.123 A 
ATOM      9  C   UNL     1      46.012  46.824  10.609  1.00  0.00     0.094 A 
ATOM     10  C   UNL     1      44.964  46.785   9.687  1.00  0.00     0.146 A 
ATOM     11  O   UNL     1      44.756  45.662   9.009  1.00  0.00    -0.456 OA
ENDROOT
BRANCH   1  12
ATOM     12  C   UNL     1      43.644  44.209   7.422  1.00  0.00     0.021 A 
ATOM     13  C   UNL     1      42.706  44.016   6.390  1.00  0.00     0.016 A 
ATOM     14  C   UNL     1      42.602  42.779   5.748  1.00  0.00     0.051 A 
ATOM     15  C   UNL     1      43.426  41.712   6.128  1.00  0.00     0.157 A 
ATOM     16  C   UNL     1      44.458  43.129   7.807  1.00  0.00     0.062 A 
ATOM     17  C   UNL     1      44.357  41.889   7.165  1.00  0.00     0.158 A 
BRANCH  15  18
ATOM     18  O   UNL     1      43.320  40.482   5.484  1.00  0.00    -0.504 OA
ATOM     19  H   UNL     1      43.874  39.683   5.770  1.00  0.00     0.293 HD
ENDBRANCH  15  18
BRANCH  17  20
ATOM     20  O   UNL     1      45.189  40.846   7.571  1.00  0.00    -0.504 OA
ATOM     21  H   UNL     1      45.346  40.633   8.548  1.00  0.00     0.293 HD
ENDBRANCH  17  20
ENDBRANCH   1  12
BRANCH   6  22
ATOM     22  O   UNL     1      43.741  50.321  10.053  1.00  0.00    -0.507 OA
ATOM     23  H   UNL     1      42.833  50.421   9.627  1.00  0.00     0.293 HD
ENDBRANCH   6  22
BRANCH   8  24
ATOM     24  O   UNL     1      47.292  47.985  12.284  1.00  0.00    -0.508 OA
ATOM     25  H   UNL     1      48.004  48.706  12.276  1.00  0.00     0.293 HD
ENDBRANCH   8  24
TORSDOF 5
ENDMDL
MODEL 8
REMARK VINA RESULT:    -6.382      4.529      7.244
REMARK INTER + INTRA:          -7.773
REMARK INTER:                  -7.455
REMARK INTRA:                  -0.318
REMARK UNBOUND:                -0.273
REMARK SMILES O=c1cc(-c2ccc(O)c(O)c2)oc2cc(O)cc(O)c12
REMARK SMILES IDX 4 1 3 2 2 3 1 4 21 5 19 6 18 7 16 8 15 9 14 10 13 11 5 12
REMARK SMILES IDX 6 13 7 14 8 15 12 16 10 17 9 18 11 20 20 22 17 24
REMARK H PARENT 9 19 11 21 20 23 17 25
REMARK Flexibility Score: inf
ROOT
ATOM      1  C   UNL     1      44.680  39.144   9.014  1.00  0.00     0.138 A 
ATOM      2  C   UNL     1      44.133  37.862   8.873  1.00  0.00     0.100 A 
ATOM      3  C   UNL     1      44.519  36.846   9.748  1.00  0.00     0.197 A 
ATOM      4  O   UNL     1      44.051  35.693   9.561  1.00  0.00    -0.289 OA
ATOM      5  C   UNL     1      45.432  37.127  10.794  1.00  0.00     0.107 A 
ATOM      6  C   UNL     1      45.871  36.180  11.767  1.00  0.00     0.134 A 
ATOM      7  C   UNL     1      46.853  36.549  12.695  1.00  0.00     0.093 A 
ATOM      8  C   UNL     1      47.369  37.847  12.721  1.00  0.00     0.123 A 
ATOM      9  C   UNL     1      46.909  38.792  11.808  1.00  0.00     0.094 A 
ATOM     10  C   UNL     1      45.956  38.446  10.848  1.00  0.00     0.146 A 
ATOM     11  O   UNL     1      45.560  39.374   9.984  1.00  0.00    -0.456 OA
ENDROOT
BRANCH   1  12
ATOM     12  C   UNL     1      44.304  40.263   8.113  1.00  0.00     0.021 A 
ATOM     13  C   UNL     1      43.473  40.065   6.994  1.00  0.00     0.016 A 
ATOM     14  C   UNL     1      43.142  41.135   6.158  1.00  0.00     0.051 A 
ATOM     15  C   UNL     1      43.642  42.418   6.419  1.00  0.00     0.157 A 
ATOM     16  C   UNL     1      44.812  41.551   8.360  1.00  0.00     0.062 A 
ATOM     17  C   UNL     1      44.482  42.624   7.525  1.00  0.00     0.158 A 
BRANCH  15  18
ATOM     18  O   UNL     1      43.309  43.482   5.583  1.00  0.00    -0.504 OA
ATOM     19  H   UNL     1      43.656  43.540   4.633  1.00  0.00     0.293 HD
ENDBRANCH  15  18
BRANCH  17  20
ATOM     20  O   UNL     1      45.000  43.888   7.810  1.00  0.00    -0.504 OA
ATOM     21  H   UNL     1      44.412  44.711   7.857  1.00  0.00     0.293 HD
ENDBRANCH  17  20
ENDBRANCH   1  12
BRANCH   6  22
ATOM     22  O   UNL     1      45.364  34.881  11.881  1.00  0.00    -0.507 OA
ATOM     23  H   UNL     1      44.494  34.635  12.326  1.00  0.00     0.293 HD
ENDBRANCH   6  22
BRANCH   8  24
ATOM     24  O   UNL     1      48.334  38.208  13.658  1.00  0.00    -0.508 OA
ATOM     25  H   UNL     1      48.657  39.165  13.746  1.00  0.00     0.293 HD
ENDBRANCH   8  24
TORSDOF 5
ENDMDL
MODEL 9
REMARK VINA RESULT:    -6.278      4.869      7.168
REMARK INTER + INTRA:          -7.651
REMARK INTER:                  -7.333
REMARK INTRA:                  -0.318
REMARK UNBOUND:                -0.273
REMARK SMILES O=c1cc(-c2ccc(O)c(O)c2)oc2cc(O)cc(O)c12
REMARK SMILES IDX 4 1 3 2 2 3 1 4 21 5 19 6 18 7 16 8 15 9 14 10 13 11 5 12
REMARK SMILES IDX 6 13 7 14 8 15 12 16 10 17 9 18 11 20 20 22 17 24
REMARK H PARENT 9 19 11 21 20 23 17 25
REMARK Flexibility Score: inf
ROOT
ATOM      1  C   UNL     1      44.811  39.608   9.126  1.00  0.00     0.138 A 
ATOM      2  C   UNL     1      45.663  39.914  10.196  1.00  0.00     0.100 A 
ATOM      3  C   UNL     1      46.046  38.908  11.083  1.00  0.00     0.197 A 
ATOM      4  O   UNL     1      46.766  39.226  12.065  1.00  0.00    -0.289 OA
ATOM      5  C   UNL     1      45.602  37.579  10.875  1.00  0.00     0.107 A 
ATOM      6  C   UNL     1      45.956  36.465  11.695  1.00  0.00     0.134 A 
ATOM      7  C   UNL     1      45.376  35.215  11.448  1.00  0.00     0.093 A 
ATOM      8  C   UNL     1      44.498  35.027  10.377  1.00  0.00     0.123 A 
ATOM      9  C   UNL     1      44.186  36.096   9.542  1.00  0.00     0.094 A 
ATOM     10  C   UNL     1      44.722  37.363   9.782  1.00  0.00     0.146 A 
ATOM     11  O   UNL     1      44.382  38.360   8.972  1.00  0.00    -0.456 OA
ENDROOT
BRANCH   1  12
ATOM     12  C   UNL     1      44.373  40.638   8.150  1.00  0.00     0.021 A 
ATOM     13  C   UNL     1      44.742  41.990   8.286  1.00  0.00     0.016 A 
ATOM     14  C   UNL     1      44.307  42.940   7.357  1.00  0.00     0.051 A 
ATOM     15  C   UNL     1      43.492  42.559   6.283  1.00  0.00     0.157 A 
ATOM     16  C   UNL     1      43.545  40.267   7.077  1.00  0.00     0.062 A 
ATOM     17  C   UNL     1      43.109  41.215   6.145  1.00  0.00     0.158 A 
BRANCH  15  18
ATOM     18  O   UNL     1      43.062  43.509   5.359  1.00  0.00    -0.504 OA
ATOM     19  H   UNL     1      43.111  43.339   4.361  1.00  0.00     0.293 HD
ENDBRANCH  15  18
BRANCH  17  20
ATOM     20  O   UNL     1      42.294  40.804   5.090  1.00  0.00    -0.504 OA
ATOM     21  H   UNL     1      42.670  40.579   4.177  1.00  0.00     0.293 HD
ENDBRANCH  17  20
ENDBRANCH   1  12
BRANCH   6  22
ATOM     22  O   UNL     1      46.883  36.525  12.741  1.00  0.00    -0.507 OA
ATOM     23  H   UNL     1      47.748  37.042  12.720  1.00  0.00     0.293 HD
ENDBRANCH   6  22
BRANCH   8  24
ATOM     24  O   UNL     1      43.938  33.776  10.131  1.00  0.00    -0.508 OA
ATOM     25  H   UNL     1      44.479  33.022   9.722  1.00  0.00     0.293 HD
ENDBRANCH   8  24
TORSDOF 5
ENDMDL
