MODEL 1
REMARK VINA RESULT:    -7.480      0.000      0.000
REMARK INTER + INTRA:         -18.597
REMARK INTER:                 -17.099
REMARK INTRA:                  -1.498
REMARK UNBOUND:                -1.498
REMARK SMILES CCCCCCCCCCCCCCCCCCCCCCCC(=O)[O-]
REMARK SMILES IDX 13 1 14 2 15 3 16 4 17 5 18 6 19 7 20 8 21 9 22 10 23 11
REMARK SMILES IDX 24 12 25 13 26 14 12 15 11 16 10 17 9 18 8 19 7 20 6 21 5 22
REMARK SMILES IDX 4 23 3 24 2 25 1 26
REMARK H PARENT
REMARK Flexibility Score: inf
ROOT
ATOM      1  C   UNL     1      -3.153   1.138 -18.111  1.00  0.00     0.000 C 
ENDROOT
BRANCH   1   2
ATOM      2  C   UNL     1      -3.021   2.377 -17.206  1.00  0.00     0.000 C 
BRANCH   2   3
ATOM      3  C   UNL     1      -2.115   3.464 -17.801  1.00  0.00     0.000 C 
BRANCH   3   4
ATOM      4  C   UNL     1      -2.465   4.845 -17.228  1.00  0.00     0.000 C 
BRANCH   4   5
ATOM      5  C   UNL     1      -3.709   5.458 -17.890  1.00  0.00     0.000 C 
BRANCH   5   6
ATOM      6  C   UNL     1      -4.608   6.204 -16.888  1.00  0.00     0.000 C 
BRANCH   6   7
ATOM      7  C   UNL     1      -4.919   5.357 -15.642  1.00  0.00     0.000 C 
BRANCH   7   8
ATOM      8  C   UNL     1      -5.890   6.068 -14.683  1.00  0.00     0.000 C 
BRANCH   8   9
ATOM      9  C   UNL     1      -5.191   7.099 -13.778  1.00  0.00     0.000 C 
BRANCH   9  10
ATOM     10  C   UNL     1      -5.113   6.711 -12.291  1.00  0.00     0.006 C 
BRANCH  10  11
ATOM     11  C   UNL     1      -6.493   6.491 -11.658  1.00  0.00     0.053 C 
BRANCH  11  12
ATOM     12  C   UNL     1      -6.905   7.693 -10.867  1.00  0.00     0.041 C 
ATOM     13  O   UNL     1      -7.854   8.421 -11.267  1.00  0.00    -0.550 OA
ATOM     14  O   UNL     1      -6.222   8.030  -9.705  1.00  0.00    -0.550 OA
ENDBRANCH  11  12
ENDBRANCH  10  11
ENDBRANCH   9  10
ENDBRANCH   8   9
ENDBRANCH   7   8
ENDBRANCH   6   7
ENDBRANCH   5   6
ENDBRANCH   4   5
ENDBRANCH   3   4
ENDBRANCH   2   3
ENDBRANCH   1   2
BRANCH   1  15
ATOM     15  C   UNL     1      -2.912  -0.208 -17.407  1.00  0.00     0.000 C 
BRANCH  15  16
ATOM     16  C   UNL     1      -2.715  -1.375 -18.391  1.00  0.00     0.000 C 
BRANCH  16  17
ATOM     17  C   UNL     1      -4.006  -2.170 -18.635  1.00  0.00     0.000 C 
BRANCH  17  18
ATOM     18  C   UNL     1      -4.925  -1.509 -19.680  1.00  0.00    -0.000 C 
BRANCH  18  19
ATOM     19  C   UNL     1      -6.291  -1.099 -19.091  1.00  0.00    -0.000 C 
BRANCH  19  20
ATOM     20  C   UNL     1      -7.490  -1.811 -19.743  1.00  0.00    -0.000 C 
BRANCH  20  21
ATOM     21  C   UNL     1      -7.089  -2.710 -20.921  1.00  0.00    -0.000 C 
BRANCH  21  22
ATOM     22  C   UNL     1      -7.090  -4.207 -20.566  1.00  0.00    -0.000 C 
BRANCH  22  23
ATOM     23  C   UNL     1      -7.123  -4.490 -19.050  1.00  0.00    -0.000 C 
BRANCH  23  24
ATOM     24  C   UNL     1      -8.352  -5.312 -18.628  1.00  0.00    -0.000 C 
BRANCH  24  25
ATOM     25  C   UNL     1      -8.880  -6.148 -19.800  1.00  0.00    -0.003 C 
ATOM     26  C   UNL     1      -8.367  -7.583 -19.726  1.00  0.00     0.004 C 
ENDBRANCH  24  25
ENDBRANCH  23  24
ENDBRANCH  22  23
ENDBRANCH  21  22
ENDBRANCH  20  21
ENDBRANCH  19  20
ENDBRANCH  18  19
ENDBRANCH  17  18
ENDBRANCH  16  17
ENDBRANCH  15  16
ENDBRANCH   1  15
TORSDOF 22
ENDMDL
MODEL 2
REMARK VINA RESULT:    -7.460      5.651     11.886
REMARK INTER + INTRA:         -18.554
REMARK INTER:                 -16.969
REMARK INTRA:                  -1.585
REMARK UNBOUND:                -1.498
REMARK SMILES CCCCCCCCCCCCCCCCCCCCCCCC(=O)[O-]
REMARK SMILES IDX 13 1 14 2 15 3 16 4 17 5 18 6 19 7 20 8 21 9 22 10 23 11
REMARK SMILES IDX 24 12 25 13 26 14 12 15 11 16 10 17 9 18 8 19 7 20 6 21 5 22
REMARK SMILES IDX 4 23 3 24 2 25 1 26
REMARK H PARENT
REMARK Flexibility Score: inf
ROOT
ATOM      1  C   UNL     1      -4.108  -0.713 -17.911  1.00  0.00     0.000 C 
ENDROOT
BRANCH   1   2
ATOM      2  C   UNL     1      -4.991  -1.036 -19.129  1.00  0.00     0.000 C 
BRANCH   2   3
ATOM      3  C   UNL     1      -6.400  -0.434 -19.029  1.00  0.00     0.000 C 
BRANCH   3   4
ATOM      4  C   UNL     1      -7.429  -1.321 -19.745  1.00  0.00     0.000 C 
BRANCH   4   5
ATOM      5  C   UNL     1      -6.821  -2.083 -20.933  1.00  0.00     0.000 C 
BRANCH   5   6
ATOM      6  C   UNL     1      -7.183  -3.579 -20.926  1.00  0.00     0.000 C 
BRANCH   6   7
ATOM      7  C   UNL     1      -6.429  -4.355 -19.833  1.00  0.00     0.000 C 
BRANCH   7   8
ATOM      8  C   UNL     1      -7.274  -4.536 -18.560  1.00  0.00     0.000 C 
BRANCH   8   9
ATOM      9  C   UNL     1      -8.570  -5.329 -18.808  1.00  0.00     0.000 C 
BRANCH   9  10
ATOM     10  C   UNL     1      -8.417  -6.859 -18.754  1.00  0.00     0.006 C 
BRANCH  10  11
ATOM     11  C   UNL     1      -8.437  -7.510 -20.143  1.00  0.00     0.053 C 
BRANCH  11  12
ATOM     12  C   UNL     1      -8.307  -8.997 -20.027  1.00  0.00     0.041 C 
ATOM     13  O   UNL     1      -8.701  -9.589 -18.986  1.00  0.00    -0.550 OA
ATOM     14  O   UNL     1      -7.720  -9.727 -21.054  1.00  0.00    -0.550 OA
ENDBRANCH  11  12
ENDBRANCH  10  11
ENDBRANCH   9  10
ENDBRANCH   8   9
ENDBRANCH   7   8
ENDBRANCH   6   7
ENDBRANCH   5   6
ENDBRANCH   4   5
ENDBRANCH   3   4
ENDBRANCH   2   3
ENDBRANCH   1   2
BRANCH   1  15
ATOM     15  C   UNL     1      -2.596  -0.680 -18.196  1.00  0.00     0.000 C 
BRANCH  15  16
ATOM     16  C   UNL     1      -2.033   0.749 -18.293  1.00  0.00     0.000 C 
BRANCH  16  17
ATOM     17  C   UNL     1      -2.959   1.796 -17.657  1.00  0.00     0.000 C 
BRANCH  17  18
ATOM     18  C   UNL     1      -2.291   3.178 -17.520  1.00  0.00    -0.000 C 
BRANCH  18  19
ATOM     19  C   UNL     1      -3.316   4.332 -17.526  1.00  0.00    -0.000 C 
BRANCH  19  20
ATOM     20  C   UNL     1      -2.737   5.682 -17.063  1.00  0.00    -0.000 C 
BRANCH  20  21
ATOM     21  C   UNL     1      -3.535   6.316 -15.916  1.00  0.00    -0.000 C 
BRANCH  21  22
ATOM     22  C   UNL     1      -5.026   5.938 -15.935  1.00  0.00    -0.000 C 
BRANCH  22  23
ATOM     23  C   UNL     1      -5.577   5.494 -14.565  1.00  0.00    -0.000 C 
BRANCH  23  24
ATOM     24  C   UNL     1      -4.804   6.114 -13.388  1.00  0.00    -0.000 C 
BRANCH  24  25
ATOM     25  C   UNL     1      -5.764   6.580 -12.288  1.00  0.00    -0.003 C 
ATOM     26  C   UNL     1      -7.133   6.930 -12.864  1.00  0.00     0.004 C 
ENDBRANCH  24  25
ENDBRANCH  23  24
ENDBRANCH  22  23
ENDBRANCH  21  22
ENDBRANCH  20  21
ENDBRANCH  19  20
ENDBRANCH  18  19
ENDBRANCH  17  18
ENDBRANCH  16  17
ENDBRANCH  15  16
ENDBRANCH   1  15
TORSDOF 22
ENDMDL
MODEL 3
REMARK VINA RESULT:    -7.422      1.566      3.865
REMARK INTER + INTRA:         -18.465
REMARK INTER:                 -17.029
REMARK INTRA:                  -1.436
REMARK UNBOUND:                -1.498
REMARK SMILES CCCCCCCCCCCCCCCCCCCCCCCC(=O)[O-]
REMARK SMILES IDX 13 1 14 2 15 3 16 4 17 5 18 6 19 7 20 8 21 9 22 10 23 11
REMARK SMILES IDX 24 12 25 13 26 14 12 15 11 16 10 17 9 18 8 19 7 20 6 21 5 22
REMARK SMILES IDX 4 23 3 24 2 25 1 26
REMARK H PARENT
REMARK Flexibility Score: inf
ROOT
ATOM      1  C   UNL     1      -6.331  -0.583 -18.587  1.00  0.00     0.000 C 
ENDROOT
BRANCH   1   2
ATOM      2  C   UNL     1      -4.844  -0.208 -18.714  1.00  0.00     0.000 C 
BRANCH   2   3
ATOM      3  C   UNL     1      -4.034  -0.518 -17.447  1.00  0.00     0.000 C 
BRANCH   3   4
ATOM      4  C   UNL     1      -2.530  -0.322 -17.695  1.00  0.00     0.000 C 
BRANCH   4   5
ATOM      5  C   UNL     1      -2.009   1.007 -17.127  1.00  0.00     0.000 C 
BRANCH   5   6
ATOM      6  C   UNL     1      -1.918   2.112 -18.194  1.00  0.00     0.000 C 
BRANCH   6   7
ATOM      7  C   UNL     1      -1.965   3.522 -17.579  1.00  0.00     0.000 C 
BRANCH   7   8
ATOM      8  C   UNL     1      -3.406   4.030 -17.401  1.00  0.00     0.000 C 
BRANCH   8   9
ATOM      9  C   UNL     1      -3.476   5.405 -16.711  1.00  0.00     0.000 C 
BRANCH   9  10
ATOM     10  C   UNL     1      -4.837   5.748 -16.082  1.00  0.00     0.006 C 
BRANCH  10  11
ATOM     11  C   UNL     1      -4.706   6.422 -14.709  1.00  0.00     0.053 C 
BRANCH  11  12
ATOM     12  C   UNL     1      -6.053   6.598 -14.081  1.00  0.00     0.041 C 
ATOM     13  O   UNL     1      -7.096   6.297 -14.722  1.00  0.00    -0.550 OA
ATOM     14  O   UNL     1      -6.162   7.124 -12.799  1.00  0.00    -0.550 OA
ENDBRANCH  11  12
ENDBRANCH  10  11
ENDBRANCH   9  10
ENDBRANCH   8   9
ENDBRANCH   7   8
ENDBRANCH   6   7
ENDBRANCH   5   6
ENDBRANCH   4   5
ENDBRANCH   3   4
ENDBRANCH   2   3
ENDBRANCH   1   2
BRANCH   1  15
ATOM     15  C   UNL     1      -7.166  -0.369 -19.862  1.00  0.00     0.000 C 
BRANCH  15  16
ATOM     16  C   UNL     1      -7.485  -1.681 -20.599  1.00  0.00     0.000 C 
BRANCH  16  17
ATOM     17  C   UNL     1      -6.229  -2.509 -20.907  1.00  0.00     0.000 C 
BRANCH  17  18
ATOM     18  C   UNL     1      -6.365  -3.982 -20.475  1.00  0.00    -0.000 C 
BRANCH  18  19
ATOM     19  C   UNL     1      -6.117  -4.180 -18.965  1.00  0.00    -0.000 C 
BRANCH  19  20
ATOM     20  C   UNL     1      -7.313  -4.788 -18.210  1.00  0.00    -0.000 C 
BRANCH  20  21
ATOM     21  C   UNL     1      -8.648  -4.593 -18.943  1.00  0.00    -0.000 C 
BRANCH  21  22
ATOM     22  C   UNL     1      -9.126  -5.859 -19.675  1.00  0.00    -0.000 C 
BRANCH  22  23
ATOM     23  C   UNL     1      -8.154  -7.051 -19.562  1.00  0.00    -0.000 C 
BRANCH  23  24
ATOM     24  C   UNL     1      -8.627  -8.278 -20.359  1.00  0.00    -0.000 C 
BRANCH  24  25
ATOM     25  C   UNL     1      -8.276  -9.577 -19.625  1.00  0.00    -0.003 C 
ATOM     26  C   UNL     1      -7.825 -10.657 -20.604  1.00  0.00     0.004 C 
ENDBRANCH  24  25
ENDBRANCH  23  24
ENDBRANCH  22  23
ENDBRANCH  21  22
ENDBRANCH  20  21
ENDBRANCH  19  20
ENDBRANCH  18  19
ENDBRANCH  17  18
ENDBRANCH  16  17
ENDBRANCH  15  16
ENDBRANCH   1  15
TORSDOF 22
ENDMDL
MODEL 4
REMARK VINA RESULT:    -7.400      1.298      2.015
REMARK INTER + INTRA:         -18.415
REMARK INTER:                 -17.148
REMARK INTRA:                  -1.267
REMARK UNBOUND:                -1.498
REMARK SMILES CCCCCCCCCCCCCCCCCCCCCCCC(=O)[O-]
REMARK SMILES IDX 13 1 14 2 15 3 16 4 17 5 18 6 19 7 20 8 21 9 22 10 23 11
REMARK SMILES IDX 24 12 25 13 26 14 12 15 11 16 10 17 9 18 8 19 7 20 6 21 5 22
REMARK SMILES IDX 4 23 3 24 2 25 1 26
REMARK H PARENT
REMARK Flexibility Score: inf
ROOT
ATOM      1  C   UNL     1      -2.047   2.826 -17.690  1.00  0.00     0.000 C 
ENDROOT
BRANCH   1   2
ATOM      2  C   UNL     1      -3.215   3.676 -17.159  1.00  0.00     0.000 C 
BRANCH   2   3
ATOM      3  C   UNL     1      -3.224   5.106 -17.719  1.00  0.00     0.000 C 
BRANCH   3   4
ATOM      4  C   UNL     1      -4.402   5.911 -17.150  1.00  0.00     0.000 C 
BRANCH   4   5
ATOM      5  C   UNL     1      -4.284   6.134 -15.634  1.00  0.00     0.000 C 
BRANCH   5   6
ATOM      6  C   UNL     1      -5.450   5.507 -14.850  1.00  0.00     0.000 C 
BRANCH   6   7
ATOM      7  C   UNL     1      -6.390   6.569 -14.255  1.00  0.00     0.000 C 
BRANCH   7   8
ATOM      8  C   UNL     1      -7.277   5.998 -13.135  1.00  0.00     0.000 C 
BRANCH   8   9
ATOM      9  C   UNL     1      -7.723   7.067 -12.121  1.00  0.00     0.000 C 
BRANCH   9  10
ATOM     10  C   UNL     1      -7.080   6.952 -10.728  1.00  0.00     0.006 C 
BRANCH  10  11
ATOM     11  C   UNL     1      -5.896   7.909 -10.537  1.00  0.00     0.053 C 
BRANCH  11  12
ATOM     12  C   UNL     1      -4.623   7.140 -10.367  1.00  0.00     0.041 C 
ATOM     13  O   UNL     1      -4.209   6.388 -11.291  1.00  0.00    -0.550 OA
ATOM     14  O   UNL     1      -3.909   7.227  -9.179  1.00  0.00    -0.550 OA
ENDBRANCH  11  12
ENDBRANCH  10  11
ENDBRANCH   9  10
ENDBRANCH   8   9
ENDBRANCH   7   8
ENDBRANCH   6   7
ENDBRANCH   5   6
ENDBRANCH   4   5
ENDBRANCH   3   4
ENDBRANCH   2   3
ENDBRANCH   1   2
BRANCH   1  15
ATOM     15  C   UNL     1      -2.443   1.439 -18.224  1.00  0.00     0.000 C 
BRANCH  15  16
ATOM     16  C   UNL     1      -3.232   0.603 -17.201  1.00  0.00     0.000 C 
BRANCH  16  17
ATOM     17  C   UNL     1      -4.336  -0.244 -17.851  1.00  0.00     0.000 C 
BRANCH  17  18
ATOM     18  C   UNL     1      -3.861  -0.962 -19.129  1.00  0.00    -0.000 C 
BRANCH  18  19
ATOM     19  C   UNL     1      -4.917  -1.941 -19.683  1.00  0.00    -0.000 C 
BRANCH  19  20
ATOM     20  C   UNL     1      -6.361  -1.597 -19.274  1.00  0.00    -0.000 C 
BRANCH  20  21
ATOM     21  C   UNL     1      -7.415  -2.349 -20.100  1.00  0.00    -0.000 C 
BRANCH  21  22
ATOM     22  C   UNL     1      -7.044  -3.820 -20.358  1.00  0.00    -0.000 C 
BRANCH  22  23
ATOM     23  C   UNL     1      -7.003  -4.686 -19.082  1.00  0.00    -0.000 C 
BRANCH  23  24
ATOM     24  C   UNL     1      -8.375  -5.282 -18.728  1.00  0.00    -0.000 C 
BRANCH  24  25
ATOM     25  C   UNL     1      -8.859  -6.236 -19.827  1.00  0.00    -0.003 C 
ATOM     26  C   UNL     1      -8.224  -7.615 -19.678  1.00  0.00     0.004 C 
ENDBRANCH  24  25
ENDBRANCH  23  24
ENDBRANCH  22  23
ENDBRANCH  21  22
ENDBRANCH  20  21
ENDBRANCH  19  20
ENDBRANCH  18  19
ENDBRANCH  17  18
ENDBRANCH  16  17
ENDBRANCH  15  16
ENDBRANCH   1  15
TORSDOF 22
ENDMDL
MODEL 5
REMARK VINA RESULT:    -7.209      1.404      3.183
REMARK INTER + INTRA:         -17.979
REMARK INTER:                 -16.742
REMARK INTRA:                  -1.237
REMARK UNBOUND:                -1.498
REMARK SMILES CCCCCCCCCCCCCCCCCCCCCCCC(=O)[O-]
REMARK SMILES IDX 13 1 14 2 15 3 16 4 17 5 18 6 19 7 20 8 21 9 22 10 23 11
REMARK SMILES IDX 24 12 25 13 26 14 12 15 11 16 10 17 9 18 8 19 7 20 6 21 5 22
REMARK SMILES IDX 4 23 3 24 2 25 1 26
REMARK H PARENT
REMARK Flexibility Score: inf
ROOT
ATOM      1  C   UNL     1      -4.110  -1.332 -18.951  1.00  0.00     0.000 C 
ENDROOT
BRANCH   1   2
ATOM      2  C   UNL     1      -2.887  -0.595 -18.378  1.00  0.00     0.000 C 
BRANCH   2   3
ATOM      3  C   UNL     1      -2.972   0.930 -18.539  1.00  0.00     0.000 C 
BRANCH   3   4
ATOM      4  C   UNL     1      -2.477   1.644 -17.272  1.00  0.00     0.000 C 
BRANCH   4   5
ATOM      5  C   UNL     1      -2.175   3.131 -17.516  1.00  0.00     0.000 C 
BRANCH   5   6
ATOM      6  C   UNL     1      -3.450   3.984 -17.632  1.00  0.00     0.000 C 
BRANCH   6   7
ATOM      7  C   UNL     1      -3.149   5.492 -17.587  1.00  0.00     0.000 C 
BRANCH   7   8
ATOM      8  C   UNL     1      -4.105   6.248 -16.648  1.00  0.00     0.000 C 
BRANCH   8   9
ATOM      9  C   UNL     1      -4.770   5.332 -15.605  1.00  0.00     0.000 C 
BRANCH   9  10
ATOM     10  C   UNL     1      -5.611   6.060 -14.542  1.00  0.00     0.006 C 
BRANCH  10  11
ATOM     11  C   UNL     1      -4.778   7.004 -13.665  1.00  0.00     0.053 C 
BRANCH  11  12
ATOM     12  C   UNL     1      -5.229   6.930 -12.240  1.00  0.00     0.041 C 
ATOM     13  O   UNL     1      -4.670   6.133 -11.439  1.00  0.00    -0.550 OA
ATOM     14  O   UNL     1      -6.287   7.717 -11.801  1.00  0.00    -0.550 OA
ENDBRANCH  11  12
ENDBRANCH  10  11
ENDBRANCH   9  10
ENDBRANCH   8   9
ENDBRANCH   7   8
ENDBRANCH   6   7
ENDBRANCH   5   6
ENDBRANCH   4   5
ENDBRANCH   3   4
ENDBRANCH   2   3
ENDBRANCH   1   2
BRANCH   1  15
ATOM     15  C   UNL     1      -5.459  -0.937 -18.325  1.00  0.00     0.000 C 
BRANCH  15  16
ATOM     16  C   UNL     1      -6.485  -0.450 -19.363  1.00  0.00     0.000 C 
BRANCH  16  17
ATOM     17  C   UNL     1      -7.511  -1.530 -19.735  1.00  0.00     0.000 C 
BRANCH  17  18
ATOM     18  C   UNL     1      -7.136  -2.292 -21.020  1.00  0.00    -0.000 C 
BRANCH  18  19
ATOM     19  C   UNL     1      -6.736  -3.757 -20.743  1.00  0.00    -0.000 C 
BRANCH  19  20
ATOM     20  C   UNL     1      -7.763  -4.535 -19.900  1.00  0.00    -0.000 C 
BRANCH  20  21
ATOM     21  C   UNL     1      -7.481  -6.043 -19.850  1.00  0.00    -0.000 C 
BRANCH  21  22
ATOM     22  C   UNL     1      -8.761  -6.897 -19.832  1.00  0.00    -0.000 C 
BRANCH  22  23
ATOM     23  C   UNL     1      -8.518  -8.381 -19.489  1.00  0.00    -0.000 C 
BRANCH  23  24
ATOM     24  C   UNL     1      -7.533  -9.057 -20.456  1.00  0.00    -0.000 C 
BRANCH  24  25
ATOM     25  C   UNL     1      -8.177 -10.272 -21.133  1.00  0.00    -0.003 C 
ATOM     26  C   UNL     1      -8.532  -9.968 -22.586  1.00  0.00     0.004 C 
ENDBRANCH  24  25
ENDBRANCH  23  24
ENDBRANCH  22  23
ENDBRANCH  21  22
ENDBRANCH  20  21
ENDBRANCH  19  20
ENDBRANCH  18  19
ENDBRANCH  17  18
ENDBRANCH  16  17
ENDBRANCH  15  16
ENDBRANCH   1  15
TORSDOF 22
ENDMDL
MODEL 6
REMARK VINA RESULT:    -7.198      5.962     12.332
REMARK INTER + INTRA:         -17.955
REMARK INTER:                 -16.997
REMARK INTRA:                  -0.958
REMARK UNBOUND:                -1.498
REMARK SMILES CCCCCCCCCCCCCCCCCCCCCCCC(=O)[O-]
REMARK SMILES IDX 13 1 14 2 15 3 16 4 17 5 18 6 19 7 20 8 21 9 22 10 23 11
REMARK SMILES IDX 24 12 25 13 26 14 12 15 11 16 10 17 9 18 8 19 7 20 6 21 5 22
REMARK SMILES IDX 4 23 3 24 2 25 1 26
REMARK H PARENT
REMARK Flexibility Score: inf
ROOT
ATOM      1  C   UNL     1      -2.269   0.237 -18.368  1.00  0.00     0.000 C 
ENDROOT
BRANCH   1   2
ATOM      2  C   UNL     1      -3.768   0.073 -18.678  1.00  0.00     0.000 C 
BRANCH   2   3
ATOM      3  C   UNL     1      -4.240  -1.387 -18.613  1.00  0.00     0.000 C 
BRANCH   3   4
ATOM      4  C   UNL     1      -4.143  -2.058 -19.991  1.00  0.00     0.000 C 
BRANCH   4   5
ATOM      5  C   UNL     1      -5.396  -2.878 -20.336  1.00  0.00     0.000 C 
BRANCH   5   6
ATOM      6  C   UNL     1      -6.651  -2.379 -19.598  1.00  0.00     0.000 C 
BRANCH   6   7
ATOM      7  C   UNL     1      -7.686  -3.498 -19.388  1.00  0.00     0.000 C 
BRANCH   7   8
ATOM      8  C   UNL     1      -7.028  -4.881 -19.245  1.00  0.00     0.000 C 
BRANCH   8   9
ATOM      9  C   UNL     1      -8.052  -6.022 -19.118  1.00  0.00     0.000 C 
BRANCH   9  10
ATOM     10  C   UNL     1      -7.885  -7.163 -20.138  1.00  0.00     0.006 C 
BRANCH  10  11
ATOM     11  C   UNL     1      -8.533  -8.475 -19.677  1.00  0.00     0.053 C 
BRANCH  11  12
ATOM     12  C   UNL     1      -8.118  -9.606 -20.565  1.00  0.00     0.041 C 
ATOM     13  O   UNL     1      -7.443 -10.563 -20.099  1.00  0.00    -0.550 OA
ATOM     14  O   UNL     1      -8.447  -9.589 -21.915  1.00  0.00    -0.550 OA
ENDBRANCH  11  12
ENDBRANCH  10  11
ENDBRANCH   9  10
ENDBRANCH   8   9
ENDBRANCH   7   8
ENDBRANCH   6   7
ENDBRANCH   5   6
ENDBRANCH   4   5
ENDBRANCH   3   4
ENDBRANCH   2   3
ENDBRANCH   1   2
BRANCH   1  15
ATOM     15  C   UNL     1      -1.907   1.502 -17.570  1.00  0.00     0.000 C 
BRANCH  15  16
ATOM     16  C   UNL     1      -3.055   2.525 -17.509  1.00  0.00     0.000 C 
BRANCH  16  17
ATOM     17  C   UNL     1      -2.555   3.971 -17.382  1.00  0.00     0.000 C 
BRANCH  17  18
ATOM     18  C   UNL     1      -3.702   5.000 -17.380  1.00  0.00    -0.000 C 
BRANCH  18  19
ATOM     19  C   UNL     1      -3.493   6.116 -16.336  1.00  0.00    -0.000 C 
BRANCH  19  20
ATOM     20  C   UNL     1      -4.798   6.626 -15.697  1.00  0.00    -0.000 C 
BRANCH  20  21
ATOM     21  C   UNL     1      -5.212   5.825 -14.455  1.00  0.00    -0.000 C 
BRANCH  21  22
ATOM     22  C   UNL     1      -6.594   6.228 -13.910  1.00  0.00    -0.000 C 
BRANCH  22  23
ATOM     23  C   UNL     1      -6.539   7.003 -12.578  1.00  0.00    -0.000 C 
BRANCH  23  24
ATOM     24  C   UNL     1      -7.833   6.866 -11.760  1.00  0.00    -0.000 C 
BRANCH  24  25
ATOM     25  C   UNL     1      -7.674   5.815 -10.655  1.00  0.00    -0.003 C 
ATOM     26  C   UNL     1      -8.991   5.088 -10.394  1.00  0.00     0.004 C 
ENDBRANCH  24  25
ENDBRANCH  23  24
ENDBRANCH  22  23
ENDBRANCH  21  22
ENDBRANCH  20  21
ENDBRANCH  19  20
ENDBRANCH  18  19
ENDBRANCH  17  18
ENDBRANCH  16  17
ENDBRANCH  15  16
ENDBRANCH   1  15
TORSDOF 22
ENDMDL
MODEL 7
REMARK VINA RESULT:    -7.102      4.638     11.157
REMARK INTER + INTRA:         -17.734
REMARK INTER:                 -16.321
REMARK INTRA:                  -1.413
REMARK UNBOUND:                -1.498
REMARK SMILES CCCCCCCCCCCCCCCCCCCCCCCC(=O)[O-]
REMARK SMILES IDX 13 1 14 2 15 3 16 4 17 5 18 6 19 7 20 8 21 9 22 10 23 11
REMARK SMILES IDX 24 12 25 13 26 14 12 15 11 16 10 17 9 18 8 19 7 20 6 21 5 22
REMARK SMILES IDX 4 23 3 24 2 25 1 26
REMARK H PARENT
REMARK Flexibility Score: inf
ROOT
ATOM      1  C   UNL     1      -2.951   2.966 -17.545  1.00  0.00     0.000 C 
ENDROOT
BRANCH   1   2
ATOM      2  C   UNL     1      -2.366   1.569 -17.273  1.00  0.00     0.000 C 
BRANCH   2   3
ATOM      3  C   UNL     1      -2.170   0.738 -18.550  1.00  0.00     0.000 C 
BRANCH   3   4
ATOM      4  C   UNL     1      -2.757  -0.671 -18.384  1.00  0.00     0.000 C 
BRANCH   4   5
ATOM      5  C   UNL     1      -4.233  -0.646 -17.955  1.00  0.00     0.000 C 
BRANCH   5   6
ATOM      6  C   UNL     1      -5.148  -1.396 -18.939  1.00  0.00     0.000 C 
BRANCH   6   7
ATOM      7  C   UNL     1      -6.539  -0.749 -19.050  1.00  0.00     0.000 C 
BRANCH   7   8
ATOM      8  C   UNL     1      -7.536  -1.638 -19.813  1.00  0.00     0.000 C 
BRANCH   8   9
ATOM      9  C   UNL     1      -6.879  -2.426 -20.961  1.00  0.00     0.000 C 
BRANCH   9  10
ATOM     10  C   UNL     1      -6.939  -3.956 -20.818  1.00  0.00     0.006 C 
BRANCH  10  11
ATOM     11  C   UNL     1      -7.282  -4.409 -19.393  1.00  0.00     0.053 C 
BRANCH  11  12
ATOM     12  C   UNL     1      -8.475  -5.313 -19.403  1.00  0.00     0.041 C 
ATOM     13  O   UNL     1      -8.425  -6.422 -20.001  1.00  0.00    -0.550 OA
ATOM     14  O   UNL     1      -9.653  -4.920 -18.780  1.00  0.00    -0.550 OA
ENDBRANCH  11  12
ENDBRANCH  10  11
ENDBRANCH   9  10
ENDBRANCH   8   9
ENDBRANCH   7   8
ENDBRANCH   6   7
ENDBRANCH   5   6
ENDBRANCH   4   5
ENDBRANCH   3   4
ENDBRANCH   2   3
ENDBRANCH   1   2
BRANCH   1  15
ATOM     15  C   UNL     1      -1.936   4.120 -17.474  1.00  0.00     0.000 C 
BRANCH  15  16
ATOM     16  C   UNL     1      -2.601   5.497 -17.307  1.00  0.00     0.000 C 
BRANCH  16  17
ATOM     17  C   UNL     1      -4.133   5.431 -17.397  1.00  0.00     0.000 C 
BRANCH  17  18
ATOM     18  C   UNL     1      -4.829   6.434 -16.456  1.00  0.00    -0.000 C 
BRANCH  18  19
ATOM     19  C   UNL     1      -5.158   5.820 -15.079  1.00  0.00    -0.000 C 
BRANCH  19  20
ATOM     20  C   UNL     1      -4.999   6.802 -13.904  1.00  0.00    -0.000 C 
BRANCH  20  21
ATOM     21  C   UNL     1      -4.467   6.133 -12.629  1.00  0.00    -0.000 C 
BRANCH  21  22
ATOM     22  C   UNL     1      -5.162   6.633 -11.350  1.00  0.00    -0.000 C 
BRANCH  22  23
ATOM     23  C   UNL     1      -6.330   7.605 -11.612  1.00  0.00    -0.000 C 
BRANCH  23  24
ATOM     24  C   UNL     1      -7.563   7.295 -10.746  1.00  0.00    -0.000 C 
BRANCH  24  25
ATOM     25  C   UNL     1      -7.710   5.785 -10.523  1.00  0.00    -0.003 C 
ATOM     26  C   UNL     1      -9.026   5.270 -11.097  1.00  0.00     0.004 C 
ENDBRANCH  24  25
ENDBRANCH  23  24
ENDBRANCH  22  23
ENDBRANCH  21  22
ENDBRANCH  20  21
ENDBRANCH  19  20
ENDBRANCH  18  19
ENDBRANCH  17  18
ENDBRANCH  16  17
ENDBRANCH  15  16
ENDBRANCH   1  15
TORSDOF 22
ENDMDL
MODEL 8
REMARK VINA RESULT:    -6.994      4.593     11.355
REMARK INTER + INTRA:         -17.487
REMARK INTER:                 -15.499
REMARK INTRA:                  -1.989
REMARK UNBOUND:                -1.498
REMARK SMILES CCCCCCCCCCCCCCCCCCCCCCCC(=O)[O-]
REMARK SMILES IDX 13 1 14 2 15 3 16 4 17 5 18 6 19 7 20 8 21 9 22 10 23 11
REMARK SMILES IDX 24 12 25 13 26 14 12 15 11 16 10 17 9 18 8 19 7 20 6 21 5 22
REMARK SMILES IDX 4 23 3 24 2 25 1 26
REMARK H PARENT
REMARK Flexibility Score: inf
ROOT
ATOM      1  C   UNL     1      -3.239   5.308 -17.502  1.00  0.00     0.000 C 
ENDROOT
BRANCH   1   2
ATOM      2  C   UNL     1      -3.377   3.805 -17.201  1.00  0.00     0.000 C 
BRANCH   2   3
ATOM      3  C   UNL     1      -2.187   2.977 -17.708  1.00  0.00     0.000 C 
BRANCH   3   4
ATOM      4  C   UNL     1      -2.647   1.596 -18.198  1.00  0.00     0.000 C 
BRANCH   4   5
ATOM      5  C   UNL     1      -3.320   0.773 -17.087  1.00  0.00     0.000 C 
BRANCH   5   6
ATOM      6  C   UNL     1      -4.239  -0.329 -17.640  1.00  0.00     0.000 C 
BRANCH   6   7
ATOM      7  C   UNL     1      -3.810  -0.799 -19.041  1.00  0.00     0.000 C 
BRANCH   7   8
ATOM      8  C   UNL     1      -4.861  -1.711 -19.696  1.00  0.00     0.000 C 
BRANCH   8   9
ATOM      9  C   UNL     1      -6.302  -1.212 -19.487  1.00  0.00     0.000 C 
BRANCH   9  10
ATOM     10  C   UNL     1      -7.371  -2.317 -19.425  1.00  0.00     0.006 C 
BRANCH  10  11
ATOM     11  C   UNL     1      -7.041  -3.516 -20.324  1.00  0.00     0.053 C 
BRANCH  11  12
ATOM     12  C   UNL     1      -7.186  -4.797 -19.563  1.00  0.00     0.041 C 
ATOM     13  O   UNL     1      -7.423  -4.776 -18.324  1.00  0.00    -0.550 OA
ATOM     14  O   UNL     1      -7.028  -6.015 -20.212  1.00  0.00    -0.550 OA
ENDBRANCH  11  12
ENDBRANCH  10  11
ENDBRANCH   9  10
ENDBRANCH   8   9
ENDBRANCH   7   8
ENDBRANCH   6   7
ENDBRANCH   5   6
ENDBRANCH   4   5
ENDBRANCH   3   4
ENDBRANCH   2   3
ENDBRANCH   1   2
BRANCH   1  15
ATOM     15  C   UNL     1      -3.670   6.241 -16.357  1.00  0.00     0.000 C 
BRANCH  15  16
ATOM     16  C   UNL     1      -4.887   5.713 -15.577  1.00  0.00     0.000 C 
BRANCH  16  17
ATOM     17  C   UNL     1      -5.046   6.382 -14.203  1.00  0.00     0.000 C 
BRANCH  17  18
ATOM     18  C   UNL     1      -3.836   7.256 -13.822  1.00  0.00    -0.000 C 
BRANCH  18  19
ATOM     19  C   UNL     1      -3.509   7.185 -12.315  1.00  0.00    -0.000 C 
BRANCH  19  20
ATOM     20  C   UNL     1      -4.325   6.129 -11.548  1.00  0.00    -0.000 C 
BRANCH  20  21
ATOM     21  C   UNL     1      -4.853   6.640 -10.200  1.00  0.00    -0.000 C 
BRANCH  21  22
ATOM     22  C   UNL     1      -5.635   7.959 -10.318  1.00  0.00    -0.000 C 
BRANCH  22  23
ATOM     23  C   UNL     1      -7.166   7.777 -10.366  1.00  0.00    -0.000 C 
BRANCH  23  24
ATOM     24  C   UNL     1      -7.674   7.416 -11.772  1.00  0.00    -0.000 C 
BRANCH  24  25
ATOM     25  C   UNL     1      -8.077   5.939 -11.847  1.00  0.00    -0.003 C 
ATOM     26  C   UNL     1      -8.466   5.405 -10.472  1.00  0.00     0.004 C 
ENDBRANCH  24  25
ENDBRANCH  23  24
ENDBRANCH  22  23
ENDBRANCH  21  22
ENDBRANCH  20  21
ENDBRANCH  19  20
ENDBRANCH  18  19
ENDBRANCH  17  18
ENDBRANCH  16  17
ENDBRANCH  15  16
ENDBRANCH   1  15
TORSDOF 22
ENDMDL
