MODEL 1
REMARK VINA RESULT:    -1.332      0.000      0.000
REMARK INTER + INTRA:          -4.332
REMARK INTER:                  -3.512
REMARK INTRA:                  -0.820
REMARK UNBOUND:                -0.820
REMARK SMILES CCCCCCCCCCCCCCCCCCCCCCCCCCCCCC(=O)[O-]
REMARK SMILES IDX 16 1 17 2 18 3 19 4 20 5 21 6 22 7 23 8 24 9 25 10 26 11
REMARK SMILES IDX 27 12 28 13 29 14 30 15 31 16 32 17 15 18 14 19 13 20 12 21
REMARK SMILES IDX 11 22 10 23 9 24 8 25 7 26 6 27 5 28 4 29 3 30 2 31 1 32
REMARK H PARENT
REMARK Flexibility Score: inf
ROOT
ATOM      1  C   UNL     1       1.188  22.675  25.840  1.00  0.00     0.000 C 
ENDROOT
BRANCH   1   2
ATOM      2  C   UNL     1       0.772  22.793  24.361  1.00  0.00     0.000 C 
BRANCH   2   3
ATOM      3  C   UNL     1       1.794  22.229  23.353  1.00  0.00     0.000 C 
BRANCH   3   4
ATOM      4  C   UNL     1       1.584  22.672  21.890  1.00  0.00     0.000 C 
BRANCH   4   5
ATOM      5  C   UNL     1       2.004  24.124  21.569  1.00  0.00     0.000 C 
BRANCH   5   6
ATOM      6  C   UNL     1       2.802  24.819  22.684  1.00  0.00     0.000 C 
BRANCH   6   7
ATOM      7  C   UNL     1       1.902  25.371  23.805  1.00  0.00     0.000 C 
BRANCH   7   8
ATOM      8  C   UNL     1       1.008  26.528  23.330  1.00  0.00     0.000 C 
BRANCH   8   9
ATOM      9  C   UNL     1       1.687  27.403  22.260  1.00  0.00     0.000 C 
BRANCH   9  10
ATOM     10  C   UNL     1       0.845  28.622  21.840  1.00  0.00     0.000 C 
BRANCH  10  11
ATOM     11  C   UNL     1       1.589  29.672  20.982  1.00  0.00     0.000 C 
BRANCH  11  12
ATOM     12  C   UNL     1       0.680  30.538  20.088  1.00  0.00     0.000 C 
BRANCH  12  13
ATOM     13  C   UNL     1      -0.720  30.839  20.650  1.00  0.00     0.006 C 
BRANCH  13  14
ATOM     14  C   UNL     1      -1.855  30.345  19.740  1.00  0.00     0.053 C 
BRANCH  14  15
ATOM     15  C   UNL     1      -2.418  29.055  20.248  1.00  0.00     0.041 C 
ATOM     16  O   UNL     1      -1.647  28.144  20.651  1.00  0.00    -0.550 OA
ATOM     17  O   UNL     1      -3.792  28.849  20.261  1.00  0.00    -0.550 OA
ENDBRANCH  14  15
ENDBRANCH  13  14
ENDBRANCH  12  13
ENDBRANCH  11  12
ENDBRANCH  10  11
ENDBRANCH   9  10
ENDBRANCH   8   9
ENDBRANCH   7   8
ENDBRANCH   6   7
ENDBRANCH   5   6
ENDBRANCH   4   5
ENDBRANCH   3   4
ENDBRANCH   2   3
ENDBRANCH   1   2
BRANCH   1  18
ATOM     18  C   UNL     1       2.705  22.582  26.089  1.00  0.00     0.000 C 
BRANCH  18  19
ATOM     19  C   UNL     1       3.254  23.776  26.886  1.00  0.00     0.000 C 
BRANCH  19  20
ATOM     20  C   UNL     1       4.793  23.838  26.898  1.00  0.00     0.000 C 
BRANCH  20  21
ATOM     21  C   UNL     1       5.475  23.523  25.554  1.00  0.00     0.000 C 
BRANCH  21  22
ATOM     22  C   UNL     1       6.826  22.809  25.716  1.00  0.00     0.000 C 
BRANCH  22  23
ATOM     23  C   UNL     1       6.861  21.986  27.014  1.00  0.00     0.000 C 
BRANCH  23  24
ATOM     24  C   UNL     1       7.002  20.473  26.747  1.00  0.00    -0.000 C 
BRANCH  24  25
ATOM     25  C   UNL     1       5.715  19.672  27.008  1.00  0.00    -0.000 C 
BRANCH  25  26
ATOM     26  C   UNL     1       5.871  18.175  26.709  1.00  0.00    -0.000 C 
BRANCH  26  27
ATOM     27  C   UNL     1       6.551  17.948  25.353  1.00  0.00    -0.000 C 
BRANCH  27  28
ATOM     28  C   UNL     1       6.241  16.549  24.808  1.00  0.00    -0.000 C 
BRANCH  28  29
ATOM     29  C   UNL     1       4.848  16.079  25.254  1.00  0.00    -0.000 C 
BRANCH  29  30
ATOM     30  C   UNL     1       4.087  15.323  24.149  1.00  0.00    -0.000 C 
BRANCH  30  31
ATOM     31  C   UNL     1       2.557  15.480  24.196  1.00  0.00    -0.003 C 
ATOM     32  C   UNL     1       1.906  14.664  25.311  1.00  0.00     0.004 C 
ENDBRANCH  30  31
ENDBRANCH  29  30
ENDBRANCH  28  29
ENDBRANCH  27  28
ENDBRANCH  26  27
ENDBRANCH  25  26
ENDBRANCH  24  25
ENDBRANCH  23  24
ENDBRANCH  22  23
ENDBRANCH  21  22
ENDBRANCH  20  21
ENDBRANCH  19  20
ENDBRANCH  18  19
ENDBRANCH   1  18
TORSDOF 28
ENDMDL
MODEL 2
REMARK VINA RESULT:    -0.278      1.556      2.098
REMARK INTER + INTRA:          -1.552
REMARK INTER:                   0.924
REMARK INTRA:                  -2.476
REMARK UNBOUND:                -0.820
REMARK SMILES CCCCCCCCCCCCCCCCCCCCCCCCCCCCCC(=O)[O-]
REMARK SMILES IDX 16 1 17 2 18 3 19 4 20 5 21 6 22 7 23 8 24 9 25 10 26 11
REMARK SMILES IDX 27 12 28 13 29 14 30 15 31 16 32 17 15 18 14 19 13 20 12 21
REMARK SMILES IDX 11 22 10 23 9 24 8 25 7 26 6 27 5 28 4 29 3 30 2 31 1 32
REMARK H PARENT
REMARK Flexibility Score: inf
ROOT
ATOM      1  C   UNL     1       1.275  22.180  24.438  1.00  0.00     0.000 C 
ENDROOT
BRANCH   1   2
ATOM      2  C   UNL     1       1.076  22.161  22.910  1.00  0.00     0.000 C 
BRANCH   2   3
ATOM      3  C   UNL     1       2.255  22.731  22.095  1.00  0.00     0.000 C 
BRANCH   3   4
ATOM      4  C   UNL     1       1.870  23.779  21.030  1.00  0.00     0.000 C 
BRANCH   4   5
ATOM      5  C   UNL     1       1.957  25.252  21.485  1.00  0.00     0.000 C 
BRANCH   5   6
ATOM      6  C   UNL     1       2.550  25.452  22.890  1.00  0.00     0.000 C 
BRANCH   6   7
ATOM      7  C   UNL     1       1.516  25.976  23.903  1.00  0.00     0.000 C 
BRANCH   7   8
ATOM      8  C   UNL     1       0.478  26.911  23.260  1.00  0.00     0.000 C 
BRANCH   8   9
ATOM      9  C   UNL     1       1.122  27.984  22.362  1.00  0.00     0.000 C 
BRANCH   9  10
ATOM     10  C   UNL     1       0.183  28.500  21.255  1.00  0.00     0.000 C 
BRANCH  10  11
ATOM     11  C   UNL     1      -0.928  27.515  20.822  1.00  0.00     0.000 C 
BRANCH  11  12
ATOM     12  C   UNL     1      -2.282  28.173  20.491  1.00  0.00     0.000 C 
BRANCH  12  13
ATOM     13  C   UNL     1      -2.329  29.706  20.615  1.00  0.00     0.006 C 
BRANCH  13  14
ATOM     14  C   UNL     1      -2.589  30.413  19.276  1.00  0.00     0.053 C 
BRANCH  14  15
ATOM     15  C   UNL     1      -1.817  31.692  19.195  1.00  0.00     0.041 C 
ATOM     16  O   UNL     1      -0.765  31.840  19.871  1.00  0.00    -0.550 OA
ATOM     17  O   UNL     1      -2.268  32.729  18.386  1.00  0.00    -0.550 OA
ENDBRANCH  14  15
ENDBRANCH  13  14
ENDBRANCH  12  13
ENDBRANCH  11  12
ENDBRANCH  10  11
ENDBRANCH   9  10
ENDBRANCH   8   9
ENDBRANCH   7   8
ENDBRANCH   6   7
ENDBRANCH   5   6
ENDBRANCH   4   5
ENDBRANCH   3   4
ENDBRANCH   2   3
ENDBRANCH   1   2
BRANCH   1  18
ATOM     18  C   UNL     1       2.689  22.565  24.910  1.00  0.00     0.000 C 
BRANCH  18  19
ATOM     19  C   UNL     1       2.726  23.017  26.379  1.00  0.00     0.000 C 
BRANCH  19  20
ATOM     20  C   UNL     1       4.086  23.607  26.795  1.00  0.00     0.000 C 
BRANCH  20  21
ATOM     21  C   UNL     1       4.950  24.147  25.642  1.00  0.00     0.000 C 
BRANCH  21  22
ATOM     22  C   UNL     1       6.257  23.363  25.449  1.00  0.00     0.000 C 
BRANCH  22  23
ATOM     23  C   UNL     1       6.444  22.321  26.563  1.00  0.00     0.000 C 
BRANCH  23  24
ATOM     24  C   UNL     1       7.117  21.030  26.054  1.00  0.00    -0.000 C 
BRANCH  24  25
ATOM     25  C   UNL     1       6.919  19.818  26.980  1.00  0.00    -0.000 C 
BRANCH  25  26
ATOM     26  C   UNL     1       5.511  19.215  26.882  1.00  0.00    -0.000 C 
BRANCH  26  27
ATOM     27  C   UNL     1       5.553  17.799  26.293  1.00  0.00    -0.000 C 
BRANCH  27  28
ATOM     28  C   UNL     1       4.228  17.064  26.528  1.00  0.00    -0.000 C 
BRANCH  28  29
ATOM     29  C   UNL     1       4.073  15.884  25.557  1.00  0.00    -0.000 C 
BRANCH  29  30
ATOM     30  C   UNL     1       4.445  16.244  24.107  1.00  0.00    -0.000 C 
BRANCH  30  31
ATOM     31  C   UNL     1       5.003  15.078  23.274  1.00  0.00    -0.003 C 
ATOM     32  C   UNL     1       6.494  15.220  22.970  1.00  0.00     0.004 C 
ENDBRANCH  30  31
ENDBRANCH  29  30
ENDBRANCH  28  29
ENDBRANCH  27  28
ENDBRANCH  26  27
ENDBRANCH  25  26
ENDBRANCH  24  25
ENDBRANCH  23  24
ENDBRANCH  22  23
ENDBRANCH  21  22
ENDBRANCH  20  21
ENDBRANCH  19  20
ENDBRANCH  18  19
ENDBRANCH   1  18
TORSDOF 28
ENDMDL
MODEL 3
REMARK VINA RESULT:    -0.250      3.457      7.030
REMARK INTER + INTRA:          -1.478
REMARK INTER:                   1.155
REMARK INTRA:                  -2.633
REMARK UNBOUND:                -0.820
REMARK SMILES CCCCCCCCCCCCCCCCCCCCCCCCCCCCCC(=O)[O-]
REMARK SMILES IDX 16 1 17 2 18 3 19 4 20 5 21 6 22 7 23 8 24 9 25 10 26 11
REMARK SMILES IDX 27 12 28 13 29 14 30 15 31 16 32 17 15 18 14 19 13 20 12 21
REMARK SMILES IDX 11 22 10 23 9 24 8 25 7 26 6 27 5 28 4 29 3 30 2 31 1 32
REMARK H PARENT
REMARK Flexibility Score: inf
ROOT
ATOM      1  C   UNL     1       2.683  24.571  22.616  1.00  0.00     0.000 C 
ENDROOT
BRANCH   1   2
ATOM      2  C   UNL     1       2.062  25.861  22.044  1.00  0.00     0.000 C 
BRANCH   2   3
ATOM      3  C   UNL     1       0.823  26.376  22.804  1.00  0.00     0.000 C 
BRANCH   3   4
ATOM      4  C   UNL     1       1.013  26.552  24.325  1.00  0.00     0.000 C 
BRANCH   4   5
ATOM      5  C   UNL     1       1.413  25.275  25.097  1.00  0.00     0.000 C 
BRANCH   5   6
ATOM      6  C   UNL     1       0.261  24.605  25.864  1.00  0.00     0.000 C 
BRANCH   6   7
ATOM      7  C   UNL     1       0.383  23.070  25.901  1.00  0.00     0.000 C 
BRANCH   7   8
ATOM      8  C   UNL     1       1.409  22.583  26.936  1.00  0.00     0.000 C 
BRANCH   8   9
ATOM      9  C   UNL     1       2.312  21.460  26.395  1.00  0.00     0.000 C 
BRANCH   9  10
ATOM     10  C   UNL     1       3.665  21.356  27.124  1.00  0.00     0.000 C 
BRANCH  10  11
ATOM     11  C   UNL     1       4.630  22.542  26.892  1.00  0.00     0.000 C 
BRANCH  11  12
ATOM     12  C   UNL     1       6.119  22.219  27.125  1.00  0.00     0.000 C 
BRANCH  12  13
ATOM     13  C   UNL     1       7.103  22.834  26.115  1.00  0.00     0.006 C 
BRANCH  13  14
ATOM     14  C   UNL     1       6.414  23.379  24.855  1.00  0.00     0.053 C 
BRANCH  14  15
ATOM     15  C   UNL     1       6.499  24.871  24.808  1.00  0.00     0.041 C 
ATOM     16  O   UNL     1       6.299  25.483  23.725  1.00  0.00    -0.550 OA
ATOM     17  O   UNL     1       6.816  25.589  25.955  1.00  0.00    -0.550 OA
ENDBRANCH  14  15
ENDBRANCH  13  14
ENDBRANCH  12  13
ENDBRANCH  11  12
ENDBRANCH  10  11
ENDBRANCH   9  10
ENDBRANCH   8   9
ENDBRANCH   7   8
ENDBRANCH   6   7
ENDBRANCH   5   6
ENDBRANCH   4   5
ENDBRANCH   3   4
ENDBRANCH   2   3
ENDBRANCH   1   2
BRANCH   1  18
ATOM     18  C   UNL     1       2.239  23.269  21.925  1.00  0.00     0.000 C 
BRANCH  18  19
ATOM     19  C   UNL     1       1.430  22.346  22.852  1.00  0.00     0.000 C 
BRANCH  19  20
ATOM     20  C   UNL     1       1.114  20.979  22.217  1.00  0.00     0.000 C 
BRANCH  20  21
ATOM     21  C   UNL     1       2.247  19.940  22.293  1.00  0.00     0.000 C 
BRANCH  21  22
ATOM     22  C   UNL     1       1.808  18.615  22.935  1.00  0.00     0.000 C 
BRANCH  22  23
ATOM     23  C   UNL     1       2.965  17.603  22.955  1.00  0.00     0.000 C 
BRANCH  23  24
ATOM     24  C   UNL     1       2.471  16.147  23.068  1.00  0.00    -0.000 C 
BRANCH  24  25
ATOM     25  C   UNL     1       3.523  15.174  23.628  1.00  0.00    -0.000 C 
BRANCH  25  26
ATOM     26  C   UNL     1       4.775  15.074  22.744  1.00  0.00    -0.000 C 
BRANCH  26  27
ATOM     27  C   UNL     1       6.032  14.833  23.588  1.00  0.00    -0.000 C 
BRANCH  27  28
ATOM     28  C   UNL     1       5.670  14.278  24.971  1.00  0.00    -0.000 C 
BRANCH  28  29
ATOM     29  C   UNL     1       6.715  14.687  26.020  1.00  0.00    -0.000 C 
BRANCH  29  30
ATOM     30  C   UNL     1       6.320  15.955  26.800  1.00  0.00    -0.000 C 
BRANCH  30  31
ATOM     31  C   UNL     1       4.836  16.343  26.692  1.00  0.00    -0.003 C 
ATOM     32  C   UNL     1       4.628  17.792  26.252  1.00  0.00     0.004 C 
ENDBRANCH  30  31
ENDBRANCH  29  30
ENDBRANCH  28  29
ENDBRANCH  27  28
ENDBRANCH  26  27
ENDBRANCH  25  26
ENDBRANCH  24  25
ENDBRANCH  23  24
ENDBRANCH  22  23
ENDBRANCH  21  22
ENDBRANCH  20  21
ENDBRANCH  19  20
ENDBRANCH  18  19
ENDBRANCH   1  18
TORSDOF 28
ENDMDL
MODEL 4
REMARK VINA RESULT:    -0.107      2.174      4.173
REMARK INTER + INTRA:          -1.100
REMARK INTER:                   0.656
REMARK INTRA:                  -1.756
REMARK UNBOUND:                -0.820
REMARK SMILES CCCCCCCCCCCCCCCCCCCCCCCCCCCCCC(=O)[O-]
REMARK SMILES IDX 16 1 17 2 18 3 19 4 20 5 21 6 22 7 23 8 24 9 25 10 26 11
REMARK SMILES IDX 27 12 28 13 29 14 30 15 31 16 32 17 15 18 14 19 13 20 12 21
REMARK SMILES IDX 11 22 10 23 9 24 8 25 7 26 6 27 5 28 4 29 3 30 2 31 1 32
REMARK H PARENT
REMARK Flexibility Score: inf
ROOT
ATOM      1  C   UNL     1       1.641  22.609  23.593  1.00  0.00     0.000 C 
ENDROOT
BRANCH   1   2
ATOM      2  C   UNL     1       2.465  23.391  22.551  1.00  0.00     0.000 C 
BRANCH   2   3
ATOM      3  C   UNL     1       3.415  24.453  23.140  1.00  0.00     0.000 C 
BRANCH   3   4
ATOM      4  C   UNL     1       4.897  24.031  23.225  1.00  0.00     0.000 C 
BRANCH   4   5
ATOM      5  C   UNL     1       5.750  24.804  24.255  1.00  0.00     0.000 C 
BRANCH   5   6
ATOM      6  C   UNL     1       6.618  23.915  25.161  1.00  0.00     0.000 C 
BRANCH   6   7
ATOM      7  C   UNL     1       5.848  23.376  26.381  1.00  0.00     0.000 C 
BRANCH   7   8
ATOM      8  C   UNL     1       4.812  24.378  26.916  1.00  0.00     0.000 C 
BRANCH   8   9
ATOM      9  C   UNL     1       3.404  23.768  27.037  1.00  0.00     0.000 C 
BRANCH   9  10
ATOM     10  C   UNL     1       2.285  24.822  27.124  1.00  0.00     0.000 C 
BRANCH  10  11
ATOM     11  C   UNL     1       1.140  24.654  26.097  1.00  0.00     0.000 C 
BRANCH  11  12
ATOM     12  C   UNL     1       0.362  25.946  25.779  1.00  0.00     0.000 C 
BRANCH  12  13
ATOM     13  C   UNL     1       0.144  26.245  24.286  1.00  0.00     0.006 C 
BRANCH  13  14
ATOM     14  C   UNL     1       1.405  26.774  23.585  1.00  0.00     0.053 C 
BRANCH  14  15
ATOM     15  C   UNL     1       1.080  27.264  22.210  1.00  0.00     0.041 C 
ATOM     16  O   UNL     1       0.715  26.451  21.319  1.00  0.00    -0.550 OA
ATOM     17  O   UNL     1       1.197  28.615  21.903  1.00  0.00    -0.550 OA
ENDBRANCH  14  15
ENDBRANCH  13  14
ENDBRANCH  12  13
ENDBRANCH  11  12
ENDBRANCH  10  11
ENDBRANCH   9  10
ENDBRANCH   8   9
ENDBRANCH   7   8
ENDBRANCH   6   7
ENDBRANCH   5   6
ENDBRANCH   4   5
ENDBRANCH   3   4
ENDBRANCH   2   3
ENDBRANCH   1   2
BRANCH   1  18
ATOM     18  C   UNL     1       2.449  21.634  24.469  1.00  0.00     0.000 C 
BRANCH  18  19
ATOM     19  C   UNL     1       1.993  21.633  25.938  1.00  0.00     0.000 C 
BRANCH  19  20
ATOM     20  C   UNL     1       3.045  21.043  26.895  1.00  0.00     0.000 C 
BRANCH  20  21
ATOM     21  C   UNL     1       3.808  19.818  26.362  1.00  0.00     0.000 C 
BRANCH  21  22
ATOM     22  C   UNL     1       5.112  19.540  27.125  1.00  0.00     0.000 C 
BRANCH  22  23
ATOM     23  C   UNL     1       6.336  19.752  26.220  1.00  0.00     0.000 C 
BRANCH  23  24
ATOM     24  C   UNL     1       6.806  18.444  25.550  1.00  0.00    -0.000 C 
BRANCH  24  25
ATOM     25  C   UNL     1       7.110  17.311  26.545  1.00  0.00    -0.000 C 
BRANCH  25  26
ATOM     26  C   UNL     1       6.388  16.001  26.198  1.00  0.00    -0.000 C 
BRANCH  26  27
ATOM     27  C   UNL     1       5.139  15.810  27.068  1.00  0.00    -0.000 C 
BRANCH  27  28
ATOM     28  C   UNL     1       3.925  16.513  26.450  1.00  0.00    -0.000 C 
BRANCH  28  29
ATOM     29  C   UNL     1       3.811  16.202  24.950  1.00  0.00    -0.000 C 
BRANCH  29  30
ATOM     30  C   UNL     1       3.080  14.878  24.664  1.00  0.00    -0.000 C 
BRANCH  30  31
ATOM     31  C   UNL     1       1.930  14.552  25.632  1.00  0.00    -0.003 C 
ATOM     32  C   UNL     1       0.668  15.369  25.358  1.00  0.00     0.004 C 
ENDBRANCH  30  31
ENDBRANCH  29  30
ENDBRANCH  28  29
ENDBRANCH  27  28
ENDBRANCH  26  27
ENDBRANCH  25  26
ENDBRANCH  24  25
ENDBRANCH  23  24
ENDBRANCH  22  23
ENDBRANCH  21  22
ENDBRANCH  20  21
ENDBRANCH  19  20
ENDBRANCH  18  19
ENDBRANCH   1  18
TORSDOF 28
ENDMDL
MODEL 5
REMARK VINA RESULT:    -0.081      1.503      2.457
REMARK INTER + INTRA:          -1.033
REMARK INTER:                  -0.355
REMARK INTRA:                  -0.678
REMARK UNBOUND:                -0.820
REMARK SMILES CCCCCCCCCCCCCCCCCCCCCCCCCCCCCC(=O)[O-]
REMARK SMILES IDX 16 1 17 2 18 3 19 4 20 5 21 6 22 7 23 8 24 9 25 10 26 11
REMARK SMILES IDX 27 12 28 13 29 14 30 15 31 16 32 17 15 18 14 19 13 20 12 21
REMARK SMILES IDX 11 22 10 23 9 24 8 25 7 26 6 27 5 28 4 29 3 30 2 31 1 32
REMARK H PARENT
REMARK Flexibility Score: inf
ROOT
ATOM      1  C   UNL     1       4.148  24.349  25.236  1.00  0.00     0.000 C 
ENDROOT
BRANCH   1   2
ATOM      2  C   UNL     1       3.491  22.955  25.228  1.00  0.00     0.000 C 
BRANCH   2   3
ATOM      3  C   UNL     1       1.957  22.962  25.079  1.00  0.00     0.000 C 
BRANCH   3   4
ATOM      4  C   UNL     1       1.433  22.579  23.679  1.00  0.00     0.000 C 
BRANCH   4   5
ATOM      5  C   UNL     1       2.459  22.693  22.531  1.00  0.00     0.000 C 
BRANCH   5   6
ATOM      6  C   UNL     1       2.708  24.128  22.038  1.00  0.00     0.000 C 
BRANCH   6   7
ATOM      7  C   UNL     1       2.036  25.189  22.929  1.00  0.00     0.000 C 
BRANCH   7   8
ATOM      8  C   UNL     1       1.567  26.419  22.134  1.00  0.00     0.000 C 
BRANCH   8   9
ATOM      9  C   UNL     1       0.668  27.355  22.962  1.00  0.00     0.000 C 
BRANCH   9  10
ATOM     10  C   UNL     1       0.336  28.677  22.246  1.00  0.00     0.000 C 
BRANCH  10  11
ATOM     11  C   UNL     1       1.191  28.980  20.994  1.00  0.00     0.000 C 
BRANCH  11  12
ATOM     12  C   UNL     1       1.148  30.447  20.521  1.00  0.00     0.000 C 
BRANCH  12  13
ATOM     13  C   UNL     1       0.107  30.770  19.436  1.00  0.00     0.006 C 
BRANCH  13  14
ATOM     14  C   UNL     1      -1.178  31.397  19.998  1.00  0.00     0.053 C 
BRANCH  14  15
ATOM     15  C   UNL     1      -2.084  31.830  18.889  1.00  0.00     0.041 C 
ATOM     16  O   UNL     1      -1.642  32.554  17.957  1.00  0.00    -0.550 OA
ATOM     17  O   UNL     1      -3.422  31.452  18.892  1.00  0.00    -0.550 OA
ENDBRANCH  14  15
ENDBRANCH  13  14
ENDBRANCH  12  13
ENDBRANCH  11  12
ENDBRANCH  10  11
ENDBRANCH   9  10
ENDBRANCH   8   9
ENDBRANCH   7   8
ENDBRANCH   6   7
ENDBRANCH   5   6
ENDBRANCH   4   5
ENDBRANCH   3   4
ENDBRANCH   2   3
ENDBRANCH   1   2
BRANCH   1  18
ATOM     18  C   UNL     1       5.541  24.414  25.888  1.00  0.00     0.000 C 
BRANCH  18  19
ATOM     19  C   UNL     1       6.622  23.701  25.058  1.00  0.00     0.000 C 
BRANCH  19  20
ATOM     20  C   UNL     1       6.644  22.177  25.276  1.00  0.00     0.000 C 
BRANCH  20  21
ATOM     21  C   UNL     1       6.746  21.722  26.743  1.00  0.00     0.000 C 
BRANCH  21  22
ATOM     22  C   UNL     1       5.688  20.676  27.125  1.00  0.00     0.000 C 
BRANCH  22  23
ATOM     23  C   UNL     1       6.264  19.253  27.040  1.00  0.00     0.000 C 
BRANCH  23  24
ATOM     24  C   UNL     1       6.157  18.659  25.621  1.00  0.00    -0.000 C 
BRANCH  24  25
ATOM     25  C   UNL     1       7.122  17.489  25.362  1.00  0.00    -0.000 C 
BRANCH  25  26
ATOM     26  C   UNL     1       6.879  16.295  26.295  1.00  0.00    -0.000 C 
BRANCH  26  27
ATOM     27  C   UNL     1       5.430  15.800  26.197  1.00  0.00    -0.000 C 
BRANCH  27  28
ATOM     28  C   UNL     1       5.348  14.490  25.405  1.00  0.00    -0.000 C 
BRANCH  28  29
ATOM     29  C   UNL     1       5.624  14.728  23.913  1.00  0.00    -0.000 C 
BRANCH  29  30
ATOM     30  C   UNL     1       4.386  14.495  23.028  1.00  0.00    -0.000 C 
BRANCH  30  31
ATOM     31  C   UNL     1       3.316  15.597  23.111  1.00  0.00    -0.003 C 
ATOM     32  C   UNL     1       3.850  16.906  23.691  1.00  0.00     0.004 C 
ENDBRANCH  30  31
ENDBRANCH  29  30
ENDBRANCH  28  29
ENDBRANCH  27  28
ENDBRANCH  26  27
ENDBRANCH  25  26
ENDBRANCH  24  25
ENDBRANCH  23  24
ENDBRANCH  22  23
ENDBRANCH  21  22
ENDBRANCH  20  21
ENDBRANCH  19  20
ENDBRANCH  18  19
ENDBRANCH   1  18
TORSDOF 28
ENDMDL
MODEL 6
REMARK VINA RESULT:     0.060      3.876      6.173
REMARK INTER + INTRA:          -0.662
REMARK INTER:                   1.832
REMARK INTRA:                  -2.493
REMARK UNBOUND:                -0.820
REMARK SMILES CCCCCCCCCCCCCCCCCCCCCCCCCCCCCC(=O)[O-]
REMARK SMILES IDX 16 1 17 2 18 3 19 4 20 5 21 6 22 7 23 8 24 9 25 10 26 11
REMARK SMILES IDX 27 12 28 13 29 14 30 15 31 16 32 17 15 18 14 19 13 20 12 21
REMARK SMILES IDX 11 22 10 23 9 24 8 25 7 26 6 27 5 28 4 29 3 30 2 31 1 32
REMARK H PARENT
REMARK Flexibility Score: inf
ROOT
ATOM      1  C   UNL     1       0.746  22.545  24.662  1.00  0.00     0.000 C 
ENDROOT
BRANCH   1   2
ATOM      2  C   UNL     1       0.663  22.215  26.165  1.00  0.00     0.000 C 
BRANCH   2   3
ATOM      3  C   UNL     1       1.794  22.815  27.025  1.00  0.00     0.000 C 
BRANCH   3   4
ATOM      4  C   UNL     1       1.831  24.357  27.076  1.00  0.00     0.000 C 
BRANCH   4   5
ATOM      5  C   UNL     1       0.464  25.059  26.925  1.00  0.00     0.000 C 
BRANCH   5   6
ATOM      6  C   UNL     1       0.385  26.057  25.758  1.00  0.00     0.000 C 
BRANCH   6   7
ATOM      7  C   UNL     1       0.902  25.467  24.433  1.00  0.00     0.000 C 
BRANCH   7   8
ATOM      8  C   UNL     1       1.051  26.528  23.331  1.00  0.00     0.000 C 
BRANCH   8   9
ATOM      9  C   UNL     1       2.120  26.154  22.287  1.00  0.00     0.000 C 
BRANCH   9  10
ATOM     10  C   UNL     1       2.140  24.653  21.942  1.00  0.00     0.000 C 
BRANCH  10  11
ATOM     11  C   UNL     1       3.520  23.966  22.074  1.00  0.00     0.000 C 
BRANCH  11  12
ATOM     12  C   UNL     1       4.146  24.038  23.481  1.00  0.00     0.000 C 
BRANCH  12  13
ATOM     13  C   UNL     1       5.275  25.067  23.659  1.00  0.00     0.006 C 
BRANCH  13  14
ATOM     14  C   UNL     1       6.354  24.615  24.656  1.00  0.00     0.053 C 
BRANCH  14  15
ATOM     15  C   UNL     1       6.035  25.096  26.035  1.00  0.00     0.041 C 
ATOM     16  O   UNL     1       5.221  24.459  26.755  1.00  0.00    -0.550 OA
ATOM     17  O   UNL     1       6.622  26.258  26.524  1.00  0.00    -0.550 OA
ENDBRANCH  14  15
ENDBRANCH  13  14
ENDBRANCH  12  13
ENDBRANCH  11  12
ENDBRANCH  10  11
ENDBRANCH   9  10
ENDBRANCH   8   9
ENDBRANCH   7   8
ENDBRANCH   6   7
ENDBRANCH   5   6
ENDBRANCH   4   5
ENDBRANCH   3   4
ENDBRANCH   2   3
ENDBRANCH   1   2
BRANCH   1  18
ATOM     18  C   UNL     1       1.803  21.750  23.875  1.00  0.00     0.000 C 
BRANCH  18  19
ATOM     19  C   UNL     1       1.230  21.077  22.616  1.00  0.00     0.000 C 
BRANCH  19  20
ATOM     20  C   UNL     1       1.992  19.802  22.213  1.00  0.00     0.000 C 
BRANCH  20  21
ATOM     21  C   UNL     1       2.562  18.978  23.381  1.00  0.00     0.000 C 
BRANCH  21  22
ATOM     22  C   UNL     1       3.194  17.651  22.932  1.00  0.00     0.000 C 
BRANCH  22  23
ATOM     23  C   UNL     1       2.209  16.484  23.110  1.00  0.00     0.000 C 
BRANCH  23  24
ATOM     24  C   UNL     1       2.879  15.236  23.718  1.00  0.00    -0.000 C 
BRANCH  24  25
ATOM     25  C   UNL     1       2.160  14.689  24.964  1.00  0.00    -0.000 C 
BRANCH  25  26
ATOM     26  C   UNL     1       2.389  15.551  26.213  1.00  0.00    -0.000 C 
BRANCH  26  27
ATOM     27  C   UNL     1       3.843  16.032  26.297  1.00  0.00    -0.000 C 
BRANCH  27  28
ATOM     28  C   UNL     1       4.797  14.861  26.557  1.00  0.00    -0.000 C 
BRANCH  28  29
ATOM     29  C   UNL     1       6.259  15.284  26.350  1.00  0.00    -0.000 C 
BRANCH  29  30
ATOM     30  C   UNL     1       7.038  14.323  25.433  1.00  0.00    -0.000 C 
BRANCH  30  31
ATOM     31  C   UNL     1       6.280  13.877  24.172  1.00  0.00    -0.003 C 
ATOM     32  C   UNL     1       6.412  14.865  23.013  1.00  0.00     0.004 C 
ENDBRANCH  30  31
ENDBRANCH  29  30
ENDBRANCH  28  29
ENDBRANCH  27  28
ENDBRANCH  26  27
ENDBRANCH  25  26
ENDBRANCH  24  25
ENDBRANCH  23  24
ENDBRANCH  22  23
ENDBRANCH  21  22
ENDBRANCH  20  21
ENDBRANCH  19  20
ENDBRANCH  18  19
ENDBRANCH   1  18
TORSDOF 28
ENDMDL
MODEL 7
REMARK VINA RESULT:     0.785      1.428      2.059
REMARK INTER + INTRA:           1.250
REMARK INTER:                   1.774
REMARK INTRA:                  -0.524
REMARK UNBOUND:                -0.820
REMARK SMILES CCCCCCCCCCCCCCCCCCCCCCCCCCCCCC(=O)[O-]
REMARK SMILES IDX 16 1 17 2 18 3 19 4 20 5 21 6 22 7 23 8 24 9 25 10 26 11
REMARK SMILES IDX 27 12 28 13 29 14 30 15 31 16 32 17 15 18 14 19 13 20 12 21
REMARK SMILES IDX 11 22 10 23 9 24 8 25 7 26 6 27 5 28 4 29 3 30 2 31 1 32
REMARK H PARENT
REMARK Flexibility Score: inf
ROOT
ATOM      1  C   UNL     1       1.949  22.208  24.651  1.00  0.00     0.000 C 
ENDROOT
BRANCH   1   2
ATOM      2  C   UNL     1       1.485  22.435  23.199  1.00  0.00     0.000 C 
BRANCH   2   3
ATOM      3  C   UNL     1       2.522  23.123  22.288  1.00  0.00     0.000 C 
BRANCH   3   4
ATOM      4  C   UNL     1       2.236  24.607  21.975  1.00  0.00     0.000 C 
BRANCH   4   5
ATOM      5  C   UNL     1       1.123  25.262  22.821  1.00  0.00     0.000 C 
BRANCH   5   6
ATOM      6  C   UNL     1       1.428  26.699  23.275  1.00  0.00     0.000 C 
BRANCH   6   7
ATOM      7  C   UNL     1       1.010  27.754  22.234  1.00  0.00     0.000 C 
BRANCH   7   8
ATOM      8  C   UNL     1       2.215  28.427  21.557  1.00  0.00     0.000 C 
BRANCH   8   9
ATOM      9  C   UNL     1       2.169  29.963  21.652  1.00  0.00     0.000 C 
BRANCH   9  10
ATOM     10  C   UNL     1       1.951  30.654  20.293  1.00  0.00     0.000 C 
BRANCH  10  11
ATOM     11  C   UNL     1       0.523  30.527  19.712  1.00  0.00     0.000 C 
BRANCH  11  12
ATOM     12  C   UNL     1      -0.323  29.389  20.318  1.00  0.00     0.000 C 
BRANCH  12  13
ATOM     13  C   UNL     1      -1.845  29.517  20.134  1.00  0.00     0.006 C 
BRANCH  13  14
ATOM     14  C   UNL     1      -2.370  30.935  20.405  1.00  0.00     0.053 C 
BRANCH  14  15
ATOM     15  C   UNL     1      -2.274  31.779  19.174  1.00  0.00     0.041 C 
ATOM     16  O   UNL     1      -2.799  31.389  18.097  1.00  0.00    -0.550 OA
ATOM     17  O   UNL     1      -1.589  32.988  19.207  1.00  0.00    -0.550 OA
ENDBRANCH  14  15
ENDBRANCH  13  14
ENDBRANCH  12  13
ENDBRANCH  11  12
ENDBRANCH  10  11
ENDBRANCH   9  10
ENDBRANCH   8   9
ENDBRANCH   7   8
ENDBRANCH   6   7
ENDBRANCH   5   6
ENDBRANCH   4   5
ENDBRANCH   3   4
ENDBRANCH   2   3
ENDBRANCH   1   2
BRANCH   1  18
ATOM     18  C   UNL     1       2.104  23.486  25.496  1.00  0.00     0.000 C 
BRANCH  18  19
ATOM     19  C   UNL     1       3.461  23.566  26.213  1.00  0.00     0.000 C 
BRANCH  19  20
ATOM     20  C   UNL     1       4.623  23.926  25.269  1.00  0.00     0.000 C 
BRANCH  20  21
ATOM     21  C   UNL     1       5.725  24.806  25.885  1.00  0.00     0.000 C 
BRANCH  21  22
ATOM     22  C   UNL     1       6.956  24.004  26.335  1.00  0.00     0.000 C 
BRANCH  22  23
ATOM     23  C   UNL     1       6.847  22.535  25.897  1.00  0.00     0.000 C 
BRANCH  23  24
ATOM     24  C   UNL     1       6.854  21.562  27.093  1.00  0.00    -0.000 C 
BRANCH  24  25
ATOM     25  C   UNL     1       5.706  20.538  27.069  1.00  0.00    -0.000 C 
BRANCH  25  26
ATOM     26  C   UNL     1       6.189  19.104  26.812  1.00  0.00    -0.000 C 
BRANCH  26  27
ATOM     27  C   UNL     1       5.008  18.159  26.556  1.00  0.00    -0.000 C 
BRANCH  27  28
ATOM     28  C   UNL     1       5.275  17.260  25.343  1.00  0.00    -0.000 C 
BRANCH  28  29
ATOM     29  C   UNL     1       4.826  15.816  25.616  1.00  0.00    -0.000 C 
BRANCH  29  30
ATOM     30  C   UNL     1       3.642  15.378  24.735  1.00  0.00    -0.000 C 
BRANCH  30  31
ATOM     31  C   UNL     1       2.553  14.576  25.468  1.00  0.00    -0.003 C 
ATOM     32  C   UNL     1       1.391  15.445  25.948  1.00  0.00     0.004 C 
ENDBRANCH  30  31
ENDBRANCH  29  30
ENDBRANCH  28  29
ENDBRANCH  27  28
ENDBRANCH  26  27
ENDBRANCH  25  26
ENDBRANCH  24  25
ENDBRANCH  23  24
ENDBRANCH  22  23
ENDBRANCH  21  22
ENDBRANCH  20  21
ENDBRANCH  19  20
ENDBRANCH  18  19
ENDBRANCH   1  18
TORSDOF 28
ENDMDL
MODEL 8
REMARK VINA RESULT:     1.008      1.844      4.279
REMARK INTER + INTRA:           1.838
REMARK INTER:                   2.628
REMARK INTRA:                  -0.790
REMARK UNBOUND:                -0.820
REMARK SMILES CCCCCCCCCCCCCCCCCCCCCCCCCCCCCC(=O)[O-]
REMARK SMILES IDX 16 1 17 2 18 3 19 4 20 5 21 6 22 7 23 8 24 9 25 10 26 11
REMARK SMILES IDX 27 12 28 13 29 14 30 15 31 16 32 17 15 18 14 19 13 20 12 21
REMARK SMILES IDX 11 22 10 23 9 24 8 25 7 26 6 27 5 28 4 29 3 30 2 31 1 32
REMARK H PARENT
REMARK Flexibility Score: inf
ROOT
ATOM      1  C   UNL     1       1.872  23.313  22.866  1.00  0.00     0.000 C 
ENDROOT
BRANCH   1   2
ATOM      2  C   UNL     1       3.181  23.898  22.302  1.00  0.00     0.000 C 
BRANCH   2   3
ATOM      3  C   UNL     1       3.943  24.831  23.264  1.00  0.00     0.000 C 
BRANCH   3   4
ATOM      4  C   UNL     1       4.931  24.125  24.217  1.00  0.00     0.000 C 
BRANCH   4   5
ATOM      5  C   UNL     1       5.220  24.864  25.542  1.00  0.00     0.000 C 
BRANCH   5   6
ATOM      6  C   UNL     1       5.241  23.960  26.786  1.00  0.00     0.000 C 
BRANCH   6   7
ATOM      7  C   UNL     1       3.854  23.382  27.125  1.00  0.00     0.000 C 
BRANCH   7   8
ATOM      8  C   UNL     1       2.735  24.432  27.026  1.00  0.00     0.000 C 
BRANCH   8   9
ATOM      9  C   UNL     1       1.495  23.909  26.278  1.00  0.00     0.000 C 
BRANCH   9  10
ATOM     10  C   UNL     1       0.187  24.602  26.704  1.00  0.00     0.000 C 
BRANCH  10  11
ATOM     11  C   UNL     1      -0.284  25.746  25.776  1.00  0.00     0.000 C 
BRANCH  11  12
ATOM     12  C   UNL     1       0.845  26.642  25.231  1.00  0.00     0.000 C 
BRANCH  12  13
ATOM     13  C   UNL     1       0.926  26.759  23.699  1.00  0.00     0.006 C 
BRANCH  13  14
ATOM     14  C   UNL     1      -0.044  27.800  23.120  1.00  0.00     0.053 C 
BRANCH  14  15
ATOM     15  C   UNL     1       0.464  28.330  21.817  1.00  0.00     0.041 C 
ATOM     16  O   UNL     1      -0.338  28.566  20.874  1.00  0.00    -0.550 OA
ATOM     17  O   UNL     1       1.825  28.548  21.634  1.00  0.00    -0.550 OA
ENDBRANCH  14  15
ENDBRANCH  13  14
ENDBRANCH  12  13
ENDBRANCH  11  12
ENDBRANCH  10  11
ENDBRANCH   9  10
ENDBRANCH   8   9
ENDBRANCH   7   8
ENDBRANCH   6   7
ENDBRANCH   5   6
ENDBRANCH   4   5
ENDBRANCH   3   4
ENDBRANCH   2   3
ENDBRANCH   1   2
BRANCH   1  18
ATOM     18  C   UNL     1       1.928  21.820  23.238  1.00  0.00     0.000 C 
BRANCH  18  19
ATOM     19  C   UNL     1       1.741  21.572  24.744  1.00  0.00     0.000 C 
BRANCH  19  20
ATOM     20  C   UNL     1       3.070  21.354  25.490  1.00  0.00     0.000 C 
BRANCH  20  21
ATOM     21  C   UNL     1       3.334  19.913  25.960  1.00  0.00     0.000 C 
BRANCH  21  22
ATOM     22  C   UNL     1       4.336  19.831  27.122  1.00  0.00     0.000 C 
BRANCH  22  23
ATOM     23  C   UNL     1       5.580  19.022  26.721  1.00  0.00     0.000 C 
BRANCH  23  24
ATOM     24  C   UNL     1       5.252  17.542  26.437  1.00  0.00    -0.000 C 
BRANCH  24  25
ATOM     25  C   UNL     1       3.774  17.179  26.659  1.00  0.00    -0.000 C 
BRANCH  25  26
ATOM     26  C   UNL     1       3.488  15.684  26.457  1.00  0.00    -0.000 C 
BRANCH  26  27
ATOM     27  C   UNL     1       2.435  15.464  25.364  1.00  0.00    -0.000 C 
BRANCH  27  28
ATOM     28  C   UNL     1       3.068  14.874  24.098  1.00  0.00    -0.000 C 
BRANCH  28  29
ATOM     29  C   UNL     1       4.407  15.557  23.782  1.00  0.00    -0.000 C 
BRANCH  29  30
ATOM     30  C   UNL     1       5.313  14.709  22.871  1.00  0.00    -0.000 C 
BRANCH  30  31
ATOM     31  C   UNL     1       6.689  14.366  23.467  1.00  0.00    -0.003 C 
ATOM     32  C   UNL     1       6.706  14.407  24.994  1.00  0.00     0.004 C 
ENDBRANCH  30  31
ENDBRANCH  29  30
ENDBRANCH  28  29
ENDBRANCH  27  28
ENDBRANCH  26  27
ENDBRANCH  25  26
ENDBRANCH  24  25
ENDBRANCH  23  24
ENDBRANCH  22  23
ENDBRANCH  21  22
ENDBRANCH  20  21
ENDBRANCH  19  20
ENDBRANCH  18  19
ENDBRANCH   1  18
TORSDOF 28
ENDMDL
