MODEL 1
REMARK VINA RESULT:    -5.188      0.000      0.000
REMARK INTER + INTRA:         -13.978
REMARK INTER:                 -11.254
REMARK INTRA:                  -2.724
REMARK UNBOUND:                -2.724
REMARK SMILES CCCCCCCCCCCCCCCCCCCCCC(=O)[O-]
REMARK SMILES IDX 12 1 11 2 10 3 9 4 8 5 7 6 6 7 5 8 4 9 3 10 2 11 1 12 13 13
REMARK SMILES IDX 14 14 15 15 16 16 17 17 18 18 19 19 20 20 21 21 22 22 23 23
REMARK SMILES IDX 24 24
REMARK H PARENT
REMARK Flexibility Score: inf
ROOT
ATOM      1  C   UNL     1     -18.105 -26.327  13.567  1.00  0.00     0.000 C 
ENDROOT
BRANCH   1   2
ATOM      2  C   UNL     1     -17.982 -27.836  13.839  1.00  0.00     0.000 C 
BRANCH   2   3
ATOM      3  C   UNL     1     -18.710 -28.690  12.790  1.00  0.00     0.000 C 
BRANCH   3   4
ATOM      4  C   UNL     1     -20.231 -28.589  12.962  1.00  0.00    -0.000 C 
BRANCH   4   5
ATOM      5  C   UNL     1     -20.932 -29.831  12.392  1.00  0.00    -0.000 C 
BRANCH   5   6
ATOM      6  C   UNL     1     -21.017 -30.985  13.403  1.00  0.00    -0.000 C 
BRANCH   6   7
ATOM      7  C   UNL     1     -22.349 -31.000  14.172  1.00  0.00    -0.000 C 
BRANCH   7   8
ATOM      8  C   UNL     1     -22.160 -31.154  15.691  1.00  0.00    -0.000 C 
BRANCH   8   9
ATOM      9  C   UNL     1     -22.235 -29.840  16.495  1.00  0.00    -0.000 C 
BRANCH   9  10
ATOM     10  C   UNL     1     -20.856 -29.223  16.809  1.00  0.00    -0.000 C 
BRANCH  10  11
ATOM     11  C   UNL     1     -20.753 -27.764  16.342  1.00  0.00    -0.003 C 
ATOM     12  C   UNL     1     -22.115 -27.225  15.912  1.00  0.00     0.004 C 
ENDBRANCH  10  11
ENDBRANCH   9  10
ENDBRANCH   8   9
ENDBRANCH   7   8
ENDBRANCH   6   7
ENDBRANCH   5   6
ENDBRANCH   4   5
ENDBRANCH   3   4
ENDBRANCH   2   3
ENDBRANCH   1   2
BRANCH   1  13
ATOM     13  C   UNL     1     -18.266 -25.508  14.858  1.00  0.00     0.000 C 
BRANCH  13  14
ATOM     14  C   UNL     1     -19.294 -24.369  14.725  1.00  0.00     0.000 C 
BRANCH  14  15
ATOM     15  C   UNL     1     -20.425 -24.615  13.708  1.00  0.00     0.000 C 
BRANCH  15  16
ATOM     16  C   UNL     1     -20.712 -23.392  12.822  1.00  0.00     0.000 C 
BRANCH  16  17
ATOM     17  C   UNL     1     -19.458 -22.873  12.094  1.00  0.00     0.000 C 
BRANCH  17  18
ATOM     18  C   UNL     1     -19.410 -21.348  11.869  1.00  0.00     0.000 C 
BRANCH  18  19
ATOM     19  C   UNL     1     -19.303 -20.907  10.399  1.00  0.00     0.000 C 
BRANCH  19  20
ATOM     20  C   UNL     1     -19.833 -21.966   9.417  1.00  0.00     0.006 C 
BRANCH  20  21
ATOM     21  C   UNL     1     -21.041 -21.461   8.618  1.00  0.00     0.053 C 
BRANCH  21  22
ATOM     22  C   UNL     1     -22.251 -22.318   8.840  1.00  0.00     0.041 C 
ATOM     23  O   UNL     1     -23.355 -22.005   8.320  1.00  0.00    -0.550 OA
ATOM     24  O   UNL     1     -22.167 -23.447   9.645  1.00  0.00    -0.550 OA
ENDBRANCH  21  22
ENDBRANCH  20  21
ENDBRANCH  19  20
ENDBRANCH  18  19
ENDBRANCH  17  18
ENDBRANCH  16  17
ENDBRANCH  15  16
ENDBRANCH  14  15
ENDBRANCH  13  14
ENDBRANCH   1  13
TORSDOF 20
ENDMDL
MODEL 2
REMARK VINA RESULT:    -5.174      3.265      7.898
REMARK INTER + INTRA:         -13.948
REMARK INTER:                 -11.414
REMARK INTRA:                  -2.534
REMARK UNBOUND:                -2.724
REMARK SMILES CCCCCCCCCCCCCCCCCCCCCC(=O)[O-]
REMARK SMILES IDX 12 1 11 2 10 3 9 4 8 5 7 6 6 7 5 8 4 9 3 10 2 11 1 12 13 13
REMARK SMILES IDX 14 14 15 15 16 16 17 17 18 18 19 19 20 20 21 21 22 22 23 23
REMARK SMILES IDX 24 24
REMARK H PARENT
REMARK Flexibility Score: inf
ROOT
ATOM      1  C   UNL     1     -23.250 -27.435  17.292  1.00  0.00     0.000 C 
ENDROOT
BRANCH   1   2
ATOM      2  C   UNL     1     -22.339 -26.434  16.562  1.00  0.00     0.000 C 
BRANCH   2   3
ATOM      3  C   UNL     1     -23.054 -25.708  15.412  1.00  0.00     0.000 C 
BRANCH   3   4
ATOM      4  C   UNL     1     -22.044 -25.010  14.494  1.00  0.00    -0.000 C 
BRANCH   4   5
ATOM      5  C   UNL     1     -20.669 -24.902  15.170  1.00  0.00    -0.000 C 
BRANCH   5   6
ATOM      6  C   UNL     1     -19.627 -24.194  14.291  1.00  0.00    -0.000 C 
BRANCH   6   7
ATOM      7  C   UNL     1     -20.258 -23.170  13.333  1.00  0.00    -0.000 C 
BRANCH   7   8
ATOM      8  C   UNL     1     -19.360 -22.848  12.126  1.00  0.00    -0.000 C 
BRANCH   8   9
ATOM      9  C   UNL     1     -19.257 -21.350  11.771  1.00  0.00    -0.000 C 
BRANCH   9  10
ATOM     10  C   UNL     1     -19.303 -21.067  10.254  1.00  0.00    -0.000 C 
BRANCH  10  11
ATOM     11  C   UNL     1     -19.871 -22.253   9.460  1.00  0.00    -0.003 C 
ATOM     12  C   UNL     1     -20.987 -21.804   8.522  1.00  0.00     0.004 C 
ENDBRANCH  10  11
ENDBRANCH   9  10
ENDBRANCH   8   9
ENDBRANCH   7   8
ENDBRANCH   6   7
ENDBRANCH   5   6
ENDBRANCH   4   5
ENDBRANCH   3   4
ENDBRANCH   2   3
ENDBRANCH   1   2
BRANCH   1  13
ATOM     13  C   UNL     1     -22.537 -28.760  17.604  1.00  0.00     0.000 C 
BRANCH  13  14
ATOM     14  C   UNL     1     -21.406 -29.086  16.611  1.00  0.00     0.000 C 
BRANCH  14  15
ATOM     15  C   UNL     1     -21.802 -29.999  15.435  1.00  0.00     0.000 C 
BRANCH  15  16
ATOM     16  C   UNL     1     -21.087 -29.635  14.124  1.00  0.00     0.000 C 
BRANCH  16  17
ATOM     17  C   UNL     1     -20.371 -28.273  14.191  1.00  0.00     0.000 C 
BRANCH  17  18
ATOM     18  C   UNL     1     -19.805 -27.758  12.852  1.00  0.00     0.000 C 
BRANCH  18  19
ATOM     19  C   UNL     1     -18.270 -27.782  12.739  1.00  0.00     0.000 C 
BRANCH  19  20
ATOM     20  C   UNL     1     -17.572 -27.857  14.109  1.00  0.00     0.006 C 
BRANCH  20  21
ATOM     21  C   UNL     1     -16.960 -26.512  14.521  1.00  0.00     0.053 C 
BRANCH  21  22
ATOM     22  C   UNL     1     -16.149 -26.633  15.775  1.00  0.00     0.041 C 
ATOM     23  O   UNL     1     -15.995 -27.756  16.326  1.00  0.00    -0.550 OA
ATOM     24  O   UNL     1     -15.588 -25.502  16.353  1.00  0.00    -0.550 OA
ENDBRANCH  21  22
ENDBRANCH  20  21
ENDBRANCH  19  20
ENDBRANCH  18  19
ENDBRANCH  17  18
ENDBRANCH  16  17
ENDBRANCH  15  16
ENDBRANCH  14  15
ENDBRANCH  13  14
ENDBRANCH   1  13
TORSDOF 20
ENDMDL
MODEL 3
REMARK VINA RESULT:    -5.095      4.054      6.237
REMARK INTER + INTRA:         -13.775
REMARK INTER:                 -10.698
REMARK INTRA:                  -3.077
REMARK UNBOUND:                -2.724
REMARK SMILES CCCCCCCCCCCCCCCCCCCCCC(=O)[O-]
REMARK SMILES IDX 12 1 11 2 10 3 9 4 8 5 7 6 6 7 5 8 4 9 3 10 2 11 1 12 13 13
REMARK SMILES IDX 14 14 15 15 16 16 17 17 18 18 19 19 20 20 21 21 22 22 23 23
REMARK SMILES IDX 24 24
REMARK H PARENT
REMARK Flexibility Score: inf
ROOT
ATOM      1  C   UNL     1     -20.924 -26.599  14.722  1.00  0.00     0.000 C 
ENDROOT
BRANCH   1   2
ATOM      2  C   UNL     1     -20.380 -27.369  15.937  1.00  0.00     0.000 C 
BRANCH   2   3
ATOM      3  C   UNL     1     -21.151 -28.670  16.209  1.00  0.00     0.000 C 
BRANCH   3   4
ATOM      4  C   UNL     1     -21.736 -28.673  17.627  1.00  0.00    -0.000 C 
BRANCH   4   5
ATOM      5  C   UNL     1     -23.235 -28.340  17.605  1.00  0.00    -0.000 C 
BRANCH   5   6
ATOM      6  C   UNL     1     -23.574 -27.059  18.382  1.00  0.00    -0.000 C 
BRANCH   6   7
ATOM      7  C   UNL     1     -23.479 -25.796  17.509  1.00  0.00    -0.000 C 
BRANCH   7   8
ATOM      8  C   UNL     1     -24.133 -25.974  16.128  1.00  0.00    -0.000 C 
BRANCH   8   9
ATOM      9  C   UNL     1     -24.687 -24.680  15.498  1.00  0.00    -0.000 C 
BRANCH   9  10
ATOM     10  C   UNL     1     -26.137 -24.356  15.918  1.00  0.00    -0.000 C 
BRANCH  10  11
ATOM     11  C   UNL     1     -26.992 -25.622  16.075  1.00  0.00    -0.003 C 
ATOM     12  C   UNL     1     -28.007 -25.746  14.942  1.00  0.00     0.004 C 
ENDBRANCH  10  11
ENDBRANCH   9  10
ENDBRANCH   8   9
ENDBRANCH   7   8
ENDBRANCH   6   7
ENDBRANCH   5   6
ENDBRANCH   4   5
ENDBRANCH   3   4
ENDBRANCH   2   3
ENDBRANCH   1   2
BRANCH   1  13
ATOM     13  C   UNL     1     -20.729 -25.080  14.854  1.00  0.00     0.000 C 
BRANCH  13  14
ATOM     14  C   UNL     1     -21.528 -24.277  13.811  1.00  0.00     0.000 C 
BRANCH  14  15
ATOM     15  C   UNL     1     -20.731 -23.191  13.061  1.00  0.00     0.000 C 
BRANCH  15  16
ATOM     16  C   UNL     1     -19.210 -23.388  13.161  1.00  0.00     0.000 C 
BRANCH  16  17
ATOM     17  C   UNL     1     -18.604 -24.024  11.896  1.00  0.00     0.000 C 
BRANCH  17  18
ATOM     18  C   UNL     1     -17.491 -25.062  12.148  1.00  0.00     0.000 C 
BRANCH  18  19
ATOM     19  C   UNL     1     -17.969 -26.408  12.718  1.00  0.00     0.000 C 
BRANCH  19  20
ATOM     20  C   UNL     1     -17.141 -26.872  13.929  1.00  0.00     0.006 C 
BRANCH  20  21
ATOM     21  C   UNL     1     -17.001 -25.773  14.990  1.00  0.00     0.053 C 
BRANCH  21  22
ATOM     22  C   UNL     1     -16.047 -26.168  16.076  1.00  0.00     0.041 C 
ATOM     23  O   UNL     1     -15.439 -25.286  16.739  1.00  0.00    -0.550 OA
ATOM     24  O   UNL     1     -15.807 -27.511  16.338  1.00  0.00    -0.550 OA
ENDBRANCH  21  22
ENDBRANCH  20  21
ENDBRANCH  19  20
ENDBRANCH  18  19
ENDBRANCH  17  18
ENDBRANCH  16  17
ENDBRANCH  15  16
ENDBRANCH  14  15
ENDBRANCH  13  14
ENDBRANCH   1  13
TORSDOF 20
ENDMDL
MODEL 4
REMARK VINA RESULT:    -5.041      4.855      7.944
REMARK INTER + INTRA:         -13.660
REMARK INTER:                 -11.422
REMARK INTRA:                  -2.238
REMARK UNBOUND:                -2.724
REMARK SMILES CCCCCCCCCCCCCCCCCCCCCC(=O)[O-]
REMARK SMILES IDX 12 1 11 2 10 3 9 4 8 5 7 6 6 7 5 8 4 9 3 10 2 11 1 12 13 13
REMARK SMILES IDX 14 14 15 15 16 16 17 17 18 18 19 19 20 20 21 21 22 22 23 23
REMARK SMILES IDX 24 24
REMARK H PARENT
REMARK Flexibility Score: inf
ROOT
ATOM      1  C   UNL     1     -21.715 -29.090  17.354  1.00  0.00     0.000 C 
ENDROOT
BRANCH   1   2
ATOM      2  C   UNL     1     -21.146 -28.762  15.964  1.00  0.00     0.000 C 
BRANCH   2   3
ATOM      3  C   UNL     1     -21.578 -27.377  15.457  1.00  0.00     0.000 C 
BRANCH   3   4
ATOM      4  C   UNL     1     -20.746 -26.269  16.115  1.00  0.00    -0.000 C 
BRANCH   4   5
ATOM      5  C   UNL     1     -20.296 -25.230  15.077  1.00  0.00    -0.000 C 
BRANCH   5   6
ATOM      6  C   UNL     1     -21.447 -24.744  14.183  1.00  0.00    -0.000 C 
BRANCH   6   7
ATOM      7  C   UNL     1     -21.044 -23.553  13.296  1.00  0.00    -0.000 C 
BRANCH   7   8
ATOM      8  C   UNL     1     -19.544 -23.221  13.389  1.00  0.00    -0.000 C 
BRANCH   8   9
ATOM      9  C   UNL     1     -18.773 -23.310  12.056  1.00  0.00    -0.000 C 
BRANCH   9  10
ATOM     10  C   UNL     1     -18.855 -24.696  11.382  1.00  0.00    -0.000 C 
BRANCH  10  11
ATOM     11  C   UNL     1     -18.038 -25.756  12.136  1.00  0.00    -0.003 C 
ATOM     12  C   UNL     1     -16.671 -25.211  12.542  1.00  0.00     0.004 C 
ENDBRANCH  10  11
ENDBRANCH   9  10
ENDBRANCH   8   9
ENDBRANCH   7   8
ENDBRANCH   6   7
ENDBRANCH   5   6
ENDBRANCH   4   5
ENDBRANCH   3   4
ENDBRANCH   2   3
ENDBRANCH   1   2
BRANCH   1  13
ATOM     13  C   UNL     1     -23.129 -28.523  17.559  1.00  0.00     0.000 C 
BRANCH  13  14
ATOM     14  C   UNL     1     -23.227 -27.563  18.759  1.00  0.00     0.000 C 
BRANCH  14  15
ATOM     15  C   UNL     1     -23.830 -26.179  18.451  1.00  0.00     0.000 C 
BRANCH  15  16
ATOM     16  C   UNL     1     -24.825 -26.205  17.279  1.00  0.00     0.000 C 
BRANCH  16  17
ATOM     17  C   UNL     1     -24.427 -25.255  16.134  1.00  0.00     0.000 C 
BRANCH  17  18
ATOM     18  C   UNL     1     -25.572 -24.854  15.182  1.00  0.00     0.000 C 
BRANCH  18  19
ATOM     19  C   UNL     1     -26.525 -23.774  15.723  1.00  0.00     0.000 C 
BRANCH  19  20
ATOM     20  C   UNL     1     -27.900 -24.336  16.124  1.00  0.00     0.006 C 
BRANCH  20  21
ATOM     21  C   UNL     1     -28.885 -23.229  16.520  1.00  0.00     0.053 C 
BRANCH  21  22
ATOM     22  C   UNL     1     -29.526 -23.505  17.847  1.00  0.00     0.041 C 
ATOM     23  O   UNL     1     -29.396 -24.634  18.391  1.00  0.00    -0.550 OA
ATOM     24  O   UNL     1     -30.290 -22.526  18.469  1.00  0.00    -0.550 OA
ENDBRANCH  21  22
ENDBRANCH  20  21
ENDBRANCH  19  20
ENDBRANCH  18  19
ENDBRANCH  17  18
ENDBRANCH  16  17
ENDBRANCH  15  16
ENDBRANCH  14  15
ENDBRANCH  13  14
ENDBRANCH   1  13
TORSDOF 20
ENDMDL
MODEL 5
REMARK VINA RESULT:    -5.003      7.116     10.252
REMARK INTER + INTRA:         -13.577
REMARK INTER:                  -9.753
REMARK INTRA:                  -3.823
REMARK UNBOUND:                -2.724
REMARK SMILES CCCCCCCCCCCCCCCCCCCCCC(=O)[O-]
REMARK SMILES IDX 12 1 11 2 10 3 9 4 8 5 7 6 6 7 5 8 4 9 3 10 2 11 1 12 13 13
REMARK SMILES IDX 14 14 15 15 16 16 17 17 18 18 19 19 20 20 21 21 22 22 23 23
REMARK SMILES IDX 24 24
REMARK H PARENT
REMARK Flexibility Score: inf
ROOT
ATOM      1  C   UNL     1     -22.233 -28.920   8.182  1.00  0.00     0.000 C 
ENDROOT
BRANCH   1   2
ATOM      2  C   UNL     1     -22.971 -30.262   8.051  1.00  0.00     0.000 C 
BRANCH   2   3
ATOM      3  C   UNL     1     -22.230 -31.262   7.150  1.00  0.00     0.000 C 
BRANCH   3   4
ATOM      4  C   UNL     1     -23.135 -31.742   6.008  1.00  0.00    -0.000 C 
BRANCH   4   5
ATOM      5  C   UNL     1     -22.491 -31.463   4.642  1.00  0.00    -0.000 C 
BRANCH   5   6
ATOM      6  C   UNL     1     -21.210 -30.620   4.748  1.00  0.00    -0.000 C 
BRANCH   6   7
ATOM      7  C   UNL     1     -21.069 -29.612   3.594  1.00  0.00    -0.000 C 
BRANCH   7   8
ATOM      8  C   UNL     1     -22.407 -29.315   2.894  1.00  0.00    -0.000 C 
BRANCH   8   9
ATOM      9  C   UNL     1     -22.444 -27.998   2.092  1.00  0.00    -0.000 C 
BRANCH   9  10
ATOM     10  C   UNL     1     -21.912 -26.778   2.875  1.00  0.00    -0.000 C 
BRANCH  10  11
ATOM     11  C   UNL     1     -22.715 -25.503   2.576  1.00  0.00    -0.003 C 
ATOM     12  C   UNL     1     -22.274 -24.870   1.259  1.00  0.00     0.004 C 
ENDBRANCH  10  11
ENDBRANCH   9  10
ENDBRANCH   8   9
ENDBRANCH   7   8
ENDBRANCH   6   7
ENDBRANCH   5   6
ENDBRANCH   4   5
ENDBRANCH   3   4
ENDBRANCH   2   3
ENDBRANCH   1   2
BRANCH   1  13
ATOM     13  C   UNL     1     -23.060 -27.739   7.647  1.00  0.00     0.000 C 
BRANCH  13  14
ATOM     14  C   UNL     1     -23.176 -27.731   6.112  1.00  0.00     0.000 C 
BRANCH  14  15
ATOM     15  C   UNL     1     -24.601 -27.536   5.558  1.00  0.00     0.000 C 
BRANCH  15  16
ATOM     16  C   UNL     1     -25.252 -28.852   5.100  1.00  0.00     0.000 C 
BRANCH  16  17
ATOM     17  C   UNL     1     -26.012 -29.569   6.231  1.00  0.00     0.000 C 
BRANCH  17  18
ATOM     18  C   UNL     1     -27.306 -28.873   6.701  1.00  0.00     0.000 C 
BRANCH  18  19
ATOM     19  C   UNL     1     -27.550 -28.905   8.220  1.00  0.00     0.000 C 
BRANCH  19  20
ATOM     20  C   UNL     1     -26.420 -28.235   9.021  1.00  0.00     0.006 C 
BRANCH  20  21
ATOM     21  C   UNL     1     -26.344 -26.725   8.762  1.00  0.00     0.053 C 
BRANCH  21  22
ATOM     22  C   UNL     1     -27.008 -25.941   9.853  1.00  0.00     0.041 C 
ATOM     23  O   UNL     1     -26.341 -25.541  10.844  1.00  0.00    -0.550 OA
ATOM     24  O   UNL     1     -28.371 -25.678   9.791  1.00  0.00    -0.550 OA
ENDBRANCH  21  22
ENDBRANCH  20  21
ENDBRANCH  19  20
ENDBRANCH  18  19
ENDBRANCH  17  18
ENDBRANCH  16  17
ENDBRANCH  15  16
ENDBRANCH  14  15
ENDBRANCH  13  14
ENDBRANCH   1  13
TORSDOF 20
ENDMDL
MODEL 6
REMARK VINA RESULT:    -4.974      7.953     11.021
REMARK INTER + INTRA:         -13.513
REMARK INTER:                 -10.284
REMARK INTRA:                  -3.228
REMARK UNBOUND:                -2.724
REMARK SMILES CCCCCCCCCCCCCCCCCCCCCC(=O)[O-]
REMARK SMILES IDX 12 1 11 2 10 3 9 4 8 5 7 6 6 7 5 8 4 9 3 10 2 11 1 12 13 13
REMARK SMILES IDX 14 14 15 15 16 16 17 17 18 18 19 19 20 20 21 21 22 22 23 23
REMARK SMILES IDX 24 24
REMARK H PARENT
REMARK Flexibility Score: inf
ROOT
ATOM      1  C   UNL     1     -22.137 -25.205   2.330  1.00  0.00     0.000 C 
ENDROOT
BRANCH   1   2
ATOM      2  C   UNL     1     -22.317 -25.492   0.830  1.00  0.00     0.000 C 
BRANCH   2   3
ATOM      3  C   UNL     1     -21.320 -26.535   0.301  1.00  0.00     0.000 C 
BRANCH   3   4
ATOM      4  C   UNL     1     -19.886 -26.177   0.710  1.00  0.00    -0.000 C 
BRANCH   4   5
ATOM      5  C   UNL     1     -19.293 -27.249   1.635  1.00  0.00    -0.000 C 
BRANCH   5   6
ATOM      6  C   UNL     1     -20.222 -28.459   1.817  1.00  0.00    -0.000 C 
BRANCH   6   7
ATOM      7  C   UNL     1     -20.065 -29.123   3.196  1.00  0.00    -0.000 C 
BRANCH   7   8
ATOM      8  C   UNL     1     -20.717 -30.515   3.266  1.00  0.00    -0.000 C 
BRANCH   8   9
ATOM      9  C   UNL     1     -21.103 -30.983   4.684  1.00  0.00    -0.000 C 
BRANCH   9  10
ATOM     10  C   UNL     1     -21.086 -29.855   5.737  1.00  0.00    -0.000 C 
BRANCH  10  11
ATOM     11  C   UNL     1     -22.217 -30.004   6.765  1.00  0.00    -0.003 C 
ATOM     12  C   UNL     1     -22.959 -31.325   6.581  1.00  0.00     0.004 C 
ENDBRANCH  10  11
ENDBRANCH   9  10
ENDBRANCH   8   9
ENDBRANCH   7   8
ENDBRANCH   6   7
ENDBRANCH   5   6
ENDBRANCH   4   5
ENDBRANCH   3   4
ENDBRANCH   2   3
ENDBRANCH   1   2
BRANCH   1  13
ATOM     13  C   UNL     1     -23.366 -25.613   3.159  1.00  0.00     0.000 C 
BRANCH  13  14
ATOM     14  C   UNL     1     -23.169 -26.937   3.918  1.00  0.00     0.000 C 
BRANCH  14  15
ATOM     15  C   UNL     1     -23.566 -28.209   3.143  1.00  0.00     0.000 C 
BRANCH  15  16
ATOM     16  C   UNL     1     -24.441 -29.166   3.968  1.00  0.00     0.000 C 
BRANCH  16  17
ATOM     17  C   UNL     1     -25.117 -28.476   5.167  1.00  0.00     0.000 C 
BRANCH  17  18
ATOM     18  C   UNL     1     -26.567 -28.919   5.453  1.00  0.00     0.000 C 
BRANCH  18  19
ATOM     19  C   UNL     1     -26.839 -29.373   6.897  1.00  0.00     0.000 C 
BRANCH  19  20
ATOM     20  C   UNL     1     -25.704 -28.997   7.866  1.00  0.00     0.006 C 
BRANCH  20  21
ATOM     21  C   UNL     1     -26.235 -28.557   9.236  1.00  0.00     0.053 C 
BRANCH  21  22
ATOM     22  C   UNL     1     -26.628 -27.111   9.241  1.00  0.00     0.041 C 
ATOM     23  O   UNL     1     -27.839 -26.783   9.362  1.00  0.00    -0.550 OA
ATOM     24  O   UNL     1     -25.662 -26.126   9.083  1.00  0.00    -0.550 OA
ENDBRANCH  21  22
ENDBRANCH  20  21
ENDBRANCH  19  20
ENDBRANCH  18  19
ENDBRANCH  17  18
ENDBRANCH  16  17
ENDBRANCH  15  16
ENDBRANCH  14  15
ENDBRANCH  13  14
ENDBRANCH   1  13
TORSDOF 20
ENDMDL
MODEL 7
REMARK VINA RESULT:    -4.954      3.198      7.108
REMARK INTER + INTRA:         -13.470
REMARK INTER:                 -10.287
REMARK INTRA:                  -3.183
REMARK UNBOUND:                -2.724
REMARK SMILES CCCCCCCCCCCCCCCCCCCCCC(=O)[O-]
REMARK SMILES IDX 12 1 11 2 10 3 9 4 8 5 7 6 6 7 5 8 4 9 3 10 2 11 1 12 13 13
REMARK SMILES IDX 14 14 15 15 16 16 17 17 18 18 19 19 20 20 21 21 22 22 23 23
REMARK SMILES IDX 24 24
REMARK H PARENT
REMARK Flexibility Score: inf
ROOT
ATOM      1  C   UNL     1     -21.501 -25.603  14.643  1.00  0.00     0.000 C 
ENDROOT
BRANCH   1   2
ATOM      2  C   UNL     1     -20.236 -25.206  15.422  1.00  0.00     0.000 C 
BRANCH   2   3
ATOM      3  C   UNL     1     -19.451 -24.074  14.744  1.00  0.00     0.000 C 
BRANCH   3   4
ATOM      4  C   UNL     1     -20.119 -23.657  13.428  1.00  0.00    -0.000 C 
BRANCH   4   5
ATOM      5  C   UNL     1     -19.071 -23.241  12.386  1.00  0.00    -0.000 C 
BRANCH   5   6
ATOM      6  C   UNL     1     -18.595 -24.414  11.516  1.00  0.00    -0.000 C 
BRANCH   6   7
ATOM      7  C   UNL     1     -19.666 -25.508  11.362  1.00  0.00    -0.000 C 
BRANCH   7   8
ATOM      8  C   UNL     1     -19.155 -26.904  11.759  1.00  0.00    -0.000 C 
BRANCH   8   9
ATOM      9  C   UNL     1     -18.051 -26.912  12.835  1.00  0.00    -0.000 C 
BRANCH   9  10
ATOM     10  C   UNL     1     -18.203 -28.045  13.873  1.00  0.00    -0.000 C 
BRANCH  10  11
ATOM     11  C   UNL     1     -17.511 -27.709  15.203  1.00  0.00    -0.003 C 
ATOM     12  C   UNL     1     -16.563 -26.524  15.047  1.00  0.00     0.004 C 
ENDBRANCH  10  11
ENDBRANCH   9  10
ENDBRANCH   8   9
ENDBRANCH   7   8
ENDBRANCH   6   7
ENDBRANCH   5   6
ENDBRANCH   4   5
ENDBRANCH   3   4
ENDBRANCH   2   3
ENDBRANCH   1   2
BRANCH   1  13
ATOM     13  C   UNL     1     -22.657 -26.016  15.569  1.00  0.00     0.000 C 
BRANCH  13  14
ATOM     14  C   UNL     1     -22.354 -25.772  17.058  1.00  0.00     0.000 C 
BRANCH  14  15
ATOM     15  C   UNL     1     -22.562 -26.989  17.982  1.00  0.00     0.000 C 
BRANCH  15  16
ATOM     16  C   UNL     1     -22.919 -28.272  17.213  1.00  0.00     0.000 C 
BRANCH  16  17
ATOM     17  C   UNL     1     -21.695 -29.162  16.935  1.00  0.00     0.000 C 
BRANCH  17  18
ATOM     18  C   UNL     1     -21.912 -30.273  15.887  1.00  0.00     0.000 C 
BRANCH  18  19
ATOM     19  C   UNL     1     -21.366 -29.963  14.482  1.00  0.00     0.000 C 
BRANCH  19  20
ATOM     20  C   UNL     1     -21.649 -31.086  13.469  1.00  0.00     0.006 C 
BRANCH  20  21
ATOM     21  C   UNL     1     -21.536 -30.599  12.019  1.00  0.00     0.053 C 
BRANCH  21  22
ATOM     22  C   UNL     1     -22.356 -31.438  11.086  1.00  0.00     0.041 C 
ATOM     23  O   UNL     1     -22.207 -31.331   9.839  1.00  0.00    -0.550 OA
ATOM     24  O   UNL     1     -23.305 -32.317  11.592  1.00  0.00    -0.550 OA
ENDBRANCH  21  22
ENDBRANCH  20  21
ENDBRANCH  19  20
ENDBRANCH  18  19
ENDBRANCH  17  18
ENDBRANCH  16  17
ENDBRANCH  15  16
ENDBRANCH  14  15
ENDBRANCH  13  14
ENDBRANCH   1  13
TORSDOF 20
ENDMDL
MODEL 8
REMARK VINA RESULT:    -4.922      3.406      6.864
REMARK INTER + INTRA:         -13.400
REMARK INTER:                 -10.544
REMARK INTRA:                  -2.856
REMARK UNBOUND:                -2.724
REMARK SMILES CCCCCCCCCCCCCCCCCCCCCC(=O)[O-]
REMARK SMILES IDX 12 1 11 2 10 3 9 4 8 5 7 6 6 7 5 8 4 9 3 10 2 11 1 12 13 13
REMARK SMILES IDX 14 14 15 15 16 16 17 17 18 18 19 19 20 20 21 21 22 22 23 23
REMARK SMILES IDX 24 24
REMARK H PARENT
REMARK Flexibility Score: inf
ROOT
ATOM      1  C   UNL     1     -20.397 -25.421  15.483  1.00  0.00     0.000 C 
ENDROOT
BRANCH   1   2
ATOM      2  C   UNL     1     -20.783 -24.616  14.232  1.00  0.00     0.000 C 
BRANCH   2   3
ATOM      3  C   UNL     1     -19.778 -23.498  13.911  1.00  0.00     0.000 C 
BRANCH   3   4
ATOM      4  C   UNL     1     -19.950 -23.006  12.469  1.00  0.00    -0.000 C 
BRANCH   4   5
ATOM      5  C   UNL     1     -19.578 -24.106  11.465  1.00  0.00    -0.000 C 
BRANCH   5   6
ATOM      6  C   UNL     1     -18.110 -24.546  11.577  1.00  0.00    -0.000 C 
BRANCH   6   7
ATOM      7  C   UNL     1     -17.951 -26.076  11.590  1.00  0.00    -0.000 C 
BRANCH   7   8
ATOM      8  C   UNL     1     -17.581 -26.626  12.978  1.00  0.00    -0.000 C 
BRANCH   8   9
ATOM      9  C   UNL     1     -16.560 -25.780  13.765  1.00  0.00    -0.000 C 
BRANCH   9  10
ATOM     10  C   UNL     1     -16.828 -25.735  15.284  1.00  0.00    -0.000 C 
BRANCH  10  11
ATOM     11  C   UNL     1     -15.701 -26.397  16.091  1.00  0.00    -0.003 C 
ATOM     12  C   UNL     1     -16.029 -27.854  16.404  1.00  0.00     0.004 C 
ENDBRANCH  10  11
ENDBRANCH   9  10
ENDBRANCH   8   9
ENDBRANCH   7   8
ENDBRANCH   6   7
ENDBRANCH   5   6
ENDBRANCH   4   5
ENDBRANCH   3   4
ENDBRANCH   2   3
ENDBRANCH   1   2
BRANCH   1  13
ATOM     13  C   UNL     1     -20.399 -26.937  15.230  1.00  0.00     0.000 C 
BRANCH  13  14
ATOM     14  C   UNL     1     -20.756 -27.758  16.483  1.00  0.00     0.000 C 
BRANCH  14  15
ATOM     15  C   UNL     1     -22.111 -28.491  16.428  1.00  0.00     0.000 C 
BRANCH  15  16
ATOM     16  C   UNL     1     -23.017 -28.168  17.627  1.00  0.00     0.000 C 
BRANCH  16  17
ATOM     17  C   UNL     1     -22.683 -26.815  18.283  1.00  0.00     0.000 C 
BRANCH  17  18
ATOM     18  C   UNL     1     -23.349 -25.585  17.632  1.00  0.00     0.000 C 
BRANCH  18  19
ATOM     19  C   UNL     1     -24.541 -25.897  16.711  1.00  0.00     0.000 C 
BRANCH  19  20
ATOM     20  C   UNL     1     -24.672 -24.900  15.546  1.00  0.00     0.006 C 
BRANCH  20  21
ATOM     21  C   UNL     1     -25.942 -24.046  15.655  1.00  0.00     0.053 C 
BRANCH  21  22
ATOM     22  C   UNL     1     -27.182 -24.883  15.567  1.00  0.00     0.041 C 
ATOM     23  O   UNL     1     -27.964 -24.963  16.552  1.00  0.00    -0.550 OA
ATOM     24  O   UNL     1     -27.460 -25.597  14.409  1.00  0.00    -0.550 OA
ENDBRANCH  21  22
ENDBRANCH  20  21
ENDBRANCH  19  20
ENDBRANCH  18  19
ENDBRANCH  17  18
ENDBRANCH  16  17
ENDBRANCH  15  16
ENDBRANCH  14  15
ENDBRANCH  13  14
ENDBRANCH   1  13
TORSDOF 20
ENDMDL
MODEL 9
REMARK VINA RESULT:    -4.909      3.192      4.842
REMARK INTER + INTRA:         -13.372
REMARK INTER:                 -10.556
REMARK INTRA:                  -2.815
REMARK UNBOUND:                -2.724
REMARK SMILES CCCCCCCCCCCCCCCCCCCCCC(=O)[O-]
REMARK SMILES IDX 12 1 11 2 10 3 9 4 8 5 7 6 6 7 5 8 4 9 3 10 2 11 1 12 13 13
REMARK SMILES IDX 14 14 15 15 16 16 17 17 18 18 19 19 20 20 21 21 22 22 23 23
REMARK SMILES IDX 24 24
REMARK H PARENT
REMARK Flexibility Score: inf
ROOT
ATOM      1  C   UNL     1     -21.284 -23.517  13.386  1.00  0.00     0.000 C 
ENDROOT
BRANCH   1   2
ATOM      2  C   UNL     1     -20.734 -24.670  14.243  1.00  0.00     0.000 C 
BRANCH   2   3
ATOM      3  C   UNL     1     -19.268 -24.459  14.651  1.00  0.00     0.000 C 
BRANCH   3   4
ATOM      4  C   UNL     1     -18.573 -25.803  14.904  1.00  0.00    -0.000 C 
BRANCH   4   5
ATOM      5  C   UNL     1     -19.417 -26.694  15.827  1.00  0.00    -0.000 C 
BRANCH   5   6
ATOM      6  C   UNL     1     -19.850 -28.006  15.156  1.00  0.00    -0.000 C 
BRANCH   6   7
ATOM      7  C   UNL     1     -21.376 -28.204  15.173  1.00  0.00    -0.000 C 
BRANCH   7   8
ATOM      8  C   UNL     1     -21.889 -28.780  16.504  1.00  0.00    -0.000 C 
BRANCH   8   9
ATOM      9  C   UNL     1     -23.003 -27.958  17.184  1.00  0.00    -0.000 C 
BRANCH   9  10
ATOM     10  C   UNL     1     -22.914 -26.442  16.908  1.00  0.00    -0.000 C 
BRANCH  10  11
ATOM     11  C   UNL     1     -24.290 -25.823  16.621  1.00  0.00    -0.003 C 
ATOM     12  C   UNL     1     -24.266 -24.996  15.339  1.00  0.00     0.004 C 
ENDBRANCH  10  11
ENDBRANCH   9  10
ENDBRANCH   8   9
ENDBRANCH   7   8
ENDBRANCH   6   7
ENDBRANCH   5   6
ENDBRANCH   4   5
ENDBRANCH   3   4
ENDBRANCH   2   3
ENDBRANCH   1   2
BRANCH   1  13
ATOM     13  C   UNL     1     -20.167 -22.669  12.756  1.00  0.00     0.000 C 
BRANCH  13  14
ATOM     14  C   UNL     1     -19.950 -22.971  11.261  1.00  0.00     0.000 C 
BRANCH  14  15
ATOM     15  C   UNL     1     -18.761 -23.897  10.941  1.00  0.00     0.000 C 
BRANCH  15  16
ATOM     16  C   UNL     1     -19.196 -25.310  10.519  1.00  0.00     0.000 C 
BRANCH  16  17
ATOM     17  C   UNL     1     -18.249 -26.408  11.038  1.00  0.00     0.000 C 
BRANCH  17  18
ATOM     18  C   UNL     1     -16.946 -25.901  11.689  1.00  0.00     0.000 C 
BRANCH  18  19
ATOM     19  C   UNL     1     -15.677 -26.074  10.835  1.00  0.00     0.000 C 
BRANCH  19  20
ATOM     20  C   UNL     1     -15.799 -27.214   9.809  1.00  0.00     0.006 C 
BRANCH  20  21
ATOM     21  C   UNL     1     -15.336 -26.785   8.411  1.00  0.00     0.053 C 
BRANCH  21  22
ATOM     22  C   UNL     1     -16.495 -26.459   7.518  1.00  0.00     0.041 C 
ATOM     23  O   UNL     1     -17.078 -25.347   7.617  1.00  0.00    -0.550 OA
ATOM     24  O   UNL     1     -16.949 -27.393   6.596  1.00  0.00    -0.550 OA
ENDBRANCH  21  22
ENDBRANCH  20  21
ENDBRANCH  19  20
ENDBRANCH  18  19
ENDBRANCH  17  18
ENDBRANCH  16  17
ENDBRANCH  15  16
ENDBRANCH  14  15
ENDBRANCH  13  14
ENDBRANCH   1  13
TORSDOF 20
ENDMDL
