MODEL 1
REMARK VINA RESULT:    -3.568      0.000      0.000
REMARK INTER + INTRA:          -4.509
REMARK INTER:                  -4.194
REMARK INTRA:                  -0.315
REMARK UNBOUND:                -0.315
REMARK SMILES O=c1cc(-c2ccc(O)c(O)c2)oc2cc(O)cc(O)c12
REMARK SMILES IDX 4 1 3 2 2 3 1 4 21 5 19 6 18 7 16 8 15 9 14 10 13 11 5 12
REMARK SMILES IDX 6 13 7 14 8 15 12 16 10 17 9 18 11 20 20 22 17 24
REMARK H PARENT 9 19 11 21 20 23 17 25
REMARK Flexibility Score: inf
ROOT
ATOM      1  C   UNL     1      -6.984  20.391  19.531  1.00  0.00     0.138 A 
ATOM      2  C   UNL     1      -7.908  20.698  18.522  1.00  0.00     0.100 A 
ATOM      3  C   UNL     1      -7.476  20.806  17.199  1.00  0.00     0.197 A 
ATOM      4  O   UNL     1      -8.339  21.027  16.311  1.00  0.00    -0.289 OA
ATOM      5  C   UNL     1      -6.104  20.641  16.890  1.00  0.00     0.107 A 
ATOM      6  C   UNL     1      -5.543  20.762  15.583  1.00  0.00     0.134 A 
ATOM      7  C   UNL     1      -4.186  20.480  15.387  1.00  0.00     0.093 A 
ATOM      8  C   UNL     1      -3.358  20.137  16.455  1.00  0.00     0.123 A 
ATOM      9  C   UNL     1      -3.885  20.065  17.744  1.00  0.00     0.094 A 
ATOM     10  C   UNL     1      -5.241  20.307  17.970  1.00  0.00     0.146 A 
ATOM     11  O   UNL     1      -5.707  20.209  19.210  1.00  0.00    -0.456 OA
ENDROOT
BRANCH   1  12
ATOM     12  C   UNL     1      -7.388  20.267  20.954  1.00  0.00     0.021 A 
ATOM     13  C   UNL     1      -8.738  20.147  21.333  1.00  0.00     0.016 A 
ATOM     14  C   UNL     1      -9.087  20.021  22.680  1.00  0.00     0.051 A 
ATOM     15  C   UNL     1      -8.101  20.005  23.669  1.00  0.00     0.157 A 
ATOM     16  C   UNL     1      -6.399  20.236  21.953  1.00  0.00     0.062 A 
ATOM     17  C   UNL     1      -6.749  20.111  23.306  1.00  0.00     0.158 A 
BRANCH  15  18
ATOM     18  O   UNL     1      -8.481  19.880  25.004  1.00  0.00    -0.504 OA
ATOM     19  H   UNL     1      -9.298  20.348  25.378  1.00  0.00     0.293 HD
ENDBRANCH  15  18
BRANCH  17  20
ATOM     20  O   UNL     1      -5.758  20.092  24.286  1.00  0.00    -0.504 OA
ATOM     21  H   UNL     1      -4.857  20.533  24.140  1.00  0.00     0.293 HD
ENDBRANCH  17  20
ENDBRANCH   1  12
BRANCH   6  22
ATOM     22  O   UNL     1      -6.261  21.175  14.458  1.00  0.00    -0.507 OA
ATOM     23  H   UNL     1      -7.234  21.443  14.456  1.00  0.00     0.293 HD
ENDBRANCH   6  22
BRANCH   8  24
ATOM     24  O   UNL     1      -2.009  19.877  16.223  1.00  0.00    -0.508 OA
ATOM     25  H   UNL     1      -1.286  20.244  16.832  1.00  0.00     0.293 HD
ENDBRANCH   8  24
TORSDOF 5
ENDMDL
MODEL 2
REMARK VINA RESULT:    -2.648     12.363     17.534
REMARK INTER + INTRA:          -3.427
REMARK INTER:                  -3.111
REMARK INTRA:                  -0.316
REMARK UNBOUND:                -0.315
REMARK SMILES O=c1cc(-c2ccc(O)c(O)c2)oc2cc(O)cc(O)c12
REMARK SMILES IDX 4 1 3 2 2 3 1 4 21 5 19 6 18 7 16 8 15 9 14 10 13 11 5 12
REMARK SMILES IDX 6 13 7 14 8 15 12 16 10 17 9 18 11 20 20 22 17 24
REMARK H PARENT 9 19 11 21 20 23 17 25
REMARK Flexibility Score: inf
ROOT
ATOM      1  C   UNL     1       8.924  20.767  12.820  1.00  0.00     0.138 A 
ATOM      2  C   UNL     1       9.792  21.248  13.810  1.00  0.00     0.100 A 
ATOM      3  C   UNL     1       9.322  21.426  15.113  1.00  0.00     0.197 A 
ATOM      4  O   UNL     1      10.140  21.806  15.991  1.00  0.00    -0.289 OA
ATOM      5  C   UNL     1       7.966  21.157  15.416  1.00  0.00     0.107 A 
ATOM      6  C   UNL     1       7.367  21.335  16.700  1.00  0.00     0.134 A 
ATOM      7  C   UNL     1       6.039  20.941  16.901  1.00  0.00     0.093 A 
ATOM      8  C   UNL     1       5.271  20.429  15.856  1.00  0.00     0.123 A 
ATOM      9  C   UNL     1       5.831  20.298  14.585  1.00  0.00     0.094 A 
ATOM     10  C   UNL     1       7.163  20.650  14.358  1.00  0.00     0.146 A 
ATOM     11  O   UNL     1       7.663  20.492  13.138  1.00  0.00    -0.456 OA
ENDROOT
BRANCH   1  12
ATOM     12  C   UNL     1       9.369  20.562  11.419  1.00  0.00     0.021 A 
ATOM     13  C   UNL     1      10.732  20.575  11.065  1.00  0.00     0.016 A 
ATOM     14  C   UNL     1      11.121  20.367   9.739  1.00  0.00     0.051 A 
ATOM     15  C   UNL     1      10.164  20.137   8.748  1.00  0.00     0.157 A 
ATOM     16  C   UNL     1       8.412  20.316  10.418  1.00  0.00     0.062 A 
ATOM     17  C   UNL     1       8.803  20.109   9.087  1.00  0.00     0.158 A 
BRANCH  15  18
ATOM     18  O   UNL     1      10.585  19.935   7.434  1.00  0.00    -0.504 OA
ATOM     19  H   UNL     1      11.362  20.446   7.032  1.00  0.00     0.293 HD
ENDBRANCH  15  18
BRANCH  17  20
ATOM     20  O   UNL     1       7.842  19.876   8.105  1.00  0.00    -0.504 OA
ATOM     21  H   UNL     1       7.305  19.016   8.079  1.00  0.00     0.293 HD
ENDBRANCH  17  20
ENDBRANCH   1  12
BRANCH   6  22
ATOM     22  O   UNL     1       8.018  21.910  17.795  1.00  0.00    -0.507 OA
ATOM     23  H   UNL     1       7.589  22.110  18.685  1.00  0.00     0.293 HD
ENDBRANCH   6  22
BRANCH   8  24
ATOM     24  O   UNL     1       3.948  20.062  16.091  1.00  0.00    -0.508 OA
ATOM     25  H   UNL     1       3.558  19.210  15.704  1.00  0.00     0.293 HD
ENDBRANCH   8  24
TORSDOF 5
ENDMDL
MODEL 3
REMARK VINA RESULT:    -2.637     13.894     17.700
REMARK INTER + INTRA:          -3.415
REMARK INTER:                  -3.122
REMARK INTRA:                  -0.293
REMARK UNBOUND:                -0.315
REMARK SMILES O=c1cc(-c2ccc(O)c(O)c2)oc2cc(O)cc(O)c12
REMARK SMILES IDX 4 1 3 2 2 3 1 4 21 5 19 6 18 7 16 8 15 9 14 10 13 11 5 12
REMARK SMILES IDX 6 13 7 14 8 15 12 16 10 17 9 18 11 20 20 22 17 24
REMARK H PARENT 9 19 11 21 20 23 17 25
REMARK Flexibility Score: inf
ROOT
ATOM      1  C   UNL     1       8.596  20.738  12.533  1.00  0.00     0.138 A 
ATOM      2  C   UNL     1       7.321  20.218  12.798  1.00  0.00     0.100 A 
ATOM      3  C   UNL     1       6.794  20.307  14.087  1.00  0.00     0.197 A 
ATOM      4  O   UNL     1       5.625  19.881  14.279  1.00  0.00    -0.289 OA
ATOM      5  C   UNL     1       7.562  20.887  15.124  1.00  0.00     0.107 A 
ATOM      6  C   UNL     1       7.142  21.001  16.484  1.00  0.00     0.134 A 
ATOM      7  C   UNL     1       7.950  21.684  17.401  1.00  0.00     0.093 A 
ATOM      8  C   UNL     1       9.186  22.206  17.023  1.00  0.00     0.123 A 
ATOM      9  C   UNL     1       9.630  22.057  15.710  1.00  0.00     0.094 A 
ATOM     10  C   UNL     1       8.833  21.411  14.762  1.00  0.00     0.146 A 
ATOM     11  O   UNL     1       9.284  21.306  13.517  1.00  0.00    -0.456 OA
ENDROOT
BRANCH   1  12
ATOM     12  C   UNL     1       9.207  20.668  11.181  1.00  0.00     0.021 A 
ATOM     13  C   UNL     1      10.576  20.923  10.974  1.00  0.00     0.016 A 
ATOM     14  C   UNL     1      11.125  20.839   9.692  1.00  0.00     0.051 A 
ATOM     15  C   UNL     1      10.326  20.494   8.599  1.00  0.00     0.157 A 
ATOM     16  C   UNL     1       8.411  20.307  10.080  1.00  0.00     0.062 A 
ATOM     17  C   UNL     1       8.962  20.224   8.793  1.00  0.00     0.158 A 
BRANCH  15  18
ATOM     18  O   UNL     1      10.903  20.420   7.333  1.00  0.00    -0.504 OA
ATOM     19  H   UNL     1      11.461  19.626   7.041  1.00  0.00     0.293 HD
ENDBRANCH  15  18
BRANCH  17  20
ATOM     20  O   UNL     1       8.158  19.875   7.709  1.00  0.00    -0.504 OA
ATOM     21  H   UNL     1       8.535  19.794   6.771  1.00  0.00     0.293 HD
ENDBRANCH  17  20
ENDBRANCH   1  12
BRANCH   6  22
ATOM     22  O   UNL     1       5.962  20.447  16.988  1.00  0.00    -0.507 OA
ATOM     23  H   UNL     1       5.074  20.923  17.044  1.00  0.00     0.293 HD
ENDBRANCH   6  22
BRANCH   8  24
ATOM     24  O   UNL     1       9.971  22.867  17.968  1.00  0.00    -0.508 OA
ATOM     25  H   UNL     1       9.769  22.806  18.959  1.00  0.00     0.293 HD
ENDBRANCH   8  24
TORSDOF 5
ENDMDL
