MODEL 1
REMARK VINA RESULT:    57.304      0.000      0.000
REMARK INTER + INTRA:          63.541
REMARK INTER:                  62.329
REMARK INTRA:                   1.212
REMARK UNBOUND:                 1.212
REMARK SMILES C[C@@H]1[C@@H](C)CC[C@]2(C(=O)[O-])CC[C@]3(C)C(=CC[C@H]4[C@@]5(C)CC[C@@H](O)C(C)(C)[C@H]5CC[C@@]43C)[C@@H]12
REMARK SMILES IDX 7 1 6 2 11 3 33 4 5 5 12 6 15 7 2 8 3 9 13 10 16 11 1 12
REMARK SMILES IDX 4 13 14 14 31 15 17 16 18 17 30 18 32 19 19 20 29 21 28 22
REMARK SMILES IDX 21 23 20 24 25 25 22 26 23 27 26 28 27 29 8 30 9 31 10 32
REMARK SMILES IDX 24 33
REMARK H PARENT 24 34
REMARK Flexibility Score: inf
ROOT
ATOM      1  C   UNL     1      -9.138  11.983 -15.119  1.00  0.00     0.017 C 
ATOM      2  C   UNL     1      -9.161  10.494 -15.552  1.00  0.00     0.014 C 
ATOM      3  C   UNL     1      -8.107  12.737 -16.017  1.00  0.00     0.014 C 
ATOM      4  C   UNL     1      -8.648  12.076 -13.635  1.00  0.00     0.030 C 
ATOM      5  C   UNL     1     -10.012   9.638 -14.610  1.00  0.00     0.004 C 
ATOM      6  C   UNL     1      -7.836  14.198 -15.568  1.00  0.00     0.013 C 
ATOM      7  C   UNL     1      -8.527  13.560 -13.254  1.00  0.00    -0.063 C 
ATOM      8  C   UNL     1      -9.410  11.138 -12.636  1.00  0.00    -0.003 C 
ATOM      9  C   UNL     1      -9.458   9.676 -13.178  1.00  0.00    -0.011 C 
ATOM     10  C   UNL     1      -7.466  14.364 -14.045  1.00  0.00    -0.006 C 
ATOM     11  C   UNL     1      -9.500  14.170 -12.516  1.00  0.00    -0.027 C 
ATOM     12  C   UNL     1      -8.714  11.173 -11.256  1.00  0.00     0.008 C 
ATOM     13  C   UNL     1     -10.306   8.759 -12.280  1.00  0.00     0.008 C 
ATOM     14  C   UNL     1      -6.056  13.711 -13.820  1.00  0.00     0.017 C 
ATOM     15  C   UNL     1      -7.426  15.901 -13.550  1.00  0.00    -0.020 C 
ATOM     16  C   UNL     1      -9.647  15.662 -12.336  1.00  0.00     0.032 C 
ATOM     17  C   UNL     1      -8.907  16.431 -13.450  1.00  0.00     0.006 C 
ATOM     18  C   UNL     1      -6.590  16.808 -14.521  1.00  0.00     0.008 C 
ATOM     19  C   UNL     1      -6.740  15.936 -12.133  1.00  0.00     0.012 C 
ATOM     20  C   UNL     1      -9.154  18.011 -13.536  1.00  0.00    -0.025 C 
ATOM     21  C   UNL     1      -7.445  17.612 -15.498  1.00  0.00     0.005 C 
ATOM     22  C   UNL     1      -8.411  18.633 -14.808  1.00  0.00     0.003 C 
ATOM     23  C   UNL     1      -8.789  18.768 -12.219  1.00  0.00     0.010 C 
ATOM     24  C   UNL     1     -10.694  18.211 -13.737  1.00  0.00     0.012 C 
ATOM     25  C   UNL     1      -7.880  20.147 -14.661  1.00  0.00    -0.006 C 
ATOM     26  C   UNL     1      -7.398  19.394 -12.204  1.00  0.00     0.033 C 
ATOM     27  C   UNL     1      -7.247  20.493 -13.250  1.00  0.00     0.120 C 
ATOM     28  C   UNL     1      -6.869  20.506 -15.787  1.00  0.00     0.014 C 
ATOM     29  C   UNL     1      -9.074  21.122 -14.889  1.00  0.00     0.014 C 
ENDROOT
BRANCH   1  30
ATOM     30  C   UNL     1     -10.529  12.573 -15.355  1.00  0.00     0.048 C 
ATOM     31  O   UNL     1     -10.782  13.752 -14.975  1.00  0.00    -0.550 OA
ATOM     32  O   UNL     1     -11.500  11.890 -16.075  1.00  0.00    -0.550 OA
ENDBRANCH   1  30
BRANCH  27  33
ATOM     33  O   UNL     1      -5.876  20.819 -13.352  1.00  0.00    -0.393 OA
ATOM     34  H   UNL     1      -5.815  21.777 -13.617  1.00  0.00     0.210 HD
ENDBRANCH  27  33
TORSDOF 2
ENDMDL
