MODEL 1
REMARK VINA RESULT:     3.896      0.000      0.000
REMARK INTER + INTRA:           8.560
REMARK INTER:                  10.273
REMARK INTRA:                  -1.712
REMARK UNBOUND:                -1.712
REMARK SMILES CCCCCCCCCCCCCCCCCCCCCCCCCCCCCC(=O)[O-]
REMARK SMILES IDX 16 1 17 2 18 3 19 4 20 5 21 6 22 7 23 8 24 9 25 10 26 11
REMARK SMILES IDX 27 12 28 13 29 14 30 15 31 16 32 17 15 18 14 19 13 20 12 21
REMARK SMILES IDX 11 22 10 23 9 24 8 25 7 26 6 27 5 28 4 29 3 30 2 31 1 32
REMARK H PARENT
REMARK Flexibility Score: inf
ROOT
ATOM      1  C   UNL     1       2.604   2.541  -1.527  1.00  0.00     0.000 C 
ENDROOT
BRANCH   1   2
ATOM      2  C   UNL     1       2.020   1.147  -1.251  1.00  0.00     0.000 C 
BRANCH   2   3
ATOM      3  C   UNL     1       2.670   0.464  -0.036  1.00  0.00     0.000 C 
BRANCH   3   4
ATOM      4  C   UNL     1       3.997   1.124   0.368  1.00  0.00     0.000 C 
BRANCH   4   5
ATOM      5  C   UNL     1       4.246   0.994   1.880  1.00  0.00     0.000 C 
BRANCH   5   6
ATOM      6  C   UNL     1       3.030   0.409   2.623  1.00  0.00     0.000 C 
BRANCH   6   7
ATOM      7  C   UNL     1       2.448   1.356   3.690  1.00  0.00     0.000 C 
BRANCH   7   8
ATOM      8  C   UNL     1       0.929   1.531   3.542  1.00  0.00     0.000 C 
BRANCH   8   9
ATOM      9  C   UNL     1       0.131   0.812   4.644  1.00  0.00     0.000 C 
BRANCH   9  10
ATOM     10  C   UNL     1      -1.391   1.059   4.573  1.00  0.00     0.000 C 
BRANCH  10  11
ATOM     11  C   UNL     1      -2.200  -0.237   4.737  1.00  0.00     0.000 C 
BRANCH  11  12
ATOM     12  C   UNL     1      -1.393  -1.300   5.488  1.00  0.00     0.000 C 
BRANCH  12  13
ATOM     13  C   UNL     1      -0.889  -2.389   4.529  1.00  0.00     0.006 C 
BRANCH  13  14
ATOM     14  C   UNL     1      -0.949  -1.942   3.062  1.00  0.00     0.053 C 
BRANCH  14  15
ATOM     15  C   UNL     1       0.374  -2.098   2.376  1.00  0.00     0.041 C 
ATOM     16  O   UNL     1       1.327  -2.673   2.961  1.00  0.00    -0.550 OA
ATOM     17  O   UNL     1       0.558  -1.594   1.092  1.00  0.00    -0.550 OA
ENDBRANCH  14  15
ENDBRANCH  13  14
ENDBRANCH  12  13
ENDBRANCH  11  12
ENDBRANCH  10  11
ENDBRANCH   9  10
ENDBRANCH   8   9
ENDBRANCH   7   8
ENDBRANCH   6   7
ENDBRANCH   5   6
ENDBRANCH   4   5
ENDBRANCH   3   4
ENDBRANCH   2   3
ENDBRANCH   1   2
BRANCH   1  18
ATOM     18  C   UNL     1       2.240   3.024  -2.940  1.00  0.00     0.000 C 
BRANCH  18  19
ATOM     19  C   UNL     1       2.142   4.561  -3.023  1.00  0.00     0.000 C 
BRANCH  19  20
ATOM     20  C   UNL     1       0.714   5.095  -2.802  1.00  0.00     0.000 C 
BRANCH  20  21
ATOM     21  C   UNL     1       0.192   5.868  -4.026  1.00  0.00     0.000 C 
BRANCH  21  22
ATOM     22  C   UNL     1       0.226   5.027  -5.314  1.00  0.00     0.000 C 
BRANCH  22  23
ATOM     23  C   UNL     1      -0.107   5.824  -6.597  1.00  0.00     0.000 C 
BRANCH  23  24
ATOM     24  C   UNL     1       0.883   5.621  -7.759  1.00  0.00    -0.000 C 
BRANCH  24  25
ATOM     25  C   UNL     1       0.616   6.558  -8.947  1.00  0.00    -0.000 C 
BRANCH  25  26
ATOM     26  C   UNL     1       1.920   7.217  -9.420  1.00  0.00    -0.000 C 
BRANCH  26  27
ATOM     27  C   UNL     1       1.691   8.578 -10.096  1.00  0.00    -0.000 C 
BRANCH  27  28
ATOM     28  C   UNL     1       1.802   9.753  -9.109  1.00  0.00    -0.000 C 
BRANCH  28  29
ATOM     29  C   UNL     1       1.041   9.492  -7.797  1.00  0.00    -0.000 C 
BRANCH  29  30
ATOM     30  C   UNL     1      -0.359  10.125  -7.792  1.00  0.00    -0.000 C 
BRANCH  30  31
ATOM     31  C   UNL     1      -1.368   9.217  -7.083  1.00  0.00    -0.003 C 
ATOM     32  C   UNL     1      -2.788   9.761  -7.212  1.00  0.00     0.004 C 
ENDBRANCH  30  31
ENDBRANCH  29  30
ENDBRANCH  28  29
ENDBRANCH  27  28
ENDBRANCH  26  27
ENDBRANCH  25  26
ENDBRANCH  24  25
ENDBRANCH  23  24
ENDBRANCH  22  23
ENDBRANCH  21  22
ENDBRANCH  20  21
ENDBRANCH  19  20
ENDBRANCH  18  19
ENDBRANCH   1  18
TORSDOF 28
ENDMDL
MODEL 2
REMARK VINA RESULT:     4.179      3.960     13.921
REMARK INTER + INTRA:           9.308
REMARK INTER:                   9.808
REMARK INTRA:                  -0.501
REMARK UNBOUND:                -1.712
REMARK SMILES CCCCCCCCCCCCCCCCCCCCCCCCCCCCCC(=O)[O-]
REMARK SMILES IDX 16 1 17 2 18 3 19 4 20 5 21 6 22 7 23 8 24 9 25 10 26 11
REMARK SMILES IDX 27 12 28 13 29 14 30 15 31 16 32 17 15 18 14 19 13 20 12 21
REMARK SMILES IDX 11 22 10 23 9 24 8 25 7 26 6 27 5 28 4 29 3 30 2 31 1 32
REMARK H PARENT
REMARK Flexibility Score: inf
ROOT
ATOM      1  C   UNL     1       2.503   4.168  -2.183  1.00  0.00     0.000 C 
ENDROOT
BRANCH   1   2
ATOM      2  C   UNL     1       1.385   4.243  -3.235  1.00  0.00     0.000 C 
BRANCH   2   3
ATOM      3  C   UNL     1       0.372   5.363  -2.943  1.00  0.00     0.000 C 
BRANCH   3   4
ATOM      4  C   UNL     1      -0.172   6.012  -4.226  1.00  0.00     0.000 C 
BRANCH   4   5
ATOM      5  C   UNL     1       0.069   5.113  -5.450  1.00  0.00     0.000 C 
BRANCH   5   6
ATOM      6  C   UNL     1      -0.173   5.857  -6.777  1.00  0.00     0.000 C 
BRANCH   6   7
ATOM      7  C   UNL     1       1.122   6.354  -7.448  1.00  0.00     0.000 C 
BRANCH   7   8
ATOM      8  C   UNL     1       1.231   5.893  -8.909  1.00  0.00     0.000 C 
BRANCH   8   9
ATOM      9  C   UNL     1       1.101   7.049  -9.916  1.00  0.00     0.000 C 
BRANCH   9  10
ATOM     10  C   UNL     1       2.375   7.912 -10.042  1.00  0.00     0.000 C 
BRANCH  10  11
ATOM     11  C   UNL     1       2.101   9.399  -9.774  1.00  0.00     0.000 C 
BRANCH  11  12
ATOM     12  C   UNL     1       0.749   9.595  -9.080  1.00  0.00     0.000 C 
BRANCH  12  13
ATOM     13  C   UNL     1       0.909   9.597  -7.552  1.00  0.00     0.006 C 
BRANCH  13  14
ATOM     14  C   UNL     1      -0.344  10.125  -6.839  1.00  0.00     0.053 C 
BRANCH  14  15
ATOM     15  C   UNL     1      -1.603   9.642  -7.491  1.00  0.00     0.041 C 
ATOM     16  O   UNL     1      -2.636   9.437  -6.802  1.00  0.00    -0.550 OA
ATOM     17  O   UNL     1      -1.632   9.401  -8.861  1.00  0.00    -0.550 OA
ENDBRANCH  14  15
ENDBRANCH  13  14
ENDBRANCH  12  13
ENDBRANCH  11  12
ENDBRANCH  10  11
ENDBRANCH   9  10
ENDBRANCH   8   9
ENDBRANCH   7   8
ENDBRANCH   6   7
ENDBRANCH   5   6
ENDBRANCH   4   5
ENDBRANCH   3   4
ENDBRANCH   2   3
ENDBRANCH   1   2
BRANCH   1  18
ATOM     18  C   UNL     1       2.313   2.955  -1.260  1.00  0.00     0.000 C 
BRANCH  18  19
ATOM     19  C   UNL     1       2.967   1.680  -1.831  1.00  0.00     0.000 C 
BRANCH  19  20
ATOM     20  C   UNL     1       3.071   0.535  -0.806  1.00  0.00     0.000 C 
BRANCH  20  21
ATOM     21  C   UNL     1       2.371   0.883   0.520  1.00  0.00     0.000 C 
BRANCH  21  22
ATOM     22  C   UNL     1       2.286  -0.320   1.475  1.00  0.00     0.000 C 
BRANCH  22  23
ATOM     23  C   UNL     1       1.582  -1.558   0.869  1.00  0.00     0.000 C 
BRANCH  23  24
ATOM     24  C   UNL     1       0.270  -1.962   1.568  1.00  0.00    -0.000 C 
BRANCH  24  25
ATOM     25  C   UNL     1       0.358  -1.885   3.100  1.00  0.00    -0.000 C 
BRANCH  25  26
ATOM     26  C   UNL     1      -1.043  -1.737   3.715  1.00  0.00    -0.000 C 
BRANCH  26  27
ATOM     27  C   UNL     1      -1.209  -0.436   4.515  1.00  0.00    -0.000 C 
BRANCH  27  28
ATOM     28  C   UNL     1      -2.098  -0.618   5.758  1.00  0.00    -0.000 C 
BRANCH  28  29
ATOM     29  C   UNL     1      -1.294  -1.053   6.996  1.00  0.00    -0.000 C 
BRANCH  29  30
ATOM     30  C   UNL     1      -2.168  -1.750   8.051  1.00  0.00    -0.000 C 
BRANCH  30  31
ATOM     31  C   UNL     1      -1.323  -2.658   8.949  1.00  0.00    -0.003 C 
ATOM     32  C   UNL     1       0.088  -2.105   9.124  1.00  0.00     0.004 C 
ENDBRANCH  30  31
ENDBRANCH  29  30
ENDBRANCH  28  29
ENDBRANCH  27  28
ENDBRANCH  26  27
ENDBRANCH  25  26
ENDBRANCH  24  25
ENDBRANCH  23  24
ENDBRANCH  22  23
ENDBRANCH  21  22
ENDBRANCH  20  21
ENDBRANCH  19  20
ENDBRANCH  18  19
ENDBRANCH   1  18
TORSDOF 28
ENDMDL
MODEL 3
REMARK VINA RESULT:     4.211      1.502      2.702
REMARK INTER + INTRA:           9.392
REMARK INTER:                  11.144
REMARK INTRA:                  -1.751
REMARK UNBOUND:                -1.712
REMARK SMILES CCCCCCCCCCCCCCCCCCCCCCCCCCCCCC(=O)[O-]
REMARK SMILES IDX 16 1 17 2 18 3 19 4 20 5 21 6 22 7 23 8 24 9 25 10 26 11
REMARK SMILES IDX 27 12 28 13 29 14 30 15 31 16 32 17 15 18 14 19 13 20 12 21
REMARK SMILES IDX 11 22 10 23 9 24 8 25 7 26 6 27 5 28 4 29 3 30 2 31 1 32
REMARK H PARENT
REMARK Flexibility Score: inf
ROOT
ATOM      1  C   UNL     1       2.103   1.200  -1.044  1.00  0.00     0.000 C 
ENDROOT
BRANCH   1   2
ATOM      2  C   UNL     1       3.144   1.545   0.032  1.00  0.00     0.000 C 
BRANCH   2   3
ATOM      3  C   UNL     1       2.984   0.694   1.304  1.00  0.00     0.000 C 
BRANCH   3   4
ATOM      4  C   UNL     1       2.175  -0.588   1.054  1.00  0.00     0.000 C 
BRANCH   4   5
ATOM      5  C   UNL     1       1.693  -1.209   2.375  1.00  0.00     0.000 C 
BRANCH   5   6
ATOM      6  C   UNL     1       0.608  -2.281   2.155  1.00  0.00     0.000 C 
BRANCH   6   7
ATOM      7  C   UNL     1      -0.799  -1.831   2.592  1.00  0.00     0.000 C 
BRANCH   7   8
ATOM      8  C   UNL     1      -1.427  -2.799   3.607  1.00  0.00     0.000 C 
BRANCH   8   9
ATOM      9  C   UNL     1      -0.860  -2.632   5.027  1.00  0.00     0.000 C 
BRANCH   9  10
ATOM     10  C   UNL     1      -1.789  -1.853   5.982  1.00  0.00     0.000 C 
BRANCH  10  11
ATOM     11  C   UNL     1      -1.431  -0.362   6.056  1.00  0.00     0.000 C 
BRANCH  11  12
ATOM     12  C   UNL     1      -2.413   0.484   5.239  1.00  0.00     0.000 C 
BRANCH  12  13
ATOM     13  C   UNL     1      -1.673   1.328   4.190  1.00  0.00     0.006 C 
BRANCH  13  14
ATOM     14  C   UNL     1      -0.276   0.773   3.880  1.00  0.00     0.053 C 
BRANCH  14  15
ATOM     15  C   UNL     1       0.769   1.846   3.906  1.00  0.00     0.041 C 
ATOM     16  O   UNL     1       1.850   1.663   4.523  1.00  0.00    -0.550 OA
ATOM     17  O   UNL     1       0.542   3.057   3.260  1.00  0.00    -0.550 OA
ENDBRANCH  14  15
ENDBRANCH  13  14
ENDBRANCH  12  13
ENDBRANCH  11  12
ENDBRANCH  10  11
ENDBRANCH   9  10
ENDBRANCH   8   9
ENDBRANCH   7   8
ENDBRANCH   6   7
ENDBRANCH   5   6
ENDBRANCH   4   5
ENDBRANCH   3   4
ENDBRANCH   2   3
ENDBRANCH   1   2
BRANCH   1  18
ATOM     18  C   UNL     1       2.157   2.201  -2.208  1.00  0.00     0.000 C 
BRANCH  18  19
ATOM     19  C   UNL     1       2.333   3.654  -1.720  1.00  0.00     0.000 C 
BRANCH  19  20
ATOM     20  C   UNL     1       1.192   4.589  -2.163  1.00  0.00     0.000 C 
BRANCH  20  21
ATOM     21  C   UNL     1       0.942   4.515  -3.680  1.00  0.00     0.000 C 
BRANCH  21  22
ATOM     22  C   UNL     1       0.133   5.713  -4.204  1.00  0.00     0.000 C 
BRANCH  22  23
ATOM     23  C   UNL     1      -0.375   5.546  -5.655  1.00  0.00     0.000 C 
BRANCH  23  24
ATOM     24  C   UNL     1       0.267   6.502  -6.679  1.00  0.00    -0.000 C 
BRANCH  24  25
ATOM     25  C   UNL     1       0.805   5.776  -7.921  1.00  0.00    -0.000 C 
BRANCH  25  26
ATOM     26  C   UNL     1       0.703   6.678  -9.161  1.00  0.00    -0.000 C 
BRANCH  26  27
ATOM     27  C   UNL     1       2.068   7.204  -9.631  1.00  0.00    -0.000 C 
BRANCH  27  28
ATOM     28  C   UNL     1       2.051   8.716  -9.915  1.00  0.00    -0.000 C 
BRANCH  28  29
ATOM     29  C   UNL     1       0.633   9.309  -9.857  1.00  0.00    -0.000 C 
BRANCH  29  30
ATOM     30  C   UNL     1       0.336   9.999  -8.516  1.00  0.00    -0.000 C 
BRANCH  30  31
ATOM     31  C   UNL     1      -1.129   9.807  -8.114  1.00  0.00    -0.003 C 
ATOM     32  C   UNL     1      -1.322  10.014  -6.615  1.00  0.00     0.004 C 
ENDBRANCH  30  31
ENDBRANCH  29  30
ENDBRANCH  28  29
ENDBRANCH  27  28
ENDBRANCH  26  27
ENDBRANCH  25  26
ENDBRANCH  24  25
ENDBRANCH  23  24
ENDBRANCH  22  23
ENDBRANCH  21  22
ENDBRANCH  20  21
ENDBRANCH  19  20
ENDBRANCH  18  19
ENDBRANCH   1  18
TORSDOF 28
ENDMDL
MODEL 4
REMARK VINA RESULT:     4.276      2.984     12.612
REMARK INTER + INTRA:           9.563
REMARK INTER:                  10.829
REMARK INTRA:                  -1.266
REMARK UNBOUND:                -1.712
REMARK SMILES CCCCCCCCCCCCCCCCCCCCCCCCCCCCCC(=O)[O-]
REMARK SMILES IDX 16 1 17 2 18 3 19 4 20 5 21 6 22 7 23 8 24 9 25 10 26 11
REMARK SMILES IDX 27 12 28 13 29 14 30 15 31 16 32 17 15 18 14 19 13 20 12 21
REMARK SMILES IDX 11 22 10 23 9 24 8 25 7 26 6 27 5 28 4 29 3 30 2 31 1 32
REMARK H PARENT
REMARK Flexibility Score: inf
ROOT
ATOM      1  C   UNL     1      -0.019   5.624  -4.840  1.00  0.00     0.000 C 
ENDROOT
BRANCH   1   2
ATOM      2  C   UNL     1       0.553   5.208  -6.205  1.00  0.00     0.000 C 
BRANCH   2   3
ATOM      3  C   UNL     1       0.625   6.381  -7.197  1.00  0.00     0.000 C 
BRANCH   3   4
ATOM      4  C   UNL     1       0.496   5.921  -8.658  1.00  0.00     0.000 C 
BRANCH   4   5
ATOM      5  C   UNL     1       0.808   7.068  -9.633  1.00  0.00     0.000 C 
BRANCH   5   6
ATOM      6  C   UNL     1       2.313   7.397  -9.684  1.00  0.00     0.000 C 
BRANCH   6   7
ATOM      7  C   UNL     1       2.609   8.884  -9.956  1.00  0.00     0.000 C 
BRANCH   7   8
ATOM      8  C   UNL     1       1.332   9.738  -9.954  1.00  0.00     0.000 C 
BRANCH   8   9
ATOM      9  C   UNL     1       0.867  10.123  -8.539  1.00  0.00     0.000 C 
BRANCH   9  10
ATOM     10  C   UNL     1      -0.389   9.362  -8.066  1.00  0.00     0.000 C 
BRANCH  10  11
ATOM     11  C   UNL     1      -1.153  10.121  -6.972  1.00  0.00     0.000 C 
BRANCH  11  12
ATOM     12  C   UNL     1      -0.415  10.050  -5.631  1.00  0.00     0.000 C 
BRANCH  12  13
ATOM     13  C   UNL     1      -1.052   9.000  -4.707  1.00  0.00     0.006 C 
BRANCH  13  14
ATOM     14  C   UNL     1      -1.540   9.611  -3.386  1.00  0.00     0.053 C 
BRANCH  14  15
ATOM     15  C   UNL     1      -1.051   8.839  -2.200  1.00  0.00     0.041 C 
ATOM     16  O   UNL     1      -1.164   9.317  -1.042  1.00  0.00    -0.550 OA
ATOM     17  O   UNL     1      -0.453   7.595  -2.374  1.00  0.00    -0.550 OA
ENDBRANCH  14  15
ENDBRANCH  13  14
ENDBRANCH  12  13
ENDBRANCH  11  12
ENDBRANCH  10  11
ENDBRANCH   9  10
ENDBRANCH   8   9
ENDBRANCH   7   8
ENDBRANCH   6   7
ENDBRANCH   5   6
ENDBRANCH   4   5
ENDBRANCH   3   4
ENDBRANCH   2   3
ENDBRANCH   1   2
BRANCH   1  18
ATOM     18  C   UNL     1       0.244   4.545  -3.778  1.00  0.00     0.000 C 
BRANCH  18  19
ATOM     19  C   UNL     1       1.474   4.873  -2.907  1.00  0.00     0.000 C 
BRANCH  19  20
ATOM     20  C   UNL     1       2.410   3.667  -2.694  1.00  0.00     0.000 C 
BRANCH  20  21
ATOM     21  C   UNL     1       1.661   2.328  -2.809  1.00  0.00     0.000 C 
BRANCH  21  22
ATOM     22  C   UNL     1       1.774   1.477  -1.533  1.00  0.00     0.000 C 
BRANCH  22  23
ATOM     23  C   UNL     1       3.038   1.769  -0.690  1.00  0.00     0.000 C 
BRANCH  23  24
ATOM     24  C   UNL     1       2.993   1.226   0.751  1.00  0.00    -0.000 C 
BRANCH  24  25
ATOM     25  C   UNL     1       1.751   0.367   1.030  1.00  0.00    -0.000 C 
BRANCH  25  26
ATOM     26  C   UNL     1       2.096  -0.789   1.983  1.00  0.00    -0.000 C 
BRANCH  26  27
ATOM     27  C   UNL     1       1.250  -2.046   1.727  1.00  0.00    -0.000 C 
BRANCH  27  28
ATOM     28  C   UNL     1      -0.174  -1.925   2.297  1.00  0.00    -0.000 C 
BRANCH  28  29
ATOM     29  C   UNL     1      -0.181  -1.518   3.780  1.00  0.00    -0.000 C 
BRANCH  29  30
ATOM     30  C   UNL     1      -1.322  -2.180   4.568  1.00  0.00    -0.000 C 
BRANCH  30  31
ATOM     31  C   UNL     1      -1.922  -1.205   5.586  1.00  0.00    -0.003 C 
ATOM     32  C   UNL     1      -1.509   0.232   5.286  1.00  0.00     0.004 C 
ENDBRANCH  30  31
ENDBRANCH  29  30
ENDBRANCH  28  29
ENDBRANCH  27  28
ENDBRANCH  26  27
ENDBRANCH  25  26
ENDBRANCH  24  25
ENDBRANCH  23  24
ENDBRANCH  22  23
ENDBRANCH  21  22
ENDBRANCH  20  21
ENDBRANCH  19  20
ENDBRANCH  18  19
ENDBRANCH   1  18
TORSDOF 28
ENDMDL
MODEL 5
REMARK VINA RESULT:     4.498      5.412     11.005
REMARK INTER + INTRA:          10.149
REMARK INTER:                  10.778
REMARK INTRA:                  -0.630
REMARK UNBOUND:                -1.712
REMARK SMILES CCCCCCCCCCCCCCCCCCCCCCCCCCCCCC(=O)[O-]
REMARK SMILES IDX 16 1 17 2 18 3 19 4 20 5 21 6 22 7 23 8 24 9 25 10 26 11
REMARK SMILES IDX 27 12 28 13 29 14 30 15 31 16 32 17 15 18 14 19 13 20 12 21
REMARK SMILES IDX 11 22 10 23 9 24 8 25 7 26 6 27 5 28 4 29 3 30 2 31 1 32
REMARK H PARENT
REMARK Flexibility Score: inf
ROOT
ATOM      1  C   UNL     1       1.391  -0.776   2.193  1.00  0.00     0.000 C 
ENDROOT
BRANCH   1   2
ATOM      2  C   UNL     1       1.253  -0.789   0.662  1.00  0.00     0.000 C 
BRANCH   2   3
ATOM      3  C   UNL     1       2.396  -0.039  -0.041  1.00  0.00     0.000 C 
BRANCH   3   4
ATOM      4  C   UNL     1       1.894   0.861  -1.181  1.00  0.00     0.000 C 
BRANCH   4   5
ATOM      5  C   UNL     1       2.670   2.187  -1.228  1.00  0.00     0.000 C 
BRANCH   5   6
ATOM      6  C   UNL     1       2.283   3.047  -2.447  1.00  0.00     0.000 C 
BRANCH   6   7
ATOM      7  C   UNL     1       1.324   4.203  -2.104  1.00  0.00     0.000 C 
BRANCH   7   8
ATOM      8  C   UNL     1       1.222   5.228  -3.244  1.00  0.00     0.000 C 
BRANCH   8   9
ATOM      9  C   UNL     1      -0.134   5.188  -3.968  1.00  0.00     0.000 C 
BRANCH   9  10
ATOM     10  C   UNL     1      -0.029   4.851  -5.471  1.00  0.00     0.000 C 
BRANCH  10  11
ATOM     11  C   UNL     1      -0.132   6.100  -6.358  1.00  0.00     0.000 C 
BRANCH  11  12
ATOM     12  C   UNL     1       0.835   6.017  -7.543  1.00  0.00     0.000 C 
BRANCH  12  13
ATOM     13  C   UNL     1       0.231   6.674  -8.794  1.00  0.00     0.006 C 
BRANCH  13  14
ATOM     14  C   UNL     1      -0.418   8.029  -8.480  1.00  0.00     0.053 C 
BRANCH  14  15
ATOM     15  C   UNL     1       0.600   9.063  -8.108  1.00  0.00     0.041 C 
ATOM     16  O   UNL     1       1.496   9.394  -8.926  1.00  0.00    -0.550 OA
ATOM     17  O   UNL     1       0.568   9.651  -6.847  1.00  0.00    -0.550 OA
ENDBRANCH  14  15
ENDBRANCH  13  14
ENDBRANCH  12  13
ENDBRANCH  11  12
ENDBRANCH  10  11
ENDBRANCH   9  10
ENDBRANCH   8   9
ENDBRANCH   7   8
ENDBRANCH   6   7
ENDBRANCH   5   6
ENDBRANCH   4   5
ENDBRANCH   3   4
ENDBRANCH   2   3
ENDBRANCH   1   2
BRANCH   1  18
ATOM     18  C   UNL     1       2.854  -0.565   2.614  1.00  0.00     0.000 C 
BRANCH  18  19
ATOM     19  C   UNL     1       3.377   0.833   2.223  1.00  0.00     0.000 C 
BRANCH  19  20
ATOM     20  C   UNL     1       4.911   0.897   2.094  1.00  0.00     0.000 C 
BRANCH  20  21
ATOM     21  C   UNL     1       5.357   1.878   0.996  1.00  0.00     0.000 C 
BRANCH  21  22
ATOM     22  C   UNL     1       6.789   1.602   0.505  1.00  0.00     0.000 C 
BRANCH  22  23
ATOM     23  C   UNL     1       7.568   2.870   0.086  1.00  0.00     0.000 C 
BRANCH  23  24
ATOM     24  C   UNL     1       8.911   2.601  -0.618  1.00  0.00    -0.000 C 
BRANCH  24  25
ATOM     25  C   UNL     1       9.862   3.807  -0.578  1.00  0.00    -0.000 C 
BRANCH  25  26
ATOM     26  C   UNL     1       9.089   5.094  -0.250  1.00  0.00    -0.000 C 
BRANCH  26  27
ATOM     27  C   UNL     1       9.916   6.095   0.571  1.00  0.00    -0.000 C 
BRANCH  27  28
ATOM     28  C   UNL     1       9.426   6.213   2.025  1.00  0.00    -0.000 C 
BRANCH  28  29
ATOM     29  C   UNL     1       8.737   7.559   2.306  1.00  0.00    -0.000 C 
BRANCH  29  30
ATOM     30  C   UNL     1       7.246   7.547   1.934  1.00  0.00    -0.000 C 
BRANCH  30  31
ATOM     31  C   UNL     1       6.676   8.968   1.908  1.00  0.00    -0.003 C 
ATOM     32  C   UNL     1       7.619   9.930   1.192  1.00  0.00     0.004 C 
ENDBRANCH  30  31
ENDBRANCH  29  30
ENDBRANCH  28  29
ENDBRANCH  27  28
ENDBRANCH  26  27
ENDBRANCH  25  26
ENDBRANCH  24  25
ENDBRANCH  23  24
ENDBRANCH  22  23
ENDBRANCH  21  22
ENDBRANCH  20  21
ENDBRANCH  19  20
ENDBRANCH  18  19
ENDBRANCH   1  18
TORSDOF 28
ENDMDL
MODEL 6
REMARK VINA RESULT:     4.548      4.458     11.308
REMARK INTER + INTRA:          10.281
REMARK INTER:                  11.226
REMARK INTRA:                  -0.945
REMARK UNBOUND:                -1.712
REMARK SMILES CCCCCCCCCCCCCCCCCCCCCCCCCCCCCC(=O)[O-]
REMARK SMILES IDX 16 1 17 2 18 3 19 4 20 5 21 6 22 7 23 8 24 9 25 10 26 11
REMARK SMILES IDX 27 12 28 13 29 14 30 15 31 16 32 17 15 18 14 19 13 20 12 21
REMARK SMILES IDX 11 22 10 23 9 24 8 25 7 26 6 27 5 28 4 29 3 30 2 31 1 32
REMARK H PARENT
REMARK Flexibility Score: inf
ROOT
ATOM      1  C   UNL     1       0.747  -1.937   2.311  1.00  0.00     0.000 C 
ENDROOT
BRANCH   1   2
ATOM      2  C   UNL     1       0.898  -1.483   0.850  1.00  0.00     0.000 C 
BRANCH   2   3
ATOM      3  C   UNL     1       1.723  -0.192   0.714  1.00  0.00     0.000 C 
BRANCH   3   4
ATOM      4  C   UNL     1       2.309  -0.016  -0.696  1.00  0.00     0.000 C 
BRANCH   4   5
ATOM      5  C   UNL     1       2.788   1.427  -0.923  1.00  0.00     0.000 C 
BRANCH   5   6
ATOM      6  C   UNL     1       1.837   2.220  -1.841  1.00  0.00     0.000 C 
BRANCH   6   7
ATOM      7  C   UNL     1       1.897   3.743  -1.620  1.00  0.00     0.000 C 
BRANCH   7   8
ATOM      8  C   UNL     1       1.866   4.522  -2.943  1.00  0.00     0.000 C 
BRANCH   8   9
ATOM      9  C   UNL     1       0.535   5.257  -3.178  1.00  0.00     0.000 C 
BRANCH   9  10
ATOM     10  C   UNL     1      -0.122   4.939  -4.537  1.00  0.00     0.000 C 
BRANCH  10  11
ATOM     11  C   UNL     1      -0.007   6.106  -5.528  1.00  0.00     0.000 C 
BRANCH  11  12
ATOM     12  C   UNL     1       0.464   5.620  -6.902  1.00  0.00     0.000 C 
BRANCH  12  13
ATOM     13  C   UNL     1       0.584   6.791  -7.889  1.00  0.00     0.006 C 
BRANCH  13  14
ATOM     14  C   UNL     1      -0.350   7.954  -7.526  1.00  0.00     0.053 C 
BRANCH  14  15
ATOM     15  C   UNL     1      -0.008   9.202  -8.281  1.00  0.00     0.041 C 
ATOM     16  O   UNL     1       1.083   9.791  -8.069  1.00  0.00    -0.550 OA
ATOM     17  O   UNL     1      -0.903   9.725  -9.209  1.00  0.00    -0.550 OA
ENDBRANCH  14  15
ENDBRANCH  13  14
ENDBRANCH  12  13
ENDBRANCH  11  12
ENDBRANCH  10  11
ENDBRANCH   9  10
ENDBRANCH   8   9
ENDBRANCH   7   8
ENDBRANCH   6   7
ENDBRANCH   5   6
ENDBRANCH   4   5
ENDBRANCH   3   4
ENDBRANCH   2   3
ENDBRANCH   1   2
BRANCH   1  18
ATOM     18  C   UNL     1      -0.717  -1.852   2.768  1.00  0.00     0.000 C 
BRANCH  18  19
ATOM     19  C   UNL     1      -0.842  -1.483   4.260  1.00  0.00     0.000 C 
BRANCH  19  20
ATOM     20  C   UNL     1      -1.143   0.009   4.496  1.00  0.00     0.000 C 
BRANCH  20  21
ATOM     21  C   UNL     1      -0.130   0.922   3.783  1.00  0.00     0.000 C 
BRANCH  21  22
ATOM     22  C   UNL     1       1.295   0.772   4.342  1.00  0.00     0.000 C 
BRANCH  22  23
ATOM     23  C   UNL     1       2.384   1.464   3.490  1.00  0.00     0.000 C 
BRANCH  23  24
ATOM     24  C   UNL     1       3.395   0.507   2.830  1.00  0.00    -0.000 C 
BRANCH  24  25
ATOM     25  C   UNL     1       4.786   1.135   2.650  1.00  0.00    -0.000 C 
BRANCH  25  26
ATOM     26  C   UNL     1       5.025   1.507   1.178  1.00  0.00    -0.000 C 
BRANCH  26  27
ATOM     27  C   UNL     1       6.472   1.260   0.727  1.00  0.00    -0.000 C 
BRANCH  27  28
ATOM     28  C   UNL     1       7.140   2.528   0.167  1.00  0.00    -0.000 C 
BRANCH  28  29
ATOM     29  C   UNL     1       8.546   2.254  -0.394  1.00  0.00    -0.000 C 
BRANCH  29  30
ATOM     30  C   UNL     1       9.288   3.542  -0.781  1.00  0.00    -0.000 C 
BRANCH  30  31
ATOM     31  C   UNL     1       8.686   4.757  -0.068  1.00  0.00    -0.003 C 
ATOM     32  C   UNL     1       9.700   5.409   0.866  1.00  0.00     0.004 C 
ENDBRANCH  30  31
ENDBRANCH  29  30
ENDBRANCH  28  29
ENDBRANCH  27  28
ENDBRANCH  26  27
ENDBRANCH  25  26
ENDBRANCH  24  25
ENDBRANCH  23  24
ENDBRANCH  22  23
ENDBRANCH  21  22
ENDBRANCH  20  21
ENDBRANCH  19  20
ENDBRANCH  18  19
ENDBRANCH   1  18
TORSDOF 28
ENDMDL
MODEL 7
REMARK VINA RESULT:     4.564      3.673     12.981
REMARK INTER + INTRA:          10.323
REMARK INTER:                  10.571
REMARK INTRA:                  -0.248
REMARK UNBOUND:                -1.712
REMARK SMILES CCCCCCCCCCCCCCCCCCCCCCCCCCCCCC(=O)[O-]
REMARK SMILES IDX 16 1 17 2 18 3 19 4 20 5 21 6 22 7 23 8 24 9 25 10 26 11
REMARK SMILES IDX 27 12 28 13 29 14 30 15 31 16 32 17 15 18 14 19 13 20 12 21
REMARK SMILES IDX 11 22 10 23 9 24 8 25 7 26 6 27 5 28 4 29 3 30 2 31 1 32
REMARK H PARENT
REMARK Flexibility Score: inf
ROOT
ATOM      1  C   UNL     1       2.554   2.654  -2.558  1.00  0.00     0.000 C 
ENDROOT
BRANCH   1   2
ATOM      2  C   UNL     1       1.801   3.891  -2.043  1.00  0.00     0.000 C 
BRANCH   2   3
ATOM      3  C   UNL     1       1.419   4.863  -3.172  1.00  0.00     0.000 C 
BRANCH   3   4
ATOM      4  C   UNL     1      -0.080   5.200  -3.174  1.00  0.00     0.000 C 
BRANCH   4   5
ATOM      5  C   UNL     1      -0.589   5.467  -4.600  1.00  0.00     0.000 C 
BRANCH   5   6
ATOM      6  C   UNL     1       0.465   5.119  -5.670  1.00  0.00     0.000 C 
BRANCH   6   7
ATOM      7  C   UNL     1       0.608   6.194  -6.764  1.00  0.00     0.000 C 
BRANCH   7   8
ATOM      8  C   UNL     1       0.761   5.579  -8.164  1.00  0.00     0.000 C 
BRANCH   8   9
ATOM      9  C   UNL     1       0.699   6.624  -9.291  1.00  0.00     0.000 C 
BRANCH   9  10
ATOM     10  C   UNL     1       1.550   7.883  -9.020  1.00  0.00     0.000 C 
BRANCH  10  11
ATOM     11  C   UNL     1       0.695   9.155  -8.922  1.00  0.00     0.000 C 
BRANCH  11  12
ATOM     12  C   UNL     1      -0.799   8.823  -9.000  1.00  0.00     0.000 C 
BRANCH  12  13
ATOM     13  C   UNL     1      -1.654  10.049  -8.645  1.00  0.00     0.006 C 
BRANCH  13  14
ATOM     14  C   UNL     1      -2.217   9.970  -7.219  1.00  0.00     0.053 C 
BRANCH  14  15
ATOM     15  C   UNL     1      -1.129   9.950  -6.190  1.00  0.00     0.041 C 
ATOM     16  O   UNL     1       0.066   9.762  -6.534  1.00  0.00    -0.550 OA
ATOM     17  O   UNL     1      -1.437  10.124  -4.844  1.00  0.00    -0.550 OA
ENDBRANCH  14  15
ENDBRANCH  13  14
ENDBRANCH  12  13
ENDBRANCH  11  12
ENDBRANCH  10  11
ENDBRANCH   9  10
ENDBRANCH   8   9
ENDBRANCH   7   8
ENDBRANCH   6   7
ENDBRANCH   5   6
ENDBRANCH   4   5
ENDBRANCH   3   4
ENDBRANCH   2   3
ENDBRANCH   1   2
BRANCH   1  18
ATOM     18  C   UNL     1       2.143   1.393  -1.781  1.00  0.00     0.000 C 
BRANCH  18  19
ATOM     19  C   UNL     1       2.235   1.593  -0.255  1.00  0.00     0.000 C 
BRANCH  19  20
ATOM     20  C   UNL     1       3.482   0.940   0.372  1.00  0.00     0.000 C 
BRANCH  20  21
ATOM     21  C   UNL     1       3.364   0.823   1.902  1.00  0.00     0.000 C 
BRANCH  21  22
ATOM     22  C   UNL     1       2.804  -0.539   2.347  1.00  0.00     0.000 C 
BRANCH  22  23
ATOM     23  C   UNL     1       1.471  -0.927   1.665  1.00  0.00     0.000 C 
BRANCH  23  24
ATOM     24  C   UNL     1       0.766  -2.155   2.273  1.00  0.00    -0.000 C 
BRANCH  24  25
ATOM     25  C   UNL     1      -0.752  -1.968   2.410  1.00  0.00    -0.000 C 
BRANCH  25  26
ATOM     26  C   UNL     1      -1.273  -2.679   3.669  1.00  0.00    -0.000 C 
BRANCH  26  27
ATOM     27  C   UNL     1      -1.078  -1.849   4.947  1.00  0.00    -0.000 C 
BRANCH  27  28
ATOM     28  C   UNL     1      -1.953  -0.584   4.969  1.00  0.00    -0.000 C 
BRANCH  28  29
ATOM     29  C   UNL     1      -1.178   0.675   4.543  1.00  0.00    -0.000 C 
BRANCH  29  30
ATOM     30  C   UNL     1       0.336   0.536   4.761  1.00  0.00    -0.000 C 
BRANCH  30  31
ATOM     31  C   UNL     1       1.092   1.697   4.107  1.00  0.00    -0.003 C 
ATOM     32  C   UNL     1       2.141   2.276   5.052  1.00  0.00     0.004 C 
ENDBRANCH  30  31
ENDBRANCH  29  30
ENDBRANCH  28  29
ENDBRANCH  27  28
ENDBRANCH  26  27
ENDBRANCH  25  26
ENDBRANCH  24  25
ENDBRANCH  23  24
ENDBRANCH  22  23
ENDBRANCH  21  22
ENDBRANCH  20  21
ENDBRANCH  19  20
ENDBRANCH  18  19
ENDBRANCH   1  18
TORSDOF 28
ENDMDL
MODEL 8
REMARK VINA RESULT:     4.707      4.139     13.178
REMARK INTER + INTRA:          10.698
REMARK INTER:                  11.180
REMARK INTRA:                  -0.482
REMARK UNBOUND:                -1.712
REMARK SMILES CCCCCCCCCCCCCCCCCCCCCCCCCCCCCC(=O)[O-]
REMARK SMILES IDX 16 1 17 2 18 3 19 4 20 5 21 6 22 7 23 8 24 9 25 10 26 11
REMARK SMILES IDX 27 12 28 13 29 14 30 15 31 16 32 17 15 18 14 19 13 20 12 21
REMARK SMILES IDX 11 22 10 23 9 24 8 25 7 26 6 27 5 28 4 29 3 30 2 31 1 32
REMARK H PARENT
REMARK Flexibility Score: inf
ROOT
ATOM      1  C   UNL     1       1.029   0.048  -1.835  1.00  0.00     0.000 C 
ENDROOT
BRANCH   1   2
ATOM      2  C   UNL     1       0.809   1.516  -2.233  1.00  0.00     0.000 C 
BRANCH   2   3
ATOM      3  C   UNL     1       2.110   2.335  -2.213  1.00  0.00     0.000 C 
BRANCH   3   4
ATOM      4  C   UNL     1       1.864   3.819  -1.896  1.00  0.00     0.000 C 
BRANCH   4   5
ATOM      5  C   UNL     1       1.682   4.641  -3.183  1.00  0.00     0.000 C 
BRANCH   5   6
ATOM      6  C   UNL     1       0.413   5.514  -3.143  1.00  0.00     0.000 C 
BRANCH   6   7
ATOM      7  C   UNL     1      -0.572   5.220  -4.290  1.00  0.00     0.000 C 
BRANCH   7   8
ATOM      8  C   UNL     1       0.150   4.962  -5.622  1.00  0.00     0.000 C 
BRANCH   8   9
ATOM      9  C   UNL     1       0.099   6.167  -6.577  1.00  0.00     0.000 C 
BRANCH   9  10
ATOM     10  C   UNL     1       0.942   5.985  -7.856  1.00  0.00     0.000 C 
BRANCH  10  11
ATOM     11  C   UNL     1       0.878   7.212  -8.777  1.00  0.00     0.000 C 
BRANCH  11  12
ATOM     12  C   UNL     1       0.775   8.507  -7.965  1.00  0.00     0.000 C 
BRANCH  12  13
ATOM     13  C   UNL     1       0.807   9.737  -8.884  1.00  0.00     0.006 C 
BRANCH  13  14
ATOM     14  C   UNL     1      -0.388   9.773  -9.848  1.00  0.00     0.053 C 
BRANCH  14  15
ATOM     15  C   UNL     1      -1.693   9.843  -9.117  1.00  0.00     0.041 C 
ATOM     16  O   UNL     1      -1.714  10.013  -7.871  1.00  0.00    -0.550 OA
ATOM     17  O   UNL     1      -2.891   9.706  -9.812  1.00  0.00    -0.550 OA
ENDBRANCH  14  15
ENDBRANCH  13  14
ENDBRANCH  12  13
ENDBRANCH  11  12
ENDBRANCH  10  11
ENDBRANCH   9  10
ENDBRANCH   8   9
ENDBRANCH   7   8
ENDBRANCH   6   7
ENDBRANCH   5   6
ENDBRANCH   4   5
ENDBRANCH   3   4
ENDBRANCH   2   3
ENDBRANCH   1   2
BRANCH   1  18
ATOM     18  C   UNL     1       1.771  -0.056  -0.494  1.00  0.00     0.000 C 
BRANCH  18  19
ATOM     19  C   UNL     1       3.216   0.475  -0.584  1.00  0.00     0.000 C 
BRANCH  19  20
ATOM     20  C   UNL     1       3.520   1.592   0.433  1.00  0.00     0.000 C 
BRANCH  20  21
ATOM     21  C   UNL     1       4.823   1.328   1.208  1.00  0.00     0.000 C 
BRANCH  21  22
ATOM     22  C   UNL     1       4.566   0.859   2.650  1.00  0.00     0.000 C 
BRANCH  22  23
ATOM     23  C   UNL     1       3.256   0.057   2.829  1.00  0.00     0.000 C 
BRANCH  23  24
ATOM     24  C   UNL     1       2.124   0.818   3.544  1.00  0.00    -0.000 C 
BRANCH  24  25
ATOM     25  C   UNL     1       0.724   0.363   3.104  1.00  0.00    -0.000 C 
BRANCH  25  26
ATOM     26  C   UNL     1       0.607  -1.167   3.173  1.00  0.00    -0.000 C 
BRANCH  26  27
ATOM     27  C   UNL     1      -0.761  -1.639   3.690  1.00  0.00    -0.000 C 
BRANCH  27  28
ATOM     28  C   UNL     1      -1.652  -0.472   4.150  1.00  0.00    -0.000 C 
BRANCH  28  29
ATOM     29  C   UNL     1      -1.646  -0.295   5.678  1.00  0.00    -0.000 C 
BRANCH  29  30
ATOM     30  C   UNL     1      -0.964  -1.464   6.404  1.00  0.00    -0.000 C 
BRANCH  30  31
ATOM     31  C   UNL     1      -1.686  -1.791   7.715  1.00  0.00    -0.003 C 
ATOM     32  C   UNL     1      -0.700  -2.221   8.797  1.00  0.00     0.004 C 
ENDBRANCH  30  31
ENDBRANCH  29  30
ENDBRANCH  28  29
ENDBRANCH  27  28
ENDBRANCH  26  27
ENDBRANCH  25  26
ENDBRANCH  24  25
ENDBRANCH  23  24
ENDBRANCH  22  23
ENDBRANCH  21  22
ENDBRANCH  20  21
ENDBRANCH  19  20
ENDBRANCH  18  19
ENDBRANCH   1  18
TORSDOF 28
ENDMDL
MODEL 9
REMARK VINA RESULT:     4.781      3.496     13.118
REMARK INTER + INTRA:          10.896
REMARK INTER:                  12.744
REMARK INTRA:                  -1.848
REMARK UNBOUND:                -1.712
REMARK SMILES CCCCCCCCCCCCCCCCCCCCCCCCCCCCCC(=O)[O-]
REMARK SMILES IDX 16 1 17 2 18 3 19 4 20 5 21 6 22 7 23 8 24 9 25 10 26 11
REMARK SMILES IDX 27 12 28 13 29 14 30 15 31 16 32 17 15 18 14 19 13 20 12 21
REMARK SMILES IDX 11 22 10 23 9 24 8 25 7 26 6 27 5 28 4 29 3 30 2 31 1 32
REMARK H PARENT
REMARK Flexibility Score: inf
ROOT
ATOM      1  C   UNL     1       1.676   2.413  -2.043  1.00  0.00     0.000 C 
ENDROOT
BRANCH   1   2
ATOM      2  C   UNL     1       2.114   3.730  -2.703  1.00  0.00     0.000 C 
BRANCH   2   3
ATOM      3  C   UNL     1       1.304   4.939  -2.204  1.00  0.00     0.000 C 
BRANCH   3   4
ATOM      4  C   UNL     1       0.309   5.453  -3.257  1.00  0.00     0.000 C 
BRANCH   4   5
ATOM      5  C   UNL     1      -0.114   6.901  -2.963  1.00  0.00     0.000 C 
BRANCH   5   6
ATOM      6  C   UNL     1      -0.440   7.686  -4.249  1.00  0.00     0.000 C 
BRANCH   6   7
ATOM      7  C   UNL     1      -0.964   9.110  -3.984  1.00  0.00     0.000 C 
BRANCH   7   8
ATOM      8  C   UNL     1      -0.668  10.063  -5.152  1.00  0.00     0.000 C 
BRANCH   8   9
ATOM      9  C   UNL     1      -1.736  10.007  -6.259  1.00  0.00     0.000 C 
BRANCH   9  10
ATOM     10  C   UNL     1      -1.156  10.061  -7.688  1.00  0.00     0.000 C 
BRANCH  10  11
ATOM     11  C   UNL     1      -2.240   9.900  -8.764  1.00  0.00     0.000 C 
BRANCH  11  12
ATOM     12  C   UNL     1      -1.689   9.185 -10.001  1.00  0.00     0.000 C 
BRANCH  12  13
ATOM     13  C   UNL     1      -0.270   8.655  -9.744  1.00  0.00     0.006 C 
BRANCH  13  14
ATOM     14  C   UNL     1      -0.222   7.122  -9.698  1.00  0.00     0.053 C 
BRANCH  14  15
ATOM     15  C   UNL     1       0.753   6.624  -8.677  1.00  0.00     0.041 C 
ATOM     16  O   UNL     1       1.690   5.856  -9.016  1.00  0.00    -0.550 OA
ATOM     17  O   UNL     1       0.619   6.996  -7.343  1.00  0.00    -0.550 OA
ENDBRANCH  14  15
ENDBRANCH  13  14
ENDBRANCH  12  13
ENDBRANCH  11  12
ENDBRANCH  10  11
ENDBRANCH   9  10
ENDBRANCH   8   9
ENDBRANCH   7   8
ENDBRANCH   6   7
ENDBRANCH   5   6
ENDBRANCH   4   5
ENDBRANCH   3   4
ENDBRANCH   2   3
ENDBRANCH   1   2
BRANCH   1  18
ATOM     18  C   UNL     1       2.223   2.303  -0.611  1.00  0.00     0.000 C 
BRANCH  18  19
ATOM     19  C   UNL     1       3.238   1.151  -0.462  1.00  0.00     0.000 C 
BRANCH  19  20
ATOM     20  C   UNL     1       3.720   0.946   0.986  1.00  0.00     0.000 C 
BRANCH  20  21
ATOM     21  C   UNL     1       2.597   0.422   1.899  1.00  0.00     0.000 C 
BRANCH  21  22
ATOM     22  C   UNL     1       2.777   0.856   3.364  1.00  0.00     0.000 C 
BRANCH  22  23
ATOM     23  C   UNL     1       1.712   1.861   3.860  1.00  0.00     0.000 C 
BRANCH  23  24
ATOM     24  C   UNL     1       0.263   1.337   3.830  1.00  0.00    -0.000 C 
BRANCH  24  25
ATOM     25  C   UNL     1      -0.022   0.299   4.926  1.00  0.00    -0.000 C 
BRANCH  25  26
ATOM     26  C   UNL     1      -1.503  -0.111   4.910  1.00  0.00    -0.000 C 
BRANCH  26  27
ATOM     27  C   UNL     1      -1.712  -1.607   5.191  1.00  0.00    -0.000 C 
BRANCH  27  28
ATOM     28  C   UNL     1      -0.850  -2.503   4.285  1.00  0.00    -0.000 C 
BRANCH  28  29
ATOM     29  C   UNL     1      -0.978  -2.131   2.798  1.00  0.00    -0.000 C 
BRANCH  29  30
ATOM     30  C   UNL     1       0.386  -1.925   2.122  1.00  0.00    -0.000 C 
BRANCH  30  31
ATOM     31  C   UNL     1       1.506  -2.576   2.939  1.00  0.00    -0.003 C 
ATOM     32  C   UNL     1       1.936  -3.906   2.328  1.00  0.00     0.004 C 
ENDBRANCH  30  31
ENDBRANCH  29  30
ENDBRANCH  28  29
ENDBRANCH  27  28
ENDBRANCH  26  27
ENDBRANCH  25  26
ENDBRANCH  24  25
ENDBRANCH  23  24
ENDBRANCH  22  23
ENDBRANCH  21  22
ENDBRANCH  20  21
ENDBRANCH  19  20
ENDBRANCH  18  19
ENDBRANCH   1  18
TORSDOF 28
ENDMDL
