MODEL 1
REMARK VINA RESULT:     0.000      0.000      0.000
REMARK INTER + INTRA:          -2.556
REMARK INTER:                   0.000
REMARK INTRA:                  -2.556
REMARK UNBOUND:                -2.556
REMARK SMILES CCCCCCCCCCCCCC(=O)[O-]
REMARK SMILES IDX 8 1 9 2 10 3 11 4 12 5 13 6 14 7 15 8 16 9 7 10 6 11 5 12
REMARK SMILES IDX 4 13 3 14 2 15 1 16
REMARK H PARENT
REMARK Flexibility Score: inf
ROOT
ATOM      1  C   UNL     1     169.310 185.008 194.367  1.00  0.00     0.000 C 
ENDROOT
BRANCH   1   2
ATOM      2  C   UNL     1     170.659 184.354 194.701  1.00  0.00     0.000 C 
BRANCH   2   3
ATOM      3  C   UNL     1     171.827 185.273 194.313  1.00  0.00     0.000 C 
BRANCH   3   4
ATOM      4  C   UNL     1     172.730 184.660 193.230  1.00  0.00     0.000 C 
BRANCH   4   5
ATOM      5  C   UNL     1     173.156 185.685 192.165  1.00  0.00     0.006 C 
BRANCH   5   6
ATOM      6  C   UNL     1     172.881 187.128 192.609  1.00  0.00     0.053 C 
BRANCH   6   7
ATOM      7  C   UNL     1     172.316 187.957 191.496  1.00  0.00     0.041 C 
ATOM      8  O   UNL     1     172.536 187.642 190.297  1.00  0.00    -0.550 OA
ATOM      9  O   UNL     1     171.521 189.060 191.784  1.00  0.00    -0.550 OA
ENDBRANCH   6   7
ENDBRANCH   5   6
ENDBRANCH   4   5
ENDBRANCH   3   4
ENDBRANCH   2   3
ENDBRANCH   1   2
BRANCH   1  10
ATOM     10  C   UNL     1     169.471 186.467 193.888  1.00  0.00     0.000 C 
BRANCH  10  11
ATOM     11  C   UNL     1     168.910 186.718 192.477  1.00  0.00    -0.000 C 
BRANCH  11  12
ATOM     12  C   UNL     1     168.765 185.427 191.655  1.00  0.00    -0.000 C 
BRANCH  12  13
ATOM     13  C   UNL     1     169.824 185.311 190.548  1.00  0.00    -0.000 C 
BRANCH  13  14
ATOM     14  C   UNL     1     170.397 183.889 190.425  1.00  0.00    -0.000 C 
BRANCH  14  15
ATOM     15  C   UNL     1     169.688 182.886 191.348  1.00  0.00    -0.003 C 
ATOM     16  C   UNL     1     170.642 181.844 191.931  1.00  0.00     0.004 C 
ENDBRANCH  14  15
ENDBRANCH  13  14
ENDBRANCH  12  13
ENDBRANCH  11  12
ENDBRANCH  10  11
ENDBRANCH   1  10
TORSDOF 12
ENDMDL
MODEL 2
REMARK VINA RESULT:     0.000     10.212     11.935
REMARK INTER + INTRA:          -2.555
REMARK INTER:                   0.000
REMARK INTRA:                  -2.555
REMARK UNBOUND:                -2.556
REMARK SMILES CCCCCCCCCCCCCC(=O)[O-]
REMARK SMILES IDX 8 1 9 2 10 3 11 4 12 5 13 6 14 7 15 8 16 9 7 10 6 11 5 12
REMARK SMILES IDX 4 13 3 14 2 15 1 16
REMARK H PARENT
REMARK Flexibility Score: inf
ROOT
ATOM      1  C   UNL     1     172.854 191.639 199.204  1.00  0.00     0.000 C 
ENDROOT
BRANCH   1   2
ATOM      2  C   UNL     1     173.957 192.222 200.099  1.00  0.00     0.000 C 
BRANCH   2   3
ATOM      3  C   UNL     1     173.760 193.731 200.304  1.00  0.00     0.000 C 
BRANCH   3   4
ATOM      4  C   UNL     1     173.452 194.098 201.765  1.00  0.00     0.000 C 
BRANCH   4   5
ATOM      5  C   UNL     1     172.373 195.187 201.887  1.00  0.00     0.006 C 
BRANCH   5   6
ATOM      6  C   UNL     1     172.061 195.846 200.536  1.00  0.00     0.053 C 
BRANCH   6   7
ATOM      7  C   UNL     1     170.593 196.086 200.358  1.00  0.00     0.041 C 
ATOM      8  O   UNL     1     170.104 196.185 199.202  1.00  0.00    -0.550 OA
ATOM      9  O   UNL     1     169.760 196.167 201.467  1.00  0.00    -0.550 OA
ENDBRANCH   6   7
ENDBRANCH   5   6
ENDBRANCH   4   5
ENDBRANCH   3   4
ENDBRANCH   2   3
ENDBRANCH   1   2
BRANCH   1  10
ATOM     10  C   UNL     1     171.995 192.739 198.544  1.00  0.00     0.000 C 
BRANCH  10  11
ATOM     11  C   UNL     1     170.498 192.639 198.884  1.00  0.00    -0.000 C 
BRANCH  11  12
ATOM     12  C   UNL     1     170.222 191.755 200.111  1.00  0.00    -0.000 C 
BRANCH  12  13
ATOM     13  C   UNL     1     169.776 192.570 201.335  1.00  0.00    -0.000 C 
BRANCH  13  14
ATOM     14  C   UNL     1     170.438 192.090 202.637  1.00  0.00    -0.000 C 
BRANCH  14  15
ATOM     15  C   UNL     1     171.259 190.806 202.443  1.00  0.00    -0.003 C 
ATOM     16  C   UNL     1     172.552 190.803 203.259  1.00  0.00     0.004 C 
ENDBRANCH  14  15
ENDBRANCH  13  14
ENDBRANCH  12  13
ENDBRANCH  11  12
ENDBRANCH  10  11
ENDBRANCH   1  10
TORSDOF 12
ENDMDL
MODEL 3
REMARK VINA RESULT:     0.002      5.092      7.343
REMARK INTER + INTRA:          -2.552
REMARK INTER:                   0.000
REMARK INTRA:                  -2.552
REMARK UNBOUND:                -2.556
REMARK SMILES CCCCCCCCCCCCCC(=O)[O-]
REMARK SMILES IDX 8 1 9 2 10 3 11 4 12 5 13 6 14 7 15 8 16 9 7 10 6 11 5 12
REMARK SMILES IDX 4 13 3 14 2 15 1 16
REMARK H PARENT
REMARK Flexibility Score: inf
ROOT
ATOM      1  C   UNL     1     174.194 185.272 196.389  1.00  0.00     0.000 C 
ENDROOT
BRANCH   1   2
ATOM      2  C   UNL     1     173.279 185.864 195.308  1.00  0.00     0.000 C 
BRANCH   2   3
ATOM      3  C   UNL     1     172.385 186.970 195.889  1.00  0.00     0.000 C 
BRANCH   3   4
ATOM      4  C   UNL     1     172.659 188.347 195.262  1.00  0.00     0.000 C 
BRANCH   4   5
ATOM      5  C   UNL     1     172.667 189.480 196.303  1.00  0.00     0.006 C 
BRANCH   5   6
ATOM      6  C   UNL     1     172.097 189.027 197.655  1.00  0.00     0.053 C 
BRANCH   6   7
ATOM      7  C   UNL     1     172.871 189.594 198.805  1.00  0.00     0.041 C 
ATOM      8  O   UNL     1     172.842 189.027 199.929  1.00  0.00    -0.550 OA
ATOM      9  O   UNL     1     173.649 190.732 198.629  1.00  0.00    -0.550 OA
ENDBRANCH   6   7
ENDBRANCH   5   6
ENDBRANCH   4   5
ENDBRANCH   3   4
ENDBRANCH   2   3
ENDBRANCH   1   2
BRANCH   1  10
ATOM     10  C   UNL     1     173.824 185.766 197.804  1.00  0.00     0.000 C 
BRANCH  10  11
ATOM     11  C   UNL     1     174.965 186.517 198.512  1.00  0.00    -0.000 C 
BRANCH  11  12
ATOM     12  C   UNL     1     176.079 186.956 197.548  1.00  0.00    -0.000 C 
BRANCH  12  13
ATOM     13  C   UNL     1     176.128 188.480 197.358  1.00  0.00    -0.000 C 
BRANCH  13  14
ATOM     14  C   UNL     1     176.302 188.886 195.886  1.00  0.00    -0.000 C 
BRANCH  14  15
ATOM     15  C   UNL     1     176.602 187.686 194.974  1.00  0.00    -0.003 C 
ATOM     16  C   UNL     1     175.950 187.813 193.598  1.00  0.00     0.004 C 
ENDBRANCH  14  15
ENDBRANCH  13  14
ENDBRANCH  12  13
ENDBRANCH  11  12
ENDBRANCH  10  11
ENDBRANCH   1  10
TORSDOF 12
ENDMDL
MODEL 4
REMARK VINA RESULT:     0.003      5.646      8.543
REMARK INTER + INTRA:          -2.551
REMARK INTER:                   0.000
REMARK INTRA:                  -2.551
REMARK UNBOUND:                -2.556
REMARK SMILES CCCCCCCCCCCCCC(=O)[O-]
REMARK SMILES IDX 8 1 9 2 10 3 11 4 12 5 13 6 14 7 15 8 16 9 7 10 6 11 5 12
REMARK SMILES IDX 4 13 3 14 2 15 1 16
REMARK H PARENT
REMARK Flexibility Score: inf
ROOT
ATOM      1  C   UNL     1     174.886 191.278 193.546  1.00  0.00     0.000 C 
ENDROOT
BRANCH   1   2
ATOM      2  C   UNL     1     174.164 192.498 192.954  1.00  0.00     0.000 C 
BRANCH   2   3
ATOM      3  C   UNL     1     172.647 192.265 192.898  1.00  0.00     0.000 C 
BRANCH   3   4
ATOM      4  C   UNL     1     171.866 193.210 193.827  1.00  0.00     0.000 C 
BRANCH   4   5
ATOM      5  C   UNL     1     170.694 192.508 194.534  1.00  0.00     0.006 C 
BRANCH   5   6
ATOM      6  C   UNL     1     170.417 191.115 193.952  1.00  0.00     0.053 C 
BRANCH   6   7
ATOM      7  C   UNL     1     170.160 190.102 195.024  1.00  0.00     0.041 C 
ATOM      8  O   UNL     1     169.730 190.467 196.150  1.00  0.00    -0.550 OA
ATOM      9  O   UNL     1     170.365 188.751 194.770  1.00  0.00    -0.550 OA
ENDBRANCH   6   7
ENDBRANCH   5   6
ENDBRANCH   4   5
ENDBRANCH   3   4
ENDBRANCH   2   3
ENDBRANCH   1   2
BRANCH   1  10
ATOM     10  C   UNL     1     173.947 190.062 193.703  1.00  0.00     0.000 C 
BRANCH  10  11
ATOM     11  C   UNL     1     173.839 189.551 195.150  1.00  0.00    -0.000 C 
BRANCH  11  12
ATOM     12  C   UNL     1     174.324 190.579 196.185  1.00  0.00    -0.000 C 
BRANCH  12  13
ATOM     13  C   UNL     1     173.169 191.189 196.995  1.00  0.00    -0.000 C 
BRANCH  13  14
ATOM     14  C   UNL     1     173.328 192.704 197.200  1.00  0.00    -0.000 C 
BRANCH  14  15
ATOM     15  C   UNL     1     174.687 193.227 196.709  1.00  0.00    -0.003 C 
ATOM     16  C   UNL     1     174.580 194.583 196.011  1.00  0.00     0.004 C 
ENDBRANCH  14  15
ENDBRANCH  13  14
ENDBRANCH  12  13
ENDBRANCH  11  12
ENDBRANCH  10  11
ENDBRANCH   1  10
TORSDOF 12
ENDMDL
MODEL 5
REMARK VINA RESULT:     0.006      4.083      5.867
REMARK INTER + INTRA:          -2.546
REMARK INTER:                   0.000
REMARK INTRA:                  -2.546
REMARK UNBOUND:                -2.556
REMARK SMILES CCCCCCCCCCCCCC(=O)[O-]
REMARK SMILES IDX 8 1 9 2 10 3 11 4 12 5 13 6 14 7 15 8 16 9 7 10 6 11 5 12
REMARK SMILES IDX 4 13 3 14 2 15 1 16
REMARK H PARENT
REMARK Flexibility Score: inf
ROOT
ATOM      1  C   UNL     1     171.122 188.686 194.254  1.00  0.00     0.000 C 
ENDROOT
BRANCH   1   2
ATOM      2  C   UNL     1     172.136 189.697 194.808  1.00  0.00     0.000 C 
BRANCH   2   3
ATOM      3  C   UNL     1     172.482 189.383 196.271  1.00  0.00     0.000 C 
BRANCH   3   4
ATOM      4  C   UNL     1     173.970 189.051 196.472  1.00  0.00     0.000 C 
BRANCH   4   5
ATOM      5  C   UNL     1     174.186 187.822 197.372  1.00  0.00     0.006 C 
BRANCH   5   6
ATOM      6  C   UNL     1     172.924 187.458 198.166  1.00  0.00     0.053 C 
BRANCH   6   7
ATOM      7  C   UNL     1     172.760 185.976 198.306  1.00  0.00     0.041 C 
ATOM      8  O   UNL     1     171.617 185.480 198.489  1.00  0.00    -0.550 OA
ATOM      9  O   UNL     1     173.864 185.139 198.201  1.00  0.00    -0.550 OA
ENDBRANCH   6   7
ENDBRANCH   5   6
ENDBRANCH   4   5
ENDBRANCH   3   4
ENDBRANCH   2   3
ENDBRANCH   1   2
BRANCH   1  10
ATOM     10  C   UNL     1     170.581 187.740 195.348  1.00  0.00     0.000 C 
BRANCH  10  11
ATOM     11  C   UNL     1     170.879 186.255 195.081  1.00  0.00    -0.000 C 
BRANCH  11  12
ATOM     12  C   UNL     1     171.981 186.047 194.029  1.00  0.00    -0.000 C 
BRANCH  12  13
ATOM     13  C   UNL     1     173.282 185.504 194.639  1.00  0.00    -0.000 C 
BRANCH  13  14
ATOM     14  C   UNL     1     174.533 186.202 194.078  1.00  0.00    -0.000 C 
BRANCH  14  15
ATOM     15  C   UNL     1     174.205 187.161 192.923  1.00  0.00    -0.003 C 
ATOM     16  C   UNL     1     175.098 188.402 192.915  1.00  0.00     0.004 C 
ENDBRANCH  14  15
ENDBRANCH  13  14
ENDBRANCH  12  13
ENDBRANCH  11  12
ENDBRANCH  10  11
ENDBRANCH   1  10
TORSDOF 12
ENDMDL
MODEL 6
REMARK VINA RESULT:     0.008      5.955      7.819
REMARK INTER + INTRA:          -2.542
REMARK INTER:                   0.000
REMARK INTRA:                  -2.542
REMARK UNBOUND:                -2.556
REMARK SMILES CCCCCCCCCCCCCC(=O)[O-]
REMARK SMILES IDX 8 1 9 2 10 3 11 4 12 5 13 6 14 7 15 8 16 9 7 10 6 11 5 12
REMARK SMILES IDX 4 13 3 14 2 15 1 16
REMARK H PARENT
REMARK Flexibility Score: inf
ROOT
ATOM      1  C   UNL     1     177.023 186.822 191.328  1.00  0.00     0.000 C 
ENDROOT
BRANCH   1   2
ATOM      2  C   UNL     1     178.465 186.707 190.812  1.00  0.00     0.000 C 
BRANCH   2   3
ATOM      3  C   UNL     1     179.267 185.693 191.642  1.00  0.00     0.000 C 
BRANCH   3   4
ATOM      4  C   UNL     1     179.758 184.498 190.807  1.00  0.00     0.000 C 
BRANCH   4   5
ATOM      5  C   UNL     1     179.589 183.156 191.539  1.00  0.00     0.006 C 
BRANCH   5   6
ATOM      6  C   UNL     1     179.266 183.346 193.028  1.00  0.00     0.053 C 
BRANCH   6   7
ATOM      7  C   UNL     1     178.306 182.310 193.528  1.00  0.00     0.041 C 
ATOM      8  O   UNL     1     178.228 181.190 192.957  1.00  0.00    -0.550 OA
ATOM      9  O   UNL     1     177.520 182.570 194.644  1.00  0.00    -0.550 OA
ENDBRANCH   6   7
ENDBRANCH   5   6
ENDBRANCH   4   5
ENDBRANCH   3   4
ENDBRANCH   2   3
ENDBRANCH   1   2
BRANCH   1  10
ATOM     10  C   UNL     1     176.818 186.070 192.661  1.00  0.00     0.000 C 
BRANCH  10  11
ATOM     11  C   UNL     1     175.782 184.937 192.576  1.00  0.00    -0.000 C 
BRANCH  11  12
ATOM     12  C   UNL     1     175.442 184.546 191.128  1.00  0.00    -0.000 C 
BRANCH  12  13
ATOM     13  C   UNL     1     175.927 183.133 190.770  1.00  0.00    -0.000 C 
BRANCH  13  14
ATOM     14  C   UNL     1     176.605 183.074 189.391  1.00  0.00    -0.000 C 
BRANCH  14  15
ATOM     15  C   UNL     1     176.424 184.371 188.588  1.00  0.00    -0.003 C 
ATOM     16  C   UNL     1     177.639 184.705 187.724  1.00  0.00     0.004 C 
ENDBRANCH  14  15
ENDBRANCH  13  14
ENDBRANCH  12  13
ENDBRANCH  11  12
ENDBRANCH  10  11
ENDBRANCH   1  10
TORSDOF 12
ENDMDL
MODEL 7
REMARK VINA RESULT:     0.009      4.626      8.132
REMARK INTER + INTRA:          -2.541
REMARK INTER:                   0.000
REMARK INTRA:                  -2.541
REMARK UNBOUND:                -2.556
REMARK SMILES CCCCCCCCCCCCCC(=O)[O-]
REMARK SMILES IDX 8 1 9 2 10 3 11 4 12 5 13 6 14 7 15 8 16 9 7 10 6 11 5 12
REMARK SMILES IDX 4 13 3 14 2 15 1 16
REMARK H PARENT
REMARK Flexibility Score: inf
ROOT
ATOM      1  C   UNL     1     177.990 189.530 192.360  1.00  0.00     0.000 C 
ENDROOT
BRANCH   1   2
ATOM      2  C   UNL     1     177.369 189.642 190.960  1.00  0.00     0.000 C 
BRANCH   2   3
ATOM      3  C   UNL     1     175.966 189.018 190.929  1.00  0.00     0.000 C 
BRANCH   3   4
ATOM      4  C   UNL     1     174.850 190.071 190.819  1.00  0.00     0.000 C 
BRANCH   4   5
ATOM      5  C   UNL     1     173.610 189.708 191.654  1.00  0.00     0.006 C 
BRANCH   5   6
ATOM      6  C   UNL     1     173.740 188.328 192.313  1.00  0.00     0.053 C 
BRANCH   6   7
ATOM      7  C   UNL     1     173.146 188.308 193.688  1.00  0.00     0.041 C 
ATOM      8  O   UNL     1     173.504 187.432 194.519  1.00  0.00    -0.550 OA
ATOM      9  O   UNL     1     172.222 189.275 194.063  1.00  0.00    -0.550 OA
ENDBRANCH   6   7
ENDBRANCH   5   6
ENDBRANCH   4   5
ENDBRANCH   3   4
ENDBRANCH   2   3
ENDBRANCH   1   2
BRANCH   1  10
ATOM     10  C   UNL     1     177.296 188.456 193.224  1.00  0.00     0.000 C 
BRANCH  10  11
ATOM     11  C   UNL     1     176.734 188.999 194.549  1.00  0.00    -0.000 C 
BRANCH  11  12
ATOM     12  C   UNL     1     176.764 190.534 194.625  1.00  0.00    -0.000 C 
BRANCH  12  13
ATOM     13  C   UNL     1     175.357 191.152 194.617  1.00  0.00    -0.000 C 
BRANCH  13  14
ATOM     14  C   UNL     1     175.256 192.379 193.696  1.00  0.00    -0.000 C 
BRANCH  14  15
ATOM     15  C   UNL     1     176.632 192.882 193.230  1.00  0.00    -0.003 C 
ATOM     16  C   UNL     1     176.666 193.206 191.737  1.00  0.00     0.004 C 
ENDBRANCH  14  15
ENDBRANCH  13  14
ENDBRANCH  12  13
ENDBRANCH  11  12
ENDBRANCH  10  11
ENDBRANCH   1  10
TORSDOF 12
ENDMDL
MODEL 8
REMARK VINA RESULT:     0.011      7.896      9.695
REMARK INTER + INTRA:          -2.538
REMARK INTER:                   0.000
REMARK INTRA:                  -2.538
REMARK UNBOUND:                -2.556
REMARK SMILES CCCCCCCCCCCCCC(=O)[O-]
REMARK SMILES IDX 8 1 9 2 10 3 11 4 12 5 13 6 14 7 15 8 16 9 7 10 6 11 5 12
REMARK SMILES IDX 4 13 3 14 2 15 1 16
REMARK H PARENT
REMARK Flexibility Score: inf
ROOT
ATOM      1  C   UNL     1     172.909 188.662 202.215  1.00  0.00     0.000 C 
ENDROOT
BRANCH   1   2
ATOM      2  C   UNL     1     172.020 187.909 201.215  1.00  0.00     0.000 C 
BRANCH   2   3
ATOM      3  C   UNL     1     171.327 188.885 200.252  1.00  0.00     0.000 C 
BRANCH   3   4
ATOM      4  C   UNL     1     171.867 188.786 198.815  1.00  0.00     0.000 C 
BRANCH   4   5
ATOM      5  C   UNL     1     171.955 190.156 198.121  1.00  0.00     0.006 C 
BRANCH   5   6
ATOM      6  C   UNL     1     171.369 191.281 198.986  1.00  0.00     0.053 C 
BRANCH   6   7
ATOM      7  C   UNL     1     172.172 192.542 198.881  1.00  0.00     0.041 C 
ATOM      8  O   UNL     1     172.935 192.727 197.896  1.00  0.00    -0.550 OA
ATOM      9  O   UNL     1     172.053 193.527 199.854  1.00  0.00    -0.550 OA
ENDBRANCH   6   7
ENDBRANCH   5   6
ENDBRANCH   4   5
ENDBRANCH   3   4
ENDBRANCH   2   3
ENDBRANCH   1   2
BRANCH   1  10
ATOM     10  C   UNL     1     172.553 190.161 202.301  1.00  0.00     0.000 C 
BRANCH  10  11
ATOM     11  C   UNL     1     173.731 191.094 201.970  1.00  0.00    -0.000 C 
BRANCH  11  12
ATOM     12  C   UNL     1     174.940 190.344 201.387  1.00  0.00    -0.000 C 
BRANCH  12  13
ATOM     13  C   UNL     1     175.205 190.704 199.917  1.00  0.00    -0.000 C 
BRANCH  13  14
ATOM     14  C   UNL     1     175.503 189.469 199.051  1.00  0.00    -0.000 C 
BRANCH  14  15
ATOM     15  C   UNL     1     175.766 188.209 199.891  1.00  0.00    -0.003 C 
ATOM     16  C   UNL     1     175.092 186.965 199.315  1.00  0.00     0.004 C 
ENDBRANCH  14  15
ENDBRANCH  13  14
ENDBRANCH  12  13
ENDBRANCH  11  12
ENDBRANCH  10  11
ENDBRANCH   1  10
TORSDOF 12
ENDMDL
MODEL 9
REMARK VINA RESULT:     0.027      2.958      5.022
REMARK INTER + INTRA:          -2.510
REMARK INTER:                   0.000
REMARK INTRA:                  -2.510
REMARK UNBOUND:                -2.556
REMARK SMILES CCCCCCCCCCCCCC(=O)[O-]
REMARK SMILES IDX 8 1 9 2 10 3 11 4 12 5 13 6 14 7 15 8 16 9 7 10 6 11 5 12
REMARK SMILES IDX 4 13 3 14 2 15 1 16
REMARK H PARENT
REMARK Flexibility Score: inf
ROOT
ATOM      1  C   UNL     1     173.677 187.588 189.830  1.00  0.00     0.000 C 
ENDROOT
BRANCH   1   2
ATOM      2  C   UNL     1     173.614 189.039 190.329  1.00  0.00     0.000 C 
BRANCH   2   3
ATOM      3  C   UNL     1     174.053 189.134 191.798  1.00  0.00     0.000 C 
BRANCH   3   4
ATOM      4  C   UNL     1     172.905 189.541 192.737  1.00  0.00     0.000 C 
BRANCH   4   5
ATOM      5  C   UNL     1     172.955 188.803 194.086  1.00  0.00     0.006 C 
BRANCH   5   6
ATOM      6  C   UNL     1     174.199 187.912 194.212  1.00  0.00     0.053 C 
BRANCH   6   7
ATOM      7  C   UNL     1     173.988 186.794 195.187  1.00  0.00     0.041 C 
ATOM      8  O   UNL     1     174.128 185.598 194.819  1.00  0.00    -0.550 OA
ATOM      9  O   UNL     1     173.669 187.074 196.510  1.00  0.00    -0.550 OA
ENDBRANCH   6   7
ENDBRANCH   5   6
ENDBRANCH   4   5
ENDBRANCH   3   4
ENDBRANCH   2   3
ENDBRANCH   1   2
BRANCH   1  10
ATOM     10  C   UNL     1     174.536 186.690 190.746  1.00  0.00     0.000 C 
BRANCH  10  11
ATOM     11  C   UNL     1     173.766 185.496 191.335  1.00  0.00    -0.000 C 
BRANCH  11  12
ATOM     12  C   UNL     1     172.247 185.598 191.116  1.00  0.00    -0.000 C 
BRANCH  12  13
ATOM     13  C   UNL     1     171.478 185.836 192.425  1.00  0.00    -0.000 C 
BRANCH  13  14
ATOM     14  C   UNL     1     170.345 186.862 192.265  1.00  0.00    -0.000 C 
BRANCH  14  15
ATOM     15  C   UNL     1     170.112 187.261 190.799  1.00  0.00    -0.003 C 
ATOM     16  C   UNL     1     169.923 188.767 190.621  1.00  0.00     0.004 C 
ENDBRANCH  14  15
ENDBRANCH  13  14
ENDBRANCH  12  13
ENDBRANCH  11  12
ENDBRANCH  10  11
ENDBRANCH   1  10
TORSDOF 12
ENDMDL
