MODEL 1
REMARK VINA RESULT:    -7.556      0.000      0.000
REMARK INTER + INTRA:          -8.817
REMARK INTER:                  -9.102
REMARK INTRA:                   0.285
REMARK UNBOUND:                 0.285
REMARK SMILES Oc1cc(O)c2cc(O)c(-c3ccc(O)c(O)c3)[o+]c2c1
REMARK SMILES IDX 10 1 19 2 20 3 21 4 2 5 3 6 4 7 6 8 7 9 8 10 11 11 12 12
REMARK SMILES IDX 13 13 14 14 18 15 16 16 15 17 17 19 9 21 1 23 5 25
REMARK H PARENT 15 18 17 20 9 22 1 24 5 26
REMARK Flexibility Score: inf
ROOT
ATOM      1  C   UNL     1      27.940 -40.738   2.545  1.00  0.00     0.402 A 
ATOM      2  O   UNL     1      27.729 -40.556   3.846  1.00  0.00    -0.202 OA
ATOM      3  C   UNL     1      28.637 -40.826   4.777  1.00  0.00     0.368 A 
ATOM      4  C   UNL     1      28.324 -40.599   6.120  1.00  0.00     0.162 A 
ATOM      5  C   UNL     1      29.259 -40.871   7.119  1.00  0.00     0.128 A 
ATOM      6  C   UNL     1      30.519 -41.371   6.775  1.00  0.00     0.093 A 
ATOM      7  C   UNL     1      30.859 -41.607   5.438  1.00  0.00     0.136 A 
ATOM      8  C   UNL     1      29.909 -41.335   4.419  1.00  0.00     0.125 A 
ATOM      9  C   UNL     1      30.157 -41.553   3.054  1.00  0.00     0.078 A 
ATOM     10  C   UNL     1      29.170 -41.265   2.107  1.00  0.00     0.223 A 
ENDROOT
BRANCH   1  11
ATOM     11  C   UNL     1      26.852 -40.390   1.604  1.00  0.00     0.087 A 
ATOM     12  C   UNL     1      26.749 -41.002   0.342  1.00  0.00     0.022 A 
ATOM     13  C   UNL     1      25.726 -40.640  -0.539  1.00  0.00     0.051 A 
ATOM     14  C   UNL     1      24.800 -39.653  -0.177  1.00  0.00     0.157 A 
ATOM     15  C   UNL     1      25.932 -39.385   1.952  1.00  0.00     0.068 A 
ATOM     16  C   UNL     1      24.905 -39.021   1.068  1.00  0.00     0.158 A 
BRANCH  14  17
ATOM     17  O   UNL     1      23.778 -39.290  -1.052  1.00  0.00    -0.504 OA
ATOM     18  H   UNL     1      23.970 -38.793  -1.915  1.00  0.00     0.293 HD
ENDBRANCH  14  17
BRANCH  16  19
ATOM     19  O   UNL     1      23.987 -38.035   1.421  1.00  0.00    -0.504 OA
ATOM     20  H   UNL     1      24.028 -37.570   2.321  1.00  0.00     0.293 HD
ENDBRANCH  16  19
ENDBRANCH   1  11
BRANCH  10  21
ATOM     21  O   UNL     1      29.397 -41.528   0.756  1.00  0.00    -0.500 OA
ATOM     22  H   UNL     1      28.736 -42.057   0.198  1.00  0.00     0.294 HD
ENDBRANCH  10  21
BRANCH   5  23
ATOM     23  O   UNL     1      28.926 -40.638   8.452  1.00  0.00    -0.507 OA
ATOM     24  H   UNL     1      28.429 -39.803   8.736  1.00  0.00     0.293 HD
ENDBRANCH   5  23
BRANCH   7  25
ATOM     25  O   UNL     1      32.138 -42.106   5.176  1.00  0.00    -0.507 OA
ATOM     26  H   UNL     1      32.361 -42.736   4.420  1.00  0.00     0.293 HD
ENDBRANCH   7  25
TORSDOF 6
ENDMDL
MODEL 2
REMARK VINA RESULT:    -7.484      0.764      1.584
REMARK INTER + INTRA:          -8.731
REMARK INTER:                  -9.010
REMARK INTRA:                   0.280
REMARK UNBOUND:                 0.285
REMARK SMILES Oc1cc(O)c2cc(O)c(-c3ccc(O)c(O)c3)[o+]c2c1
REMARK SMILES IDX 10 1 19 2 20 3 21 4 2 5 3 6 4 7 6 8 7 9 8 10 11 11 12 12
REMARK SMILES IDX 13 13 14 14 18 15 16 16 15 17 17 19 9 21 1 23 5 25
REMARK H PARENT 15 18 17 20 9 22 1 24 5 26
REMARK Flexibility Score: inf
ROOT
ATOM      1  C   UNL     1      28.027 -40.833   2.448  1.00  0.00     0.402 A 
ATOM      2  O   UNL     1      27.751 -40.632   3.734  1.00  0.00    -0.202 OA
ATOM      3  C   UNL     1      28.614 -40.880   4.714  1.00  0.00     0.368 A 
ATOM      4  C   UNL     1      28.233 -40.635   6.035  1.00  0.00     0.162 A 
ATOM      5  C   UNL     1      29.120 -40.883   7.083  1.00  0.00     0.128 A 
ATOM      6  C   UNL     1      30.399 -41.378   6.810  1.00  0.00     0.093 A 
ATOM      7  C   UNL     1      30.806 -41.633   5.495  1.00  0.00     0.136 A 
ATOM      8  C   UNL     1      29.905 -41.384   4.426  1.00  0.00     0.125 A 
ATOM      9  C   UNL     1      30.222 -41.622   3.078  1.00  0.00     0.078 A 
ATOM     10  C   UNL     1      29.280 -41.357   2.080  1.00  0.00     0.223 A 
ENDROOT
BRANCH   1  11
ATOM     11  C   UNL     1      26.983 -40.509   1.449  1.00  0.00     0.087 A 
ATOM     12  C   UNL     1      26.033 -39.499   1.683  1.00  0.00     0.022 A 
ATOM     13  C   UNL     1      25.044 -39.226   0.734  1.00  0.00     0.051 A 
ATOM     14  C   UNL     1      24.981 -39.967  -0.453  1.00  0.00     0.157 A 
ATOM     15  C   UNL     1      26.903 -41.262   0.266  1.00  0.00     0.068 A 
ATOM     16  C   UNL     1      25.910 -40.989  -0.687  1.00  0.00     0.158 A 
BRANCH  14  17
ATOM     17  O   UNL     1      23.997 -39.698  -1.402  1.00  0.00    -0.504 OA
ATOM     18  H   UNL     1      23.017 -39.635  -1.147  1.00  0.00     0.293 HD
ENDBRANCH  14  17
BRANCH  16  19
ATOM     19  O   UNL     1      25.840 -41.728  -1.866  1.00  0.00    -0.504 OA
ATOM     20  H   UNL     1      24.990 -42.206  -2.143  1.00  0.00     0.293 HD
ENDBRANCH  16  19
ENDBRANCH   1  11
BRANCH  10  21
ATOM     21  O   UNL     1      29.575 -41.640   0.746  1.00  0.00    -0.500 OA
ATOM     22  H   UNL     1      29.507 -40.931   0.024  1.00  0.00     0.294 HD
ENDBRANCH  10  21
BRANCH   5  23
ATOM     23  O   UNL     1      28.720 -40.632   8.394  1.00  0.00    -0.507 OA
ATOM     24  H   UNL     1      28.449 -41.382   9.019  1.00  0.00     0.293 HD
ENDBRANCH   5  23
BRANCH   7  25
ATOM     25  O   UNL     1      32.100 -42.125   5.304  1.00  0.00    -0.507 OA
ATOM     26  H   UNL     1      32.868 -41.976   5.942  1.00  0.00     0.293 HD
ENDBRANCH   7  25
TORSDOF 6
ENDMDL
MODEL 3
REMARK VINA RESULT:    -7.345      1.127      6.725
REMARK INTER + INTRA:          -8.563
REMARK INTER:                  -8.973
REMARK INTRA:                   0.410
REMARK UNBOUND:                 0.285
REMARK SMILES Oc1cc(O)c2cc(O)c(-c3ccc(O)c(O)c3)[o+]c2c1
REMARK SMILES IDX 10 1 19 2 20 3 21 4 2 5 3 6 4 7 6 8 7 9 8 10 11 11 12 12
REMARK SMILES IDX 13 13 14 14 18 15 16 16 15 17 17 19 9 21 1 23 5 25
REMARK H PARENT 15 18 17 20 9 22 1 24 5 26
REMARK Flexibility Score: inf
ROOT
ATOM      1  C   UNL     1      27.853 -40.635   2.527  1.00  0.00     0.402 A 
ATOM      2  O   UNL     1      26.815 -39.813   2.652  1.00  0.00    -0.202 OA
ATOM      3  C   UNL     1      25.932 -39.600   1.683  1.00  0.00     0.368 A 
ATOM      4  C   UNL     1      24.871 -38.720   1.909  1.00  0.00     0.162 A 
ATOM      5  C   UNL     1      23.927 -38.479   0.910  1.00  0.00     0.128 A 
ATOM      6  C   UNL     1      24.041 -39.125  -0.325  1.00  0.00     0.093 A 
ATOM      7  C   UNL     1      25.094 -40.012  -0.578  1.00  0.00     0.136 A 
ATOM      8  C   UNL     1      26.058 -40.257   0.435  1.00  0.00     0.125 A 
ATOM      9  C   UNL     1      27.154 -41.120   0.266  1.00  0.00     0.078 A 
ATOM     10  C   UNL     1      28.065 -41.307   1.309  1.00  0.00     0.223 A 
ENDROOT
BRANCH   1  11
ATOM     11  C   UNL     1      28.762 -40.796   3.685  1.00  0.00     0.087 A 
ATOM     12  C   UNL     1      29.958 -41.530   3.582  1.00  0.00     0.022 A 
ATOM     13  C   UNL     1      30.788 -41.687   4.695  1.00  0.00     0.051 A 
ATOM     14  C   UNL     1      30.431 -41.125   5.927  1.00  0.00     0.157 A 
ATOM     15  C   UNL     1      28.399 -40.253   4.929  1.00  0.00     0.068 A 
ATOM     16  C   UNL     1      29.232 -40.410   6.046  1.00  0.00     0.158 A 
BRANCH  14  17
ATOM     17  O   UNL     1      31.257 -41.279   7.040  1.00  0.00    -0.504 OA
ATOM     18  H   UNL     1      32.264 -41.182   6.969  1.00  0.00     0.293 HD
ENDBRANCH  14  17
BRANCH  16  19
ATOM     19  O   UNL     1      28.877 -39.859   7.276  1.00  0.00    -0.504 OA
ATOM     20  H   UNL     1      29.003 -38.872   7.471  1.00  0.00     0.293 HD
ENDBRANCH  16  19
ENDBRANCH   1  11
BRANCH  10  21
ATOM     21  O   UNL     1      29.181 -42.125   1.125  1.00  0.00    -0.500 OA
ATOM     22  H   UNL     1      29.840 -41.965   0.373  1.00  0.00     0.294 HD
ENDBRANCH  10  21
BRANCH   5  23
ATOM     23  O   UNL     1      22.877 -37.597   1.156  1.00  0.00    -0.507 OA
ATOM     24  H   UNL     1      22.414 -37.561   2.057  1.00  0.00     0.293 HD
ENDBRANCH   5  23
BRANCH   7  25
ATOM     25  O   UNL     1      25.138 -40.619  -1.837  1.00  0.00    -0.507 OA
ATOM     26  H   UNL     1      24.646 -40.281  -2.650  1.00  0.00     0.293 HD
ENDBRANCH   7  25
TORSDOF 6
ENDMDL
MODEL 4
REMARK VINA RESULT:    -7.080      1.673      7.444
REMARK INTER + INTRA:          -8.244
REMARK INTER:                  -8.639
REMARK INTRA:                   0.395
REMARK UNBOUND:                 0.285
REMARK SMILES Oc1cc(O)c2cc(O)c(-c3ccc(O)c(O)c3)[o+]c2c1
REMARK SMILES IDX 10 1 19 2 20 3 21 4 2 5 3 6 4 7 6 8 7 9 8 10 11 11 12 12
REMARK SMILES IDX 13 13 14 14 18 15 16 16 15 17 17 19 9 21 1 23 5 25
REMARK H PARENT 15 18 17 20 9 22 1 24 5 26
REMARK Flexibility Score: inf
ROOT
ATOM      1  C   UNL     1      27.494 -40.478   1.378  1.00  0.00     0.402 A 
ATOM      2  O   UNL     1      27.172 -41.145   0.273  1.00  0.00    -0.202 OA
ATOM      3  C   UNL     1      26.116 -40.848  -0.476  1.00  0.00     0.368 A 
ATOM      4  C   UNL     1      25.861 -41.606  -1.622  1.00  0.00     0.162 A 
ATOM      5  C   UNL     1      24.760 -41.316  -2.429  1.00  0.00     0.128 A 
ATOM      6  C   UNL     1      23.908 -40.259  -2.091  1.00  0.00     0.093 A 
ATOM      7  C   UNL     1      24.141 -39.484  -0.949  1.00  0.00     0.136 A 
ATOM      8  C   UNL     1      25.258 -39.779  -0.123  1.00  0.00     0.125 A 
ATOM      9  C   UNL     1      25.562 -39.065   1.047  1.00  0.00     0.078 A 
ATOM     10  C   UNL     1      26.678 -39.417   1.812  1.00  0.00     0.223 A 
ENDROOT
BRANCH   1  11
ATOM     11  C   UNL     1      28.703 -40.898   2.123  1.00  0.00     0.087 A 
ATOM     12  C   UNL     1      29.708 -41.671   1.513  1.00  0.00     0.022 A 
ATOM     13  C   UNL     1      30.829 -42.075   2.243  1.00  0.00     0.051 A 
ATOM     14  C   UNL     1      30.956 -41.725   3.593  1.00  0.00     0.157 A 
ATOM     15  C   UNL     1      28.826 -40.568   3.483  1.00  0.00     0.068 A 
ATOM     16  C   UNL     1      29.952 -40.973   4.216  1.00  0.00     0.158 A 
BRANCH  14  17
ATOM     17  O   UNL     1      32.073 -42.125   4.325  1.00  0.00    -0.504 OA
ATOM     18  H   UNL     1      32.955 -41.628   4.261  1.00  0.00     0.293 HD
ENDBRANCH  14  17
BRANCH  16  19
ATOM     19  O   UNL     1      30.078 -40.633   5.561  1.00  0.00    -0.504 OA
ATOM     20  H   UNL     1      29.521 -41.086   6.277  1.00  0.00     0.293 HD
ENDBRANCH  16  19
ENDBRANCH   1  11
BRANCH  10  21
ATOM     21  O   UNL     1      26.953 -38.741   3.002  1.00  0.00    -0.500 OA
ATOM     22  H   UNL     1      27.900 -38.493   3.267  1.00  0.00     0.294 HD
ENDBRANCH  10  21
BRANCH   5  23
ATOM     23  O   UNL     1      24.522 -42.083  -3.568  1.00  0.00    -0.507 OA
ATOM     24  H   UNL     1      23.780 -41.852  -4.217  1.00  0.00     0.293 HD
ENDBRANCH   5  23
BRANCH   7  25
ATOM     25  O   UNL     1      23.246 -38.445  -0.680  1.00  0.00    -0.507 OA
ATOM     26  H   UNL     1      22.245 -38.511  -0.794  1.00  0.00     0.293 HD
ENDBRANCH   7  25
TORSDOF 6
ENDMDL
MODEL 5
REMARK VINA RESULT:    -6.632      1.890      3.310
REMARK INTER + INTRA:          -7.704
REMARK INTER:                  -8.019
REMARK INTRA:                   0.315
REMARK UNBOUND:                 0.285
REMARK SMILES Oc1cc(O)c2cc(O)c(-c3ccc(O)c(O)c3)[o+]c2c1
REMARK SMILES IDX 10 1 19 2 20 3 21 4 2 5 3 6 4 7 6 8 7 9 8 10 11 11 12 12
REMARK SMILES IDX 13 13 14 14 18 15 16 16 15 17 17 19 9 21 1 23 5 25
REMARK H PARENT 15 18 17 20 9 22 1 24 5 26
REMARK Flexibility Score: inf
ROOT
ATOM      1  C   UNL     1      25.926 -39.460   1.714  1.00  0.00     0.402 A 
ATOM      2  O   UNL     1      26.572 -39.520   2.875  1.00  0.00    -0.202 OA
ATOM      3  C   UNL     1      27.733 -40.148   3.033  1.00  0.00     0.368 A 
ATOM      4  C   UNL     1      28.337 -40.154   4.293  1.00  0.00     0.162 A 
ATOM      5  C   UNL     1      29.557 -40.803   4.487  1.00  0.00     0.128 A 
ATOM      6  C   UNL     1      30.180 -41.450   3.414  1.00  0.00     0.093 A 
ATOM      7  C   UNL     1      29.596 -41.458   2.142  1.00  0.00     0.136 A 
ATOM      8  C   UNL     1      28.353 -40.802   1.942  1.00  0.00     0.125 A 
ATOM      9  C   UNL     1      27.688 -40.770   0.705  1.00  0.00     0.078 A 
ATOM     10  C   UNL     1      26.463 -40.107   0.585  1.00  0.00     0.223 A 
ENDROOT
BRANCH   1  11
ATOM     11  C   UNL     1      24.644 -38.721   1.664  1.00  0.00     0.087 A 
ATOM     12  C   UNL     1      24.096 -38.285   0.444  1.00  0.00     0.022 A 
ATOM     13  C   UNL     1      22.896 -37.569   0.424  1.00  0.00     0.051 A 
ATOM     14  C   UNL     1      22.234 -37.267   1.621  1.00  0.00     0.157 A 
ATOM     15  C   UNL     1      23.986 -38.397   2.862  1.00  0.00     0.068 A 
ATOM     16  C   UNL     1      22.782 -37.678   2.843  1.00  0.00     0.158 A 
BRANCH  14  17
ATOM     17  O   UNL     1      21.037 -36.554   1.605  1.00  0.00    -0.504 OA
ATOM     18  H   UNL     1      20.373 -36.649   0.844  1.00  0.00     0.293 HD
ENDBRANCH  14  17
BRANCH  16  19
ATOM     19  O   UNL     1      22.124 -37.370   4.032  1.00  0.00    -0.504 OA
ATOM     20  H   UNL     1      22.589 -37.443   4.929  1.00  0.00     0.293 HD
ENDBRANCH  16  19
ENDBRANCH   1  11
BRANCH  10  21
ATOM     21  O   UNL     1      25.777 -40.117  -0.630  1.00  0.00    -0.500 OA
ATOM     22  H   UNL     1      25.918 -39.394  -1.327  1.00  0.00     0.294 HD
ENDBRANCH  10  21
BRANCH   5  23
ATOM     23  O   UNL     1      30.143 -40.798   5.751  1.00  0.00    -0.507 OA
ATOM     24  H   UNL     1      30.034 -40.015   6.383  1.00  0.00     0.293 HD
ENDBRANCH   5  23
BRANCH   7  25
ATOM     25  O   UNL     1      30.281 -42.124   1.122  1.00  0.00    -0.507 OA
ATOM     26  H   UNL     1      30.500 -41.720   0.223  1.00  0.00     0.293 HD
ENDBRANCH   7  25
TORSDOF 6
ENDMDL
MODEL 6
REMARK VINA RESULT:    -5.825      1.558      3.221
REMARK INTER + INTRA:          -6.732
REMARK INTER:                  -6.760
REMARK INTRA:                   0.029
REMARK UNBOUND:                 0.285
REMARK SMILES Oc1cc(O)c2cc(O)c(-c3ccc(O)c(O)c3)[o+]c2c1
REMARK SMILES IDX 10 1 19 2 20 3 21 4 2 5 3 6 4 7 6 8 7 9 8 10 11 11 12 12
REMARK SMILES IDX 13 13 14 14 18 15 16 16 15 17 17 19 9 21 1 23 5 25
REMARK H PARENT 15 18 17 20 9 22 1 24 5 26
REMARK Flexibility Score: inf
ROOT
ATOM      1  C   UNL     1      28.297 -40.785   3.297  1.00  0.00     0.402 A 
ATOM      2  O   UNL     1      29.542 -41.026   2.893  1.00  0.00    -0.202 OA
ATOM      3  C   UNL     1      30.533 -41.328   3.725  1.00  0.00     0.368 A 
ATOM      4  C   UNL     1      31.808 -41.568   3.206  1.00  0.00     0.162 A 
ATOM      5  C   UNL     1      32.867 -41.890   4.055  1.00  0.00     0.128 A 
ATOM      6  C   UNL     1      32.651 -41.976   5.435  1.00  0.00     0.093 A 
ATOM      7  C   UNL     1      31.384 -41.740   5.981  1.00  0.00     0.136 A 
ATOM      8  C   UNL     1      30.305 -41.409   5.120  1.00  0.00     0.125 A 
ATOM      9  C   UNL     1      29.004 -41.145   5.579  1.00  0.00     0.078 A 
ATOM     10  C   UNL     1      27.993 -40.820   4.671  1.00  0.00     0.223 A 
ENDROOT
BRANCH   1  11
ATOM     11  C   UNL     1      27.277 -40.468   2.271  1.00  0.00     0.087 A 
ATOM     12  C   UNL     1      26.387 -39.391   2.430  1.00  0.00     0.022 A 
ATOM     13  C   UNL     1      25.418 -39.126   1.458  1.00  0.00     0.051 A 
ATOM     14  C   UNL     1      25.316 -39.940   0.323  1.00  0.00     0.157 A 
ATOM     15  C   UNL     1      27.156 -41.294   1.140  1.00  0.00     0.068 A 
ATOM     16  C   UNL     1      26.183 -41.029   0.165  1.00  0.00     0.158 A 
BRANCH  14  17
ATOM     17  O   UNL     1      24.351 -39.679  -0.649  1.00  0.00    -0.504 OA
ATOM     18  H   UNL     1      24.367 -40.143  -1.550  1.00  0.00     0.293 HD
ENDBRANCH  14  17
BRANCH  16  19
ATOM     19  O   UNL     1      26.074 -41.840  -0.962  1.00  0.00    -0.504 OA
ATOM     20  H   UNL     1      26.615 -41.660  -1.800  1.00  0.00     0.293 HD
ENDBRANCH  16  19
ENDBRANCH   1  11
BRANCH  10  21
ATOM     21  O   UNL     1      26.713 -40.508   5.130  1.00  0.00    -0.500 OA
ATOM     22  H   UNL     1      26.506 -40.432   6.119  1.00  0.00     0.294 HD
ENDBRANCH  10  21
BRANCH   5  23
ATOM     23  O   UNL     1      34.131 -42.125   3.518  1.00  0.00    -0.507 OA
ATOM     24  H   UNL     1      34.253 -42.652   2.661  1.00  0.00     0.293 HD
ENDBRANCH   5  23
BRANCH   7  25
ATOM     25  O   UNL     1      31.249 -41.847   7.368  1.00  0.00    -0.507 OA
ATOM     26  H   UNL     1      31.178 -41.061   7.997  1.00  0.00     0.293 HD
ENDBRANCH   7  25
TORSDOF 6
ENDMDL
MODEL 7
REMARK VINA RESULT:    -5.126      1.502      7.298
REMARK INTER + INTRA:          -5.890
REMARK INTER:                  -6.085
REMARK INTRA:                   0.195
REMARK UNBOUND:                 0.285
REMARK SMILES Oc1cc(O)c2cc(O)c(-c3ccc(O)c(O)c3)[o+]c2c1
REMARK SMILES IDX 10 1 19 2 20 3 21 4 2 5 3 6 4 7 6 8 7 9 8 10 11 11 12 12
REMARK SMILES IDX 13 13 14 14 18 15 16 16 15 17 17 19 9 21 1 23 5 25
REMARK H PARENT 15 18 17 20 9 22 1 24 5 26
REMARK Flexibility Score: inf
ROOT
ATOM      1  C   UNL     1      28.644 -40.833   3.373  1.00  0.00     0.402 A 
ATOM      2  O   UNL     1      28.490 -41.362   2.162  1.00  0.00    -0.202 OA
ATOM      3  C   UNL     1      27.445 -41.106   1.382  1.00  0.00     0.368 A 
ATOM      4  C   UNL     1      27.372 -41.707   0.123  1.00  0.00     0.162 A 
ATOM      5  C   UNL     1      26.289 -41.454  -0.719  1.00  0.00     0.128 A 
ATOM      6  C   UNL     1      25.270 -40.591  -0.302  1.00  0.00     0.093 A 
ATOM      7  C   UNL     1      25.319 -39.975   0.955  1.00  0.00     0.136 A 
ATOM      8  C   UNL     1      26.418 -40.233   1.815  1.00  0.00     0.125 A 
ATOM      9  C   UNL     1      26.545 -39.670   3.096  1.00  0.00     0.078 A 
ATOM     10  C   UNL     1      27.655 -39.975   3.888  1.00  0.00     0.223 A 
ENDROOT
BRANCH   1  11
ATOM     11  C   UNL     1      29.858 -41.189   4.143  1.00  0.00     0.087 A 
ATOM     12  C   UNL     1      29.831 -41.302   5.545  1.00  0.00     0.022 A 
ATOM     13  C   UNL     1      30.995 -41.617   6.251  1.00  0.00     0.051 A 
ATOM     14  C   UNL     1      32.203 -41.810   5.570  1.00  0.00     0.157 A 
ATOM     15  C   UNL     1      31.078 -41.363   3.467  1.00  0.00     0.068 A 
ATOM     16  C   UNL     1      32.247 -41.679   4.176  1.00  0.00     0.158 A 
BRANCH  14  17
ATOM     17  O   UNL     1      33.366 -42.125   6.271  1.00  0.00    -0.504 OA
ATOM     18  H   UNL     1      34.145 -41.478   6.325  1.00  0.00     0.293 HD
ENDBRANCH  14  17
BRANCH  16  19
ATOM     19  O   UNL     1      33.452 -41.865   3.503  1.00  0.00    -0.504 OA
ATOM     20  H   UNL     1      33.502 -41.848   2.490  1.00  0.00     0.293 HD
ENDBRANCH  16  19
ENDBRANCH   1  11
BRANCH  10  21
ATOM     21  O   UNL     1      27.757 -39.457   5.180  1.00  0.00    -0.500 OA
ATOM     22  H   UNL     1      26.995 -38.945   5.610  1.00  0.00     0.294 HD
ENDBRANCH  10  21
BRANCH   5  23
ATOM     23  O   UNL     1      26.235 -42.065  -1.970  1.00  0.00    -0.507 OA
ATOM     24  H   UNL     1      26.973 -41.941  -2.653  1.00  0.00     0.293 HD
ENDBRANCH   5  23
BRANCH   7  25
ATOM     25  O   UNL     1      24.264 -39.124   1.297  1.00  0.00    -0.507 OA
ATOM     26  H   UNL     1      23.327 -39.433   1.507  1.00  0.00     0.293 HD
ENDBRANCH   7  25
TORSDOF 6
ENDMDL
MODEL 8
REMARK VINA RESULT:    -4.873      2.536      7.095
REMARK INTER + INTRA:          -5.585
REMARK INTER:                  -5.722
REMARK INTRA:                   0.137
REMARK UNBOUND:                 0.285
REMARK SMILES Oc1cc(O)c2cc(O)c(-c3ccc(O)c(O)c3)[o+]c2c1
REMARK SMILES IDX 10 1 19 2 20 3 21 4 2 5 3 6 4 7 6 8 7 9 8 10 11 11 12 12
REMARK SMILES IDX 13 13 14 14 18 15 16 16 15 17 17 19 9 21 1 23 5 25
REMARK H PARENT 15 18 17 20 9 22 1 24 5 26
REMARK Flexibility Score: inf
ROOT
ATOM      1  C   UNL     1      25.298 -39.110   1.333  1.00  0.00     0.402 A 
ATOM      2  O   UNL     1      24.697 -38.672   2.436  1.00  0.00    -0.202 OA
ATOM      3  C   UNL     1      23.569 -37.970   2.423  1.00  0.00     0.368 A 
ATOM      4  C   UNL     1      23.011 -37.555   3.634  1.00  0.00     0.162 A 
ATOM      5  C   UNL     1      21.826 -36.819   3.651  1.00  0.00     0.128 A 
ATOM      6  C   UNL     1      21.190 -36.497   2.448  1.00  0.00     0.093 A 
ATOM      7  C   UNL     1      21.728 -36.900   1.219  1.00  0.00     0.136 A 
ATOM      8  C   UNL     1      22.935 -37.646   1.199  1.00  0.00     0.125 A 
ATOM      9  C   UNL     1      23.553 -38.081   0.015  1.00  0.00     0.078 A 
ATOM     10  C   UNL     1      24.746 -38.808   0.074  1.00  0.00     0.223 A 
ENDROOT
BRANCH   1  11
ATOM     11  C   UNL     1      26.547 -39.892   1.479  1.00  0.00     0.087 A 
ATOM     12  C   UNL     1      26.865 -40.938   0.595  1.00  0.00     0.022 A 
ATOM     13  C   UNL     1      28.039 -41.676   0.767  1.00  0.00     0.051 A 
ATOM     14  C   UNL     1      28.904 -41.390   1.831  1.00  0.00     0.157 A 
ATOM     15  C   UNL     1      27.408 -39.623   2.557  1.00  0.00     0.068 A 
ATOM     16  C   UNL     1      28.586 -40.364   2.730  1.00  0.00     0.158 A 
BRANCH  14  17
ATOM     17  O   UNL     1      30.076 -42.123   2.006  1.00  0.00    -0.504 OA
ATOM     18  H   UNL     1      30.743 -42.244   1.252  1.00  0.00     0.293 HD
ENDBRANCH  14  17
BRANCH  16  19
ATOM     19  O   UNL     1      29.445 -40.086   3.792  1.00  0.00    -0.504 OA
ATOM     20  H   UNL     1      29.095 -39.762   4.686  1.00  0.00     0.293 HD
ENDBRANCH  16  19
ENDBRANCH   1  11
BRANCH  10  21
ATOM     21  O   UNL     1      25.387 -39.198  -1.103  1.00  0.00    -0.500 OA
ATOM     22  H   UNL     1      25.684 -40.155  -1.255  1.00  0.00     0.294 HD
ENDBRANCH  10  21
BRANCH   5  23
ATOM     23  O   UNL     1      21.286 -36.415   4.870  1.00  0.00    -0.507 OA
ATOM     24  H   UNL     1      21.841 -35.919   5.557  1.00  0.00     0.293 HD
ENDBRANCH   5  23
BRANCH   7  25
ATOM     25  O   UNL     1      21.032 -36.540   0.062  1.00  0.00    -0.507 OA
ATOM     26  H   UNL     1      20.259 -35.892   0.039  1.00  0.00     0.293 HD
ENDBRANCH   7  25
TORSDOF 6
ENDMDL
