MODEL 1
REMARK VINA RESULT:    -3.908      0.000      0.000
REMARK INTER + INTRA:          -3.908
REMARK INTER:                  -3.908
REMARK INTRA:                   0.000
REMARK UNBOUND:                 0.000
REMARK SMILES CC1(C)O[C@]2(C)CC[C@H]1CC2
REMARK SMILES IDX 1 1 2 2 9 3 8 4 7 5 5 6 4 7 11 8 10 9 6 10 3 11
REMARK H PARENT
REMARK Flexibility Score: inf
ROOT
ATOM      1  C   UNL     1     135.507 137.860 127.875  1.00  0.00     0.042 C 
ATOM      2  C   UNL     1     135.604 138.365 129.330  1.00  0.00     0.066 C 
ATOM      3  C   UNL     1     134.817 139.722 129.503  1.00  0.00     0.021 C 
ATOM      4  C   UNL     1     135.489 140.795 128.614  1.00  0.00     0.009 C 
ATOM      5  C   UNL     1     137.008 140.824 128.912  1.00  0.00     0.035 C 
ATOM      6  C   UNL     1     137.337 139.834 130.067  1.00  0.00     0.066 C 
ATOM      7  O   UNL     1     136.993 138.509 129.662  1.00  0.00    -0.369 OA
ATOM      8  C   UNL     1     136.497 140.221 131.318  1.00  0.00     0.035 C 
ATOM      9  C   UNL     1     134.991 140.206 130.963  1.00  0.00     0.009 C 
ATOM     10  C   UNL     1     138.833 139.878 130.395  1.00  0.00     0.042 C 
ATOM     11  C   UNL     1     135.006 137.269 130.238  1.00  0.00     0.042 C 
ENDROOT
TORSDOF 0
ENDMDL
MODEL 2
REMARK VINA RESULT:    -3.872      2.199      3.943
REMARK INTER + INTRA:          -3.872
REMARK INTER:                  -3.872
REMARK INTRA:                   0.000
REMARK UNBOUND:                 0.000
REMARK SMILES CC1(C)O[C@]2(C)CC[C@H]1CC2
REMARK SMILES IDX 1 1 2 2 9 3 8 4 7 5 5 6 4 7 11 8 10 9 6 10 3 11
REMARK H PARENT
REMARK Flexibility Score: inf
ROOT
ATOM      1  C   UNL     1     137.763 139.468 127.875  1.00  0.00     0.042 C 
ATOM      2  C   UNL     1     138.288 139.510 129.326  1.00  0.00     0.066 C 
ATOM      3  C   UNL     1     139.648 140.305 129.404  1.00  0.00     0.021 C 
ATOM      4  C   UNL     1     140.708 139.548 128.568  1.00  0.00     0.009 C 
ATOM      5  C   UNL     1     140.739 138.065 129.010  1.00  0.00     0.035 C 
ATOM      6  C   UNL     1     139.765 137.851 130.206  1.00  0.00     0.066 C 
ATOM      7  O   UNL     1     138.434 138.159 129.787  1.00  0.00    -0.369 OA
ATOM      8  C   UNL     1     140.170 138.806 131.364  1.00  0.00     0.035 C 
ATOM      9  C   UNL     1     140.152 140.271 130.867  1.00  0.00     0.009 C 
ATOM     10  C   UNL     1     139.810 136.394 130.675  1.00  0.00     0.042 C 
ATOM     11  C   UNL     1     137.205 140.196 130.186  1.00  0.00     0.042 C 
ENDROOT
TORSDOF 0
ENDMDL
MODEL 3
REMARK VINA RESULT:    -3.868      4.061      5.691
REMARK INTER + INTRA:          -3.868
REMARK INTER:                  -3.868
REMARK INTRA:                   0.000
REMARK UNBOUND:                 0.000
REMARK SMILES CC1(C)O[C@]2(C)CC[C@H]1CC2
REMARK SMILES IDX 1 1 2 2 9 3 8 4 7 5 5 6 4 7 11 8 10 9 6 10 3 11
REMARK H PARENT
REMARK Flexibility Score: inf
ROOT
ATOM      1  C   UNL     1     139.526 137.020 132.016  1.00  0.00     0.042 C 
ATOM      2  C   UNL     1     139.450 135.737 131.161  1.00  0.00     0.066 C 
ATOM      3  C   UNL     1     140.105 135.970 129.745  1.00  0.00     0.021 C 
ATOM      4  C   UNL     1     139.290 137.053 128.999  1.00  0.00     0.009 C 
ATOM      5  C   UNL     1     137.791 136.665 129.020  1.00  0.00     0.035 C 
ATOM      6  C   UNL     1     137.616 135.276 129.700  1.00  0.00     0.066 C 
ATOM      7  O   UNL     1     138.070 135.355 131.052  1.00  0.00    -0.369 OA
ATOM      8  C   UNL     1     138.472 134.227 128.934  1.00  0.00     0.035 C 
ATOM      9  C   UNL     1     139.954 134.672 128.915  1.00  0.00     0.009 C 
ATOM     10  C   UNL     1     136.141 134.865 129.698  1.00  0.00     0.042 C 
ATOM     11  C   UNL     1     140.195 134.626 131.931  1.00  0.00     0.042 C 
ENDROOT
TORSDOF 0
ENDMDL
MODEL 4
REMARK VINA RESULT:    -3.849      2.780      4.592
REMARK INTER + INTRA:          -3.849
REMARK INTER:                  -3.849
REMARK INTRA:                   0.000
REMARK UNBOUND:                 0.000
REMARK SMILES CC1(C)O[C@]2(C)CC[C@H]1CC2
REMARK SMILES IDX 1 1 2 2 9 3 8 4 7 5 5 6 4 7 11 8 10 9 6 10 3 11
REMARK H PARENT
REMARK Flexibility Score: inf
ROOT
ATOM      1  C   UNL     1     138.207 139.497 132.018  1.00  0.00     0.042 C 
ATOM      2  C   UNL     1     139.481 139.423 131.151  1.00  0.00     0.066 C 
ATOM      3  C   UNL     1     139.245 140.114 129.752  1.00  0.00     0.021 C 
ATOM      4  C   UNL     1     138.145 139.329 128.998  1.00  0.00     0.009 C 
ATOM      5  C   UNL     1     138.513 137.825 128.982  1.00  0.00     0.035 C 
ATOM      6  C   UNL     1     139.905 137.617 129.645  1.00  0.00     0.066 C 
ATOM      7  O   UNL     1     139.843 138.041 131.008  1.00  0.00    -0.369 OA
ATOM      8  C   UNL     1     140.959 138.476 128.890  1.00  0.00     0.035 C 
ATOM      9  C   UNL     1     140.533 139.964 128.908  1.00  0.00     0.009 C 
ATOM     10  C   UNL     1     140.296 136.137 129.607  1.00  0.00     0.042 C 
ATOM     11  C   UNL     1     140.608 140.136 131.928  1.00  0.00     0.042 C 
ENDROOT
TORSDOF 0
ENDMDL
MODEL 5
REMARK VINA RESULT:    -3.846      2.201      4.109
REMARK INTER + INTRA:          -3.846
REMARK INTER:                  -3.846
REMARK INTRA:                   0.000
REMARK UNBOUND:                 0.000
REMARK SMILES CC1(C)O[C@]2(C)CC[C@H]1CC2
REMARK SMILES IDX 1 1 2 2 9 3 8 4 7 5 5 6 4 7 11 8 10 9 6 10 3 11
REMARK H PARENT
REMARK Flexibility Score: inf
ROOT
ATOM      1  C   UNL     1     137.073 135.671 131.789  1.00  0.00     0.042 C 
ATOM      2  C   UNL     1     135.742 135.771 131.014  1.00  0.00     0.066 C 
ATOM      3  C   UNL     1     135.872 135.100 129.593  1.00  0.00     0.021 C 
ATOM      4  C   UNL     1     136.924 135.886 128.774  1.00  0.00     0.009 C 
ATOM      5  C   UNL     1     136.572 137.393 128.806  1.00  0.00     0.035 C 
ATOM      6  C   UNL     1     135.232 137.604 129.570  1.00  0.00     0.066 C 
ATOM      7  O   UNL     1     135.385 137.158 130.918  1.00  0.00    -0.369 OA
ATOM      8  C   UNL     1     134.119 136.767 128.878  1.00  0.00     0.035 C 
ATOM      9  C   UNL     1     134.528 135.275 128.844  1.00  0.00     0.009 C 
ATOM     10  C   UNL     1     134.854 139.089 129.581  1.00  0.00     0.042 C 
ATOM     11  C   UNL     1     134.665 135.057 131.858  1.00  0.00     0.042 C 
ENDROOT
TORSDOF 0
ENDMDL
MODEL 6
REMARK VINA RESULT:    -3.842      1.171      2.425
REMARK INTER + INTRA:          -3.842
REMARK INTER:                  -3.842
REMARK INTRA:                   0.000
REMARK UNBOUND:                 0.000
REMARK SMILES CC1(C)O[C@]2(C)CC[C@H]1CC2
REMARK SMILES IDX 1 1 2 2 9 3 8 4 7 5 5 6 4 7 11 8 10 9 6 10 3 11
REMARK H PARENT
REMARK Flexibility Score: inf
ROOT
ATOM      1  C   UNL     1     135.678 138.207 132.022  1.00  0.00     0.042 C 
ATOM      2  C   UNL     1     135.769 139.480 131.154  1.00  0.00     0.066 C 
ATOM      3  C   UNL     1     135.135 139.232 129.731  1.00  0.00     0.021 C 
ATOM      4  C   UNL     1     135.961 138.140 129.010  1.00  0.00     0.009 C 
ATOM      5  C   UNL     1     137.460 138.528 129.049  1.00  0.00     0.035 C 
ATOM      6  C   UNL     1     137.624 139.925 129.717  1.00  0.00     0.066 C 
ATOM      7  O   UNL     1     137.150 139.861 131.062  1.00  0.00    -0.369 OA
ATOM      8  C   UNL     1     136.781 140.965 128.926  1.00  0.00     0.035 C 
ATOM      9  C   UNL     1     135.299 140.520 128.889  1.00  0.00     0.009 C 
ATOM     10  C   UNL     1     139.100 140.336 129.733  1.00  0.00     0.042 C 
ATOM     11  C   UNL     1     135.012 140.600 131.900  1.00  0.00     0.042 C 
ENDROOT
TORSDOF 0
ENDMDL
MODEL 7
REMARK VINA RESULT:    -3.833      3.868      5.550
REMARK INTER + INTRA:          -3.833
REMARK INTER:                  -3.833
REMARK INTRA:                   0.000
REMARK UNBOUND:                 0.000
REMARK SMILES CC1(C)O[C@]2(C)CC[C@H]1CC2
REMARK SMILES IDX 1 1 2 2 9 3 8 4 7 5 5 6 4 7 11 8 10 9 6 10 3 11
REMARK H PARENT
REMARK Flexibility Score: inf
ROOT
ATOM      1  C   UNL     1     139.378 137.526 127.878  1.00  0.00     0.042 C 
ATOM      2  C   UNL     1     139.466 136.957 129.310  1.00  0.00     0.066 C 
ATOM      3  C   UNL     1     140.267 135.598 129.322  1.00  0.00     0.021 C 
ATOM      4  C   UNL     1     139.487 134.562 128.478  1.00  0.00     0.009 C 
ATOM      5  C   UNL     1     138.018 134.512 128.964  1.00  0.00     0.035 C 
ATOM      6  C   UNL     1     137.838 135.449 130.194  1.00  0.00     0.066 C 
ATOM      7  O   UNL     1     138.130 136.793 129.808  1.00  0.00    -0.369 OA
ATOM      8  C   UNL     1     138.829 135.012 131.310  1.00  0.00     0.035 C 
ATOM      9  C   UNL     1     140.279 135.050 130.770  1.00  0.00     0.009 C 
ATOM     10  C   UNL     1     136.396 135.384 130.706  1.00  0.00     0.042 C 
ATOM     11  C   UNL     1     140.175 138.016 130.182  1.00  0.00     0.042 C 
ENDROOT
TORSDOF 0
ENDMDL
MODEL 8
REMARK VINA RESULT:    -3.830      2.283      3.966
REMARK INTER + INTRA:          -3.830
REMARK INTER:                  -3.830
REMARK INTRA:                   0.000
REMARK UNBOUND:                 0.000
REMARK SMILES CC1(C)O[C@]2(C)CC[C@H]1CC2
REMARK SMILES IDX 1 1 2 2 9 3 8 4 7 5 5 6 4 7 11 8 10 9 6 10 3 11
REMARK H PARENT
REMARK Flexibility Score: inf
ROOT
ATOM      1  C   UNL     1     137.501 135.291 127.883  1.00  0.00     0.042 C 
ATOM      2  C   UNL     1     137.030 135.625 129.314  1.00  0.00     0.066 C 
ATOM      3  C   UNL     1     135.700 134.850 129.659  1.00  0.00     0.021 C 
ATOM      4  C   UNL     1     134.587 135.334 128.700  1.00  0.00     0.009 C 
ATOM      5  C   UNL     1     134.524 136.881 128.733  1.00  0.00     0.035 C 
ATOM      6  C   UNL     1     135.533 137.426 129.786  1.00  0.00     0.066 C 
ATOM      7  O   UNL     1     136.857 137.047 129.407  1.00  0.00    -0.369 OA
ATOM      8  C   UNL     1     135.201 136.806 131.172  1.00  0.00     0.035 C 
ATOM      9  C   UNL     1     135.248 135.262 131.082  1.00  0.00     0.009 C 
ATOM     10  C   UNL     1     135.458 138.955 129.853  1.00  0.00     0.042 C 
ATOM     11  C   UNL     1     138.165 135.217 130.278  1.00  0.00     0.042 C 
ENDROOT
TORSDOF 0
ENDMDL
MODEL 9
REMARK VINA RESULT:    -3.748      2.348      4.477
REMARK INTER + INTRA:          -3.748
REMARK INTER:                  -3.748
REMARK INTRA:                   0.000
REMARK UNBOUND:                 0.000
REMARK SMILES CC1(C)O[C@]2(C)CC[C@H]1CC2
REMARK SMILES IDX 1 1 2 2 9 3 8 4 7 5 5 6 4 7 11 8 10 9 6 10 3 11
REMARK H PARENT
REMARK Flexibility Score: inf
ROOT
ATOM      1  C   UNL     1     139.369 137.361 131.777  1.00  0.00     0.042 C 
ATOM      2  C   UNL     1     139.668 137.590 130.280  1.00  0.00     0.066 C 
ATOM      3  C   UNL     1     140.692 138.774 130.091  1.00  0.00     0.021 C 
ATOM      4  C   UNL     1     140.041 140.075 130.619  1.00  0.00     0.009 C 
ATOM      5  C   UNL     1     138.646 140.246 129.968  1.00  0.00     0.035 C 
ATOM      6  C   UNL     1     138.404 139.107 128.935  1.00  0.00     0.066 C 
ATOM      7  O   UNL     1     138.425 137.848 129.611  1.00  0.00    -0.369 OA
ATOM      8  C   UNL     1     139.542 139.136 127.875  1.00  0.00     0.035 C 
ATOM      9  C   UNL     1     140.915 138.991 128.574  1.00  0.00     0.009 C 
ATOM     10  C   UNL     1     137.041 139.282 128.260  1.00  0.00     0.042 C 
ATOM     11  C   UNL     1     140.248 136.273 129.721  1.00  0.00     0.042 C 
ENDROOT
TORSDOF 0
ENDMDL
