MODEL 1
REMARK VINA RESULT:    -2.661      0.000      0.000
REMARK INTER + INTRA:          -4.794
REMARK INTER:                  -4.216
REMARK INTRA:                  -0.578
REMARK UNBOUND:                -0.578
REMARK SMILES CCCCCCCCCCCC(=O)[O-]
REMARK SMILES IDX 7 1 8 2 9 3 10 4 11 5 12 6 13 7 14 8 6 9 5 10 4 11 3 12 2 13
REMARK SMILES IDX 1 14
REMARK H PARENT
REMARK Flexibility Score: inf
ROOT
ATOM      1  C   UNL     1     -12.751  -8.630 -10.597  1.00  0.00     0.000 C 
ENDROOT
BRANCH   1   2
ATOM      2  C   UNL     1     -12.589 -10.138 -10.347  1.00  0.00     0.000 C 
BRANCH   2   3
ATOM      3  C   UNL     1     -13.522 -10.989 -11.227  1.00  0.00     0.000 C 
BRANCH   3   4
ATOM      4  C   UNL     1     -14.524 -11.810 -10.401  1.00  0.00     0.006 C 
BRANCH   4   5
ATOM      5  C   UNL     1     -15.903 -11.901 -11.067  1.00  0.00     0.053 C 
BRANCH   5   6
ATOM      6  C   UNL     1     -16.765 -10.755 -10.641  1.00  0.00     0.041 C 
ATOM      7  O   UNL     1     -16.875  -9.737 -11.374  1.00  0.00    -0.550 OA
ATOM      8  O   UNL     1     -17.408 -10.789  -9.411  1.00  0.00    -0.550 OA
ENDBRANCH   5   6
ENDBRANCH   4   5
ENDBRANCH   3   4
ENDBRANCH   2   3
ENDBRANCH   1   2
BRANCH   1   9
ATOM      9  C   UNL     1     -13.220  -8.317 -12.028  1.00  0.00     0.000 C 
BRANCH   9  10
ATOM     10  C   UNL     1     -14.515  -7.485 -12.068  1.00  0.00    -0.000 C 
BRANCH  10  11
ATOM     11  C   UNL     1     -14.361  -6.008 -11.658  1.00  0.00    -0.000 C 
BRANCH  11  12
ATOM     12  C   UNL     1     -15.706  -5.266 -11.574  1.00  0.00    -0.000 C 
BRANCH  12  13
ATOM     13  C   UNL     1     -15.533  -3.739 -11.520  1.00  0.00    -0.003 C 
ATOM     14  C   UNL     1     -14.074  -3.302 -11.656  1.00  0.00     0.004 C 
ENDBRANCH  12  13
ENDBRANCH  11  12
ENDBRANCH  10  11
ENDBRANCH   9  10
ENDBRANCH   1   9
TORSDOF 10
ENDMDL
MODEL 2
REMARK VINA RESULT:    -2.652      2.619      5.579
REMARK INTER + INTRA:          -4.781
REMARK INTER:                  -3.776
REMARK INTRA:                  -1.004
REMARK UNBOUND:                -0.578
REMARK SMILES CCCCCCCCCCCC(=O)[O-]
REMARK SMILES IDX 7 1 8 2 9 3 10 4 11 5 12 6 13 7 14 8 6 9 5 10 4 11 3 12 2 13
REMARK SMILES IDX 1 14
REMARK H PARENT
REMARK Flexibility Score: inf
ROOT
ATOM      1  C   UNL     1     -12.324  -9.330 -10.430  1.00  0.00     0.000 C 
ENDROOT
BRANCH   1   2
ATOM      2  C   UNL     1     -12.619  -8.907 -11.878  1.00  0.00     0.000 C 
BRANCH   2   3
ATOM      3  C   UNL     1     -14.000  -8.244 -12.034  1.00  0.00     0.000 C 
BRANCH   3   4
ATOM      4  C   UNL     1     -13.989  -6.761 -11.632  1.00  0.00     0.006 C 
BRANCH   4   5
ATOM      5  C   UNL     1     -15.283  -6.035 -12.023  1.00  0.00     0.053 C 
BRANCH   5   6
ATOM      6  C   UNL     1     -15.264  -4.626 -11.521  1.00  0.00     0.041 C 
ATOM      7  O   UNL     1     -16.331  -3.962 -11.455  1.00  0.00    -0.550 OA
ATOM      8  O   UNL     1     -14.060  -4.028 -11.174  1.00  0.00    -0.550 OA
ENDBRANCH   5   6
ENDBRANCH   4   5
ENDBRANCH   3   4
ENDBRANCH   2   3
ENDBRANCH   1   2
BRANCH   1   9
ATOM      9  C   UNL     1     -12.629 -10.816 -10.176  1.00  0.00     0.000 C 
BRANCH   9  10
ATOM     10  C   UNL     1     -12.975 -11.587 -11.464  1.00  0.00    -0.000 C 
BRANCH  10  11
ATOM     11  C   UNL     1     -14.426 -12.094 -11.559  1.00  0.00    -0.000 C 
BRANCH  11  12
ATOM     12  C   UNL     1     -15.260 -11.761 -10.309  1.00  0.00    -0.000 C 
BRANCH  12  13
ATOM     13  C   UNL     1     -16.376 -10.744 -10.601  1.00  0.00    -0.003 C 
ATOM     14  C   UNL     1     -16.870 -10.805 -12.046  1.00  0.00     0.004 C 
ENDBRANCH  12  13
ENDBRANCH  11  12
ENDBRANCH  10  11
ENDBRANCH   9  10
ENDBRANCH   1   9
TORSDOF 10
ENDMDL
MODEL 3
REMARK VINA RESULT:    -2.427      2.801      5.079
REMARK INTER + INTRA:          -4.423
REMARK INTER:                  -3.788
REMARK INTRA:                  -0.635
REMARK UNBOUND:                -0.578
REMARK SMILES CCCCCCCCCCCC(=O)[O-]
REMARK SMILES IDX 7 1 8 2 9 3 10 4 11 5 12 6 13 7 14 8 6 9 5 10 4 11 3 12 2 13
REMARK SMILES IDX 1 14
REMARK H PARENT
REMARK Flexibility Score: inf
ROOT
ATOM      1  C   UNL     1     -16.378 -10.746 -10.729  1.00  0.00     0.000 C 
ENDROOT
BRANCH   1   2
ATOM      2  C   UNL     1     -17.525 -10.858  -9.712  1.00  0.00     0.000 C 
BRANCH   2   3
ATOM      3  C   UNL     1     -18.704 -11.696 -10.237  1.00  0.00     0.000 C 
BRANCH   3   4
ATOM      4  C   UNL     1     -19.891 -11.720  -9.260  1.00  0.00     0.006 C 
BRANCH   4   5
ATOM      5  C   UNL     1     -19.449 -11.632  -7.794  1.00  0.00     0.053 C 
BRANCH   5   6
ATOM      6  C   UNL     1     -20.382 -10.756  -7.020  1.00  0.00     0.041 C 
ATOM      7  O   UNL     1     -20.556  -9.556  -7.361  1.00  0.00    -0.550 OA
ATOM      8  O   UNL     1     -21.022 -11.248  -5.890  1.00  0.00    -0.550 OA
ENDBRANCH   5   6
ENDBRANCH   4   5
ENDBRANCH   3   4
ENDBRANCH   2   3
ENDBRANCH   1   2
BRANCH   1   9
ATOM      9  C   UNL     1     -15.063 -11.345 -10.203  1.00  0.00     0.000 C 
BRANCH   9  10
ATOM     10  C   UNL     1     -14.093 -11.749 -11.330  1.00  0.00    -0.000 C 
BRANCH  10  11
ATOM     11  C   UNL     1     -12.645 -11.251 -11.163  1.00  0.00    -0.000 C 
BRANCH  11  12
ATOM     12  C   UNL     1     -12.559  -9.882 -10.466  1.00  0.00    -0.000 C 
BRANCH  12  13
ATOM     13  C   UNL     1     -12.295  -8.735 -11.456  1.00  0.00    -0.003 C 
ATOM     14  C   UNL     1     -13.543  -7.901 -11.745  1.00  0.00     0.004 C 
ENDBRANCH  12  13
ENDBRANCH  11  12
ENDBRANCH  10  11
ENDBRANCH   9  10
ENDBRANCH   1   9
TORSDOF 10
ENDMDL
MODEL 4
REMARK VINA RESULT:    -2.415      3.674      6.865
REMARK INTER + INTRA:          -4.405
REMARK INTER:                  -3.851
REMARK INTRA:                  -0.554
REMARK UNBOUND:                -0.578
REMARK SMILES CCCCCCCCCCCC(=O)[O-]
REMARK SMILES IDX 7 1 8 2 9 3 10 4 11 5 12 6 13 7 14 8 6 9 5 10 4 11 3 12 2 13
REMARK SMILES IDX 1 14
REMARK H PARENT
REMARK Flexibility Score: inf
ROOT
ATOM      1  C   UNL     1     -17.477 -10.782  -9.492  1.00  0.00     0.000 C 
ENDROOT
BRANCH   1   2
ATOM      2  C   UNL     1     -16.407 -10.812 -10.595  1.00  0.00     0.000 C 
BRANCH   2   3
ATOM      3  C   UNL     1     -15.120 -11.532 -10.154  1.00  0.00     0.000 C 
BRANCH   3   4
ATOM      4  C   UNL     1     -13.903 -11.136 -11.005  1.00  0.00     0.006 C 
BRANCH   4   5
ATOM      5  C   UNL     1     -12.816 -10.427 -10.186  1.00  0.00     0.053 C 
BRANCH   5   6
ATOM      6  C   UNL     1     -12.250  -9.277 -10.956  1.00  0.00     0.041 C 
ATOM      7  O   UNL     1     -12.916  -8.218 -11.096  1.00  0.00    -0.550 OA
ATOM      8  O   UNL     1     -11.005  -9.391 -11.561  1.00  0.00    -0.550 OA
ENDBRANCH   5   6
ENDBRANCH   4   5
ENDBRANCH   3   4
ENDBRANCH   2   3
ENDBRANCH   1   2
BRANCH   1   9
ATOM      9  C   UNL     1     -18.302 -12.079  -9.436  1.00  0.00     0.000 C 
BRANCH   9  10
ATOM     10  C   UNL     1     -19.724 -11.911 -10.005  1.00  0.00    -0.000 C 
BRANCH  10  11
ATOM     11  C   UNL     1     -20.863 -12.022  -8.974  1.00  0.00    -0.000 C 
BRANCH  11  12
ATOM     12  C   UNL     1     -21.065 -10.730  -8.163  1.00  0.00    -0.000 C 
BRANCH  12  13
ATOM     13  C   UNL     1     -20.837 -10.940  -6.657  1.00  0.00    -0.003 C 
ATOM     14  C   UNL     1     -20.548 -12.397  -6.298  1.00  0.00     0.004 C 
ENDBRANCH  12  13
ENDBRANCH  11  12
ENDBRANCH  10  11
ENDBRANCH   9  10
ENDBRANCH   1   9
TORSDOF 10
ENDMDL
MODEL 5
REMARK VINA RESULT:    -2.359     17.628     20.232
REMARK INTER + INTRA:          -4.316
REMARK INTER:                  -3.864
REMARK INTRA:                  -0.452
REMARK UNBOUND:                -0.578
REMARK SMILES CCCCCCCCCCCC(=O)[O-]
REMARK SMILES IDX 7 1 8 2 9 3 10 4 11 5 12 6 13 7 14 8 6 9 5 10 4 11 3 12 2 13
REMARK SMILES IDX 1 14
REMARK H PARENT
REMARK Flexibility Score: inf
ROOT
ATOM      1  C   UNL     1     -20.587   4.585   1.517  1.00  0.00     0.000 C 
ENDROOT
BRANCH   1   2
ATOM      2  C   UNL     1     -21.125   5.956   1.957  1.00  0.00     0.000 C 
BRANCH   2   3
ATOM      3  C   UNL     1     -21.103   6.140   3.485  1.00  0.00     0.000 C 
BRANCH   3   4
ATOM      4  C   UNL     1     -20.226   5.094   4.192  1.00  0.00     0.006 C 
BRANCH   4   5
ATOM      5  C   UNL     1     -20.432   5.082   5.712  1.00  0.00     0.053 C 
BRANCH   5   6
ATOM      6  C   UNL     1     -19.412   5.947   6.383  1.00  0.00     0.041 C 
ATOM      7  O   UNL     1     -18.194   5.629   6.357  1.00  0.00    -0.550 OA
ATOM      8  O   UNL     1     -19.812   7.079   7.081  1.00  0.00    -0.550 OA
ENDBRANCH   5   6
ENDBRANCH   4   5
ENDBRANCH   3   4
ENDBRANCH   2   3
ENDBRANCH   1   2
BRANCH   1   9
ATOM      9  C   UNL     1     -19.656   4.682   0.296  1.00  0.00     0.000 C 
BRANCH   9  10
ATOM     10  C   UNL     1     -19.792   3.481  -0.659  1.00  0.00    -0.000 C 
BRANCH  10  11
ATOM     11  C   UNL     1     -21.125   3.397  -1.425  1.00  0.00    -0.000 C 
BRANCH  11  12
ATOM     12  C   UNL     1     -21.034   3.969  -2.851  1.00  0.00    -0.000 C 
BRANCH  12  13
ATOM     13  C   UNL     1     -20.925   5.502  -2.863  1.00  0.00    -0.003 C 
ATOM     14  C   UNL     1     -21.080   6.098  -4.262  1.00  0.00     0.004 C 
ENDBRANCH  12  13
ENDBRANCH  11  12
ENDBRANCH  10  11
ENDBRANCH   9  10
ENDBRANCH   1   9
TORSDOF 10
ENDMDL
MODEL 6
REMARK VINA RESULT:    -2.293     17.485     19.913
REMARK INTER + INTRA:          -4.211
REMARK INTER:                  -4.037
REMARK INTRA:                  -0.174
REMARK UNBOUND:                -0.578
REMARK SMILES CCCCCCCCCCCC(=O)[O-]
REMARK SMILES IDX 7 1 8 2 9 3 10 4 11 5 12 6 13 7 14 8 6 9 5 10 4 11 3 12 2 13
REMARK SMILES IDX 1 14
REMARK H PARENT
REMARK Flexibility Score: inf
ROOT
ATOM      1  C   UNL     1     -20.035   4.645   2.156  1.00  0.00     0.000 C 
ENDROOT
BRANCH   1   2
ATOM      2  C   UNL     1     -20.649   3.240   2.262  1.00  0.00     0.000 C 
BRANCH   2   3
ATOM      3  C   UNL     1     -21.007   2.643   0.889  1.00  0.00     0.000 C 
BRANCH   3   4
ATOM      4  C   UNL     1     -21.053   3.705  -0.221  1.00  0.00     0.006 C 
BRANCH   4   5
ATOM      5  C   UNL     1     -20.501   3.188  -1.555  1.00  0.00     0.053 C 
BRANCH   5   6
ATOM      6  C   UNL     1     -20.729   4.192  -2.640  1.00  0.00     0.041 C 
ATOM      7  O   UNL     1     -20.610   5.423  -2.400  1.00  0.00    -0.550 OA
ATOM      8  O   UNL     1     -21.123   3.774  -3.903  1.00  0.00    -0.550 OA
ENDBRANCH   5   6
ENDBRANCH   4   5
ENDBRANCH   3   4
ENDBRANCH   2   3
ENDBRANCH   1   2
BRANCH   1   9
ATOM      9  C   UNL     1     -21.083   5.760   2.314  1.00  0.00     0.000 C 
BRANCH   9  10
ATOM     10  C   UNL     1     -21.029   6.445   3.692  1.00  0.00    -0.000 C 
BRANCH  10  11
ATOM     11  C   UNL     1     -20.761   5.507   4.884  1.00  0.00    -0.000 C 
BRANCH  11  12
ATOM     12  C   UNL     1     -20.133   6.231   6.087  1.00  0.00    -0.000 C 
BRANCH  12  13
ATOM     13  C   UNL     1     -18.644   5.894   6.264  1.00  0.00    -0.003 C 
ATOM     14  C   UNL     1     -18.192   5.949   7.723  1.00  0.00     0.004 C 
ENDBRANCH  12  13
ENDBRANCH  11  12
ENDBRANCH  10  11
ENDBRANCH   9  10
ENDBRANCH   1   9
TORSDOF 10
ENDMDL
MODEL 7
REMARK VINA RESULT:    -2.219     16.862     19.516
REMARK INTER + INTRA:          -4.094
REMARK INTER:                  -3.634
REMARK INTRA:                  -0.460
REMARK UNBOUND:                -0.578
REMARK SMILES CCCCCCCCCCCC(=O)[O-]
REMARK SMILES IDX 7 1 8 2 9 3 10 4 11 5 12 6 13 7 14 8 6 9 5 10 4 11 3 12 2 13
REMARK SMILES IDX 1 14
REMARK H PARENT
REMARK Flexibility Score: inf
ROOT
ATOM      1  C   UNL     1     -20.889   4.709   0.420  1.00  0.00     0.000 C 
ENDROOT
BRANCH   1   2
ATOM      2  C   UNL     1     -19.906   3.622  -0.044  1.00  0.00     0.000 C 
BRANCH   2   3
ATOM      3  C   UNL     1     -19.991   3.352  -1.557  1.00  0.00     0.000 C 
BRANCH   3   4
ATOM      4  C   UNL     1     -21.125   4.140  -2.233  1.00  0.00     0.006 C 
BRANCH   4   5
ATOM      5  C   UNL     1     -20.822   4.465  -3.702  1.00  0.00     0.053 C 
BRANCH   5   6
ATOM      6  C   UNL     1     -20.466   5.910  -3.854  1.00  0.00     0.041 C 
ATOM      7  O   UNL     1     -19.667   6.455  -3.047  1.00  0.00    -0.550 OA
ATOM      8  O   UNL     1     -21.056   6.670  -4.855  1.00  0.00    -0.550 OA
ENDBRANCH   5   6
ENDBRANCH   4   5
ENDBRANCH   3   4
ENDBRANCH   2   3
ENDBRANCH   1   2
BRANCH   1   9
ATOM      9  C   UNL     1     -20.997   4.790   1.953  1.00  0.00     0.000 C 
BRANCH   9  10
ATOM     10  C   UNL     1     -21.123   6.235   2.471  1.00  0.00    -0.000 C 
BRANCH  10  11
ATOM     11  C   UNL     1     -20.902   6.414   3.984  1.00  0.00    -0.000 C 
BRANCH  11  12
ATOM     12  C   UNL     1     -20.570   5.093   4.701  1.00  0.00    -0.000 C 
BRANCH  12  13
ATOM     13  C   UNL     1     -20.120   5.312   6.155  1.00  0.00    -0.003 C 
ATOM     14  C   UNL     1     -18.689   5.840   6.260  1.00  0.00     0.004 C 
ENDBRANCH  12  13
ENDBRANCH  11  12
ENDBRANCH  10  11
ENDBRANCH   9  10
ENDBRANCH   1   9
TORSDOF 10
ENDMDL
MODEL 8
REMARK VINA RESULT:    -2.166      3.007      5.065
REMARK INTER + INTRA:          -4.010
REMARK INTER:                  -3.249
REMARK INTRA:                  -0.761
REMARK UNBOUND:                -0.578
REMARK SMILES CCCCCCCCCCCC(=O)[O-]
REMARK SMILES IDX 7 1 8 2 9 3 10 4 11 5 12 6 13 7 14 8 6 9 5 10 4 11 3 12 2 13
REMARK SMILES IDX 1 14
REMARK H PARENT
REMARK Flexibility Score: inf
ROOT
ATOM      1  C   UNL     1     -17.281 -10.867  -9.811  1.00  0.00     0.000 C 
ENDROOT
BRANCH   1   2
ATOM      2  C   UNL     1     -17.413 -12.390  -9.645  1.00  0.00     0.000 C 
BRANCH   2   3
ATOM      3  C   UNL     1     -18.793 -12.917 -10.077  1.00  0.00     0.000 C 
BRANCH   3   4
ATOM      4  C   UNL     1     -19.923 -11.916  -9.787  1.00  0.00     0.006 C 
BRANCH   4   5
ATOM      5  C   UNL     1     -20.797 -12.342  -8.600  1.00  0.00     0.053 C 
BRANCH   5   6
ATOM      6  C   UNL     1     -20.255 -11.780  -7.324  1.00  0.00     0.041 C 
ATOM      7  O   UNL     1     -19.978 -10.555  -7.238  1.00  0.00    -0.550 OA
ATOM      8  O   UNL     1     -20.008 -12.618  -6.245  1.00  0.00    -0.550 OA
ENDBRANCH   5   6
ENDBRANCH   4   5
ENDBRANCH   3   4
ENDBRANCH   2   3
ENDBRANCH   1   2
BRANCH   1   9
ATOM      9  C   UNL     1     -16.611 -10.476 -11.140  1.00  0.00     0.000 C 
BRANCH   9  10
ATOM     10  C   UNL     1     -15.395 -11.358 -11.482  1.00  0.00    -0.000 C 
BRANCH  10  11
ATOM     11  C   UNL     1     -14.162 -10.602 -12.012  1.00  0.00    -0.000 C 
BRANCH  11  12
ATOM     12  C   UNL     1     -14.326  -9.074 -11.955  1.00  0.00    -0.000 C 
BRANCH  12  13
ATOM     13  C   UNL     1     -13.058  -8.366 -11.449  1.00  0.00    -0.003 C 
ATOM     14  C   UNL     1     -11.967  -9.343 -11.012  1.00  0.00     0.004 C 
ENDBRANCH  12  13
ENDBRANCH  11  12
ENDBRANCH  10  11
ENDBRANCH   9  10
ENDBRANCH   1   9
TORSDOF 10
ENDMDL
MODEL 9
REMARK VINA RESULT:    -2.135      1.459      2.307
REMARK INTER + INTRA:          -3.961
REMARK INTER:                  -3.602
REMARK INTRA:                  -0.359
REMARK UNBOUND:                -0.578
REMARK SMILES CCCCCCCCCCCC(=O)[O-]
REMARK SMILES IDX 7 1 8 2 9 3 10 4 11 5 12 6 13 7 14 8 6 9 5 10 4 11 3 12 2 13
REMARK SMILES IDX 1 14
REMARK H PARENT
REMARK Flexibility Score: inf
ROOT
ATOM      1  C   UNL     1     -13.704 -10.886 -10.669  1.00  0.00     0.000 C 
ENDROOT
BRANCH   1   2
ATOM      2  C   UNL     1     -14.383 -12.262 -10.761  1.00  0.00     0.000 C 
BRANCH   2   3
ATOM      3  C   UNL     1     -15.910 -12.162 -10.929  1.00  0.00     0.000 C 
BRANCH   3   4
ATOM      4  C   UNL     1     -16.669 -12.554  -9.652  1.00  0.00     0.006 C 
BRANCH   4   5
ATOM      5  C   UNL     1     -18.184 -12.345  -9.779  1.00  0.00     0.053 C 
BRANCH   5   6
ATOM      6  C   UNL     1     -18.680 -11.447  -8.690  1.00  0.00     0.041 C 
ATOM      7  O   UNL     1     -18.177 -10.304  -8.532  1.00  0.00    -0.550 OA
ATOM      8  O   UNL     1     -19.664 -11.892  -7.816  1.00  0.00    -0.550 OA
ENDBRANCH   5   6
ENDBRANCH   4   5
ENDBRANCH   3   4
ENDBRANCH   2   3
ENDBRANCH   1   2
BRANCH   1   9
ATOM      9  C   UNL     1     -13.972 -10.013 -11.907  1.00  0.00     0.000 C 
BRANCH   9  10
ATOM     10  C   UNL     1     -13.547  -8.546 -11.710  1.00  0.00    -0.000 C 
BRANCH  10  11
ATOM     11  C   UNL     1     -14.603  -7.496 -12.106  1.00  0.00    -0.000 C 
BRANCH  11  12
ATOM     12  C   UNL     1     -14.351  -6.121 -11.463  1.00  0.00    -0.000 C 
BRANCH  12  13
ATOM     13  C   UNL     1     -15.465  -5.111 -11.782  1.00  0.00    -0.003 C 
ATOM     14  C   UNL     1     -15.064  -3.668 -11.475  1.00  0.00     0.004 C 
ENDBRANCH  12  13
ENDBRANCH  11  12
ENDBRANCH  10  11
ENDBRANCH   9  10
ENDBRANCH   1   9
TORSDOF 10
ENDMDL
