MODEL 1
REMARK VINA RESULT:    -4.234      0.000      0.000
REMARK INTER + INTRA:          -5.344
REMARK INTER:                  -5.100
REMARK INTRA:                  -0.244
REMARK UNBOUND:                -0.244
REMARK SMILES O=c1c(O)c(-c2ccc(O)c(O)c2)oc2cc(O)cc(O)c12
REMARK SMILES IDX 5 1 3 2 2 3 1 4 22 5 20 6 19 7 17 8 16 9 15 10 14 11 6 12
REMARK SMILES IDX 7 13 8 14 9 15 13 16 11 17 10 18 12 20 4 22 21 24 18 26
REMARK H PARENT 10 19 12 21 4 23 21 25 18 27
REMARK Flexibility Score: inf
ROOT
ATOM      1  C   UNL     1     -95.558  60.525 198.674  1.00  0.00     0.180 A 
ATOM      2  C   UNL     1     -94.340  60.198 199.302  1.00  0.00     0.208 A 
ATOM      3  C   UNL     1     -93.146  60.711 198.773  1.00  0.00     0.238 A 
ATOM      4  O   UNL     1     -92.049  60.433 199.333  1.00  0.00    -0.285 OA
ATOM      5  C   UNL     1     -93.184  61.520 197.619  1.00  0.00     0.111 A 
ATOM      6  C   UNL     1     -92.026  62.071 197.021  1.00  0.00     0.134 A 
ATOM      7  C   UNL     1     -92.148  62.861 195.867  1.00  0.00     0.093 A 
ATOM      8  C   UNL     1     -93.400  63.107 195.300  1.00  0.00     0.123 A 
ATOM      9  C   UNL     1     -94.549  62.565 195.888  1.00  0.00     0.094 A 
ATOM     10  C   UNL     1     -94.449  61.778 197.038  1.00  0.00     0.146 A 
ATOM     11  O   UNL     1     -95.555  61.279 197.579  1.00  0.00    -0.452 OA
ENDROOT
BRANCH   1  12
ATOM     12  C   UNL     1     -96.861  60.039 199.183  1.00  0.00     0.025 A 
ATOM     13  C   UNL     1     -97.405  60.527 200.384  1.00  0.00     0.016 A 
ATOM     14  C   UNL     1     -98.648  60.073 200.832  1.00  0.00     0.051 A 
ATOM     15  C   UNL     1     -99.371  59.137 200.085  1.00  0.00     0.157 A 
ATOM     16  C   UNL     1     -97.599  59.117 198.424  1.00  0.00     0.062 A 
ATOM     17  C   UNL     1     -98.846  58.658 198.873  1.00  0.00     0.158 A 
BRANCH  15  18
ATOM     18  O   UNL     1    -100.607  58.700 200.558  1.00  0.00    -0.504 OA
ATOM     19  H   UNL     1    -101.078  59.151 201.334  1.00  0.00     0.293 HD
ENDBRANCH  15  18
BRANCH  17  20
ATOM     20  O   UNL     1     -99.564  57.731 198.119  1.00  0.00    -0.504 OA
ATOM     21  H   UNL     1     -99.438  56.732 198.245  1.00  0.00     0.293 HD
ENDBRANCH  17  20
ENDBRANCH   1  12
BRANCH   2  22
ATOM     22  O   UNL     1     -94.324  59.354 200.415  1.00  0.00    -0.502 OA
ATOM     23  H   UNL     1     -94.753  58.436 200.408  1.00  0.00     0.293 HD
ENDBRANCH   2  22
BRANCH   6  24
ATOM     24  O   UNL     1     -90.760  61.844 197.561  1.00  0.00    -0.507 OA
ATOM     25  H   UNL     1     -89.987  61.520 196.991  1.00  0.00     0.293 HD
ENDBRANCH   6  24
BRANCH   8  26
ATOM     26  O   UNL     1     -93.493  63.893 194.154  1.00  0.00    -0.508 OA
ATOM     27  H   UNL     1     -94.220  64.590 194.047  1.00  0.00     0.293 HD
ENDBRANCH   8  26
TORSDOF 6
ENDMDL
MODEL 2
REMARK VINA RESULT:    -4.101      2.962      7.630
REMARK INTER + INTRA:          -5.183
REMARK INTER:                  -5.069
REMARK INTRA:                  -0.114
REMARK UNBOUND:                -0.244
REMARK SMILES O=c1c(O)c(-c2ccc(O)c(O)c2)oc2cc(O)cc(O)c12
REMARK SMILES IDX 5 1 3 2 2 3 1 4 22 5 20 6 19 7 17 8 16 9 15 10 14 11 6 12
REMARK SMILES IDX 7 13 8 14 9 15 13 16 11 17 10 18 12 20 4 22 21 24 18 26
REMARK H PARENT 10 19 12 21 4 23 21 25 18 27
REMARK Flexibility Score: inf
ROOT
ATOM      1  C   UNL     1     -95.170  60.361 200.743  1.00  0.00     0.180 A 
ATOM      2  C   UNL     1     -96.571  60.403 200.598  1.00  0.00     0.208 A 
ATOM      3  C   UNL     1     -97.376  59.971 201.663  1.00  0.00     0.238 A 
ATOM      4  O   UNL     1     -98.632  60.015 201.548  1.00  0.00    -0.285 OA
ATOM      5  C   UNL     1     -96.773  59.485 202.841  1.00  0.00     0.111 A 
ATOM      6  C   UNL     1     -97.513  59.026 203.957  1.00  0.00     0.134 A 
ATOM      7  C   UNL     1     -96.838  58.549 205.091  1.00  0.00     0.093 A 
ATOM      8  C   UNL     1     -95.443  58.519 205.129  1.00  0.00     0.123 A 
ATOM      9  C   UNL     1     -94.706  58.972 204.029  1.00  0.00     0.094 A 
ATOM     10  C   UNL     1     -95.359  59.453 202.891  1.00  0.00     0.146 A 
ATOM     11  O   UNL     1     -94.636  59.882 201.863  1.00  0.00    -0.452 OA
ENDROOT
BRANCH   1  12
ATOM     12  C   UNL     1     -94.253  60.817 199.673  1.00  0.00     0.025 A 
ATOM     13  C   UNL     1     -94.317  62.126 199.165  1.00  0.00     0.016 A 
ATOM     14  C   UNL     1     -93.425  62.542 198.173  1.00  0.00     0.051 A 
ATOM     15  C   UNL     1     -92.452  61.666 197.683  1.00  0.00     0.157 A 
ATOM     16  C   UNL     1     -93.261  59.946 199.195  1.00  0.00     0.062 A 
ATOM     17  C   UNL     1     -92.367  60.362 198.198  1.00  0.00     0.158 A 
BRANCH  15  18
ATOM     18  O   UNL     1     -91.578  62.108 196.691  1.00  0.00    -0.504 OA
ATOM     19  H   UNL     1     -91.828  62.844 196.041  1.00  0.00     0.293 HD
ENDBRANCH  15  18
BRANCH  17  20
ATOM     20  O   UNL     1     -91.394  59.485 197.720  1.00  0.00    -0.504 OA
ATOM     21  H   UNL     1     -91.063  59.530 196.762  1.00  0.00     0.293 HD
ENDBRANCH  17  20
ENDBRANCH   1  12
BRANCH   2  22
ATOM     22  O   UNL     1     -97.143  60.844 199.402  1.00  0.00    -0.502 OA
ATOM     23  H   UNL     1     -97.090  60.308 198.544  1.00  0.00     0.293 HD
ENDBRANCH   2  22
BRANCH   6  24
ATOM     24  O   UNL     1     -98.908  59.040 203.950  1.00  0.00    -0.507 OA
ATOM     25  H   UNL     1     -99.439  58.907 203.097  1.00  0.00     0.293 HD
ENDBRANCH   6  24
BRANCH   8  26
ATOM     26  O   UNL     1     -94.797  58.039 206.266  1.00  0.00    -0.508 OA
ATOM     27  H   UNL     1     -94.601  57.052 206.388  1.00  0.00     0.293 HD
ENDBRANCH   8  26
TORSDOF 6
ENDMDL
MODEL 3
REMARK VINA RESULT:    -3.938      6.821      9.176
REMARK INTER + INTRA:          -4.987
REMARK INTER:                  -4.733
REMARK INTRA:                  -0.253
REMARK UNBOUND:                -0.244
REMARK SMILES O=c1c(O)c(-c2ccc(O)c(O)c2)oc2cc(O)cc(O)c12
REMARK SMILES IDX 5 1 3 2 2 3 1 4 22 5 20 6 19 7 17 8 16 9 15 10 14 11 6 12
REMARK SMILES IDX 7 13 8 14 9 15 13 16 11 17 10 18 12 20 4 22 21 24 18 26
REMARK H PARENT 10 19 12 21 4 23 21 25 18 27
REMARK Flexibility Score: inf
ROOT
ATOM      1  C   UNL     1     -92.102  57.505 193.375  1.00  0.00     0.180 A 
ATOM      2  C   UNL     1     -91.410  56.872 194.425  1.00  0.00     0.208 A 
ATOM      3  C   UNL     1     -91.482  55.475 194.540  1.00  0.00     0.238 A 
ATOM      4  O   UNL     1     -90.857  54.896 195.471  1.00  0.00    -0.285 OA
ATOM      5  C   UNL     1     -92.259  54.739 193.623  1.00  0.00     0.111 A 
ATOM      6  C   UNL     1     -92.388  53.330 193.672  1.00  0.00     0.134 A 
ATOM      7  C   UNL     1     -93.187  52.671 192.726  1.00  0.00     0.093 A 
ATOM      8  C   UNL     1     -93.860  53.390 191.736  1.00  0.00     0.123 A 
ATOM      9  C   UNL     1     -93.735  54.783 191.681  1.00  0.00     0.094 A 
ATOM     10  C   UNL     1     -92.942  55.458 192.613  1.00  0.00     0.146 A 
ATOM     11  O   UNL     1     -92.837  56.780 192.536  1.00  0.00    -0.452 OA
ENDROOT
BRANCH   1  12
ATOM     12  C   UNL     1     -92.060  58.971 193.175  1.00  0.00     0.025 A 
ATOM     13  C   UNL     1     -92.756  59.845 194.029  1.00  0.00     0.016 A 
ATOM     14  C   UNL     1     -92.682  61.228 193.836  1.00  0.00     0.051 A 
ATOM     15  C   UNL     1     -91.906  61.758 192.801  1.00  0.00     0.157 A 
ATOM     16  C   UNL     1     -91.264  59.507 192.150  1.00  0.00     0.062 A 
ATOM     17  C   UNL     1     -91.191  60.894 191.955  1.00  0.00     0.158 A 
BRANCH  15  18
ATOM     18  O   UNL     1     -91.853  63.140 192.632  1.00  0.00    -0.504 OA
ATOM     19  H   UNL     1     -91.805  63.570 191.716  1.00  0.00     0.293 HD
ENDBRANCH  15  18
BRANCH  17  20
ATOM     20  O   UNL     1     -90.409  61.416 190.925  1.00  0.00    -0.504 OA
ATOM     21  H   UNL     1     -90.359  62.414 190.749  1.00  0.00     0.293 HD
ENDBRANCH  17  20
ENDBRANCH   1  12
BRANCH   2  22
ATOM     22  O   UNL     1     -90.687  57.628 195.351  1.00  0.00    -0.502 OA
ATOM     23  H   UNL     1     -91.032  58.505 195.724  1.00  0.00     0.293 HD
ENDBRANCH   2  22
BRANCH   6  24
ATOM     24  O   UNL     1     -91.731  52.582 194.649  1.00  0.00    -0.507 OA
ATOM     25  H   UNL     1     -91.128  53.016 195.338  1.00  0.00     0.293 HD
ENDBRANCH   6  24
BRANCH   8  26
ATOM     26  O   UNL     1     -94.648  52.712 190.809  1.00  0.00    -0.508 OA
ATOM     27  H   UNL     1     -95.339  52.029 191.100  1.00  0.00     0.293 HD
ENDBRANCH   8  26
TORSDOF 6
ENDMDL
MODEL 4
REMARK VINA RESULT:    -3.911      1.655      7.044
REMARK INTER + INTRA:          -4.955
REMARK INTER:                  -4.736
REMARK INTRA:                  -0.219
REMARK UNBOUND:                -0.244
REMARK SMILES O=c1c(O)c(-c2ccc(O)c(O)c2)oc2cc(O)cc(O)c12
REMARK SMILES IDX 5 1 3 2 2 3 1 4 22 5 20 6 19 7 17 8 16 9 15 10 14 11 6 12
REMARK SMILES IDX 7 13 8 14 9 15 13 16 11 17 10 18 12 20 4 22 21 24 18 26
REMARK H PARENT 10 19 12 21 4 23 21 25 18 27
REMARK Flexibility Score: inf
ROOT
ATOM      1  C   UNL     1     -96.266  60.204 199.417  1.00  0.00     0.180 A 
ATOM      2  C   UNL     1     -96.614  60.488 200.752  1.00  0.00     0.208 A 
ATOM      3  C   UNL     1     -97.849  60.035 201.241  1.00  0.00     0.238 A 
ATOM      4  O   UNL     1     -98.167  60.273 202.439  1.00  0.00    -0.285 OA
ATOM      5  C   UNL     1     -98.722  59.331 200.387  1.00  0.00     0.111 A 
ATOM      6  C   UNL     1     -99.986  58.845 200.800  1.00  0.00     0.134 A 
ATOM      7  C   UNL     1    -100.801  58.159 199.887  1.00  0.00     0.093 A 
ATOM      8  C   UNL     1    -100.379  57.952 198.572  1.00  0.00     0.123 A 
ATOM      9  C   UNL     1     -99.130  58.429 198.158  1.00  0.00     0.094 A 
ATOM     10  C   UNL     1     -98.303  59.112 199.053  1.00  0.00     0.146 A 
ATOM     11  O   UNL     1     -97.120  59.550 198.636  1.00  0.00    -0.452 OA
ENDROOT
BRANCH   1  12
ATOM     12  C   UNL     1     -94.974  60.631 198.833  1.00  0.00     0.025 A 
ATOM     13  C   UNL     1     -94.906  61.668 197.886  1.00  0.00     0.016 A 
ATOM     14  C   UNL     1     -93.673  62.071 197.367  1.00  0.00     0.051 A 
ATOM     15  C   UNL     1     -92.491  61.456 197.791  1.00  0.00     0.157 A 
ATOM     16  C   UNL     1     -93.784  60.030 199.273  1.00  0.00     0.062 A 
ATOM     17  C   UNL     1     -92.546  60.431 198.751  1.00  0.00     0.158 A 
BRANCH  15  18
ATOM     18  O   UNL     1     -91.276  61.876 197.253  1.00  0.00    -0.504 OA
ATOM     19  H   UNL     1     -90.856  62.765 197.500  1.00  0.00     0.293 HD
ENDBRANCH  15  18
BRANCH  17  20
ATOM     20  O   UNL     1     -91.371  59.819 199.184  1.00  0.00    -0.504 OA
ATOM     21  H   UNL     1     -91.358  59.207 199.994  1.00  0.00     0.293 HD
ENDBRANCH  17  20
ENDBRANCH   1  12
BRANCH   2  22
ATOM     22  O   UNL     1     -95.753  61.230 201.564  1.00  0.00    -0.502 OA
ATOM     23  H   UNL     1     -95.086  60.794 202.190  1.00  0.00     0.293 HD
ENDBRANCH   2  22
BRANCH   6  24
ATOM     24  O   UNL     1    -100.437  59.037 202.107  1.00  0.00    -0.507 OA
ATOM     25  H   UNL     1     -99.886  58.755 202.909  1.00  0.00     0.293 HD
ENDBRANCH   6  24
BRANCH   8  26
ATOM     26  O   UNL     1    -101.208  57.269 197.684  1.00  0.00    -0.508 OA
ATOM     27  H   UNL     1    -100.997  57.219 196.695  1.00  0.00     0.293 HD
ENDBRANCH   8  26
TORSDOF 6
ENDMDL
MODEL 5
REMARK VINA RESULT:    -3.892      2.920      5.447
REMARK INTER + INTRA:          -4.932
REMARK INTER:                  -4.616
REMARK INTRA:                  -0.316
REMARK UNBOUND:                -0.244
REMARK SMILES O=c1c(O)c(-c2ccc(O)c(O)c2)oc2cc(O)cc(O)c12
REMARK SMILES IDX 5 1 3 2 2 3 1 4 22 5 20 6 19 7 17 8 16 9 15 10 14 11 6 12
REMARK SMILES IDX 7 13 8 14 9 15 13 16 11 17 10 18 12 20 4 22 21 24 18 26
REMARK H PARENT 10 19 12 21 4 23 21 25 18 27
REMARK Flexibility Score: inf
ROOT
ATOM      1  C   UNL     1     -95.922  60.440 200.598  1.00  0.00     0.180 A 
ATOM      2  C   UNL     1     -95.087  61.037 199.634  1.00  0.00     0.208 A 
ATOM      3  C   UNL     1     -95.492  61.032 198.290  1.00  0.00     0.238 A 
ATOM      4  O   UNL     1     -94.758  61.574 197.419  1.00  0.00    -0.285 OA
ATOM      5  C   UNL     1     -96.707  60.414 197.930  1.00  0.00     0.111 A 
ATOM      6  C   UNL     1     -97.184  60.360 196.598  1.00  0.00     0.134 A 
ATOM      7  C   UNL     1     -98.400  59.719 196.320  1.00  0.00     0.093 A 
ATOM      8  C   UNL     1     -99.145  59.129 197.343  1.00  0.00     0.123 A 
ATOM      9  C   UNL     1     -98.679  59.179 198.661  1.00  0.00     0.094 A 
ATOM     10  C   UNL     1     -97.471  59.815 198.960  1.00  0.00     0.146 A 
ATOM     11  O   UNL     1     -97.054  59.853 200.220  1.00  0.00    -0.452 OA
ENDROOT
BRANCH   1  12
ATOM     12  C   UNL     1     -95.575  60.422 202.038  1.00  0.00     0.025 A 
ATOM     13  C   UNL     1     -95.814  61.535 202.861  1.00  0.00     0.016 A 
ATOM     14  C   UNL     1     -95.501  61.487 204.223  1.00  0.00     0.051 A 
ATOM     15  C   UNL     1     -94.958  60.326 204.783  1.00  0.00     0.157 A 
ATOM     16  C   UNL     1     -95.050  59.250 202.607  1.00  0.00     0.062 A 
ATOM     17  C   UNL     1     -94.734  59.201 203.973  1.00  0.00     0.158 A 
BRANCH  15  18
ATOM     18  O   UNL     1     -94.654  60.308 206.143  1.00  0.00    -0.504 OA
ATOM     19  H   UNL     1     -94.581  61.157 206.691  1.00  0.00     0.293 HD
ENDBRANCH  15  18
BRANCH  17  20
ATOM     20  O   UNL     1     -94.200  58.038 204.526  1.00  0.00    -0.504 OA
ATOM     21  H   UNL     1     -94.320  57.134 204.081  1.00  0.00     0.293 HD
ENDBRANCH  17  20
ENDBRANCH   1  12
BRANCH   2  22
ATOM     22  O   UNL     1     -93.866  61.600 200.010  1.00  0.00    -0.502 OA
ATOM     23  H   UNL     1     -93.480  62.418 199.552  1.00  0.00     0.293 HD
ENDBRANCH   2  22
BRANCH   6  24
ATOM     24  O   UNL     1     -96.463  60.938 195.553  1.00  0.00    -0.507 OA
ATOM     25  H   UNL     1     -96.117  60.389 194.775  1.00  0.00     0.293 HD
ENDBRANCH   6  24
BRANCH   8  26
ATOM     26  O   UNL     1    -100.349  58.497 197.039  1.00  0.00    -0.508 OA
ATOM     27  H   UNL     1    -101.181  58.645 197.597  1.00  0.00     0.293 HD
ENDBRANCH   8  26
TORSDOF 6
ENDMDL
MODEL 6
REMARK VINA RESULT:    -3.803      2.922      4.439
REMARK INTER + INTRA:          -4.825
REMARK INTER:                  -4.502
REMARK INTRA:                  -0.323
REMARK UNBOUND:                -0.244
REMARK SMILES O=c1c(O)c(-c2ccc(O)c(O)c2)oc2cc(O)cc(O)c12
REMARK SMILES IDX 5 1 3 2 2 3 1 4 22 5 20 6 19 7 17 8 16 9 15 10 14 11 6 12
REMARK SMILES IDX 7 13 8 14 9 15 13 16 11 17 10 18 12 20 4 22 21 24 18 26
REMARK H PARENT 10 19 12 21 4 23 21 25 18 27
REMARK Flexibility Score: inf
ROOT
ATOM      1  C   UNL     1     -95.237  60.662 200.566  1.00  0.00     0.180 A 
ATOM      2  C   UNL     1     -96.418  60.420 199.838  1.00  0.00     0.208 A 
ATOM      3  C   UNL     1     -96.401  60.583 198.444  1.00  0.00     0.238 A 
ATOM      4  O   UNL     1     -97.450  60.358 197.780  1.00  0.00    -0.285 OA
ATOM      5  C   UNL     1     -95.217  61.004 197.805  1.00  0.00     0.111 A 
ATOM      6  C   UNL     1     -95.118  61.197 196.407  1.00  0.00     0.134 A 
ATOM      7  C   UNL     1     -93.904  61.626 195.848  1.00  0.00     0.093 A 
ATOM      8  C   UNL     1     -92.793  61.868 196.657  1.00  0.00     0.123 A 
ATOM      9  C   UNL     1     -92.885  61.679 198.041  1.00  0.00     0.094 A 
ATOM     10  C   UNL     1     -94.083  61.249 198.617  1.00  0.00     0.146 A 
ATOM     11  O   UNL     1     -94.142  61.072 199.932  1.00  0.00    -0.452 OA
ENDROOT
BRANCH   1  12
ATOM     12  C   UNL     1     -95.169  60.494 202.036  1.00  0.00     0.025 A 
ATOM     13  C   UNL     1     -95.432  61.566 202.906  1.00  0.00     0.016 A 
ATOM     14  C   UNL     1     -95.387  61.379 204.291  1.00  0.00     0.051 A 
ATOM     15  C   UNL     1     -95.092  60.121 204.825  1.00  0.00     0.157 A 
ATOM     16  C   UNL     1     -94.895  59.227 202.575  1.00  0.00     0.062 A 
ATOM     17  C   UNL     1     -94.847  59.038 203.964  1.00  0.00     0.158 A 
BRANCH  15  18
ATOM     18  O   UNL     1     -95.051  59.965 206.210  1.00  0.00    -0.504 OA
ATOM     19  H   UNL     1     -94.216  60.159 206.750  1.00  0.00     0.293 HD
ENDBRANCH  15  18
BRANCH  17  20
ATOM     20  O   UNL     1     -94.560  57.779 204.490  1.00  0.00    -0.504 OA
ATOM     21  H   UNL     1     -94.061  57.079 203.951  1.00  0.00     0.293 HD
ENDBRANCH  17  20
ENDBRANCH   1  12
BRANCH   2  22
ATOM     22  O   UNL     1     -97.591  60.050 200.500  1.00  0.00    -0.502 OA
ATOM     23  H   UNL     1     -98.511  60.306 200.159  1.00  0.00     0.293 HD
ENDBRANCH   2  22
BRANCH   6  24
ATOM     24  O   UNL     1     -96.210  60.965 195.570  1.00  0.00    -0.507 OA
ATOM     25  H   UNL     1     -97.130  61.335 195.779  1.00  0.00     0.293 HD
ENDBRANCH   6  24
BRANCH   8  26
ATOM     26  O   UNL     1     -91.600  62.295 196.078  1.00  0.00    -0.508 OA
ATOM     27  H   UNL     1     -91.529  62.475 195.083  1.00  0.00     0.293 HD
ENDBRANCH   8  26
TORSDOF 6
ENDMDL
MODEL 7
REMARK VINA RESULT:    -3.740      1.829      7.524
REMARK INTER + INTRA:          -4.748
REMARK INTER:                  -4.495
REMARK INTRA:                  -0.254
REMARK UNBOUND:                -0.244
REMARK SMILES O=c1c(O)c(-c2ccc(O)c(O)c2)oc2cc(O)cc(O)c12
REMARK SMILES IDX 5 1 3 2 2 3 1 4 22 5 20 6 19 7 17 8 16 9 15 10 14 11 6 12
REMARK SMILES IDX 7 13 8 14 9 15 13 16 11 17 10 18 12 20 4 22 21 24 18 26
REMARK H PARENT 10 19 12 21 4 23 21 25 18 27
REMARK Flexibility Score: inf
ROOT
ATOM      1  C   UNL     1     -96.538  60.152 199.695  1.00  0.00     0.180 A 
ATOM      2  C   UNL     1     -97.548  59.529 198.935  1.00  0.00     0.208 A 
ATOM      3  C   UNL     1     -98.761  59.202 199.560  1.00  0.00     0.238 A 
ATOM      4  O   UNL     1     -99.677  58.654 198.887  1.00  0.00    -0.285 OA
ATOM      5  C   UNL     1     -98.937  59.479 200.931  1.00  0.00     0.111 A 
ATOM      6  C   UNL     1    -100.126  59.176 201.636  1.00  0.00     0.134 A 
ATOM      7  C   UNL     1    -100.221  59.477 203.003  1.00  0.00     0.093 A 
ATOM      8  C   UNL     1     -99.152  60.071 203.678  1.00  0.00     0.123 A 
ATOM      9  C   UNL     1     -97.973  60.373 202.986  1.00  0.00     0.094 A 
ATOM     10  C   UNL     1     -97.861  60.083 201.623  1.00  0.00     0.146 A 
ATOM     11  O   UNL     1     -96.734  60.385 200.989  1.00  0.00    -0.452 OA
ENDROOT
BRANCH   1  12
ATOM     12  C   UNL     1     -95.238  60.546 199.104  1.00  0.00     0.025 A 
ATOM     13  C   UNL     1     -95.139  61.628 198.212  1.00  0.00     0.016 A 
ATOM     14  C   UNL     1     -93.898  61.997 197.686  1.00  0.00     0.051 A 
ATOM     15  C   UNL     1     -92.740  61.303 198.050  1.00  0.00     0.157 A 
ATOM     16  C   UNL     1     -94.071  59.864 199.485  1.00  0.00     0.062 A 
ATOM     17  C   UNL     1     -92.825  60.232 198.956  1.00  0.00     0.158 A 
BRANCH  15  18
ATOM     18  O   UNL     1     -91.516  61.692 197.507  1.00  0.00    -0.504 OA
ATOM     19  H   UNL     1     -91.125  61.248 196.685  1.00  0.00     0.293 HD
ENDBRANCH  15  18
BRANCH  17  20
ATOM     20  O   UNL     1     -91.674  59.541 199.329  1.00  0.00    -0.504 OA
ATOM     21  H   UNL     1     -91.457  59.356 200.303  1.00  0.00     0.293 HD
ENDBRANCH  17  20
ENDBRANCH   1  12
BRANCH   2  22
ATOM     22  O   UNL     1     -97.331  59.221 197.590  1.00  0.00    -0.502 OA
ATOM     23  H   UNL     1     -96.426  58.928 197.239  1.00  0.00     0.293 HD
ENDBRANCH   2  22
BRANCH   6  24
ATOM     24  O   UNL     1    -101.212  58.582 200.992  1.00  0.00    -0.507 OA
ATOM     25  H   UNL     1    -102.050  59.105 200.765  1.00  0.00     0.293 HD
ENDBRANCH   6  24
BRANCH   8  26
ATOM     26  O   UNL     1     -99.270  60.357 205.036  1.00  0.00    -0.508 OA
ATOM     27  H   UNL     1     -99.855  61.115 205.369  1.00  0.00     0.293 HD
ENDBRANCH   8  26
TORSDOF 6
ENDMDL
MODEL 8
REMARK VINA RESULT:    -3.696      7.233      9.385
REMARK INTER + INTRA:          -4.696
REMARK INTER:                  -4.374
REMARK INTRA:                  -0.322
REMARK UNBOUND:                -0.244
REMARK SMILES O=c1c(O)c(-c2ccc(O)c(O)c2)oc2cc(O)cc(O)c12
REMARK SMILES IDX 5 1 3 2 2 3 1 4 22 5 20 6 19 7 17 8 16 9 15 10 14 11 6 12
REMARK SMILES IDX 7 13 8 14 9 15 13 16 11 17 10 18 12 20 4 22 21 24 18 26
REMARK H PARENT 10 19 12 21 4 23 21 25 18 27
REMARK Flexibility Score: inf
ROOT
ATOM      1  C   UNL     1     -92.042  57.100 192.826  1.00  0.00     0.180 A 
ATOM      2  C   UNL     1     -91.452  56.613 191.643  1.00  0.00     0.208 A 
ATOM      3  C   UNL     1     -90.944  55.305 191.628  1.00  0.00     0.238 A 
ATOM      4  O   UNL     1     -90.422  54.854 190.571  1.00  0.00    -0.285 OA
ATOM      5  C   UNL     1     -91.012  54.516 192.794  1.00  0.00     0.111 A 
ATOM      6  C   UNL     1     -90.519  53.191 192.863  1.00  0.00     0.134 A 
ATOM      7  C   UNL     1     -90.618  52.473 194.064  1.00  0.00     0.093 A 
ATOM      8  C   UNL     1     -91.197  53.053 195.195  1.00  0.00     0.123 A 
ATOM      9  C   UNL     1     -91.686  54.363 195.133  1.00  0.00     0.094 A 
ATOM     10  C   UNL     1     -91.599  55.093 193.945  1.00  0.00     0.146 A 
ATOM     11  O   UNL     1     -92.076  56.332 193.912  1.00  0.00    -0.452 OA
ENDROOT
BRANCH   1  12
ATOM     12  C   UNL     1     -92.617  58.461 192.917  1.00  0.00     0.025 A 
ATOM     13  C   UNL     1     -93.990  58.689 192.718  1.00  0.00     0.016 A 
ATOM     14  C   UNL     1     -94.515  59.979 192.833  1.00  0.00     0.051 A 
ATOM     15  C   UNL     1     -93.685  61.055 193.159  1.00  0.00     0.157 A 
ATOM     16  C   UNL     1     -91.789  59.540 193.265  1.00  0.00     0.062 A 
ATOM     17  C   UNL     1     -92.314  60.835 193.379  1.00  0.00     0.158 A 
BRANCH  15  18
ATOM     18  O   UNL     1     -94.236  62.331 193.263  1.00  0.00    -0.504 OA
ATOM     19  H   UNL     1     -94.075  63.047 192.565  1.00  0.00     0.293 HD
ENDBRANCH  15  18
BRANCH  17  20
ATOM     20  O   UNL     1     -91.481  61.903 193.711  1.00  0.00    -0.504 OA
ATOM     21  H   UNL     1     -90.738  61.804 194.394  1.00  0.00     0.293 HD
ENDBRANCH  17  20
ENDBRANCH   1  12
BRANCH   2  22
ATOM     22  O   UNL     1     -91.352  57.432 190.516  1.00  0.00    -0.502 OA
ATOM     23  H   UNL     1     -92.027  57.403 189.762  1.00  0.00     0.293 HD
ENDBRANCH   2  22
BRANCH   6  24
ATOM     24  O   UNL     1     -89.935  52.583 191.751  1.00  0.00    -0.507 OA
ATOM     25  H   UNL     1     -90.341  51.763 191.316  1.00  0.00     0.293 HD
ENDBRANCH   6  24
BRANCH   8  26
ATOM     26  O   UNL     1     -91.281  52.319 196.377  1.00  0.00    -0.508 OA
ATOM     27  H   UNL     1     -92.149  51.887 196.672  1.00  0.00     0.293 HD
ENDBRANCH   8  26
TORSDOF 6
ENDMDL
MODEL 9
REMARK VINA RESULT:    -3.684      8.479     10.498
REMARK INTER + INTRA:          -4.681
REMARK INTER:                  -4.529
REMARK INTRA:                  -0.152
REMARK UNBOUND:                -0.244
REMARK SMILES O=c1c(O)c(-c2ccc(O)c(O)c2)oc2cc(O)cc(O)c12
REMARK SMILES IDX 5 1 3 2 2 3 1 4 22 5 20 6 19 7 17 8 16 9 15 10 14 11 6 12
REMARK SMILES IDX 7 13 8 14 9 15 13 16 11 17 10 18 12 20 4 22 21 24 18 26
REMARK H PARENT 10 19 12 21 4 23 21 25 18 27
REMARK Flexibility Score: inf
ROOT
ATOM      1  C   UNL     1     -91.597  55.131 193.509  1.00  0.00     0.180 A 
ATOM      2  C   UNL     1     -90.932  54.657 194.657  1.00  0.00     0.208 A 
ATOM      3  C   UNL     1     -91.001  53.290 194.965  1.00  0.00     0.238 A 
ATOM      4  O   UNL     1     -90.400  52.852 195.984  1.00  0.00    -0.285 OA
ATOM      5  C   UNL     1     -91.748  52.425 194.139  1.00  0.00     0.111 A 
ATOM      6  C   UNL     1     -91.872  51.037 194.382  1.00  0.00     0.134 A 
ATOM      7  C   UNL     1     -92.642  50.245 193.517  1.00  0.00     0.093 A 
ATOM      8  C   UNL     1     -93.290  50.812 192.417  1.00  0.00     0.123 A 
ATOM      9  C   UNL     1     -93.170  52.185 192.171  1.00  0.00     0.094 A 
ATOM     10  C   UNL     1     -92.407  52.991 193.020  1.00  0.00     0.146 A 
ATOM     11  O   UNL     1     -92.305  54.289 192.761  1.00  0.00    -0.452 OA
ENDROOT
BRANCH   1  12
ATOM     12  C   UNL     1     -91.556  56.555 193.107  1.00  0.00     0.025 A 
ATOM     13  C   UNL     1     -92.102  57.561 193.923  1.00  0.00     0.016 A 
ATOM     14  C   UNL     1     -92.030  58.902 193.535  1.00  0.00     0.051 A 
ATOM     15  C   UNL     1     -91.404  59.259 192.337  1.00  0.00     0.157 A 
ATOM     16  C   UNL     1     -90.909  56.919 191.915  1.00  0.00     0.062 A 
ATOM     17  C   UNL     1     -90.837  58.264 191.524  1.00  0.00     0.158 A 
BRANCH  15  18
ATOM     18  O   UNL     1     -91.350  60.604 191.975  1.00  0.00    -0.504 OA
ATOM     19  H   UNL     1     -90.596  60.981 191.412  1.00  0.00     0.293 HD
ENDBRANCH  15  18
BRANCH  17  20
ATOM     20  O   UNL     1     -90.205  58.613 190.332  1.00  0.00    -0.504 OA
ATOM     21  H   UNL     1     -90.587  59.323 189.715  1.00  0.00     0.293 HD
ENDBRANCH  17  20
ENDBRANCH   1  12
BRANCH   2  22
ATOM     22  O   UNL     1     -90.238  55.542 195.486  1.00  0.00    -0.502 OA
ATOM     23  H   UNL     1     -89.241  55.700 195.399  1.00  0.00     0.293 HD
ENDBRANCH   2  22
BRANCH   6  24
ATOM     24  O   UNL     1     -91.239  50.439 195.472  1.00  0.00    -0.507 OA
ATOM     25  H   UNL     1     -90.242  50.531 195.627  1.00  0.00     0.293 HD
ENDBRANCH   6  24
BRANCH   8  26
ATOM     26  O   UNL     1     -94.049  50.004 191.575  1.00  0.00    -0.508 OA
ATOM     27  H   UNL     1     -94.535  49.185 191.921  1.00  0.00     0.293 HD
ENDBRANCH   8  26
TORSDOF 6
ENDMDL
