MODEL 1
REMARK VINA RESULT:    -3.839      0.000      0.000
REMARK INTER + INTRA:          -8.190
REMARK INTER:                  -6.532
REMARK INTRA:                  -1.658
REMARK UNBOUND:                -1.658
REMARK SMILES CCCCCCCCCCCCCC(=O)[O-]
REMARK SMILES IDX 8 1 9 2 10 3 11 4 12 5 13 6 14 7 15 8 16 9 7 10 6 11 5 12
REMARK SMILES IDX 4 13 3 14 2 15 1 16
REMARK H PARENT
REMARK Flexibility Score: inf
ROOT
ATOM      1  C   UNL     1      -3.586  -2.641   7.518  1.00  0.00     0.000 C 
ENDROOT
BRANCH   1   2
ATOM      2  C   UNL     1      -2.333  -3.348   6.988  1.00  0.00     0.000 C 
BRANCH   2   3
ATOM      3  C   UNL     1      -1.077  -2.497   7.228  1.00  0.00     0.000 C 
BRANCH   3   4
ATOM      4  C   UNL     1       0.062  -2.821   6.248  1.00  0.00     0.000 C 
BRANCH   4   5
ATOM      5  C   UNL     1       0.448  -1.637   5.335  1.00  0.00     0.006 C 
BRANCH   5   6
ATOM      6  C   UNL     1       1.640  -0.843   5.887  1.00  0.00     0.053 C 
BRANCH   6   7
ATOM      7  C   UNL     1       2.915  -1.593   5.672  1.00  0.00     0.041 C 
ATOM      8  O   UNL     1       3.786  -1.637   6.580  1.00  0.00    -0.550 OA
ATOM      9  O   UNL     1       3.121  -2.289   4.487  1.00  0.00    -0.550 OA
ENDBRANCH   6   7
ENDBRANCH   5   6
ENDBRANCH   4   5
ENDBRANCH   3   4
ENDBRANCH   2   3
ENDBRANCH   1   2
BRANCH   1  10
ATOM     10  C   UNL     1      -4.797  -2.921   6.615  1.00  0.00     0.000 C 
BRANCH  10  11
ATOM     11  C   UNL     1      -5.506  -1.636   6.158  1.00  0.00    -0.000 C 
BRANCH  11  12
ATOM     12  C   UNL     1      -4.598  -0.731   5.309  1.00  0.00    -0.000 C 
BRANCH  12  13
ATOM     13  C   UNL     1      -4.212  -1.365   3.960  1.00  0.00    -0.000 C 
BRANCH  13  14
ATOM     14  C   UNL     1      -2.712  -1.667   3.786  1.00  0.00    -0.000 C 
BRANCH  14  15
ATOM     15  C   UNL     1      -2.443  -3.080   3.249  1.00  0.00    -0.003 C 
ATOM     16  C   UNL     1      -3.720  -3.915   3.234  1.00  0.00     0.004 C 
ENDBRANCH  14  15
ENDBRANCH  13  14
ENDBRANCH  12  13
ENDBRANCH  11  12
ENDBRANCH  10  11
ENDBRANCH   1  10
TORSDOF 12
ENDMDL
MODEL 2
REMARK VINA RESULT:    -3.788      4.164      6.489
REMARK INTER + INTRA:          -8.103
REMARK INTER:                  -7.283
REMARK INTRA:                  -0.820
REMARK UNBOUND:                -1.658
REMARK SMILES CCCCCCCCCCCCCC(=O)[O-]
REMARK SMILES IDX 8 1 9 2 10 3 11 4 12 5 13 6 14 7 15 8 16 9 7 10 6 11 5 12
REMARK SMILES IDX 4 13 3 14 2 15 1 16
REMARK H PARENT
REMARK Flexibility Score: inf
ROOT
ATOM      1  C   UNL     1      -2.621  -4.139   2.638  1.00  0.00     0.000 C 
ENDROOT
BRANCH   1   2
ATOM      2  C   UNL     1      -3.894  -4.522   1.874  1.00  0.00     0.000 C 
BRANCH   2   3
ATOM      3  C   UNL     1      -3.554  -5.170   0.525  1.00  0.00     0.000 C 
BRANCH   3   4
ATOM      4  C   UNL     1      -2.147  -4.806   0.023  1.00  0.00     0.000 C 
BRANCH   4   5
ATOM      5  C   UNL     1      -2.029  -4.769  -1.516  1.00  0.00     0.006 C 
BRANCH   5   6
ATOM      6  C   UNL     1      -0.856  -3.899  -1.988  1.00  0.00     0.053 C 
BRANCH   6   7
ATOM      7  C   UNL     1       0.213  -4.746  -2.600  1.00  0.00     0.041 C 
ATOM      8  O   UNL     1       1.191  -5.133  -1.907  1.00  0.00    -0.550 OA
ATOM      9  O   UNL     1       0.106  -5.152  -3.924  1.00  0.00    -0.550 OA
ENDBRANCH   6   7
ENDBRANCH   5   6
ENDBRANCH   4   5
ENDBRANCH   3   4
ENDBRANCH   2   3
ENDBRANCH   1   2
BRANCH   1  10
ATOM     10  C   UNL     1      -2.964  -3.384   3.932  1.00  0.00     0.000 C 
BRANCH  10  11
ATOM     11  C   UNL     1      -2.817  -1.860   3.786  1.00  0.00    -0.000 C 
BRANCH  11  12
ATOM     12  C   UNL     1      -4.170  -1.131   3.818  1.00  0.00    -0.000 C 
BRANCH  12  13
ATOM     13  C   UNL     1      -5.324  -2.030   4.298  1.00  0.00    -0.000 C 
BRANCH  13  14
ATOM     14  C   UNL     1      -5.833  -1.736   5.721  1.00  0.00    -0.000 C 
BRANCH  14  15
ATOM     15  C   UNL     1      -5.298  -0.413   6.288  1.00  0.00    -0.003 C 
ATOM     16  C   UNL     1      -6.376   0.320   7.082  1.00  0.00     0.004 C 
ENDBRANCH  14  15
ENDBRANCH  13  14
ENDBRANCH  12  13
ENDBRANCH  11  12
ENDBRANCH  10  11
ENDBRANCH   1  10
TORSDOF 12
ENDMDL
MODEL 3
REMARK VINA RESULT:    -3.753      5.112      6.615
REMARK INTER + INTRA:          -8.044
REMARK INTER:                  -7.565
REMARK INTRA:                  -0.479
REMARK UNBOUND:                -1.658
REMARK SMILES CCCCCCCCCCCCCC(=O)[O-]
REMARK SMILES IDX 8 1 9 2 10 3 11 4 12 5 13 6 14 7 15 8 16 9 7 10 6 11 5 12
REMARK SMILES IDX 4 13 3 14 2 15 1 16
REMARK H PARENT
REMARK Flexibility Score: inf
ROOT
ATOM      1  C   UNL     1       2.249   1.133   7.571  1.00  0.00     0.000 C 
ENDROOT
BRANCH   1   2
ATOM      2  C   UNL     1       1.183   2.066   8.157  1.00  0.00     0.000 C 
BRANCH   2   3
ATOM      3  C   UNL     1       1.057   3.351   7.325  1.00  0.00     0.000 C 
BRANCH   3   4
ATOM      4  C   UNL     1       0.142   4.400   7.977  1.00  0.00     0.000 C 
BRANCH   4   5
ATOM      5  C   UNL     1       0.166   5.770   7.267  1.00  0.00     0.006 C 
BRANCH   5   6
ATOM      6  C   UNL     1      -1.096   6.011   6.427  1.00  0.00     0.053 C 
BRANCH   6   7
ATOM      7  C   UNL     1      -0.736   6.252   4.996  1.00  0.00     0.041 C 
ATOM      8  O   UNL     1      -0.915   7.386   4.479  1.00  0.00    -0.550 OA
ATOM      9  O   UNL     1      -0.154   5.238   4.246  1.00  0.00    -0.550 OA
ENDBRANCH   6   7
ENDBRANCH   5   6
ENDBRANCH   4   5
ENDBRANCH   3   4
ENDBRANCH   2   3
ENDBRANCH   1   2
BRANCH   1  10
ATOM     10  C   UNL     1       1.751  -0.320   7.544  1.00  0.00     0.000 C 
BRANCH  10  11
ATOM     11  C   UNL     1       1.205  -0.735   6.168  1.00  0.00    -0.000 C 
BRANCH  11  12
ATOM     12  C   UNL     1       0.177  -1.875   6.260  1.00  0.00    -0.000 C 
BRANCH  12  13
ATOM     13  C   UNL     1      -0.551  -2.135   4.928  1.00  0.00    -0.000 C 
BRANCH  13  14
ATOM     14  C   UNL     1      -2.073  -2.331   5.044  1.00  0.00    -0.000 C 
BRANCH  14  15
ATOM     15  C   UNL     1      -2.848  -1.710   3.873  1.00  0.00    -0.003 C 
ATOM     16  C   UNL     1      -4.142  -1.059   4.354  1.00  0.00     0.004 C 
ENDBRANCH  14  15
ENDBRANCH  13  14
ENDBRANCH  12  13
ENDBRANCH  11  12
ENDBRANCH  10  11
ENDBRANCH   1  10
TORSDOF 12
ENDMDL
MODEL 4
REMARK VINA RESULT:    -3.707      5.472      7.741
REMARK INTER + INTRA:          -7.966
REMARK INTER:                  -6.970
REMARK INTRA:                  -0.996
REMARK UNBOUND:                -1.658
REMARK SMILES CCCCCCCCCCCCCC(=O)[O-]
REMARK SMILES IDX 8 1 9 2 10 3 11 4 12 5 13 6 14 7 15 8 16 9 7 10 6 11 5 12
REMARK SMILES IDX 4 13 3 14 2 15 1 16
REMARK H PARENT
REMARK Flexibility Score: inf
ROOT
ATOM      1  C   UNL     1       1.899   1.972   7.146  1.00  0.00     0.000 C 
ENDROOT
BRANCH   1   2
ATOM      2  C   UNL     1       0.932   2.897   7.895  1.00  0.00     0.000 C 
BRANCH   2   3
ATOM      3  C   UNL     1       0.624   4.157   7.072  1.00  0.00     0.000 C 
BRANCH   3   4
ATOM      4  C   UNL     1       1.399   4.210   5.745  1.00  0.00     0.000 C 
BRANCH   4   5
ATOM      5  C   UNL     1       0.658   4.971   4.626  1.00  0.00     0.006 C 
BRANCH   5   6
ATOM      6  C   UNL     1      -0.637   5.626   5.128  1.00  0.00     0.053 C 
BRANCH   6   7
ATOM      7  C   UNL     1      -0.499   7.115   5.145  1.00  0.00     0.041 C 
ATOM      8  O   UNL     1      -0.054   7.699   6.168  1.00  0.00    -0.550 OA
ATOM      9  O   UNL     1      -0.814   7.855   4.013  1.00  0.00    -0.550 OA
ENDBRANCH   6   7
ENDBRANCH   5   6
ENDBRANCH   4   5
ENDBRANCH   3   4
ENDBRANCH   2   3
ENDBRANCH   1   2
BRANCH   1  10
ATOM     10  C   UNL     1       1.499   0.500   7.326  1.00  0.00     0.000 C 
BRANCH  10  11
ATOM     11  C   UNL     1       1.255  -0.216   5.987  1.00  0.00    -0.000 C 
BRANCH  11  12
ATOM     12  C   UNL     1       0.949  -1.713   6.166  1.00  0.00    -0.000 C 
BRANCH  12  13
ATOM     13  C   UNL     1       2.190  -2.605   5.975  1.00  0.00    -0.000 C 
BRANCH  13  14
ATOM     14  C   UNL     1       3.178  -2.128   4.896  1.00  0.00    -0.000 C 
BRANCH  14  15
ATOM     15  C   UNL     1       4.579  -1.834   5.452  1.00  0.00    -0.003 C 
ATOM     16  C   UNL     1       4.554  -1.728   6.974  1.00  0.00     0.004 C 
ENDBRANCH  14  15
ENDBRANCH  13  14
ENDBRANCH  12  13
ENDBRANCH  11  12
ENDBRANCH  10  11
ENDBRANCH   1  10
TORSDOF 12
ENDMDL
MODEL 5
REMARK VINA RESULT:    -3.653      0.966      2.362
REMARK INTER + INTRA:          -7.873
REMARK INTER:                  -6.072
REMARK INTRA:                  -1.801
REMARK UNBOUND:                -1.658
REMARK SMILES CCCCCCCCCCCCCC(=O)[O-]
REMARK SMILES IDX 8 1 9 2 10 3 11 4 12 5 13 6 14 7 15 8 16 9 7 10 6 11 5 12
REMARK SMILES IDX 4 13 3 14 2 15 1 16
REMARK H PARENT
REMARK Flexibility Score: inf
ROOT
ATOM      1  C   UNL     1      -1.841  -4.898   5.874  1.00  0.00     0.000 C 
ENDROOT
BRANCH   1   2
ATOM      2  C   UNL     1      -2.370  -3.958   6.963  1.00  0.00     0.000 C 
BRANCH   2   3
ATOM      3  C   UNL     1      -1.584  -2.639   6.983  1.00  0.00     0.000 C 
BRANCH   3   4
ATOM      4  C   UNL     1      -0.149  -2.788   6.453  1.00  0.00     0.000 C 
BRANCH   4   5
ATOM      5  C   UNL     1       0.181  -1.838   5.282  1.00  0.00     0.006 C 
BRANCH   5   6
ATOM      6  C   UNL     1       1.336  -0.884   5.616  1.00  0.00     0.053 C 
BRANCH   6   7
ATOM      7  C   UNL     1       2.633  -1.627   5.661  1.00  0.00     0.041 C 
ATOM      8  O   UNL     1       3.271  -1.725   6.741  1.00  0.00    -0.550 OA
ATOM      9  O   UNL     1       3.114  -2.255   4.519  1.00  0.00    -0.550 OA
ENDBRANCH   6   7
ENDBRANCH   5   6
ENDBRANCH   4   5
ENDBRANCH   3   4
ENDBRANCH   2   3
ENDBRANCH   1   2
BRANCH   1  10
ATOM     10  C   UNL     1      -2.809  -4.957   4.682  1.00  0.00     0.000 C 
BRANCH  10  11
ATOM     11  C   UNL     1      -2.412  -3.999   3.547  1.00  0.00    -0.000 C 
BRANCH  11  12
ATOM     12  C   UNL     1      -3.511  -2.972   3.230  1.00  0.00    -0.000 C 
BRANCH  12  13
ATOM     13  C   UNL     1      -3.186  -1.563   3.759  1.00  0.00    -0.000 C 
BRANCH  13  14
ATOM     14  C   UNL     1      -4.267  -0.938   4.660  1.00  0.00    -0.000 C 
BRANCH  14  15
ATOM     15  C   UNL     1      -5.004  -1.975   5.521  1.00  0.00    -0.003 C 
ATOM     16  C   UNL     1      -6.484  -2.040   5.155  1.00  0.00     0.004 C 
ENDBRANCH  14  15
ENDBRANCH  13  14
ENDBRANCH  12  13
ENDBRANCH  11  12
ENDBRANCH  10  11
ENDBRANCH   1  10
TORSDOF 12
ENDMDL
MODEL 6
REMARK VINA RESULT:    -3.618      4.603      6.542
REMARK INTER + INTRA:          -7.813
REMARK INTER:                  -7.065
REMARK INTRA:                  -0.748
REMARK UNBOUND:                -1.658
REMARK SMILES CCCCCCCCCCCCCC(=O)[O-]
REMARK SMILES IDX 8 1 9 2 10 3 11 4 12 5 13 6 14 7 15 8 16 9 7 10 6 11 5 12
REMARK SMILES IDX 4 13 3 14 2 15 1 16
REMARK H PARENT
REMARK Flexibility Score: inf
ROOT
ATOM      1  C   UNL     1       2.632   0.838   7.777  1.00  0.00     0.000 C 
ENDROOT
BRANCH   1   2
ATOM      2  C   UNL     1       1.581   1.770   7.162  1.00  0.00     0.000 C 
BRANCH   2   3
ATOM      3  C   UNL     1       0.856   2.577   8.248  1.00  0.00     0.000 C 
BRANCH   3   4
ATOM      4  C   UNL     1       0.483   3.997   7.792  1.00  0.00     0.000 C 
BRANCH   4   5
ATOM      5  C   UNL     1       1.351   4.521   6.628  1.00  0.00     0.006 C 
BRANCH   5   6
ATOM      6  C   UNL     1       0.819   5.843   6.057  1.00  0.00     0.053 C 
BRANCH   6   7
ATOM      7  C   UNL     1      -0.119   5.584   4.922  1.00  0.00     0.041 C 
ATOM      8  O   UNL     1       0.299   5.043   3.864  1.00  0.00    -0.550 OA
ATOM      9  O   UNL     1      -1.467   5.895   5.049  1.00  0.00    -0.550 OA
ENDBRANCH   6   7
ENDBRANCH   5   6
ENDBRANCH   4   5
ENDBRANCH   3   4
ENDBRANCH   2   3
ENDBRANCH   1   2
BRANCH   1  10
ATOM     10  C   UNL     1       2.319  -0.631   7.452  1.00  0.00     0.000 C 
BRANCH  10  11
ATOM     11  C   UNL     1       2.992  -1.108   6.154  1.00  0.00    -0.000 C 
BRANCH  11  12
ATOM     12  C   UNL     1       2.021  -1.860   5.228  1.00  0.00    -0.000 C 
BRANCH  12  13
ATOM     13  C   UNL     1       0.577  -1.336   5.321  1.00  0.00    -0.000 C 
BRANCH  13  14
ATOM     14  C   UNL     1      -0.508  -2.424   5.415  1.00  0.00    -0.000 C 
BRANCH  14  15
ATOM     15  C   UNL     1      -1.788  -2.062   4.648  1.00  0.00    -0.003 C 
ATOM     16  C   UNL     1      -2.297  -3.250   3.836  1.00  0.00     0.004 C 
ENDBRANCH  14  15
ENDBRANCH  13  14
ENDBRANCH  12  13
ENDBRANCH  11  12
ENDBRANCH  10  11
ENDBRANCH   1  10
TORSDOF 12
ENDMDL
MODEL 7
REMARK VINA RESULT:    -3.549      3.650      6.393
REMARK INTER + INTRA:          -7.696
REMARK INTER:                  -6.359
REMARK INTRA:                  -1.337
REMARK UNBOUND:                -1.658
REMARK SMILES CCCCCCCCCCCCCC(=O)[O-]
REMARK SMILES IDX 8 1 9 2 10 3 11 4 12 5 13 6 14 7 15 8 16 9 7 10 6 11 5 12
REMARK SMILES IDX 4 13 3 14 2 15 1 16
REMARK H PARENT
REMARK Flexibility Score: inf
ROOT
ATOM      1  C   UNL     1      -2.201  -3.422   5.903  1.00  0.00     0.000 C 
ENDROOT
BRANCH   1   2
ATOM      2  C   UNL     1      -2.374  -4.046   4.513  1.00  0.00     0.000 C 
BRANCH   2   3
ATOM      3  C   UNL     1      -2.484  -2.961   3.432  1.00  0.00     0.000 C 
BRANCH   3   4
ATOM      4  C   UNL     1      -2.757  -1.563   4.011  1.00  0.00     0.000 C 
BRANCH   4   5
ATOM      5  C   UNL     1      -4.243  -1.149   3.953  1.00  0.00     0.006 C 
BRANCH   5   6
ATOM      6  C   UNL     1      -4.826  -0.883   5.348  1.00  0.00     0.053 C 
BRANCH   6   7
ATOM      7  C   UNL     1      -5.906  -1.867   5.662  1.00  0.00     0.041 C 
ATOM      8  O   UNL     1      -5.743  -3.090   5.410  1.00  0.00    -0.550 OA
ATOM      9  O   UNL     1      -7.076  -1.443   6.279  1.00  0.00    -0.550 OA
ENDBRANCH   6   7
ENDBRANCH   5   6
ENDBRANCH   4   5
ENDBRANCH   3   4
ENDBRANCH   2   3
ENDBRANCH   1   2
BRANCH   1  10
ATOM     10  C   UNL     1      -0.740  -3.518   6.369  1.00  0.00     0.000 C 
BRANCH  10  11
ATOM     11  C   UNL     1      -0.066  -2.141   6.495  1.00  0.00    -0.000 C 
BRANCH  11  12
ATOM     12  C   UNL     1       0.769  -1.778   5.256  1.00  0.00    -0.000 C 
BRANCH  12  13
ATOM     13  C   UNL     1       2.259  -1.561   5.580  1.00  0.00    -0.000 C 
BRANCH  13  14
ATOM     14  C   UNL     1       3.109  -2.843   5.631  1.00  0.00    -0.000 C 
BRANCH  14  15
ATOM     15  C   UNL     1       3.289  -3.387   7.056  1.00  0.00    -0.003 C 
ATOM     16  C   UNL     1       2.683  -4.781   7.192  1.00  0.00     0.004 C 
ENDBRANCH  14  15
ENDBRANCH  13  14
ENDBRANCH  12  13
ENDBRANCH  11  12
ENDBRANCH  10  11
ENDBRANCH   1  10
TORSDOF 12
ENDMDL
MODEL 8
REMARK VINA RESULT:    -3.542      1.685      3.536
REMARK INTER + INTRA:          -7.685
REMARK INTER:                  -6.808
REMARK INTRA:                  -0.877
REMARK UNBOUND:                -1.658
REMARK SMILES CCCCCCCCCCCCCC(=O)[O-]
REMARK SMILES IDX 8 1 9 2 10 3 11 4 12 5 13 6 14 7 15 8 16 9 7 10 6 11 5 12
REMARK SMILES IDX 4 13 3 14 2 15 1 16
REMARK H PARENT
REMARK Flexibility Score: inf
ROOT
ATOM      1  C   UNL     1      -3.344  -3.353   4.384  1.00  0.00     0.000 C 
ENDROOT
BRANCH   1   2
ATOM      2  C   UNL     1      -2.073  -3.784   5.127  1.00  0.00     0.000 C 
BRANCH   2   3
ATOM      3  C   UNL     1      -1.791  -2.858   6.319  1.00  0.00     0.000 C 
BRANCH   3   4
ATOM      4  C   UNL     1      -0.307  -2.476   6.443  1.00  0.00     0.000 C 
BRANCH   4   5
ATOM      5  C   UNL     1       0.230  -1.681   5.234  1.00  0.00     0.006 C 
BRANCH   5   6
ATOM      6  C   UNL     1       1.361  -0.720   5.626  1.00  0.00     0.053 C 
BRANCH   6   7
ATOM      7  C   UNL     1       2.672  -1.438   5.657  1.00  0.00     0.041 C 
ATOM      8  O   UNL     1       3.399  -1.388   6.684  1.00  0.00    -0.550 OA
ATOM      9  O   UNL     1       3.071  -2.204   4.569  1.00  0.00    -0.550 OA
ENDBRANCH   6   7
ENDBRANCH   5   6
ENDBRANCH   4   5
ENDBRANCH   3   4
ENDBRANCH   2   3
ENDBRANCH   1   2
BRANCH   1  10
ATOM     10  C   UNL     1      -3.132  -2.010   3.668  1.00  0.00     0.000 C 
BRANCH  10  11
ATOM     11  C   UNL     1      -4.183  -0.958   4.059  1.00  0.00    -0.000 C 
BRANCH  11  12
ATOM     12  C   UNL     1      -5.051  -1.403   5.248  1.00  0.00    -0.000 C 
BRANCH  12  13
ATOM     13  C   UNL     1      -5.243  -0.293   6.298  1.00  0.00    -0.000 C 
BRANCH  13  14
ATOM     14  C   UNL     1      -6.674  -0.157   6.850  1.00  0.00    -0.000 C 
BRANCH  14  15
ATOM     15  C   UNL     1      -6.777   0.847   8.006  1.00  0.00    -0.003 C 
ATOM     16  C   UNL     1      -8.228   1.249   8.257  1.00  0.00     0.004 C 
ENDBRANCH  14  15
ENDBRANCH  13  14
ENDBRANCH  12  13
ENDBRANCH  11  12
ENDBRANCH  10  11
ENDBRANCH   1  10
TORSDOF 12
ENDMDL
MODEL 9
REMARK VINA RESULT:    -3.456      4.317      6.996
REMARK INTER + INTRA:          -7.539
REMARK INTER:                  -6.737
REMARK INTRA:                  -0.801
REMARK UNBOUND:                -1.658
REMARK SMILES CCCCCCCCCCCCCC(=O)[O-]
REMARK SMILES IDX 8 1 9 2 10 3 11 4 12 5 13 6 14 7 15 8 16 9 7 10 6 11 5 12
REMARK SMILES IDX 4 13 3 14 2 15 1 16
REMARK H PARENT
REMARK Flexibility Score: inf
ROOT
ATOM      1  C   UNL     1      -2.478  -3.436   3.840  1.00  0.00     0.000 C 
ENDROOT
BRANCH   1   2
ATOM      2  C   UNL     1      -2.671  -1.916   3.792  1.00  0.00     0.000 C 
BRANCH   2   3
ATOM      3  C   UNL     1      -4.160  -1.547   3.843  1.00  0.00     0.000 C 
BRANCH   3   4
ATOM      4  C   UNL     1      -4.485  -0.515   4.936  1.00  0.00     0.000 C 
BRANCH   4   5
ATOM      5  C   UNL     1      -5.416  -1.057   6.042  1.00  0.00     0.006 C 
BRANCH   5   6
ATOM      6  C   UNL     1      -5.991   0.064   6.918  1.00  0.00     0.053 C 
BRANCH   6   7
ATOM      7  C   UNL     1      -7.460  -0.129   7.119  1.00  0.00     0.041 C 
ATOM      8  O   UNL     1      -8.074   0.538   7.994  1.00  0.00    -0.550 OA
ATOM      9  O   UNL     1      -8.163  -1.009   6.307  1.00  0.00    -0.550 OA
ENDBRANCH   6   7
ENDBRANCH   5   6
ENDBRANCH   4   5
ENDBRANCH   3   4
ENDBRANCH   2   3
ENDBRANCH   1   2
BRANCH   1  10
ATOM     10  C   UNL     1      -1.911  -3.874   5.199  1.00  0.00     0.000 C 
BRANCH  10  11
ATOM     11  C   UNL     1      -1.595  -2.686   6.122  1.00  0.00    -0.000 C 
BRANCH  11  12
ATOM     12  C   UNL     1      -0.091  -2.547   6.412  1.00  0.00    -0.000 C 
BRANCH  12  13
ATOM     13  C   UNL     1       0.684  -1.888   5.257  1.00  0.00    -0.000 C 
BRANCH  13  14
ATOM     14  C   UNL     1       1.975  -1.158   5.669  1.00  0.00    -0.000 C 
BRANCH  14  15
ATOM     15  C   UNL     1       3.247  -1.895   5.229  1.00  0.00    -0.003 C 
ATOM     16  C   UNL     1       4.248  -1.998   6.376  1.00  0.00     0.004 C 
ENDBRANCH  14  15
ENDBRANCH  13  14
ENDBRANCH  12  13
ENDBRANCH  11  12
ENDBRANCH  10  11
ENDBRANCH   1  10
TORSDOF 12
ENDMDL
