MODEL 1
REMARK VINA RESULT:    -3.935      0.000      0.000
REMARK INTER + INTRA:          -8.069
REMARK INTER:                  -6.695
REMARK INTRA:                  -1.374
REMARK UNBOUND:                -1.374
REMARK SMILES CCCCCCCCCCCCCC(=O)[O-]
REMARK SMILES IDX 8 1 9 2 10 3 11 4 12 5 13 6 14 7 15 8 16 9 7 10 6 11 5 12
REMARK SMILES IDX 4 13 3 14 2 15 1 16
REMARK H PARENT
REMARK Flexibility Score: inf
ROOT
ATOM      1  C   UNL     1      11.031  15.971  32.254  1.00  0.00     0.000 C 
ENDROOT
BRANCH   1   2
ATOM      2  C   UNL     1       9.589  16.387  31.929  1.00  0.00     0.000 C 
BRANCH   2   3
ATOM      3  C   UNL     1       9.217  17.762  32.514  1.00  0.00     0.000 C 
BRANCH   3   4
ATOM      4  C   UNL     1      10.328  18.828  32.436  1.00  0.00     0.000 C 
BRANCH   4   5
ATOM      5  C   UNL     1      10.436  19.560  31.086  1.00  0.00     0.006 C 
BRANCH   5   6
ATOM      6  C   UNL     1      11.866  19.574  30.529  1.00  0.00     0.053 C 
BRANCH   6   7
ATOM      7  C   UNL     1      12.439  20.954  30.598  1.00  0.00     0.041 C 
ATOM      8  O   UNL     1      11.861  21.847  31.272  1.00  0.00    -0.550 OA
ATOM      9  O   UNL     1      13.638  21.242  29.960  1.00  0.00    -0.550 OA
ENDBRANCH   6   7
ENDBRANCH   5   6
ENDBRANCH   4   5
ENDBRANCH   3   4
ENDBRANCH   2   3
ENDBRANCH   1   2
BRANCH   1  10
ATOM     10  C   UNL     1      11.866  15.839  30.971  1.00  0.00     0.000 C 
BRANCH  10  11
ATOM     11  C   UNL     1      11.011  15.539  29.726  1.00  0.00    -0.000 C 
BRANCH  11  12
ATOM     12  C   UNL     1      11.107  16.584  28.601  1.00  0.00    -0.000 C 
BRANCH  12  13
ATOM     13  C   UNL     1      12.455  16.545  27.860  1.00  0.00    -0.000 C 
BRANCH  13  14
ATOM     14  C   UNL     1      12.869  17.923  27.317  1.00  0.00    -0.000 C 
BRANCH  14  15
ATOM     15  C   UNL     1      13.792  17.824  26.093  1.00  0.00    -0.003 C 
ATOM     16  C   UNL     1      15.248  17.664  26.516  1.00  0.00     0.004 C 
ENDBRANCH  14  15
ENDBRANCH  13  14
ENDBRANCH  12  13
ENDBRANCH  11  12
ENDBRANCH  10  11
ENDBRANCH   1  10
TORSDOF 12
ENDMDL
MODEL 2
REMARK VINA RESULT:    -3.921      8.456      9.750
REMARK INTER + INTRA:          -8.045
REMARK INTER:                  -6.718
REMARK INTRA:                  -1.327
REMARK UNBOUND:                -1.374
REMARK SMILES CCCCCCCCCCCCCC(=O)[O-]
REMARK SMILES IDX 8 1 9 2 10 3 11 4 12 5 13 6 14 7 15 8 16 9 7 10 6 11 5 12
REMARK SMILES IDX 4 13 3 14 2 15 1 16
REMARK H PARENT
REMARK Flexibility Score: inf
ROOT
ATOM      1  C   UNL     1      16.262  19.289  22.051  1.00  0.00     0.000 C 
ENDROOT
BRANCH   1   2
ATOM      2  C   UNL     1      16.367  20.108  23.346  1.00  0.00     0.000 C 
BRANCH   2   3
ATOM      3  C   UNL     1      17.563  21.077  23.345  1.00  0.00     0.000 C 
BRANCH   3   4
ATOM      4  C   UNL     1      17.239  22.515  23.800  1.00  0.00     0.000 C 
BRANCH   4   5
ATOM      5  C   UNL     1      15.747  22.800  24.049  1.00  0.00     0.006 C 
BRANCH   5   6
ATOM      6  C   UNL     1      15.518  23.929  25.062  1.00  0.00     0.053 C 
BRANCH   6   7
ATOM      7  C   UNL     1      14.272  24.686  24.726  1.00  0.00     0.041 C 
ATOM      8  O   UNL     1      13.482  24.249  23.848  1.00  0.00    -0.550 OA
ATOM      9  O   UNL     1      13.956  25.848  25.419  1.00  0.00    -0.550 OA
ENDBRANCH   6   7
ENDBRANCH   5   6
ENDBRANCH   4   5
ENDBRANCH   3   4
ENDBRANCH   2   3
ENDBRANCH   1   2
BRANCH   1  10
ATOM     10  C   UNL     1      14.836  19.345  21.481  1.00  0.00     0.000 C 
BRANCH  10  11
ATOM     11  C   UNL     1      13.916  20.304  22.259  1.00  0.00    -0.000 C 
BRANCH  11  12
ATOM     12  C   UNL     1      13.506  21.577  21.498  1.00  0.00    -0.000 C 
BRANCH  12  13
ATOM     13  C   UNL     1      14.623  22.117  20.587  1.00  0.00    -0.000 C 
BRANCH  13  14
ATOM     14  C   UNL     1      14.078  22.974  19.433  1.00  0.00    -0.000 C 
BRANCH  14  15
ATOM     15  C   UNL     1      12.592  22.712  19.150  1.00  0.00    -0.003 C 
ATOM     16  C   UNL     1      11.794  24.012  19.159  1.00  0.00     0.004 C 
ENDBRANCH  14  15
ENDBRANCH  13  14
ENDBRANCH  12  13
ENDBRANCH  11  12
ENDBRANCH  10  11
ENDBRANCH   1  10
TORSDOF 12
ENDMDL
MODEL 3
REMARK VINA RESULT:    -3.915      1.377      4.583
REMARK INTER + INTRA:          -8.035
REMARK INTER:                  -6.574
REMARK INTRA:                  -1.461
REMARK UNBOUND:                -1.374
REMARK SMILES CCCCCCCCCCCCCC(=O)[O-]
REMARK SMILES IDX 8 1 9 2 10 3 11 4 12 5 13 6 14 7 15 8 16 9 7 10 6 11 5 12
REMARK SMILES IDX 4 13 3 14 2 15 1 16
REMARK H PARENT
REMARK Flexibility Score: inf
ROOT
ATOM      1  C   UNL     1      12.989  18.120  27.174  1.00  0.00     0.000 C 
ENDROOT
BRANCH   1   2
ATOM      2  C   UNL     1      12.099  19.201  27.805  1.00  0.00     0.000 C 
BRANCH   2   3
ATOM      3  C   UNL     1      12.896  20.216  28.645  1.00  0.00     0.000 C 
BRANCH   3   4
ATOM      4  C   UNL     1      12.583  20.203  30.155  1.00  0.00     0.000 C 
BRANCH   4   5
ATOM      5  C   UNL     1      11.087  20.262  30.512  1.00  0.00     0.006 C 
BRANCH   5   6
ATOM      6  C   UNL     1      10.832  20.838  31.911  1.00  0.00     0.053 C 
BRANCH   6   7
ATOM      7  C   UNL     1      11.371  22.231  32.008  1.00  0.00     0.041 C 
ATOM      8  O   UNL     1      10.837  23.163  31.352  1.00  0.00    -0.550 OA
ATOM      9  O   UNL     1      12.432  22.508  32.861  1.00  0.00    -0.550 OA
ENDBRANCH   6   7
ENDBRANCH   5   6
ENDBRANCH   4   5
ENDBRANCH   3   4
ENDBRANCH   2   3
ENDBRANCH   1   2
BRANCH   1  10
ATOM     10  C   UNL     1      12.501  16.715  27.559  1.00  0.00     0.000 C 
BRANCH  10  11
ATOM     11  C   UNL     1      11.394  16.735  28.629  1.00  0.00    -0.000 C 
BRANCH  11  12
ATOM     12  C   UNL     1      11.670  15.870  29.871  1.00  0.00    -0.000 C 
BRANCH  12  13
ATOM     13  C   UNL     1      11.754  16.693  31.168  1.00  0.00    -0.000 C 
BRANCH  13  14
ATOM     14  C   UNL     1      11.252  15.914  32.394  1.00  0.00    -0.000 C 
BRANCH  14  15
ATOM     15  C   UNL     1       9.740  16.070  32.617  1.00  0.00    -0.003 C 
ATOM     16  C   UNL     1       9.373  17.527  32.880  1.00  0.00     0.004 C 
ENDBRANCH  14  15
ENDBRANCH  13  14
ENDBRANCH  12  13
ENDBRANCH  11  12
ENDBRANCH  10  11
ENDBRANCH   1  10
TORSDOF 12
ENDMDL
MODEL 4
REMARK VINA RESULT:    -3.891      5.165      6.444
REMARK INTER + INTRA:          -7.995
REMARK INTER:                  -7.122
REMARK INTRA:                  -0.873
REMARK UNBOUND:                -1.374
REMARK SMILES CCCCCCCCCCCCCC(=O)[O-]
REMARK SMILES IDX 8 1 9 2 10 3 11 4 12 5 13 6 14 7 15 8 16 9 7 10 6 11 5 12
REMARK SMILES IDX 4 13 3 14 2 15 1 16
REMARK H PARENT
REMARK Flexibility Score: inf
ROOT
ATOM      1  C   UNL     1       9.680  15.219  32.310  1.00  0.00     0.000 C 
ENDROOT
BRANCH   1   2
ATOM      2  C   UNL     1       9.852  13.723  32.007  1.00  0.00     0.000 C 
BRANCH   2   3
ATOM      3  C   UNL     1       8.883  13.217  30.924  1.00  0.00     0.000 C 
BRANCH   3   4
ATOM      4  C   UNL     1       7.716  14.170  30.594  1.00  0.00     0.000 C 
BRANCH   4   5
ATOM      5  C   UNL     1       6.318  13.645  30.966  1.00  0.00     0.006 C 
BRANCH   5   6
ATOM      6  C   UNL     1       6.214  13.224  32.438  1.00  0.00     0.053 C 
BRANCH   6   7
ATOM      7  C   UNL     1       5.457  11.939  32.561  1.00  0.00     0.041 C 
ATOM      8  O   UNL     1       4.256  11.945  32.937  1.00  0.00    -0.550 OA
ATOM      9  O   UNL     1       6.063  10.739  32.211  1.00  0.00    -0.550 OA
ENDBRANCH   6   7
ENDBRANCH   5   6
ENDBRANCH   4   5
ENDBRANCH   3   4
ENDBRANCH   2   3
ENDBRANCH   1   2
BRANCH   1  10
ATOM     10  C   UNL     1      11.001  15.976  32.101  1.00  0.00     0.000 C 
BRANCH  10  11
ATOM     11  C   UNL     1      11.705  15.602  30.784  1.00  0.00    -0.000 C 
BRANCH  11  12
ATOM     12  C   UNL     1      11.133  16.273  29.523  1.00  0.00    -0.000 C 
BRANCH  12  13
ATOM     13  C   UNL     1      12.072  16.164  28.308  1.00  0.00    -0.000 C 
BRANCH  13  14
ATOM     14  C   UNL     1      12.514  17.539  27.781  1.00  0.00    -0.000 C 
BRANCH  14  15
ATOM     15  C   UNL     1      13.209  17.454  26.414  1.00  0.00    -0.003 C 
ATOM     16  C   UNL     1      14.686  17.819  26.526  1.00  0.00     0.004 C 
ENDBRANCH  14  15
ENDBRANCH  13  14
ENDBRANCH  12  13
ENDBRANCH  11  12
ENDBRANCH  10  11
ENDBRANCH   1  10
TORSDOF 12
ENDMDL
MODEL 5
REMARK VINA RESULT:    -3.880      3.880      7.004
REMARK INTER + INTRA:          -7.977
REMARK INTER:                  -7.287
REMARK INTRA:                  -0.690
REMARK UNBOUND:                -1.374
REMARK SMILES CCCCCCCCCCCCCC(=O)[O-]
REMARK SMILES IDX 8 1 9 2 10 3 11 4 12 5 13 6 14 7 15 8 16 9 7 10 6 11 5 12
REMARK SMILES IDX 4 13 3 14 2 15 1 16
REMARK H PARENT
REMARK Flexibility Score: inf
ROOT
ATOM      1  C   UNL     1      11.721  16.642  27.547  1.00  0.00     0.000 C 
ENDROOT
BRANCH   1   2
ATOM      2  C   UNL     1      13.188  16.643  27.093  1.00  0.00     0.000 C 
BRANCH   2   3
ATOM      3  C   UNL     1      13.739  18.060  26.852  1.00  0.00     0.000 C 
BRANCH   3   4
ATOM      4  C   UNL     1      15.017  18.127  25.992  1.00  0.00     0.000 C 
BRANCH   4   5
ATOM      5  C   UNL     1      14.790  18.477  24.511  1.00  0.00     0.006 C 
BRANCH   5   6
ATOM      6  C   UNL     1      15.873  19.406  23.946  1.00  0.00     0.053 C 
BRANCH   6   7
ATOM      7  C   UNL     1      15.980  19.242  22.463  1.00  0.00     0.041 C 
ATOM      8  O   UNL     1      16.014  18.091  21.954  1.00  0.00    -0.550 OA
ATOM      9  O   UNL     1      15.990  20.360  21.639  1.00  0.00    -0.550 OA
ENDBRANCH   6   7
ENDBRANCH   5   6
ENDBRANCH   4   5
ENDBRANCH   3   4
ENDBRANCH   2   3
ENDBRANCH   1   2
BRANCH   1  10
ATOM     10  C   UNL     1      11.564  15.916  28.891  1.00  0.00     0.000 C 
BRANCH  10  11
ATOM     11  C   UNL     1      11.689  16.859  30.102  1.00  0.00    -0.000 C 
BRANCH  11  12
ATOM     12  C   UNL     1      11.895  16.159  31.457  1.00  0.00    -0.000 C 
BRANCH  12  13
ATOM     13  C   UNL     1      10.633  16.176  32.338  1.00  0.00    -0.000 C 
BRANCH  13  14
ATOM     14  C   UNL     1       9.945  14.803  32.407  1.00  0.00    -0.000 C 
BRANCH  14  15
ATOM     15  C   UNL     1       9.016  14.546  31.212  1.00  0.00    -0.003 C 
ATOM     16  C   UNL     1       9.467  13.323  30.419  1.00  0.00     0.004 C 
ENDBRANCH  14  15
ENDBRANCH  13  14
ENDBRANCH  12  13
ENDBRANCH  11  12
ENDBRANCH  10  11
ENDBRANCH   1  10
TORSDOF 12
ENDMDL
MODEL 6
REMARK VINA RESULT:    -3.854      8.939     10.543
REMARK INTER + INTRA:          -7.932
REMARK INTER:                  -6.018
REMARK INTRA:                  -1.914
REMARK UNBOUND:                -1.374
REMARK SMILES CCCCCCCCCCCCCC(=O)[O-]
REMARK SMILES IDX 8 1 9 2 10 3 11 4 12 5 13 6 14 7 15 8 16 9 7 10 6 11 5 12
REMARK SMILES IDX 4 13 3 14 2 15 1 16
REMARK H PARENT
REMARK Flexibility Score: inf
ROOT
ATOM      1  C   UNL     1      12.988  22.846  22.831  1.00  0.00     0.000 C 
ENDROOT
BRANCH   1   2
ATOM      2  C   UNL     1      13.388  21.385  22.583  1.00  0.00     0.000 C 
BRANCH   2   3
ATOM      3  C   UNL     1      13.850  21.128  21.137  1.00  0.00     0.000 C 
BRANCH   3   4
ATOM      4  C   UNL     1      14.745  22.229  20.532  1.00  0.00     0.000 C 
BRANCH   4   5
ATOM      5  C   UNL     1      14.128  22.994  19.347  1.00  0.00     0.006 C 
BRANCH   5   6
ATOM      6  C   UNL     1      12.773  22.421  18.911  1.00  0.00     0.053 C 
BRANCH   6   7
ATOM      7  C   UNL     1      11.668  23.363  19.272  1.00  0.00     0.041 C 
ATOM      8  O   UNL     1      11.932  24.485  19.779  1.00  0.00    -0.550 OA
ATOM      9  O   UNL     1      10.348  23.024  19.002  1.00  0.00    -0.550 OA
ENDBRANCH   6   7
ENDBRANCH   5   6
ENDBRANCH   4   5
ENDBRANCH   3   4
ENDBRANCH   2   3
ENDBRANCH   1   2
BRANCH   1  10
ATOM     10  C   UNL     1      13.940  23.512  23.836  1.00  0.00     0.000 C 
BRANCH  10  11
ATOM     11  C   UNL     1      15.028  22.555  24.358  1.00  0.00    -0.000 C 
BRANCH  11  12
ATOM     12  C   UNL     1      16.468  22.923  23.960  1.00  0.00    -0.000 C 
BRANCH  12  13
ATOM     13  C   UNL     1      17.245  21.738  23.361  1.00  0.00    -0.000 C 
BRANCH  13  14
ATOM     14  C   UNL     1      16.611  20.381  23.710  1.00  0.00    -0.000 C 
BRANCH  14  15
ATOM     15  C   UNL     1      16.725  19.362  22.567  1.00  0.00    -0.003 C 
ATOM     16  C   UNL     1      17.528  19.933  21.402  1.00  0.00     0.004 C 
ENDBRANCH  14  15
ENDBRANCH  13  14
ENDBRANCH  12  13
ENDBRANCH  11  12
ENDBRANCH  10  11
ENDBRANCH   1  10
TORSDOF 12
ENDMDL
MODEL 7
REMARK VINA RESULT:    -3.852      5.222      6.977
REMARK INTER + INTRA:          -7.928
REMARK INTER:                  -6.719
REMARK INTRA:                  -1.209
REMARK UNBOUND:                -1.374
REMARK SMILES CCCCCCCCCCCCCC(=O)[O-]
REMARK SMILES IDX 8 1 9 2 10 3 11 4 12 5 13 6 14 7 15 8 16 9 7 10 6 11 5 12
REMARK SMILES IDX 4 13 3 14 2 15 1 16
REMARK H PARENT
REMARK Flexibility Score: inf
ROOT
ATOM      1  C   UNL     1       9.454  13.967  32.316  1.00  0.00     0.000 C 
ENDROOT
BRANCH   1   2
ATOM      2  C   UNL     1       9.147  13.467  30.896  1.00  0.00     0.000 C 
BRANCH   2   3
ATOM      3  C   UNL     1       7.735  12.869  30.764  1.00  0.00     0.000 C 
BRANCH   3   4
ATOM      4  C   UNL     1       7.451  11.658  31.676  1.00  0.00     0.000 C 
BRANCH   4   5
ATOM      5  C   UNL     1       6.075  11.670  32.367  1.00  0.00     0.006 C 
BRANCH   5   6
ATOM      6  C   UNL     1       5.658  13.070  32.837  1.00  0.00     0.053 C 
BRANCH   6   7
ATOM      7  C   UNL     1       4.332  13.442  32.252  1.00  0.00     0.041 C 
ATOM      8  O   UNL     1       3.462  14.009  32.965  1.00  0.00    -0.550 OA
ATOM      9  O   UNL     1       4.075  13.210  30.907  1.00  0.00    -0.550 OA
ENDBRANCH   6   7
ENDBRANCH   5   6
ENDBRANCH   4   5
ENDBRANCH   3   4
ENDBRANCH   2   3
ENDBRANCH   1   2
BRANCH   1  10
ATOM     10  C   UNL     1       8.958  15.408  32.509  1.00  0.00     0.000 C 
BRANCH  10  11
ATOM     11  C   UNL     1      10.084  16.383  32.900  1.00  0.00    -0.000 C 
BRANCH  11  12
ATOM     12  C   UNL     1      11.393  16.222  32.108  1.00  0.00    -0.000 C 
BRANCH  12  13
ATOM     13  C   UNL     1      11.639  17.373  31.116  1.00  0.00    -0.000 C 
BRANCH  13  14
ATOM     14  C   UNL     1      10.991  17.117  29.745  1.00  0.00    -0.000 C 
BRANCH  14  15
ATOM     15  C   UNL     1      11.556  15.872  29.046  1.00  0.00    -0.003 C 
ATOM     16  C   UNL     1      12.199  16.237  27.711  1.00  0.00     0.004 C 
ENDBRANCH  14  15
ENDBRANCH  13  14
ENDBRANCH  12  13
ENDBRANCH  11  12
ENDBRANCH  10  11
ENDBRANCH   1  10
TORSDOF 12
ENDMDL
MODEL 8
REMARK VINA RESULT:    -3.850      3.827      6.452
REMARK INTER + INTRA:          -7.926
REMARK INTER:                  -6.876
REMARK INTRA:                  -1.050
REMARK UNBOUND:                -1.374
REMARK SMILES CCCCCCCCCCCCCC(=O)[O-]
REMARK SMILES IDX 8 1 9 2 10 3 11 4 12 5 13 6 14 7 15 8 16 9 7 10 6 11 5 12
REMARK SMILES IDX 4 13 3 14 2 15 1 16
REMARK H PARENT
REMARK Flexibility Score: inf
ROOT
ATOM      1  C   UNL     1       9.500  15.001  32.384  1.00  0.00     0.000 C 
ENDROOT
BRANCH   1   2
ATOM      2  C   UNL     1      10.758  15.824  32.699  1.00  0.00     0.000 C 
BRANCH   2   3
ATOM      3  C   UNL     1      11.741  15.889  31.516  1.00  0.00     0.000 C 
BRANCH   3   4
ATOM      4  C   UNL     1      11.328  16.841  30.375  1.00  0.00     0.000 C 
BRANCH   4   5
ATOM      5  C   UNL     1      11.676  16.350  28.958  1.00  0.00     0.006 C 
BRANCH   5   6
ATOM      6  C   UNL     1      11.878  17.501  27.964  1.00  0.00     0.053 C 
BRANCH   6   7
ATOM      7  C   UNL     1      12.702  17.046  26.800  1.00  0.00     0.041 C 
ATOM      8  O   UNL     1      12.169  16.398  25.861  1.00  0.00    -0.550 OA
ATOM      9  O   UNL     1      14.048  17.380  26.728  1.00  0.00    -0.550 OA
ENDBRANCH   6   7
ENDBRANCH   5   6
ENDBRANCH   4   5
ENDBRANCH   3   4
ENDBRANCH   2   3
ENDBRANCH   1   2
BRANCH   1  10
ATOM     10  C   UNL     1       9.869  13.681  31.690  1.00  0.00     0.000 C 
BRANCH  10  11
ATOM     11  C   UNL     1       8.845  13.258  30.620  1.00  0.00    -0.000 C 
BRANCH  11  12
ATOM     12  C   UNL     1       7.575  14.125  30.552  1.00  0.00    -0.000 C 
BRANCH  12  13
ATOM     13  C   UNL     1       6.294  13.335  30.874  1.00  0.00    -0.000 C 
BRANCH  13  14
ATOM     14  C   UNL     1       6.298  12.762  32.301  1.00  0.00    -0.000 C 
BRANCH  14  15
ATOM     15  C   UNL     1       5.748  11.329  32.365  1.00  0.00    -0.003 C 
ATOM     16  C   UNL     1       6.880  10.307  32.367  1.00  0.00     0.004 C 
ENDBRANCH  14  15
ENDBRANCH  13  14
ENDBRANCH  12  13
ENDBRANCH  11  12
ENDBRANCH  10  11
ENDBRANCH   1  10
TORSDOF 12
ENDMDL
MODEL 9
REMARK VINA RESULT:    -3.779      3.451      4.996
REMARK INTER + INTRA:          -7.804
REMARK INTER:                  -6.179
REMARK INTRA:                  -1.625
REMARK UNBOUND:                -1.374
REMARK SMILES CCCCCCCCCCCCCC(=O)[O-]
REMARK SMILES IDX 8 1 9 2 10 3 11 4 12 5 13 6 14 7 15 8 16 9 7 10 6 11 5 12
REMARK SMILES IDX 4 13 3 14 2 15 1 16
REMARK H PARENT
REMARK Flexibility Score: inf
ROOT
ATOM      1  C   UNL     1      11.765  15.680  30.526  1.00  0.00     0.000 C 
ENDROOT
BRANCH   1   2
ATOM      2  C   UNL     1      11.877  16.769  31.603  1.00  0.00     0.000 C 
BRANCH   2   3
ATOM      3  C   UNL     1      10.928  16.534  32.792  1.00  0.00     0.000 C 
BRANCH   3   4
ATOM      4  C   UNL     1       9.545  17.206  32.666  1.00  0.00     0.000 C 
BRANCH   4   5
ATOM      5  C   UNL     1       8.355  16.235  32.564  1.00  0.00     0.006 C 
BRANCH   5   6
ATOM      6  C   UNL     1       8.765  14.769  32.760  1.00  0.00     0.053 C 
BRANCH   6   7
ATOM      7  C   UNL     1       8.443  13.970  31.537  1.00  0.00     0.041 C 
ATOM      8  O   UNL     1       8.291  14.544  30.427  1.00  0.00    -0.550 OA
ATOM      9  O   UNL     1       8.361  12.585  31.613  1.00  0.00    -0.550 OA
ENDBRANCH   6   7
ENDBRANCH   5   6
ENDBRANCH   4   5
ENDBRANCH   3   4
ENDBRANCH   2   3
ENDBRANCH   1   2
BRANCH   1  10
ATOM     10  C   UNL     1      11.100  16.231  29.256  1.00  0.00     0.000 C 
BRANCH  10  11
ATOM     11  C   UNL     1      12.042  16.238  28.039  1.00  0.00    -0.000 C 
BRANCH  11  12
ATOM     12  C   UNL     1      12.580  17.623  27.636  1.00  0.00    -0.000 C 
BRANCH  12  13
ATOM     13  C   UNL     1      11.634  18.771  28.032  1.00  0.00    -0.000 C 
BRANCH  13  14
ATOM     14  C   UNL     1      12.389  19.991  28.583  1.00  0.00    -0.000 C 
BRANCH  14  15
ATOM     15  C   UNL     1      12.404  20.035  30.119  1.00  0.00    -0.003 C 
ATOM     16  C   UNL     1      11.006  20.291  30.673  1.00  0.00     0.004 C 
ENDBRANCH  14  15
ENDBRANCH  13  14
ENDBRANCH  12  13
ENDBRANCH  11  12
ENDBRANCH  10  11
ENDBRANCH   1  10
TORSDOF 12
ENDMDL
