MODEL 1
REMARK VINA RESULT:    -5.270      0.000      0.000
REMARK INTER + INTRA:         -15.370
REMARK INTER:                 -11.431
REMARK INTRA:                  -3.939
REMARK UNBOUND:                -3.939
REMARK SMILES CCCCCCCCCCCCCCCCCCCCCC(=O)[O-]
REMARK SMILES IDX 12 1 11 2 10 3 9 4 8 5 7 6 6 7 5 8 4 9 3 10 2 11 1 12 13 13
REMARK SMILES IDX 14 14 15 15 16 16 17 17 18 18 19 19 20 20 21 21 22 22 23 23
REMARK SMILES IDX 24 24
REMARK H PARENT
REMARK Flexibility Score: inf
ROOT
ATOM      1  C   UNL     1     118.730 177.977 126.142  1.00  0.00     0.000 C 
ENDROOT
BRANCH   1   2
ATOM      2  C   UNL     1     119.409 179.214 126.746  1.00  0.00     0.000 C 
BRANCH   2   3
ATOM      3  C   UNL     1     120.401 179.838 125.752  1.00  0.00     0.000 C 
BRANCH   3   4
ATOM      4  C   UNL     1     120.719 178.910 124.571  1.00  0.00    -0.000 C 
BRANCH   4   5
ATOM      5  C   UNL     1     122.146 178.335 124.634  1.00  0.00    -0.000 C 
BRANCH   5   6
ATOM      6  C   UNL     1     122.221 177.015 125.433  1.00  0.00    -0.000 C 
BRANCH   6   7
ATOM      7  C   UNL     1     122.717 177.189 126.880  1.00  0.00    -0.000 C 
BRANCH   7   8
ATOM      8  C   UNL     1     123.685 178.366 127.106  1.00  0.00    -0.000 C 
BRANCH   8   9
ATOM      9  C   UNL     1     123.568 179.051 128.479  1.00  0.00    -0.000 C 
BRANCH   9  10
ATOM     10  C   UNL     1     122.186 178.867 129.126  1.00  0.00    -0.000 C 
BRANCH  10  11
ATOM     11  C   UNL     1     122.312 178.245 130.522  1.00  0.00    -0.003 C 
ATOM     12  C   UNL     1     122.970 176.870 130.453  1.00  0.00     0.004 C 
ENDBRANCH  10  11
ENDBRANCH   9  10
ENDBRANCH   8   9
ENDBRANCH   7   8
ENDBRANCH   6   7
ENDBRANCH   5   6
ENDBRANCH   4   5
ENDBRANCH   3   4
ENDBRANCH   2   3
ENDBRANCH   1   2
BRANCH   1  13
ATOM     13  C   UNL     1     118.868 176.726 127.029  1.00  0.00     0.000 C 
BRANCH  13  14
ATOM     14  C   UNL     1     119.222 177.004 128.504  1.00  0.00     0.000 C 
BRANCH  14  15
ATOM     15  C   UNL     1     118.424 176.182 129.534  1.00  0.00     0.000 C 
BRANCH  15  16
ATOM     16  C   UNL     1     119.201 175.945 130.837  1.00  0.00     0.000 C 
BRANCH  16  17
ATOM     17  C   UNL     1     119.963 174.614 130.787  1.00  0.00     0.000 C 
BRANCH  17  18
ATOM     18  C   UNL     1     119.210 173.580 129.938  1.00  0.00     0.000 C 
BRANCH  18  19
ATOM     19  C   UNL     1     119.982 173.163 128.672  1.00  0.00     0.000 C 
BRANCH  19  20
ATOM     20  C   UNL     1     121.408 173.740 128.557  1.00  0.00     0.006 C 
BRANCH  20  21
ATOM     21  C   UNL     1     122.044 173.597 127.166  1.00  0.00     0.053 C 
BRANCH  21  22
ATOM     22  C   UNL     1     123.077 172.511 127.132  1.00  0.00     0.041 C 
ATOM     23  O   UNL     1     123.004 171.541 127.932  1.00  0.00    -0.550 OA
ATOM     24  O   UNL     1     124.120 172.573 126.218  1.00  0.00    -0.550 OA
ENDBRANCH  21  22
ENDBRANCH  20  21
ENDBRANCH  19  20
ENDBRANCH  18  19
ENDBRANCH  17  18
ENDBRANCH  16  17
ENDBRANCH  15  16
ENDBRANCH  14  15
ENDBRANCH  13  14
ENDBRANCH   1  13
TORSDOF 20
ENDMDL
MODEL 2
REMARK VINA RESULT:    -5.195      1.772      4.504
REMARK INTER + INTRA:         -15.209
REMARK INTER:                 -11.278
REMARK INTRA:                  -3.931
REMARK UNBOUND:                -3.939
REMARK SMILES CCCCCCCCCCCCCCCCCCCCCC(=O)[O-]
REMARK SMILES IDX 12 1 11 2 10 3 9 4 8 5 7 6 6 7 5 8 4 9 3 10 2 11 1 12 13 13
REMARK SMILES IDX 14 14 15 15 16 16 17 17 18 18 19 19 20 20 21 21 22 22 23 23
REMARK SMILES IDX 24 24
REMARK H PARENT
REMARK Flexibility Score: inf
ROOT
ATOM      1  C   UNL     1     120.400 178.673 124.656  1.00  0.00     0.000 C 
ENDROOT
BRANCH   1   2
ATOM      2  C   UNL     1     120.419 179.752 125.748  1.00  0.00     0.000 C 
BRANCH   2   3
ATOM      3  C   UNL     1     121.375 179.366 126.887  1.00  0.00     0.000 C 
BRANCH   3   4
ATOM      4  C   UNL     1     122.853 179.488 126.488  1.00  0.00    -0.000 C 
BRANCH   4   5
ATOM      5  C   UNL     1     123.802 178.856 127.524  1.00  0.00    -0.000 C 
BRANCH   5   6
ATOM      6  C   UNL     1     123.185 178.798 128.938  1.00  0.00    -0.000 C 
BRANCH   6   7
ATOM      7  C   UNL     1     123.756 177.673 129.822  1.00  0.00    -0.000 C 
BRANCH   7   8
ATOM      8  C   UNL     1     122.723 176.657 130.340  1.00  0.00    -0.000 C 
BRANCH   8   9
ATOM      9  C   UNL     1     121.255 177.109 130.238  1.00  0.00    -0.000 C 
BRANCH   9  10
ATOM     10  C   UNL     1     120.265 176.057 130.763  1.00  0.00    -0.000 C 
BRANCH  10  11
ATOM     11  C   UNL     1     119.024 175.976 129.865  1.00  0.00    -0.003 C 
ATOM     12  C   UNL     1     119.140 176.928 128.679  1.00  0.00     0.004 C 
ENDBRANCH  10  11
ENDBRANCH   9  10
ENDBRANCH   8   9
ENDBRANCH   7   8
ENDBRANCH   6   7
ENDBRANCH   5   6
ENDBRANCH   4   5
ENDBRANCH   3   4
ENDBRANCH   2   3
ENDBRANCH   1   2
BRANCH   1  13
ATOM     13  C   UNL     1     120.642 179.244 123.246  1.00  0.00     0.000 C 
BRANCH  13  14
ATOM     14  C   UNL     1     121.792 178.582 122.459  1.00  0.00     0.000 C 
BRANCH  14  15
ATOM     15  C   UNL     1     122.262 177.222 123.007  1.00  0.00     0.000 C 
BRANCH  15  16
ATOM     16  C   UNL     1     123.607 177.310 123.744  1.00  0.00     0.000 C 
BRANCH  16  17
ATOM     17  C   UNL     1     123.748 176.176 124.767  1.00  0.00     0.000 C 
BRANCH  17  18
ATOM     18  C   UNL     1     122.371 175.647 125.195  1.00  0.00     0.000 C 
BRANCH  18  19
ATOM     19  C   UNL     1     122.131 175.754 126.713  1.00  0.00     0.000 C 
BRANCH  19  20
ATOM     20  C   UNL     1     121.764 174.428 127.411  1.00  0.00     0.006 C 
BRANCH  20  21
ATOM     21  C   UNL     1     120.471 173.775 126.900  1.00  0.00     0.053 C 
BRANCH  21  22
ATOM     22  C   UNL     1     119.979 172.706 127.828  1.00  0.00     0.041 C 
ATOM     23  O   UNL     1     120.219 172.778 129.063  1.00  0.00    -0.550 OA
ATOM     24  O   UNL     1     119.258 171.629 127.329  1.00  0.00    -0.550 OA
ENDBRANCH  21  22
ENDBRANCH  20  21
ENDBRANCH  19  20
ENDBRANCH  18  19
ENDBRANCH  17  18
ENDBRANCH  16  17
ENDBRANCH  15  16
ENDBRANCH  14  15
ENDBRANCH  13  14
ENDBRANCH   1  13
TORSDOF 20
ENDMDL
MODEL 3
REMARK VINA RESULT:    -5.100      1.945      4.491
REMARK INTER + INTRA:         -15.002
REMARK INTER:                 -11.197
REMARK INTRA:                  -3.805
REMARK UNBOUND:                -3.939
REMARK SMILES CCCCCCCCCCCCCCCCCCCCCC(=O)[O-]
REMARK SMILES IDX 12 1 11 2 10 3 9 4 8 5 7 6 6 7 5 8 4 9 3 10 2 11 1 12 13 13
REMARK SMILES IDX 14 14 15 15 16 16 17 17 18 18 19 19 20 20 21 21 22 22 23 23
REMARK SMILES IDX 24 24
REMARK H PARENT
REMARK Flexibility Score: inf
ROOT
ATOM      1  C   UNL     1     121.633 179.177 126.185  1.00  0.00     0.000 C 
ENDROOT
BRANCH   1   2
ATOM      2  C   UNL     1     120.618 179.370 127.320  1.00  0.00     0.000 C 
BRANCH   2   3
ATOM      3  C   UNL     1     120.001 178.027 127.741  1.00  0.00     0.000 C 
BRANCH   3   4
ATOM      4  C   UNL     1     119.723 177.102 126.546  1.00  0.00    -0.000 C 
BRANCH   4   5
ATOM      5  C   UNL     1     119.579 175.625 126.959  1.00  0.00    -0.000 C 
BRANCH   5   6
ATOM      6  C   UNL     1     120.719 174.741 126.411  1.00  0.00    -0.000 C 
BRANCH   6   7
ATOM      7  C   UNL     1     122.130 175.285 126.707  1.00  0.00    -0.000 C 
BRANCH   7   8
ATOM      8  C   UNL     1     123.057 175.407 125.485  1.00  0.00    -0.000 C 
BRANCH   8   9
ATOM      9  C   UNL     1     122.544 176.331 124.366  1.00  0.00    -0.000 C 
BRANCH   9  10
ATOM     10  C   UNL     1     123.678 177.003 123.576  1.00  0.00    -0.000 C 
BRANCH  10  11
ATOM     11  C   UNL     1     125.044 176.671 124.187  1.00  0.00    -0.003 C 
ATOM     12  C   UNL     1     126.042 177.801 123.952  1.00  0.00     0.004 C 
ENDBRANCH  10  11
ENDBRANCH   9  10
ENDBRANCH   8   9
ENDBRANCH   7   8
ENDBRANCH   6   7
ENDBRANCH   5   6
ENDBRANCH   4   5
ENDBRANCH   3   4
ENDBRANCH   2   3
ENDBRANCH   1   2
BRANCH   1  13
ATOM     13  C   UNL     1     123.074 179.518 126.607  1.00  0.00     0.000 C 
BRANCH  13  14
ATOM     14  C   UNL     1     123.751 178.482 127.527  1.00  0.00     0.000 C 
BRANCH  14  15
ATOM     15  C   UNL     1     123.894 178.909 129.000  1.00  0.00     0.000 C 
BRANCH  15  16
ATOM     16  C   UNL     1     123.776 177.730 129.976  1.00  0.00     0.000 C 
BRANCH  16  17
ATOM     17  C   UNL     1     122.380 177.681 130.611  1.00  0.00     0.000 C 
BRANCH  17  18
ATOM     18  C   UNL     1     121.706 176.325 130.355  1.00  0.00     0.000 C 
BRANCH  18  19
ATOM     19  C   UNL     1     120.355 176.177 131.080  1.00  0.00     0.000 C 
BRANCH  19  20
ATOM     20  C   UNL     1     119.413 175.107 130.492  1.00  0.00     0.006 C 
BRANCH  20  21
ATOM     21  C   UNL     1     119.783 173.661 130.854  1.00  0.00     0.053 C 
BRANCH  21  22
ATOM     22  C   UNL     1     119.752 172.758 129.658  1.00  0.00     0.041 C 
ATOM     23  O   UNL     1     120.822 172.449 129.069  1.00  0.00    -0.550 OA
ATOM     24  O   UNL     1     118.542 172.261 129.193  1.00  0.00    -0.550 OA
ENDBRANCH  21  22
ENDBRANCH  20  21
ENDBRANCH  19  20
ENDBRANCH  18  19
ENDBRANCH  17  18
ENDBRANCH  16  17
ENDBRANCH  15  16
ENDBRANCH  14  15
ENDBRANCH  13  14
ENDBRANCH   1  13
TORSDOF 20
ENDMDL
MODEL 4
REMARK VINA RESULT:    -5.037      1.344      5.299
REMARK INTER + INTRA:         -14.866
REMARK INTER:                 -11.764
REMARK INTRA:                  -3.102
REMARK UNBOUND:                -3.939
REMARK SMILES CCCCCCCCCCCCCCCCCCCCCC(=O)[O-]
REMARK SMILES IDX 12 1 11 2 10 3 9 4 8 5 7 6 6 7 5 8 4 9 3 10 2 11 1 12 13 13
REMARK SMILES IDX 14 14 15 15 16 16 17 17 18 18 19 19 20 20 21 21 22 22 23 23
REMARK SMILES IDX 24 24
REMARK H PARENT
REMARK Flexibility Score: inf
ROOT
ATOM      1  C   UNL     1     122.483 176.785 129.563  1.00  0.00     0.000 C 
ENDROOT
BRANCH   1   2
ATOM      2  C   UNL     1     121.560 176.617 130.779  1.00  0.00     0.000 C 
BRANCH   2   3
ATOM      3  C   UNL     1     120.535 175.497 130.541  1.00  0.00     0.000 C 
BRANCH   3   4
ATOM      4  C   UNL     1     119.085 176.000 130.599  1.00  0.00    -0.000 C 
BRANCH   4   5
ATOM      5  C   UNL     1     118.369 175.909 129.239  1.00  0.00    -0.000 C 
BRANCH   5   6
ATOM      6  C   UNL     1     119.346 175.993 128.046  1.00  0.00    -0.000 C 
BRANCH   6   7
ATOM      7  C   UNL     1     118.959 177.051 126.996  1.00  0.00    -0.000 C 
BRANCH   7   8
ATOM      8  C   UNL     1     119.652 178.417 127.153  1.00  0.00    -0.000 C 
BRANCH   8   9
ATOM      9  C   UNL     1     119.058 179.552 126.300  1.00  0.00    -0.000 C 
BRANCH   9  10
ATOM     10  C   UNL     1     119.091 179.250 124.793  1.00  0.00    -0.000 C 
BRANCH  10  11
ATOM     11  C   UNL     1     120.476 179.546 124.206  1.00  0.00    -0.003 C 
ATOM     12  C   UNL     1     120.459 179.453 122.683  1.00  0.00     0.004 C 
ENDBRANCH  10  11
ENDBRANCH   9  10
ENDBRANCH   8   9
ENDBRANCH   7   8
ENDBRANCH   6   7
ENDBRANCH   5   6
ENDBRANCH   4   5
ENDBRANCH   3   4
ENDBRANCH   2   3
ENDBRANCH   1   2
BRANCH   1  13
ATOM     13  C   UNL     1     122.807 178.259 129.257  1.00  0.00     0.000 C 
BRANCH  13  14
ATOM     14  C   UNL     1     123.843 178.485 128.136  1.00  0.00     0.000 C 
BRANCH  14  15
ATOM     15  C   UNL     1     123.251 178.868 126.767  1.00  0.00     0.000 C 
BRANCH  15  16
ATOM     16  C   UNL     1     123.862 178.065 125.609  1.00  0.00     0.000 C 
BRANCH  16  17
ATOM     17  C   UNL     1     122.839 177.085 125.020  1.00  0.00     0.000 C 
BRANCH  17  18
ATOM     18  C   UNL     1     123.216 175.633 125.346  1.00  0.00     0.000 C 
BRANCH  18  19
ATOM     19  C   UNL     1     122.237 174.962 126.328  1.00  0.00     0.000 C 
BRANCH  19  20
ATOM     20  C   UNL     1     122.572 173.501 126.689  1.00  0.00     0.006 C 
BRANCH  20  21
ATOM     21  C   UNL     1     122.285 173.121 128.149  1.00  0.00     0.053 C 
BRANCH  21  22
ATOM     22  C   UNL     1     121.932 171.672 128.292  1.00  0.00     0.041 C 
ATOM     23  O   UNL     1     122.839 170.809 128.434  1.00  0.00    -0.550 OA
ATOM     24  O   UNL     1     120.602 171.274 128.266  1.00  0.00    -0.550 OA
ENDBRANCH  21  22
ENDBRANCH  20  21
ENDBRANCH  19  20
ENDBRANCH  18  19
ENDBRANCH  17  18
ENDBRANCH  16  17
ENDBRANCH  15  16
ENDBRANCH  14  15
ENDBRANCH  13  14
ENDBRANCH   1  13
TORSDOF 20
ENDMDL
MODEL 5
REMARK VINA RESULT:    -5.002      1.827      4.300
REMARK INTER + INTRA:         -14.789
REMARK INTER:                 -11.047
REMARK INTRA:                  -3.742
REMARK UNBOUND:                -3.939
REMARK SMILES CCCCCCCCCCCCCCCCCCCCCC(=O)[O-]
REMARK SMILES IDX 12 1 11 2 10 3 9 4 8 5 7 6 6 7 5 8 4 9 3 10 2 11 1 12 13 13
REMARK SMILES IDX 14 14 15 15 16 16 17 17 18 18 19 19 20 20 21 21 22 22 23 23
REMARK SMILES IDX 24 24
REMARK H PARENT
REMARK Flexibility Score: inf
ROOT
ATOM      1  C   UNL     1     122.400 179.391 126.660  1.00  0.00     0.000 C 
ENDROOT
BRANCH   1   2
ATOM      2  C   UNL     1     121.045 179.474 125.943  1.00  0.00     0.000 C 
BRANCH   2   3
ATOM      3  C   UNL     1     119.890 179.185 126.914  1.00  0.00     0.000 C 
BRANCH   3   4
ATOM      4  C   UNL     1     120.096 177.888 127.711  1.00  0.00    -0.000 C 
BRANCH   4   5
ATOM      5  C   UNL     1     119.034 176.820 127.392  1.00  0.00    -0.000 C 
BRANCH   5   6
ATOM      6  C   UNL     1     118.800 175.845 128.566  1.00  0.00    -0.000 C 
BRANCH   6   7
ATOM      7  C   UNL     1     118.998 176.481 129.954  1.00  0.00    -0.000 C 
BRANCH   7   8
ATOM      8  C   UNL     1     120.086 175.829 130.826  1.00  0.00    -0.000 C 
BRANCH   8   9
ATOM      9  C   UNL     1     121.340 176.692 131.059  1.00  0.00    -0.000 C 
BRANCH   9  10
ATOM     10  C   UNL     1     122.465 176.398 130.054  1.00  0.00    -0.000 C 
BRANCH  10  11
ATOM     11  C   UNL     1     123.287 177.660 129.768  1.00  0.00    -0.003 C 
ATOM     12  C   UNL     1     122.580 178.908 130.289  1.00  0.00     0.004 C 
ENDBRANCH  10  11
ENDBRANCH   9  10
ENDBRANCH   8   9
ENDBRANCH   7   8
ENDBRANCH   6   7
ENDBRANCH   5   6
ENDBRANCH   4   5
ENDBRANCH   3   4
ENDBRANCH   2   3
ENDBRANCH   1   2
BRANCH   1  13
ATOM     13  C   UNL     1     123.382 178.424 125.973  1.00  0.00     0.000 C 
BRANCH  13  14
ATOM     14  C   UNL     1     122.893 177.833 124.635  1.00  0.00     0.000 C 
BRANCH  14  15
ATOM     15  C   UNL     1     122.628 176.316 124.648  1.00  0.00     0.000 C 
BRANCH  15  16
ATOM     16  C   UNL     1     122.585 175.731 126.067  1.00  0.00     0.000 C 
BRANCH  16  17
ATOM     17  C   UNL     1     122.253 174.234 126.034  1.00  0.00     0.000 C 
BRANCH  17  18
ATOM     18  C   UNL     1     121.407 173.831 127.251  1.00  0.00     0.000 C 
BRANCH  18  19
ATOM     19  C   UNL     1     122.213 173.069 128.320  1.00  0.00     0.000 C 
BRANCH  19  20
ATOM     20  C   UNL     1     121.456 171.916 129.010  1.00  0.00     0.006 C 
BRANCH  20  21
ATOM     21  C   UNL     1     120.112 172.318 129.635  1.00  0.00     0.053 C 
BRANCH  21  22
ATOM     22  C   UNL     1     118.969 171.544 129.053  1.00  0.00     0.041 C 
ATOM     23  O   UNL     1     118.860 171.414 127.805  1.00  0.00    -0.550 OA
ATOM     24  O   UNL     1     118.022 170.967 129.890  1.00  0.00    -0.550 OA
ENDBRANCH  21  22
ENDBRANCH  20  21
ENDBRANCH  19  20
ENDBRANCH  18  19
ENDBRANCH  17  18
ENDBRANCH  16  17
ENDBRANCH  15  16
ENDBRANCH  14  15
ENDBRANCH  13  14
ENDBRANCH   1  13
TORSDOF 20
ENDMDL
MODEL 6
REMARK VINA RESULT:    -4.999      2.398      5.250
REMARK INTER + INTRA:         -14.782
REMARK INTER:                 -11.407
REMARK INTRA:                  -3.375
REMARK UNBOUND:                -3.939
REMARK SMILES CCCCCCCCCCCCCCCCCCCCCC(=O)[O-]
REMARK SMILES IDX 12 1 11 2 10 3 9 4 8 5 7 6 6 7 5 8 4 9 3 10 2 11 1 12 13 13
REMARK SMILES IDX 14 14 15 15 16 16 17 17 18 18 19 19 20 20 21 21 22 22 23 23
REMARK SMILES IDX 24 24
REMARK H PARENT
REMARK Flexibility Score: inf
ROOT
ATOM      1  C   UNL     1     122.827 176.724 123.881  1.00  0.00     0.000 C 
ENDROOT
BRANCH   1   2
ATOM      2  C   UNL     1     122.320 177.891 123.022  1.00  0.00     0.000 C 
BRANCH   2   3
ATOM      3  C   UNL     1     121.129 178.592 123.694  1.00  0.00     0.000 C 
BRANCH   3   4
ATOM      4  C   UNL     1     120.395 179.552 122.745  1.00  0.00    -0.000 C 
BRANCH   4   5
ATOM      5  C   UNL     1     119.049 178.987 122.254  1.00  0.00    -0.000 C 
BRANCH   5   6
ATOM      6  C   UNL     1     118.092 178.638 123.413  1.00  0.00    -0.000 C 
BRANCH   6   7
ATOM      7  C   UNL     1     117.821 179.812 124.374  1.00  0.00    -0.000 C 
BRANCH   7   8
ATOM      8  C   UNL     1     117.863 179.458 125.871  1.00  0.00    -0.000 C 
BRANCH   8   9
ATOM      9  C   UNL     1     119.197 179.762 126.576  1.00  0.00    -0.000 C 
BRANCH   9  10
ATOM     10  C   UNL     1     119.759 178.554 127.342  1.00  0.00    -0.000 C 
BRANCH  10  11
ATOM     11  C   UNL     1     119.150 177.245 126.826  1.00  0.00    -0.003 C 
ATOM     12  C   UNL     1     120.228 176.194 126.584  1.00  0.00     0.004 C 
ENDBRANCH  10  11
ENDBRANCH   9  10
ENDBRANCH   8   9
ENDBRANCH   7   8
ENDBRANCH   6   7
ENDBRANCH   5   6
ENDBRANCH   4   5
ENDBRANCH   3   4
ENDBRANCH   2   3
ENDBRANCH   1   2
BRANCH   1  13
ATOM     13  C   UNL     1     124.294 176.895 124.317  1.00  0.00     0.000 C 
BRANCH  13  14
ATOM     14  C   UNL     1     124.523 177.888 125.475  1.00  0.00     0.000 C 
BRANCH  14  15
ATOM     15  C   UNL     1     123.397 177.939 126.525  1.00  0.00     0.000 C 
BRANCH  15  16
ATOM     16  C   UNL     1     123.361 179.268 127.295  1.00  0.00     0.000 C 
BRANCH  16  17
ATOM     17  C   UNL     1     123.785 179.068 128.756  1.00  0.00     0.000 C 
BRANCH  17  18
ATOM     18  C   UNL     1     122.560 178.923 129.669  1.00  0.00     0.000 C 
BRANCH  18  19
ATOM     19  C   UNL     1     122.508 177.567 130.397  1.00  0.00     0.000 C 
BRANCH  19  20
ATOM     20  C   UNL     1     121.089 177.040 130.696  1.00  0.00     0.006 C 
BRANCH  20  21
ATOM     21  C   UNL     1     120.820 175.612 130.197  1.00  0.00     0.053 C 
BRANCH  21  22
ATOM     22  C   UNL     1     119.354 175.330 130.069  1.00  0.00     0.041 C 
ATOM     23  O   UNL     1     118.955 174.180 129.744  1.00  0.00    -0.550 OA
ATOM     24  O   UNL     1     118.429 176.338 130.306  1.00  0.00    -0.550 OA
ENDBRANCH  21  22
ENDBRANCH  20  21
ENDBRANCH  19  20
ENDBRANCH  18  19
ENDBRANCH  17  18
ENDBRANCH  16  17
ENDBRANCH  15  16
ENDBRANCH  14  15
ENDBRANCH  13  14
ENDBRANCH   1  13
TORSDOF 20
ENDMDL
MODEL 7
REMARK VINA RESULT:    -4.997      2.480      5.434
REMARK INTER + INTRA:         -14.778
REMARK INTER:                 -11.648
REMARK INTRA:                  -3.130
REMARK UNBOUND:                -3.939
REMARK SMILES CCCCCCCCCCCCCCCCCCCCCC(=O)[O-]
REMARK SMILES IDX 12 1 11 2 10 3 9 4 8 5 7 6 6 7 5 8 4 9 3 10 2 11 1 12 13 13
REMARK SMILES IDX 14 14 15 15 16 16 17 17 18 18 19 19 20 20 21 21 22 22 23 23
REMARK SMILES IDX 24 24
REMARK H PARENT
REMARK Flexibility Score: inf
ROOT
ATOM      1  C   UNL     1     120.279 178.234 127.387  1.00  0.00     0.000 C 
ENDROOT
BRANCH   1   2
ATOM      2  C   UNL     1     120.756 176.832 126.980  1.00  0.00     0.000 C 
BRANCH   2   3
ATOM      3  C   UNL     1     122.267 176.823 126.704  1.00  0.00     0.000 C 
BRANCH   3   4
ATOM      4  C   UNL     1     122.903 178.214 126.846  1.00  0.00    -0.000 C 
BRANCH   4   5
ATOM      5  C   UNL     1     123.976 178.267 127.950  1.00  0.00    -0.000 C 
BRANCH   5   6
ATOM      6  C   UNL     1     123.756 179.432 128.938  1.00  0.00    -0.000 C 
BRANCH   6   7
ATOM      7  C   UNL     1     123.125 179.005 130.277  1.00  0.00    -0.000 C 
BRANCH   7   8
ATOM      8  C   UNL     1     122.846 177.498 130.420  1.00  0.00    -0.000 C 
BRANCH   8   9
ATOM      9  C   UNL     1     121.524 177.143 131.125  1.00  0.00    -0.000 C 
BRANCH   9  10
ATOM     10  C   UNL     1     120.795 175.959 130.471  1.00  0.00    -0.000 C 
BRANCH  10  11
ATOM     11  C   UNL     1     119.351 175.858 130.976  1.00  0.00    -0.003 C 
ATOM     12  C   UNL     1     118.355 176.023 129.831  1.00  0.00     0.004 C 
ENDBRANCH  10  11
ENDBRANCH   9  10
ENDBRANCH   8   9
ENDBRANCH   7   8
ENDBRANCH   6   7
ENDBRANCH   5   6
ENDBRANCH   4   5
ENDBRANCH   3   4
ENDBRANCH   2   3
ENDBRANCH   1   2
BRANCH   1  13
ATOM     13  C   UNL     1     118.815 178.505 126.996  1.00  0.00     0.000 C 
BRANCH  13  14
ATOM     14  C   UNL     1     118.565 179.848 126.279  1.00  0.00     0.000 C 
BRANCH  14  15
ATOM     15  C   UNL     1     117.875 179.739 124.907  1.00  0.00     0.000 C 
BRANCH  15  16
ATOM     16  C   UNL     1     118.724 178.985 123.873  1.00  0.00     0.000 C 
BRANCH  16  17
ATOM     17  C   UNL     1     120.108 179.630 123.723  1.00  0.00     0.000 C 
BRANCH  17  18
ATOM     18  C   UNL     1     121.205 178.561 123.613  1.00  0.00     0.000 C 
BRANCH  18  19
ATOM     19  C   UNL     1     121.868 178.519 122.224  1.00  0.00     0.000 C 
BRANCH  19  20
ATOM     20  C   UNL     1     122.991 177.473 122.068  1.00  0.00     0.006 C 
BRANCH  20  21
ATOM     21  C   UNL     1     123.797 177.205 123.348  1.00  0.00     0.053 C 
BRANCH  21  22
ATOM     22  C   UNL     1     125.225 176.865 123.049  1.00  0.00     0.041 C 
ATOM     23  O   UNL     1     125.832 176.007 123.745  1.00  0.00    -0.550 OA
ATOM     24  O   UNL     1     125.887 177.497 122.005  1.00  0.00    -0.550 OA
ENDBRANCH  21  22
ENDBRANCH  20  21
ENDBRANCH  19  20
ENDBRANCH  18  19
ENDBRANCH  17  18
ENDBRANCH  16  17
ENDBRANCH  15  16
ENDBRANCH  14  15
ENDBRANCH  13  14
ENDBRANCH   1  13
TORSDOF 20
ENDMDL
MODEL 8
REMARK VINA RESULT:    -4.984      2.916      5.427
REMARK INTER + INTRA:         -14.750
REMARK INTER:                 -11.417
REMARK INTRA:                  -3.333
REMARK UNBOUND:                -3.939
REMARK SMILES CCCCCCCCCCCCCCCCCCCCCC(=O)[O-]
REMARK SMILES IDX 12 1 11 2 10 3 9 4 8 5 7 6 6 7 5 8 4 9 3 10 2 11 1 12 13 13
REMARK SMILES IDX 14 14 15 15 16 16 17 17 18 18 19 19 20 20 21 21 22 22 23 23
REMARK SMILES IDX 24 24
REMARK H PARENT
REMARK Flexibility Score: inf
ROOT
ATOM      1  C   UNL     1     122.077 178.658 129.064  1.00  0.00     0.000 C 
ENDROOT
BRANCH   1   2
ATOM      2  C   UNL     1     123.533 179.004 128.720  1.00  0.00     0.000 C 
BRANCH   2   3
ATOM      3  C   UNL     1     123.725 179.129 127.200  1.00  0.00     0.000 C 
BRANCH   3   4
ATOM      4  C   UNL     1     122.400 179.052 126.428  1.00  0.00    -0.000 C 
BRANCH   4   5
ATOM      5  C   UNL     1     122.369 177.892 125.416  1.00  0.00    -0.000 C 
BRANCH   5   6
ATOM      6  C   UNL     1     122.928 176.577 126.001  1.00  0.00    -0.000 C 
BRANCH   6   7
ATOM      7  C   UNL     1     122.194 175.314 125.513  1.00  0.00    -0.000 C 
BRANCH   7   8
ATOM      8  C   UNL     1     122.566 174.013 126.247  1.00  0.00    -0.000 C 
BRANCH   8   9
ATOM      9  C   UNL     1     121.898 173.824 127.621  1.00  0.00    -0.000 C 
BRANCH   9  10
ATOM     10  C   UNL     1     120.766 172.785 127.599  1.00  0.00    -0.000 C 
BRANCH  10  11
ATOM     11  C   UNL     1     120.802 171.962 126.306  1.00  0.00    -0.003 C 
ATOM     12  C   UNL     1     119.489 172.083 125.539  1.00  0.00     0.004 C 
ENDBRANCH  10  11
ENDBRANCH   9  10
ENDBRANCH   8   9
ENDBRANCH   7   8
ENDBRANCH   6   7
ENDBRANCH   5   6
ENDBRANCH   4   5
ENDBRANCH   3   4
ENDBRANCH   2   3
ENDBRANCH   1   2
BRANCH   1  13
ATOM     13  C   UNL     1     121.934 177.970 130.433  1.00  0.00     0.000 C 
BRANCH  13  14
ATOM     14  C   UNL     1     121.622 176.459 130.379  1.00  0.00     0.000 C 
BRANCH  14  15
ATOM     15  C   UNL     1     120.277 176.047 131.004  1.00  0.00     0.000 C 
BRANCH  15  16
ATOM     16  C   UNL     1     119.298 175.460 129.977  1.00  0.00     0.000 C 
BRANCH  16  17
ATOM     17  C   UNL     1     118.785 176.547 129.023  1.00  0.00     0.000 C 
BRANCH  17  18
ATOM     18  C   UNL     1     119.357 176.354 127.611  1.00  0.00     0.000 C 
BRANCH  18  19
ATOM     19  C   UNL     1     118.750 177.322 126.578  1.00  0.00     0.000 C 
BRANCH  19  20
ATOM     20  C   UNL     1     118.936 178.819 126.898  1.00  0.00     0.006 C 
BRANCH  20  21
ATOM     21  C   UNL     1     118.270 179.774 125.896  1.00  0.00     0.053 C 
BRANCH  21  22
ATOM     22  C   UNL     1     118.461 179.322 124.480  1.00  0.00     0.041 C 
ATOM     23  O   UNL     1     119.609 179.330 123.961  1.00  0.00    -0.550 OA
ATOM     24  O   UNL     1     117.371 178.894 123.733  1.00  0.00    -0.550 OA
ENDBRANCH  21  22
ENDBRANCH  20  21
ENDBRANCH  19  20
ENDBRANCH  18  19
ENDBRANCH  17  18
ENDBRANCH  16  17
ENDBRANCH  15  16
ENDBRANCH  14  15
ENDBRANCH  13  14
ENDBRANCH   1  13
TORSDOF 20
ENDMDL
