MODEL 1
REMARK VINA RESULT:    -4.094      0.000      0.000
REMARK INTER + INTRA:         -10.984
REMARK INTER:                  -7.923
REMARK INTRA:                  -3.061
REMARK UNBOUND:                -3.061
REMARK SMILES CCCCCCCCCCCCCCCCCC(=O)[O-]
REMARK SMILES IDX 10 1 11 2 12 3 13 4 14 5 15 6 16 7 17 8 18 9 19 10 20 11
REMARK SMILES IDX 9 12 8 13 7 14 6 15 5 16 4 17 3 18 2 19 1 20
REMARK H PARENT
REMARK Flexibility Score: inf
ROOT
ATOM      1  C   UNL     1     -37.544  17.889 -28.128  1.00  0.00     0.000 C 
ENDROOT
BRANCH   1   2
ATOM      2  C   UNL     1     -36.105  18.206 -27.682  1.00  0.00     0.000 C 
BRANCH   2   3
ATOM      3  C   UNL     1     -35.454  19.408 -28.391  1.00  0.00     0.000 C 
BRANCH   3   4
ATOM      4  C   UNL     1     -34.516  19.045 -29.559  1.00  0.00     0.000 C 
BRANCH   4   5
ATOM      5  C   UNL     1     -34.351  17.525 -29.775  1.00  0.00     0.000 C 
BRANCH   5   6
ATOM      6  C   UNL     1     -34.864  17.069 -31.152  1.00  0.00     0.000 C 
BRANCH   6   7
ATOM      7  C   UNL     1     -35.206  15.571 -31.189  1.00  0.00     0.006 C 
BRANCH   7   8
ATOM      8  C   UNL     1     -36.464  15.236 -30.377  1.00  0.00     0.053 C 
BRANCH   8   9
ATOM      9  C   UNL     1     -36.479  13.784 -30.016  1.00  0.00     0.041 C 
ATOM     10  O   UNL     1     -36.804  13.424 -28.853  1.00  0.00    -0.550 OA
ATOM     11  O   UNL     1     -36.091  12.831 -30.948  1.00  0.00    -0.550 OA
ENDBRANCH   8   9
ENDBRANCH   7   8
ENDBRANCH   6   7
ENDBRANCH   5   6
ENDBRANCH   4   5
ENDBRANCH   3   4
ENDBRANCH   2   3
ENDBRANCH   1   2
BRANCH   1  12
ATOM     12  C   UNL     1     -38.421  19.144 -28.254  1.00  0.00     0.000 C 
BRANCH  12  13
ATOM     13  C   UNL     1     -39.146  19.172 -29.608  1.00  0.00    -0.000 C 
BRANCH  13  14
ATOM     14  C   UNL     1     -38.450  18.308 -30.675  1.00  0.00    -0.000 C 
BRANCH  14  15
ATOM     15  C   UNL     1     -37.846  19.090 -31.859  1.00  0.00    -0.000 C 
BRANCH  15  16
ATOM     16  C   UNL     1     -37.737  20.611 -31.650  1.00  0.00    -0.000 C 
BRANCH  16  17
ATOM     17  C   UNL     1     -36.330  21.154 -31.936  1.00  0.00    -0.000 C 
BRANCH  17  18
ATOM     18  C   UNL     1     -35.991  22.321 -30.996  1.00  0.00    -0.000 C 
BRANCH  18  19
ATOM     19  C   UNL     1     -36.914  22.379 -29.770  1.00  0.00    -0.003 C 
ATOM     20  C   UNL     1     -36.178  22.783 -28.493  1.00  0.00     0.004 C 
ENDBRANCH  18  19
ENDBRANCH  17  18
ENDBRANCH  16  17
ENDBRANCH  15  16
ENDBRANCH  14  15
ENDBRANCH  13  14
ENDBRANCH  12  13
ENDBRANCH   1  12
TORSDOF 16
ENDMDL
MODEL 2
REMARK VINA RESULT:    -4.075     14.309     16.767
REMARK INTER + INTRA:         -10.946
REMARK INTER:                  -8.335
REMARK INTRA:                  -2.612
REMARK UNBOUND:                -3.061
REMARK SMILES CCCCCCCCCCCCCCCCCC(=O)[O-]
REMARK SMILES IDX 10 1 11 2 12 3 13 4 14 5 15 6 16 7 17 8 18 9 19 10 20 11
REMARK SMILES IDX 9 12 8 13 7 14 6 15 5 16 4 17 3 18 2 19 1 20
REMARK H PARENT
REMARK Flexibility Score: inf
ROOT
ATOM      1  C   UNL     1     -49.200  12.623 -29.795  1.00  0.00     0.000 C 
ENDROOT
BRANCH   1   2
ATOM      2  C   UNL     1     -49.586  12.745 -31.281  1.00  0.00     0.000 C 
BRANCH   2   3
ATOM      3  C   UNL     1     -50.967  13.373 -31.544  1.00  0.00     0.000 C 
BRANCH   3   4
ATOM      4  C   UNL     1     -52.115  12.364 -31.742  1.00  0.00     0.000 C 
BRANCH   4   5
ATOM      5  C   UNL     1     -53.298  12.570 -30.771  1.00  0.00     0.000 C 
BRANCH   5   6
ATOM      6  C   UNL     1     -52.833  12.872 -29.335  1.00  0.00     0.000 C 
BRANCH   6   7
ATOM      7  C   UNL     1     -53.191  14.297 -28.886  1.00  0.00     0.006 C 
BRANCH   7   8
ATOM      8  C   UNL     1     -51.956  15.115 -28.485  1.00  0.00     0.053 C 
BRANCH   8   9
ATOM      9  C   UNL     1     -52.286  16.574 -28.452  1.00  0.00     0.041 C 
ATOM     10  O   UNL     1     -51.519  17.409 -29.002  1.00  0.00    -0.550 OA
ATOM     11  O   UNL     1     -53.414  17.017 -27.774  1.00  0.00    -0.550 OA
ENDBRANCH   8   9
ENDBRANCH   7   8
ENDBRANCH   6   7
ENDBRANCH   5   6
ENDBRANCH   4   5
ENDBRANCH   3   4
ENDBRANCH   2   3
ENDBRANCH   1   2
BRANCH   1  12
ATOM     12  C   UNL     1     -49.191  11.170 -29.298  1.00  0.00     0.000 C 
BRANCH  12  13
ATOM     13  C   UNL     1     -47.756  10.629 -29.214  1.00  0.00    -0.000 C 
BRANCH  13  14
ATOM     14  C   UNL     1     -47.650   9.152 -29.636  1.00  0.00    -0.000 C 
BRANCH  14  15
ATOM     15  C   UNL     1     -47.070   8.914 -31.046  1.00  0.00    -0.000 C 
BRANCH  15  16
ATOM     16  C   UNL     1     -48.072   8.376 -32.083  1.00  0.00    -0.000 C 
BRANCH  16  17
ATOM     17  C   UNL     1     -48.948   9.479 -32.693  1.00  0.00    -0.000 C 
BRANCH  17  18
ATOM     18  C   UNL     1     -50.429   9.069 -32.687  1.00  0.00    -0.000 C 
BRANCH  18  19
ATOM     19  C   UNL     1     -50.807   8.241 -31.449  1.00  0.00    -0.003 C 
ATOM     20  C   UNL     1     -51.830   8.943 -30.557  1.00  0.00     0.004 C 
ENDBRANCH  18  19
ENDBRANCH  17  18
ENDBRANCH  16  17
ENDBRANCH  15  16
ENDBRANCH  14  15
ENDBRANCH  13  14
ENDBRANCH  12  13
ENDBRANCH   1  12
TORSDOF 16
ENDMDL
MODEL 3
REMARK VINA RESULT:    -3.915     14.441     16.883
REMARK INTER + INTRA:         -10.638
REMARK INTER:                  -8.665
REMARK INTRA:                  -1.973
REMARK UNBOUND:                -3.061
REMARK SMILES CCCCCCCCCCCCCCCCCC(=O)[O-]
REMARK SMILES IDX 10 1 11 2 12 3 13 4 14 5 15 6 16 7 17 8 18 9 19 10 20 11
REMARK SMILES IDX 9 12 8 13 7 14 6 15 5 16 4 17 3 18 2 19 1 20
REMARK H PARENT
REMARK Flexibility Score: inf
ROOT
ATOM      1  C   UNL     1     -48.266   9.603 -29.618  1.00  0.00     0.000 C 
ENDROOT
BRANCH   1   2
ATOM      2  C   UNL     1     -48.326  11.079 -29.184  1.00  0.00     0.000 C 
BRANCH   2   3
ATOM      3  C   UNL     1     -49.558  11.855 -29.688  1.00  0.00     0.000 C 
BRANCH   3   4
ATOM      4  C   UNL     1     -50.917  11.226 -29.326  1.00  0.00     0.000 C 
BRANCH   4   5
ATOM      5  C   UNL     1     -52.130  12.087 -29.741  1.00  0.00     0.000 C 
BRANCH   5   6
ATOM      6  C   UNL     1     -52.937  12.587 -28.530  1.00  0.00     0.000 C 
BRANCH   6   7
ATOM      7  C   UNL     1     -53.276  14.083 -28.623  1.00  0.00     0.006 C 
BRANCH   7   8
ATOM      8  C   UNL     1     -52.051  14.943 -28.960  1.00  0.00     0.053 C 
BRANCH   8   9
ATOM      9  C   UNL     1     -52.274  16.359 -28.531  1.00  0.00     0.041 C 
ATOM     10  O   UNL     1     -51.522  17.276 -28.956  1.00  0.00    -0.550 OA
ATOM     11  O   UNL     1     -53.282  16.660 -27.624  1.00  0.00    -0.550 OA
ENDBRANCH   8   9
ENDBRANCH   7   8
ENDBRANCH   6   7
ENDBRANCH   5   6
ENDBRANCH   4   5
ENDBRANCH   3   4
ENDBRANCH   2   3
ENDBRANCH   1   2
BRANCH   1  12
ATOM     12  C   UNL     1     -46.935   9.229 -30.286  1.00  0.00     0.000 C 
BRANCH  12  13
ATOM     13  C   UNL     1     -46.613   7.743 -30.071  1.00  0.00    -0.000 C 
BRANCH  13  14
ATOM     14  C   UNL     1     -47.600   6.807 -30.794  1.00  0.00    -0.000 C 
BRANCH  14  15
ATOM     15  C   UNL     1     -47.077   6.197 -32.111  1.00  0.00    -0.000 C 
BRANCH  15  16
ATOM     16  C   UNL     1     -47.729   6.748 -33.392  1.00  0.00    -0.000 C 
BRANCH  16  17
ATOM     17  C   UNL     1     -49.132   7.324 -33.147  1.00  0.00    -0.000 C 
BRANCH  17  18
ATOM     18  C   UNL     1     -49.134   8.851 -33.315  1.00  0.00    -0.000 C 
BRANCH  18  19
ATOM     19  C   UNL     1     -50.348   9.516 -32.648  1.00  0.00    -0.003 C 
ATOM     20  C   UNL     1     -51.189   8.533 -31.834  1.00  0.00     0.004 C 
ENDBRANCH  18  19
ENDBRANCH  17  18
ENDBRANCH  16  17
ENDBRANCH  15  16
ENDBRANCH  14  15
ENDBRANCH  13  14
ENDBRANCH  12  13
ENDBRANCH   1  12
TORSDOF 16
ENDMDL
MODEL 4
REMARK VINA RESULT:    -3.915     13.687     15.348
REMARK INTER + INTRA:         -10.638
REMARK INTER:                  -8.426
REMARK INTRA:                  -2.212
REMARK UNBOUND:                -3.061
REMARK SMILES CCCCCCCCCCCCCCCCCC(=O)[O-]
REMARK SMILES IDX 10 1 11 2 12 3 13 4 14 5 15 6 16 7 17 8 18 9 19 10 20 11
REMARK SMILES IDX 9 12 8 13 7 14 6 15 5 16 4 17 3 18 2 19 1 20
REMARK H PARENT
REMARK Flexibility Score: inf
ROOT
ATOM      1  C   UNL     1     -51.972  14.648 -28.727  1.00  0.00     0.000 C 
ENDROOT
BRANCH   1   2
ATOM      2  C   UNL     1     -53.003  14.052 -29.702  1.00  0.00     0.000 C 
BRANCH   2   3
ATOM      3  C   UNL     1     -52.806  12.559 -30.025  1.00  0.00     0.000 C 
BRANCH   3   4
ATOM      4  C   UNL     1     -51.617  11.889 -29.309  1.00  0.00     0.000 C 
BRANCH   4   5
ATOM      5  C   UNL     1     -50.447  11.531 -30.251  1.00  0.00     0.000 C 
BRANCH   5   6
ATOM      6  C   UNL     1     -49.098  12.069 -29.742  1.00  0.00     0.000 C 
BRANCH   6   7
ATOM      7  C   UNL     1     -48.285  11.006 -28.988  1.00  0.00     0.006 C 
BRANCH   7   8
ATOM      8  C   UNL     1     -48.535   9.588 -29.519  1.00  0.00     0.053 C 
BRANCH   8   9
ATOM      9  C   UNL     1     -47.595   9.279 -30.642  1.00  0.00     0.041 C 
ATOM     10  O   UNL     1     -46.360   9.168 -30.421  1.00  0.00    -0.550 OA
ATOM     11  O   UNL     1     -48.076   9.160 -31.939  1.00  0.00    -0.550 OA
ENDBRANCH   8   9
ENDBRANCH   7   8
ENDBRANCH   6   7
ENDBRANCH   5   6
ENDBRANCH   4   5
ENDBRANCH   3   4
ENDBRANCH   2   3
ENDBRANCH   1   2
BRANCH   1  12
ATOM     12  C   UNL     1     -52.606  15.577 -27.681  1.00  0.00     0.000 C 
BRANCH  12  13
ATOM     13  C   UNL     1     -53.857  16.266 -28.246  1.00  0.00    -0.000 C 
BRANCH  13  14
ATOM     14  C   UNL     1     -53.734  17.801 -28.268  1.00  0.00    -0.000 C 
BRANCH  14  15
ATOM     15  C   UNL     1     -53.885  18.449 -29.659  1.00  0.00    -0.000 C 
BRANCH  15  16
ATOM     16  C   UNL     1     -53.156  17.721 -30.803  1.00  0.00    -0.000 C 
BRANCH  16  17
ATOM     17  C   UNL     1     -51.744  18.270 -31.056  1.00  0.00    -0.000 C 
BRANCH  17  18
ATOM     18  C   UNL     1     -50.688  17.167 -30.886  1.00  0.00    -0.000 C 
BRANCH  18  19
ATOM     19  C   UNL     1     -50.859  16.026 -31.901  1.00  0.00    -0.003 C 
ATOM     20  C   UNL     1     -49.805  14.931 -31.744  1.00  0.00     0.004 C 
ENDBRANCH  18  19
ENDBRANCH  17  18
ENDBRANCH  16  17
ENDBRANCH  15  16
ENDBRANCH  14  15
ENDBRANCH  13  14
ENDBRANCH  12  13
ENDBRANCH   1  12
TORSDOF 16
ENDMDL
MODEL 5
REMARK VINA RESULT:    -3.907     14.546     16.737
REMARK INTER + INTRA:         -10.622
REMARK INTER:                  -8.249
REMARK INTRA:                  -2.373
REMARK UNBOUND:                -3.061
REMARK SMILES CCCCCCCCCCCCCCCCCC(=O)[O-]
REMARK SMILES IDX 10 1 11 2 12 3 13 4 14 5 15 6 16 7 17 8 18 9 19 10 20 11
REMARK SMILES IDX 9 12 8 13 7 14 6 15 5 16 4 17 3 18 2 19 1 20
REMARK H PARENT
REMARK Flexibility Score: inf
ROOT
ATOM      1  C   UNL     1     -50.232  13.390 -30.138  1.00  0.00     0.000 C 
ENDROOT
BRANCH   1   2
ATOM      2  C   UNL     1     -51.332  13.718 -31.163  1.00  0.00     0.000 C 
BRANCH   2   3
ATOM      3  C   UNL     1     -52.773  13.512 -30.659  1.00  0.00     0.000 C 
BRANCH   3   4
ATOM      4  C   UNL     1     -52.890  13.017 -29.204  1.00  0.00     0.000 C 
BRANCH   4   5
ATOM      5  C   UNL     1     -53.554  14.036 -28.253  1.00  0.00     0.000 C 
BRANCH   5   6
ATOM      6  C   UNL     1     -52.571  15.120 -27.775  1.00  0.00     0.000 C 
BRANCH   6   7
ATOM      7  C   UNL     1     -52.975  16.528 -28.239  1.00  0.00     0.006 C 
BRANCH   7   8
ATOM      8  C   UNL     1     -51.794  17.317 -28.819  1.00  0.00     0.053 C 
BRANCH   8   9
ATOM      9  C   UNL     1     -51.782  17.214 -30.312  1.00  0.00     0.041 C 
ATOM     10  O   UNL     1     -50.697  17.304 -30.945  1.00  0.00    -0.550 OA
ATOM     11  O   UNL     1     -52.975  17.068 -31.009  1.00  0.00    -0.550 OA
ENDBRANCH   8   9
ENDBRANCH   7   8
ENDBRANCH   6   7
ENDBRANCH   5   6
ENDBRANCH   4   5
ENDBRANCH   3   4
ENDBRANCH   2   3
ENDBRANCH   1   2
BRANCH   1  12
ATOM     12  C   UNL     1     -49.434  12.129 -30.500  1.00  0.00     0.000 C 
BRANCH  12  13
ATOM     13  C   UNL     1     -49.862  10.941 -29.626  1.00  0.00    -0.000 C 
BRANCH  13  14
ATOM     14  C   UNL     1     -50.507   9.803 -30.438  1.00  0.00    -0.000 C 
BRANCH  14  15
ATOM     15  C   UNL     1     -50.698  10.099 -31.940  1.00  0.00    -0.000 C 
BRANCH  15  16
ATOM     16  C   UNL     1     -50.361   8.932 -32.885  1.00  0.00    -0.000 C 
BRANCH  16  17
ATOM     17  C   UNL     1     -48.883   8.909 -33.302  1.00  0.00    -0.000 C 
BRANCH  17  18
ATOM     18  C   UNL     1     -48.085   7.923 -32.435  1.00  0.00    -0.000 C 
BRANCH  18  19
ATOM     19  C   UNL     1     -46.871   8.580 -31.760  1.00  0.00    -0.003 C 
ATOM     20  C   UNL     1     -46.979   8.596 -30.235  1.00  0.00     0.004 C 
ENDBRANCH  18  19
ENDBRANCH  17  18
ENDBRANCH  16  17
ENDBRANCH  15  16
ENDBRANCH  14  15
ENDBRANCH  13  14
ENDBRANCH  12  13
ENDBRANCH   1  12
TORSDOF 16
ENDMDL
MODEL 6
REMARK VINA RESULT:    -3.899     14.218     16.591
REMARK INTER + INTRA:         -10.607
REMARK INTER:                  -8.461
REMARK INTRA:                  -2.145
REMARK UNBOUND:                -3.061
REMARK SMILES CCCCCCCCCCCCCCCCCC(=O)[O-]
REMARK SMILES IDX 10 1 11 2 12 3 13 4 14 5 15 6 16 7 17 8 18 9 19 10 20 11
REMARK SMILES IDX 9 12 8 13 7 14 6 15 5 16 4 17 3 18 2 19 1 20
REMARK H PARENT
REMARK Flexibility Score: inf
ROOT
ATOM      1  C   UNL     1     -49.880  11.604 -31.467  1.00  0.00     0.000 C 
ENDROOT
BRANCH   1   2
ATOM      2  C   UNL     1     -51.325  11.086 -31.360  1.00  0.00     0.000 C 
BRANCH   2   3
ATOM      3  C   UNL     1     -52.416  12.160 -31.531  1.00  0.00     0.000 C 
BRANCH   3   4
ATOM      4  C   UNL     1     -53.455  12.221 -30.396  1.00  0.00     0.000 C 
BRANCH   4   5
ATOM      5  C   UNL     1     -52.847  12.536 -29.012  1.00  0.00     0.000 C 
BRANCH   5   6
ATOM      6  C   UNL     1     -53.026  14.012 -28.614  1.00  0.00     0.000 C 
BRANCH   6   7
ATOM      7  C   UNL     1     -51.866  14.898 -29.093  1.00  0.00     0.006 C 
BRANCH   7   8
ATOM      8  C   UNL     1     -52.235  15.735 -30.324  1.00  0.00     0.053 C 
BRANCH   8   9
ATOM      9  C   UNL     1     -50.999  16.234 -31.005  1.00  0.00     0.041 C 
ATOM     10  O   UNL     1     -50.698  17.456 -30.955  1.00  0.00    -0.550 OA
ATOM     11  O   UNL     1     -50.206  15.359 -31.735  1.00  0.00    -0.550 OA
ENDBRANCH   8   9
ENDBRANCH   7   8
ENDBRANCH   6   7
ENDBRANCH   5   6
ENDBRANCH   4   5
ENDBRANCH   3   4
ENDBRANCH   2   3
ENDBRANCH   1   2
BRANCH   1  12
ATOM     12  C   UNL     1     -49.334  12.132 -30.132  1.00  0.00     0.000 C 
BRANCH  12  13
ATOM     13  C   UNL     1     -49.194  10.995 -29.109  1.00  0.00    -0.000 C 
BRANCH  13  14
ATOM     14  C   UNL     1     -47.835  10.278 -29.195  1.00  0.00    -0.000 C 
BRANCH  14  15
ATOM     15  C   UNL     1     -47.859   8.912 -29.910  1.00  0.00    -0.000 C 
BRANCH  15  16
ATOM     16  C   UNL     1     -47.022   8.833 -31.199  1.00  0.00    -0.000 C 
BRANCH  16  17
ATOM     17  C   UNL     1     -47.212   7.510 -31.954  1.00  0.00    -0.000 C 
BRANCH  17  18
ATOM     18  C   UNL     1     -47.686   7.764 -33.394  1.00  0.00    -0.000 C 
BRANCH  18  19
ATOM     19  C   UNL     1     -48.913   8.686 -33.457  1.00  0.00    -0.003 C 
ATOM     20  C   UNL     1     -50.203   7.986 -33.030  1.00  0.00     0.004 C 
ENDBRANCH  18  19
ENDBRANCH  17  18
ENDBRANCH  16  17
ENDBRANCH  15  16
ENDBRANCH  14  15
ENDBRANCH  13  14
ENDBRANCH  12  13
ENDBRANCH   1  12
TORSDOF 16
ENDMDL
MODEL 7
REMARK VINA RESULT:    -3.892     13.928     15.468
REMARK INTER + INTRA:         -10.593
REMARK INTER:                  -8.319
REMARK INTRA:                  -2.275
REMARK UNBOUND:                -3.061
REMARK SMILES CCCCCCCCCCCCCCCCCC(=O)[O-]
REMARK SMILES IDX 10 1 11 2 12 3 13 4 14 5 15 6 16 7 17 8 18 9 19 10 20 11
REMARK SMILES IDX 9 12 8 13 7 14 6 15 5 16 4 17 3 18 2 19 1 20
REMARK H PARENT
REMARK Flexibility Score: inf
ROOT
ATOM      1  C   UNL     1     -49.795  10.607 -29.378  1.00  0.00     0.000 C 
ENDROOT
BRANCH   1   2
ATOM      2  C   UNL     1     -51.054  10.374 -30.232  1.00  0.00     0.000 C 
BRANCH   2   3
ATOM      3  C   UNL     1     -50.783   9.988 -31.698  1.00  0.00     0.000 C 
BRANCH   3   4
ATOM      4  C   UNL     1     -51.023   8.504 -32.036  1.00  0.00     0.000 C 
BRANCH   4   5
ATOM      5  C   UNL     1     -50.074   7.953 -33.123  1.00  0.00     0.000 C 
BRANCH   5   6
ATOM      6  C   UNL     1     -48.808   8.813 -33.287  1.00  0.00     0.000 C 
BRANCH   6   7
ATOM      7  C   UNL     1     -47.546   8.112 -32.761  1.00  0.00     0.006 C 
BRANCH   7   8
ATOM      8  C   UNL     1     -47.016   8.747 -31.469  1.00  0.00     0.053 C 
BRANCH   8   9
ATOM      9  C   UNL     1     -47.185   7.807 -30.317  1.00  0.00     0.041 C 
ATOM     10  O   UNL     1     -48.330   7.377 -30.013  1.00  0.00    -0.550 OA
ATOM     11  O   UNL     1     -46.087   7.442 -29.550  1.00  0.00    -0.550 OA
ENDBRANCH   8   9
ENDBRANCH   7   8
ENDBRANCH   6   7
ENDBRANCH   5   6
ENDBRANCH   4   5
ENDBRANCH   3   4
ENDBRANCH   2   3
ENDBRANCH   1   2
BRANCH   1  12
ATOM     12  C   UNL     1     -48.839  11.640 -29.992  1.00  0.00     0.000 C 
BRANCH  12  13
ATOM     13  C   UNL     1     -49.459  13.045 -29.964  1.00  0.00    -0.000 C 
BRANCH  13  14
ATOM     14  C   UNL     1     -49.601  13.663 -31.367  1.00  0.00    -0.000 C 
BRANCH  14  15
ATOM     15  C   UNL     1     -50.910  14.442 -31.609  1.00  0.00    -0.000 C 
BRANCH  15  16
ATOM     16  C   UNL     1     -52.169  13.816 -30.985  1.00  0.00    -0.000 C 
BRANCH  16  17
ATOM     17  C   UNL     1     -52.962  14.807 -30.120  1.00  0.00    -0.000 C 
BRANCH  17  18
ATOM     18  C   UNL     1     -52.600  14.651 -28.635  1.00  0.00    -0.000 C 
BRANCH  18  19
ATOM     19  C   UNL     1     -52.400  16.001 -27.931  1.00  0.00    -0.003 C 
ATOM     20  C   UNL     1     -51.926  17.100 -28.881  1.00  0.00     0.004 C 
ENDBRANCH  18  19
ENDBRANCH  17  18
ENDBRANCH  16  17
ENDBRANCH  15  16
ENDBRANCH  14  15
ENDBRANCH  13  14
ENDBRANCH  12  13
ENDBRANCH   1  12
TORSDOF 16
ENDMDL
MODEL 8
REMARK VINA RESULT:    -3.888     13.965     16.566
REMARK INTER + INTRA:         -10.585
REMARK INTER:                  -8.734
REMARK INTRA:                  -1.851
REMARK UNBOUND:                -3.061
REMARK SMILES CCCCCCCCCCCCCCCCCC(=O)[O-]
REMARK SMILES IDX 10 1 11 2 12 3 13 4 14 5 15 6 16 7 17 8 18 9 19 10 20 11
REMARK SMILES IDX 9 12 8 13 7 14 6 15 5 16 4 17 3 18 2 19 1 20
REMARK H PARENT
REMARK Flexibility Score: inf
ROOT
ATOM      1  C   UNL     1     -50.562   7.750 -32.847  1.00  0.00     0.000 C 
ENDROOT
BRANCH   1   2
ATOM      2  C   UNL     1     -50.279   9.254 -33.023  1.00  0.00     0.000 C 
BRANCH   2   3
ATOM      3  C   UNL     1     -51.451  10.183 -32.654  1.00  0.00     0.000 C 
BRANCH   3   4
ATOM      4  C   UNL     1     -51.279  10.954 -31.331  1.00  0.00     0.000 C 
BRANCH   4   5
ATOM      5  C   UNL     1     -51.204  12.486 -31.510  1.00  0.00     0.000 C 
BRANCH   5   6
ATOM      6  C   UNL     1     -49.924  13.087 -30.903  1.00  0.00     0.000 C 
BRANCH   6   7
ATOM      7  C   UNL     1     -49.551  14.439 -31.530  1.00  0.00     0.006 C 
BRANCH   7   8
ATOM      8  C   UNL     1     -50.783  15.246 -31.960  1.00  0.00     0.053 C 
BRANCH   8   9
ATOM      9  C   UNL     1     -51.171  16.216 -30.889  1.00  0.00     0.041 C 
ATOM     10  O   UNL     1     -51.803  15.820 -29.874  1.00  0.00    -0.550 OA
ATOM     11  O   UNL     1     -50.876  17.566 -31.032  1.00  0.00    -0.550 OA
ENDBRANCH   8   9
ENDBRANCH   7   8
ENDBRANCH   6   7
ENDBRANCH   5   6
ENDBRANCH   4   5
ENDBRANCH   3   4
ENDBRANCH   2   3
ENDBRANCH   1   2
BRANCH   1  12
ATOM     12  C   UNL     1     -49.635   6.865 -33.692  1.00  0.00     0.000 C 
BRANCH  12  13
ATOM     13  C   UNL     1     -48.168   7.290 -33.524  1.00  0.00    -0.000 C 
BRANCH  13  14
ATOM     14  C   UNL     1     -47.361   6.316 -32.647  1.00  0.00    -0.000 C 
BRANCH  14  15
ATOM     15  C   UNL     1     -48.059   5.875 -31.344  1.00  0.00    -0.000 C 
BRANCH  15  16
ATOM     16  C   UNL     1     -47.978   6.885 -30.185  1.00  0.00    -0.000 C 
BRANCH  16  17
ATOM     17  C   UNL     1     -46.593   7.535 -30.056  1.00  0.00    -0.000 C 
BRANCH  17  18
ATOM     18  C   UNL     1     -46.636   9.008 -30.491  1.00  0.00    -0.000 C 
BRANCH  18  19
ATOM     19  C   UNL     1     -48.003   9.660 -30.231  1.00  0.00    -0.003 C 
ATOM     20  C   UNL     1     -48.059  10.408 -28.900  1.00  0.00     0.004 C 
ENDBRANCH  18  19
ENDBRANCH  17  18
ENDBRANCH  16  17
ENDBRANCH  15  16
ENDBRANCH  14  15
ENDBRANCH  13  14
ENDBRANCH  12  13
ENDBRANCH   1  12
TORSDOF 16
ENDMDL
MODEL 9
REMARK VINA RESULT:    -3.845     14.041     16.642
REMARK INTER + INTRA:         -10.501
REMARK INTER:                  -8.017
REMARK INTRA:                  -2.485
REMARK UNBOUND:                -3.061
REMARK SMILES CCCCCCCCCCCCCCCCCC(=O)[O-]
REMARK SMILES IDX 10 1 11 2 12 3 13 4 14 5 15 6 16 7 17 8 18 9 19 10 20 11
REMARK SMILES IDX 9 12 8 13 7 14 6 15 5 16 4 17 3 18 2 19 1 20
REMARK H PARENT
REMARK Flexibility Score: inf
ROOT
ATOM      1  C   UNL     1     -49.641  10.418 -29.543  1.00  0.00     0.000 C 
ENDROOT
BRANCH   1   2
ATOM      2  C   UNL     1     -48.726  11.647 -29.694  1.00  0.00     0.000 C 
BRANCH   2   3
ATOM      3  C   UNL     1     -49.461  12.997 -29.789  1.00  0.00     0.000 C 
BRANCH   3   4
ATOM      4  C   UNL     1     -49.305  13.730 -31.136  1.00  0.00     0.000 C 
BRANCH   4   5
ATOM      5  C   UNL     1     -50.631  14.290 -31.695  1.00  0.00     0.000 C 
BRANCH   5   6
ATOM      6  C   UNL     1     -51.861  13.743 -30.949  1.00  0.00     0.000 C 
BRANCH   6   7
ATOM      7  C   UNL     1     -52.729  14.857 -30.345  1.00  0.00     0.006 C 
BRANCH   7   8
ATOM      8  C   UNL     1     -52.042  15.565 -29.169  1.00  0.00     0.053 C 
BRANCH   8   9
ATOM      9  C   UNL     1     -51.957  17.037 -29.424  1.00  0.00     0.041 C 
ATOM     10  O   UNL     1     -51.025  17.505 -30.130  1.00  0.00    -0.550 OA
ATOM     11  O   UNL     1     -52.880  17.897 -28.843  1.00  0.00    -0.550 OA
ENDBRANCH   8   9
ENDBRANCH   7   8
ENDBRANCH   6   7
ENDBRANCH   5   6
ENDBRANCH   4   5
ENDBRANCH   3   4
ENDBRANCH   2   3
ENDBRANCH   1   2
BRANCH   1  12
ATOM     12  C   UNL     1     -50.615  10.250 -30.718  1.00  0.00     0.000 C 
BRANCH  12  13
ATOM     13  C   UNL     1     -49.856  10.160 -32.050  1.00  0.00    -0.000 C 
BRANCH  13  14
ATOM     14  C   UNL     1     -50.412   9.068 -32.982  1.00  0.00    -0.000 C 
BRANCH  14  15
ATOM     15  C   UNL     1     -50.962   7.816 -32.268  1.00  0.00    -0.000 C 
BRANCH  15  16
ATOM     16  C   UNL     1     -49.917   6.731 -31.953  1.00  0.00    -0.000 C 
BRANCH  16  17
ATOM     17  C   UNL     1     -49.502   6.713 -30.475  1.00  0.00    -0.000 C 
BRANCH  17  18
ATOM     18  C   UNL     1     -47.972   6.738 -30.336  1.00  0.00    -0.000 C 
BRANCH  18  19
ATOM     19  C   UNL     1     -47.286   7.483 -31.491  1.00  0.00    -0.003 C 
ATOM     20  C   UNL     1     -46.624   8.787 -31.047  1.00  0.00     0.004 C 
ENDBRANCH  18  19
ENDBRANCH  17  18
ENDBRANCH  16  17
ENDBRANCH  15  16
ENDBRANCH  14  15
ENDBRANCH  13  14
ENDBRANCH  12  13
ENDBRANCH   1  12
TORSDOF 16
ENDMDL
