MODEL 1
REMARK VINA RESULT:    -4.823      0.000      0.000
REMARK INTER + INTRA:          -9.580
REMARK INTER:                  -8.207
REMARK INTRA:                  -1.373
REMARK UNBOUND:                -1.373
REMARK SMILES CCCCCCCCCCCCCC(=O)[O-]
REMARK SMILES IDX 8 1 9 2 10 3 11 4 12 5 13 6 14 7 15 8 16 9 7 10 6 11 5 12
REMARK SMILES IDX 4 13 3 14 2 15 1 16
REMARK H PARENT
REMARK Flexibility Score: inf
ROOT
ATOM      1  C   UNL     1       5.253  47.379   9.174  1.00  0.00     0.000 C 
ENDROOT
BRANCH   1   2
ATOM      2  C   UNL     1       4.747  48.494   8.243  1.00  0.00     0.000 C 
BRANCH   2   3
ATOM      3  C   UNL     1       3.390  48.164   7.603  1.00  0.00     0.000 C 
BRANCH   3   4
ATOM      4  C   UNL     1       2.294  49.102   8.131  1.00  0.00     0.000 C 
BRANCH   4   5
ATOM      5  C   UNL     1       1.035  48.346   8.587  1.00  0.00     0.006 C 
BRANCH   5   6
ATOM      6  C   UNL     1       0.547  47.330   7.546  1.00  0.00     0.053 C 
BRANCH   6   7
ATOM      7  C   UNL     1       0.343  45.991   8.181  1.00  0.00     0.041 C 
ATOM      8  O   UNL     1       0.087  44.984   7.468  1.00  0.00    -0.550 OA
ATOM      9  O   UNL     1       0.486  45.843   9.555  1.00  0.00    -0.550 OA
ENDBRANCH   6   7
ENDBRANCH   5   6
ENDBRANCH   4   5
ENDBRANCH   3   4
ENDBRANCH   2   3
ENDBRANCH   1   2
BRANCH   1  10
ATOM     10  C   UNL     1       4.192  46.297   9.429  1.00  0.00     0.000 C 
BRANCH  10  11
ATOM     11  C   UNL     1       3.717  46.258  10.894  1.00  0.00    -0.000 C 
BRANCH  11  12
ATOM     12  C   UNL     1       4.441  45.235  11.794  1.00  0.00    -0.000 C 
BRANCH  12  13
ATOM     13  C   UNL     1       3.528  44.203  12.480  1.00  0.00    -0.000 C 
BRANCH  13  14
ATOM     14  C   UNL     1       2.531  43.550  11.509  1.00  0.00    -0.000 C 
BRANCH  14  15
ATOM     15  C   UNL     1       3.229  42.786  10.374  1.00  0.00    -0.003 C 
ATOM     16  C   UNL     1       2.539  42.970   9.022  1.00  0.00     0.004 C 
ENDBRANCH  14  15
ENDBRANCH  13  14
ENDBRANCH  12  13
ENDBRANCH  11  12
ENDBRANCH  10  11
ENDBRANCH   1  10
TORSDOF 12
ENDMDL
MODEL 2
REMARK VINA RESULT:    -4.765      2.267      3.809
REMARK INTER + INTRA:          -9.480
REMARK INTER:                  -7.994
REMARK INTRA:                  -1.486
REMARK UNBOUND:                -1.373
REMARK SMILES CCCCCCCCCCCCCC(=O)[O-]
REMARK SMILES IDX 8 1 9 2 10 3 11 4 12 5 13 6 14 7 15 8 16 9 7 10 6 11 5 12
REMARK SMILES IDX 4 13 3 14 2 15 1 16
REMARK H PARENT
REMARK Flexibility Score: inf
ROOT
ATOM      1  C   UNL     1       0.357  47.001   7.375  1.00  0.00     0.000 C 
ENDROOT
BRANCH   1   2
ATOM      2  C   UNL     1       0.227  48.329   8.141  1.00  0.00     0.000 C 
BRANCH   2   3
ATOM      3  C   UNL     1       1.560  48.803   8.739  1.00  0.00     0.000 C 
BRANCH   3   4
ATOM      4  C   UNL     1       2.602  49.037   7.635  1.00  0.00     0.000 C 
BRANCH   4   5
ATOM      5  C   UNL     1       3.989  48.482   8.001  1.00  0.00     0.006 C 
BRANCH   5   6
ATOM      6  C   UNL     1       3.909  47.214   8.860  1.00  0.00     0.053 C 
BRANCH   6   7
ATOM      7  C   UNL     1       5.109  47.109   9.747  1.00  0.00     0.041 C 
ATOM      8  O   UNL     1       5.034  46.498  10.846  1.00  0.00    -0.550 OA
ATOM      9  O   UNL     1       6.326  47.642   9.338  1.00  0.00    -0.550 OA
ENDBRANCH   6   7
ENDBRANCH   5   6
ENDBRANCH   4   5
ENDBRANCH   3   4
ENDBRANCH   2   3
ENDBRANCH   1   2
BRANCH   1  10
ATOM     10  C   UNL     1      -0.140  45.798   8.192  1.00  0.00     0.000 C 
BRANCH  10  11
ATOM     11  C   UNL     1       0.975  45.141   9.027  1.00  0.00    -0.000 C 
BRANCH  11  12
ATOM     12  C   UNL     1       0.784  45.213  10.556  1.00  0.00    -0.000 C 
BRANCH  12  13
ATOM     13  C   UNL     1       1.997  44.764  11.392  1.00  0.00    -0.000 C 
BRANCH  13  14
ATOM     14  C   UNL     1       2.390  43.300  11.133  1.00  0.00    -0.000 C 
BRANCH  14  15
ATOM     15  C   UNL     1       3.854  43.154  10.688  1.00  0.00    -0.003 C 
ATOM     16  C   UNL     1       4.046  43.399   9.191  1.00  0.00     0.004 C 
ENDBRANCH  14  15
ENDBRANCH  13  14
ENDBRANCH  12  13
ENDBRANCH  11  12
ENDBRANCH  10  11
ENDBRANCH   1  10
TORSDOF 12
ENDMDL
MODEL 3
REMARK VINA RESULT:    -4.761      1.554      4.097
REMARK INTER + INTRA:          -9.474
REMARK INTER:                  -8.091
REMARK INTRA:                  -1.383
REMARK UNBOUND:                -1.373
REMARK SMILES CCCCCCCCCCCCCC(=O)[O-]
REMARK SMILES IDX 8 1 9 2 10 3 11 4 12 5 13 6 14 7 15 8 16 9 7 10 6 11 5 12
REMARK SMILES IDX 4 13 3 14 2 15 1 16
REMARK H PARENT
REMARK Flexibility Score: inf
ROOT
ATOM      1  C   UNL     1       2.723  42.800  10.510  1.00  0.00     0.000 C 
ENDROOT
BRANCH   1   2
ATOM      2  C   UNL     1       2.322  43.303   9.113  1.00  0.00     0.000 C 
BRANCH   2   3
ATOM      3  C   UNL     1       1.292  44.441   9.164  1.00  0.00     0.000 C 
BRANCH   3   4
ATOM      4  C   UNL     1       0.489  44.511   7.856  1.00  0.00     0.000 C 
BRANCH   4   5
ATOM      5  C   UNL     1      -0.008  45.931   7.540  1.00  0.00     0.006 C 
BRANCH   5   6
ATOM      6  C   UNL     1       0.335  46.937   8.646  1.00  0.00     0.053 C 
BRANCH   6   7
ATOM      7  C   UNL     1       1.041  48.125   8.070  1.00  0.00     0.041 C 
ATOM      8  O   UNL     1       0.581  49.283   8.251  1.00  0.00    -0.550 OA
ATOM      9  O   UNL     1       2.233  47.957   7.377  1.00  0.00    -0.550 OA
ENDBRANCH   6   7
ENDBRANCH   5   6
ENDBRANCH   4   5
ENDBRANCH   3   4
ENDBRANCH   2   3
ENDBRANCH   1   2
BRANCH   1  10
ATOM     10  C   UNL     1       2.145  43.670  11.638  1.00  0.00     0.000 C 
BRANCH  10  11
ATOM     11  C   UNL     1       3.234  44.386  12.458  1.00  0.00    -0.000 C 
BRANCH  11  12
ATOM     12  C   UNL     1       4.382  45.004  11.632  1.00  0.00    -0.000 C 
BRANCH  12  13
ATOM     13  C   UNL     1       4.022  46.292  10.867  1.00  0.00    -0.000 C 
BRANCH  13  14
ATOM     14  C   UNL     1       4.553  46.297   9.425  1.00  0.00    -0.000 C 
BRANCH  14  15
ATOM     15  C   UNL     1       5.210  47.634   9.045  1.00  0.00    -0.003 C 
ATOM     16  C   UNL     1       6.657  47.743   9.526  1.00  0.00     0.004 C 
ENDBRANCH  14  15
ENDBRANCH  13  14
ENDBRANCH  12  13
ENDBRANCH  11  12
ENDBRANCH  10  11
ENDBRANCH   1  10
TORSDOF 12
ENDMDL
MODEL 4
REMARK VINA RESULT:    -4.749      1.372      4.836
REMARK INTER + INTRA:          -9.454
REMARK INTER:                  -7.967
REMARK INTRA:                  -1.487
REMARK UNBOUND:                -1.373
REMARK SMILES CCCCCCCCCCCCCC(=O)[O-]
REMARK SMILES IDX 8 1 9 2 10 3 11 4 12 5 13 6 14 7 15 8 16 9 7 10 6 11 5 12
REMARK SMILES IDX 4 13 3 14 2 15 1 16
REMARK H PARENT
REMARK Flexibility Score: inf
ROOT
ATOM      1  C   UNL     1       4.415  46.317   9.507  1.00  0.00     0.000 C 
ENDROOT
BRANCH   1   2
ATOM      2  C   UNL     1       3.773  46.283  10.904  1.00  0.00     0.000 C 
BRANCH   2   3
ATOM      3  C   UNL     1       4.572  45.437  11.905  1.00  0.00     0.000 C 
BRANCH   3   4
ATOM      4  C   UNL     1       3.714  44.291  12.461  1.00  0.00     0.000 C 
BRANCH   4   5
ATOM      5  C   UNL     1       2.347  44.181  11.765  1.00  0.00     0.006 C 
BRANCH   5   6
ATOM      6  C   UNL     1       2.206  42.893  10.944  1.00  0.00     0.053 C 
BRANCH   6   7
ATOM      7  C   UNL     1       2.609  43.133   9.523  1.00  0.00     0.041 C 
ATOM      8  O   UNL     1       3.815  43.019   9.179  1.00  0.00    -0.550 OA
ATOM      9  O   UNL     1       1.646  43.432   8.567  1.00  0.00    -0.550 OA
ENDBRANCH   6   7
ENDBRANCH   5   6
ENDBRANCH   4   5
ENDBRANCH   3   4
ENDBRANCH   2   3
ENDBRANCH   1   2
BRANCH   1  10
ATOM     10  C   UNL     1       5.476  47.420   9.372  1.00  0.00     0.000 C 
BRANCH  10  11
ATOM     11  C   UNL     1       5.080  48.510   8.358  1.00  0.00    -0.000 C 
BRANCH  11  12
ATOM     12  C   UNL     1       3.734  48.283   7.639  1.00  0.00    -0.000 C 
BRANCH  12  13
ATOM     13  C   UNL     1       2.687  49.395   7.839  1.00  0.00    -0.000 C 
BRANCH  13  14
ATOM     14  C   UNL     1       1.291  48.846   8.174  1.00  0.00    -0.000 C 
BRANCH  14  15
ATOM     15  C   UNL     1       1.187  47.329   7.954  1.00  0.00    -0.003 C 
ATOM     16  C   UNL     1       0.557  46.599   9.141  1.00  0.00     0.004 C 
ENDBRANCH  14  15
ENDBRANCH  13  14
ENDBRANCH  12  13
ENDBRANCH  11  12
ENDBRANCH  10  11
ENDBRANCH   1  10
TORSDOF 12
ENDMDL
MODEL 5
REMARK VINA RESULT:    -4.725      1.615      4.411
REMARK INTER + INTRA:          -9.413
REMARK INTER:                  -7.940
REMARK INTRA:                  -1.472
REMARK UNBOUND:                -1.373
REMARK SMILES CCCCCCCCCCCCCC(=O)[O-]
REMARK SMILES IDX 8 1 9 2 10 3 11 4 12 5 13 6 14 7 15 8 16 9 7 10 6 11 5 12
REMARK SMILES IDX 4 13 3 14 2 15 1 16
REMARK H PARENT
REMARK Flexibility Score: inf
ROOT
ATOM      1  C   UNL     1       5.008  48.405   8.389  1.00  0.00     0.000 C 
ENDROOT
BRANCH   1   2
ATOM      2  C   UNL     1       5.281  47.258   9.376  1.00  0.00     0.000 C 
BRANCH   2   3
ATOM      3  C   UNL     1       4.099  46.285   9.497  1.00  0.00     0.000 C 
BRANCH   3   4
ATOM      4  C   UNL     1       3.621  46.184  10.954  1.00  0.00     0.000 C 
BRANCH   4   5
ATOM      5  C   UNL     1       4.458  45.198  11.786  1.00  0.00     0.006 C 
BRANCH   5   6
ATOM      6  C   UNL     1       3.600  44.127  12.472  1.00  0.00     0.053 C 
BRANCH   6   7
ATOM      7  C   UNL     1       2.629  43.536  11.499  1.00  0.00     0.041 C 
ATOM      8  O   UNL     1       1.391  43.700  11.661  1.00  0.00    -0.550 OA
ATOM      9  O   UNL     1       3.092  42.847  10.385  1.00  0.00    -0.550 OA
ENDBRANCH   6   7
ENDBRANCH   5   6
ENDBRANCH   4   5
ENDBRANCH   3   4
ENDBRANCH   2   3
ENDBRANCH   1   2
BRANCH   1  10
ATOM     10  C   UNL     1       3.699  48.212   7.607  1.00  0.00     0.000 C 
BRANCH  10  11
ATOM     11  C   UNL     1       2.653  49.300   7.914  1.00  0.00    -0.000 C 
BRANCH  11  12
ATOM     12  C   UNL     1       1.409  48.818   8.687  1.00  0.00    -0.000 C 
BRANCH  12  13
ATOM     13  C   UNL     1       0.677  47.612   8.068  1.00  0.00    -0.000 C 
BRANCH  13  14
ATOM     14  C   UNL     1       0.431  46.481   9.080  1.00  0.00    -0.000 C 
BRANCH  14  15
ATOM     15  C   UNL     1       0.696  45.090   8.484  1.00  0.00    -0.003 C 
ATOM     16  C   UNL     1      -0.075  44.843   7.187  1.00  0.00     0.004 C 
ENDBRANCH  14  15
ENDBRANCH  13  14
ENDBRANCH  12  13
ENDBRANCH  11  12
ENDBRANCH  10  11
ENDBRANCH   1  10
TORSDOF 12
ENDMDL
MODEL 6
REMARK VINA RESULT:    -4.698      2.196      3.853
REMARK INTER + INTRA:          -9.367
REMARK INTER:                  -7.650
REMARK INTRA:                  -1.716
REMARK UNBOUND:                -1.373
REMARK SMILES CCCCCCCCCCCCCC(=O)[O-]
REMARK SMILES IDX 8 1 9 2 10 3 11 4 12 5 13 6 14 7 15 8 16 9 7 10 6 11 5 12
REMARK SMILES IDX 4 13 3 14 2 15 1 16
REMARK H PARENT
REMARK Flexibility Score: inf
ROOT
ATOM      1  C   UNL     1       1.186  44.370   9.166  1.00  0.00     0.000 C 
ENDROOT
BRANCH   1   2
ATOM      2  C   UNL     1       0.603  44.799   7.809  1.00  0.00     0.000 C 
BRANCH   2   3
ATOM      3  C   UNL     1       0.227  46.288   7.768  1.00  0.00     0.000 C 
BRANCH   3   4
ATOM      4  C   UNL     1       0.526  46.965   9.115  1.00  0.00     0.000 C 
BRANCH   4   5
ATOM      5  C   UNL     1       1.353  48.252   8.961  1.00  0.00     0.006 C 
BRANCH   5   6
ATOM      6  C   UNL     1       2.150  48.289   7.652  1.00  0.00     0.053 C 
BRANCH   6   7
ATOM      7  C   UNL     1       3.111  49.436   7.658  1.00  0.00     0.041 C 
ATOM      8  O   UNL     1       4.353  49.222   7.669  1.00  0.00    -0.550 OA
ATOM      9  O   UNL     1       2.638  50.741   7.600  1.00  0.00    -0.550 OA
ENDBRANCH   6   7
ENDBRANCH   5   6
ENDBRANCH   4   5
ENDBRANCH   3   4
ENDBRANCH   2   3
ENDBRANCH   1   2
BRANCH   1  10
ATOM     10  C   UNL     1       2.297  43.317   9.024  1.00  0.00     0.000 C 
BRANCH  10  11
ATOM     11  C   UNL     1       2.829  42.822  10.382  1.00  0.00    -0.000 C 
BRANCH  11  12
ATOM     12  C   UNL     1       2.197  43.490  11.620  1.00  0.00    -0.000 C 
BRANCH  12  13
ATOM     13  C   UNL     1       3.147  44.382  12.442  1.00  0.00    -0.000 C 
BRANCH  13  14
ATOM     14  C   UNL     1       4.334  44.907  11.618  1.00  0.00    -0.000 C 
BRANCH  14  15
ATOM     15  C   UNL     1       4.019  46.236  10.913  1.00  0.00    -0.003 C 
ATOM     16  C   UNL     1       4.489  46.262   9.458  1.00  0.00     0.004 C 
ENDBRANCH  14  15
ENDBRANCH  13  14
ENDBRANCH  12  13
ENDBRANCH  11  12
ENDBRANCH  10  11
ENDBRANCH   1  10
TORSDOF 12
ENDMDL
MODEL 7
REMARK VINA RESULT:    -4.696      1.804      3.336
REMARK INTER + INTRA:          -9.364
REMARK INTER:                  -7.859
REMARK INTRA:                  -1.505
REMARK UNBOUND:                -1.373
REMARK SMILES CCCCCCCCCCCCCC(=O)[O-]
REMARK SMILES IDX 8 1 9 2 10 3 11 4 12 5 13 6 14 7 15 8 16 9 7 10 6 11 5 12
REMARK SMILES IDX 4 13 3 14 2 15 1 16
REMARK H PARENT
REMARK Flexibility Score: inf
ROOT
ATOM      1  C   UNL     1       3.745  46.019  11.413  1.00  0.00     0.000 C 
ENDROOT
BRANCH   1   2
ATOM      2  C   UNL     1       4.878  46.636  10.576  1.00  0.00     0.000 C 
BRANCH   2   3
ATOM      3  C   UNL     1       4.492  46.831   9.103  1.00  0.00     0.000 C 
BRANCH   3   4
ATOM      4  C   UNL     1       5.019  48.173   8.572  1.00  0.00     0.000 C 
BRANCH   4   5
ATOM      5  C   UNL     1       4.023  48.871   7.631  1.00  0.00     0.006 C 
BRANCH   5   6
ATOM      6  C   UNL     1       2.604  48.300   7.743  1.00  0.00     0.053 C 
BRANCH   6   7
ATOM      7  C   UNL     1       1.638  49.376   8.130  1.00  0.00     0.041 C 
ATOM      8  O   UNL     1       2.057  50.524   8.435  1.00  0.00    -0.550 OA
ATOM      9  O   UNL     1       0.272  49.126   8.103  1.00  0.00    -0.550 OA
ENDBRANCH   6   7
ENDBRANCH   5   6
ENDBRANCH   4   5
ENDBRANCH   3   4
ENDBRANCH   2   3
ENDBRANCH   1   2
BRANCH   1  10
ATOM     10  C   UNL     1       4.195  44.769  12.185  1.00  0.00     0.000 C 
BRANCH  10  11
ATOM     11  C   UNL     1       3.569  43.472  11.639  1.00  0.00    -0.000 C 
BRANCH  11  12
ATOM     12  C   UNL     1       3.945  43.119  10.186  1.00  0.00    -0.000 C 
BRANCH  12  13
ATOM     13  C   UNL     1       2.779  43.145   9.180  1.00  0.00    -0.000 C 
BRANCH  13  14
ATOM     14  C   UNL     1       1.539  43.873   9.724  1.00  0.00    -0.000 C 
BRANCH  14  15
ATOM     15  C   UNL     1       1.254  45.187   8.978  1.00  0.00    -0.003 C 
ATOM     16  C   UNL     1       0.075  45.961   9.568  1.00  0.00     0.004 C 
ENDBRANCH  14  15
ENDBRANCH  13  14
ENDBRANCH  12  13
ENDBRANCH  11  12
ENDBRANCH  10  11
ENDBRANCH   1  10
TORSDOF 12
ENDMDL
MODEL 8
REMARK VINA RESULT:    -4.655      2.208      4.292
REMARK INTER + INTRA:          -9.294
REMARK INTER:                  -7.938
REMARK INTRA:                  -1.356
REMARK UNBOUND:                -1.373
REMARK SMILES CCCCCCCCCCCCCC(=O)[O-]
REMARK SMILES IDX 8 1 9 2 10 3 11 4 12 5 13 6 14 7 15 8 16 9 7 10 6 11 5 12
REMARK SMILES IDX 4 13 3 14 2 15 1 16
REMARK H PARENT
REMARK Flexibility Score: inf
ROOT
ATOM      1  C   UNL     1       4.128  43.958  10.402  1.00  0.00     0.000 C 
ENDROOT
BRANCH   1   2
ATOM      2  C   UNL     1       4.235  45.089  11.438  1.00  0.00     0.000 C 
BRANCH   2   3
ATOM      3  C   UNL     1       4.604  46.440  10.808  1.00  0.00     0.000 C 
BRANCH   3   4
ATOM      4  C   UNL     1       4.504  46.375   9.277  1.00  0.00     0.000 C 
BRANCH   4   5
ATOM      5  C   UNL     1       3.470  47.361   8.707  1.00  0.00     0.006 C 
BRANCH   5   6
ATOM      6  C   UNL     1       4.119  48.516   7.935  1.00  0.00     0.053 C 
BRANCH   6   7
ATOM      7  C   UNL     1       3.130  49.617   7.715  1.00  0.00     0.041 C 
ATOM      8  O   UNL     1       1.901  49.357   7.631  1.00  0.00    -0.550 OA
ATOM      9  O   UNL     1       3.560  50.937   7.654  1.00  0.00    -0.550 OA
ENDBRANCH   6   7
ENDBRANCH   5   6
ENDBRANCH   4   5
ENDBRANCH   3   4
ENDBRANCH   2   3
ENDBRANCH   1   2
BRANCH   1  10
ATOM     10  C   UNL     1       2.735  43.307  10.381  1.00  0.00     0.000 C 
BRANCH  10  11
ATOM     11  C   UNL     1       1.785  43.894  11.441  1.00  0.00    -0.000 C 
BRANCH  11  12
ATOM     12  C   UNL     1       0.760  44.919  10.913  1.00  0.00    -0.000 C 
BRANCH  12  13
ATOM     13  C   UNL     1       0.768  45.128   9.387  1.00  0.00    -0.000 C 
BRANCH  13  14
ATOM     14  C   UNL     1       0.025  46.404   8.957  1.00  0.00    -0.000 C 
BRANCH  14  15
ATOM     15  C   UNL     1      -0.381  46.377   7.475  1.00  0.00    -0.003 C 
ATOM     16  C   UNL     1      -0.271  44.984   6.855  1.00  0.00     0.004 C 
ENDBRANCH  14  15
ENDBRANCH  13  14
ENDBRANCH  12  13
ENDBRANCH  11  12
ENDBRANCH  10  11
ENDBRANCH   1  10
TORSDOF 12
ENDMDL
MODEL 9
REMARK VINA RESULT:    -4.631      2.284      5.607
REMARK INTER + INTRA:          -9.253
REMARK INTER:                  -7.878
REMARK INTRA:                  -1.374
REMARK UNBOUND:                -1.373
REMARK SMILES CCCCCCCCCCCCCC(=O)[O-]
REMARK SMILES IDX 8 1 9 2 10 3 11 4 12 5 13 6 14 7 15 8 16 9 7 10 6 11 5 12
REMARK SMILES IDX 4 13 3 14 2 15 1 16
REMARK H PARENT
REMARK Flexibility Score: inf
ROOT
ATOM      1  C   UNL     1       1.612  44.064  11.141  1.00  0.00     0.000 C 
ENDROOT
BRANCH   1   2
ATOM      2  C   UNL     1       2.629  43.260  10.313  1.00  0.00     0.000 C 
BRANCH   2   3
ATOM      3  C   UNL     1       4.067  43.774  10.476  1.00  0.00     0.000 C 
BRANCH   3   4
ATOM      4  C   UNL     1       4.144  44.846  11.573  1.00  0.00     0.000 C 
BRANCH   4   5
ATOM      5  C   UNL     1       4.223  46.273  11.005  1.00  0.00     0.006 C 
BRANCH   5   6
ATOM      6  C   UNL     1       4.492  46.293   9.495  1.00  0.00     0.053 C 
BRANCH   6   7
ATOM      7  C   UNL     1       5.354  47.462   9.134  1.00  0.00     0.041 C 
ATOM      8  O   UNL     1       4.952  48.309   8.293  1.00  0.00    -0.550 OA
ATOM      9  O   UNL     1       6.578  47.644   9.764  1.00  0.00    -0.550 OA
ENDBRANCH   6   7
ENDBRANCH   5   6
ENDBRANCH   4   5
ENDBRANCH   3   4
ENDBRANCH   2   3
ENDBRANCH   1   2
BRANCH   1  10
ATOM     10  C   UNL     1       0.752  44.997  10.274  1.00  0.00     0.000 C 
BRANCH  10  11
ATOM     11  C   UNL     1       1.097  44.908   8.776  1.00  0.00    -0.000 C 
BRANCH  11  12
ATOM     12  C   UNL     1       0.033  45.484   7.819  1.00  0.00    -0.000 C 
BRANCH  12  13
ATOM     13  C   UNL     1       0.043  47.018   7.673  1.00  0.00    -0.000 C 
BRANCH  13  14
ATOM     14  C   UNL     1       1.458  47.614   7.737  1.00  0.00    -0.000 C 
BRANCH  14  15
ATOM     15  C   UNL     1       1.549  48.814   8.693  1.00  0.00    -0.003 C 
ATOM     16  C   UNL     1       1.835  50.130   7.969  1.00  0.00     0.004 C 
ENDBRANCH  14  15
ENDBRANCH  13  14
ENDBRANCH  12  13
ENDBRANCH  11  12
ENDBRANCH  10  11
ENDBRANCH   1  10
TORSDOF 12
ENDMDL
