MODEL 1
REMARK VINA RESULT:    -4.463      0.000      0.000
REMARK INTER + INTRA:         -11.142
REMARK INTER:                  -8.376
REMARK INTRA:                  -2.766
REMARK UNBOUND:                -2.766
REMARK SMILES CCCCCCCCC=CCCCCCCCC(=O)[O-]
REMARK SMILES IDX 10 1 9 2 11 3 12 4 13 5 14 6 15 7 16 8 17 9 18 10 19 11
REMARK SMILES IDX 20 12 8 13 7 14 6 15 5 16 4 17 3 18 2 19 1 20
REMARK H PARENT
REMARK Flexibility Score: inf
ROOT
ATOM      1  C   UNL     1      38.309   3.908  -7.995  1.00  0.00    -0.031 C 
ATOM      2  C   UNL     1      38.706   2.770  -8.594  1.00  0.00    -0.031 C 
ENDROOT
BRANCH   1   3
ATOM      3  C   UNL     1      39.225   4.836  -7.236  1.00  0.00     0.027 C 
BRANCH   3   4
ATOM      4  C   UNL     1      39.368   6.176  -7.971  1.00  0.00     0.004 C 
BRANCH   4   5
ATOM      5  C   UNL     1      40.682   6.283  -8.766  1.00  0.00     0.000 C 
BRANCH   5   6
ATOM      6  C   UNL     1      40.520   6.262 -10.300  1.00  0.00     0.000 C 
BRANCH   6   7
ATOM      7  C   UNL     1      39.066   6.268 -10.805  1.00  0.00     0.000 C 
BRANCH   7   8
ATOM      8  C   UNL     1      38.770   5.123 -11.786  1.00  0.00     0.006 C 
BRANCH   8   9
ATOM      9  C   UNL     1      37.261   4.902 -11.928  1.00  0.00     0.053 C 
BRANCH   9  10
ATOM     10  C   UNL     1      36.900   3.495 -11.564  1.00  0.00     0.041 C 
ATOM     11  O   UNL     1      37.638   2.538 -11.923  1.00  0.00    -0.550 OA
ATOM     12  O   UNL     1      35.731   3.237 -10.861  1.00  0.00    -0.550 OA
ENDBRANCH   9  10
ENDBRANCH   8   9
ENDBRANCH   7   8
ENDBRANCH   6   7
ENDBRANCH   5   6
ENDBRANCH   4   5
ENDBRANCH   3   4
ENDBRANCH   1   3
BRANCH   2  13
ATOM     13  C   UNL     1      40.125   2.252  -8.545  1.00  0.00     0.027 C 
BRANCH  13  14
ATOM     14  C   UNL     1      40.939   2.658  -9.784  1.00  0.00     0.004 C 
BRANCH  14  15
ATOM     15  C   UNL     1      42.429   2.956  -9.504  1.00  0.00     0.000 C 
BRANCH  15  16
ATOM     16  C   UNL     1      42.751   3.409  -8.067  1.00  0.00     0.000 C 
BRANCH  16  17
ATOM     17  C   UNL     1      43.455   2.319  -7.239  1.00  0.00    -0.000 C 
BRANCH  17  18
ATOM     18  C   UNL     1      42.957   2.273  -5.785  1.00  0.00    -0.000 C 
BRANCH  18  19
ATOM     19  C   UNL     1      42.781   0.837  -5.270  1.00  0.00    -0.003 C 
ATOM     20  C   UNL     1      42.963  -0.178  -6.396  1.00  0.00     0.004 C 
ENDBRANCH  18  19
ENDBRANCH  17  18
ENDBRANCH  16  17
ENDBRANCH  15  16
ENDBRANCH  14  15
ENDBRANCH  13  14
ENDBRANCH   2  13
TORSDOF 15
ENDMDL
MODEL 2
REMARK VINA RESULT:    -4.395     12.026     14.076
REMARK INTER + INTRA:         -11.015
REMARK INTER:                  -9.270
REMARK INTRA:                  -1.745
REMARK UNBOUND:                -2.766
REMARK SMILES CCCCCCCCC=CCCCCCCCC(=O)[O-]
REMARK SMILES IDX 10 1 9 2 11 3 12 4 13 5 14 6 15 7 16 8 17 9 18 10 19 11
REMARK SMILES IDX 20 12 8 13 7 14 6 15 5 16 4 17 3 18 2 19 1 20
REMARK H PARENT
REMARK Flexibility Score: inf
ROOT
ATOM      1  C   UNL     1      37.053   6.383   4.262  1.00  0.00    -0.031 C 
ATOM      2  C   UNL     1      37.977   7.081   3.576  1.00  0.00    -0.031 C 
ENDROOT
BRANCH   1   3
ATOM      3  C   UNL     1      36.977   6.320   5.767  1.00  0.00     0.027 C 
BRANCH   3   4
ATOM      4  C   UNL     1      35.564   5.930   6.222  1.00  0.00     0.004 C 
BRANCH   4   5
ATOM      5  C   UNL     1      34.779   7.116   6.812  1.00  0.00     0.000 C 
BRANCH   5   6
ATOM      6  C   UNL     1      34.344   8.184   5.787  1.00  0.00     0.000 C 
BRANCH   6   7
ATOM      7  C   UNL     1      35.100   9.521   5.875  1.00  0.00     0.000 C 
BRANCH   7   8
ATOM      8  C   UNL     1      35.551  10.043   4.502  1.00  0.00     0.006 C 
BRANCH   8   9
ATOM      9  C   UNL     1      34.761   9.371   3.375  1.00  0.00     0.053 C 
BRANCH   9  10
ATOM     10  C   UNL     1      33.999  10.392   2.587  1.00  0.00     0.041 C 
ATOM     11  O   UNL     1      32.745  10.465   2.690  1.00  0.00    -0.550 OA
ATOM     12  O   UNL     1      34.670  11.237   1.713  1.00  0.00    -0.550 OA
ENDBRANCH   9  10
ENDBRANCH   8   9
ENDBRANCH   7   8
ENDBRANCH   6   7
ENDBRANCH   5   6
ENDBRANCH   4   5
ENDBRANCH   3   4
ENDBRANCH   1   3
BRANCH   2  13
ATOM     13  C   UNL     1      39.091   7.862   4.232  1.00  0.00     0.027 C 
BRANCH  13  14
ATOM     14  C   UNL     1      40.378   7.865   3.391  1.00  0.00     0.004 C 
BRANCH  14  15
ATOM     15  C   UNL     1      40.379   6.863   2.216  1.00  0.00     0.000 C 
BRANCH  15  16
ATOM     16  C   UNL     1      41.125   7.331   0.952  1.00  0.00     0.000 C 
BRANCH  16  17
ATOM     17  C   UNL     1      41.301   8.859   0.893  1.00  0.00    -0.000 C 
BRANCH  17  18
ATOM     18  C   UNL     1      41.084   9.422  -0.522  1.00  0.00    -0.000 C 
BRANCH  18  19
ATOM     19  C   UNL     1      40.789   8.321  -1.552  1.00  0.00    -0.003 C 
ATOM     20  C   UNL     1      40.690   8.899  -2.961  1.00  0.00     0.004 C 
ENDBRANCH  18  19
ENDBRANCH  17  18
ENDBRANCH  16  17
ENDBRANCH  15  16
ENDBRANCH  14  15
ENDBRANCH  13  14
ENDBRANCH   2  13
TORSDOF 15
ENDMDL
MODEL 3
REMARK VINA RESULT:    -4.329     12.304     14.198
REMARK INTER + INTRA:         -10.892
REMARK INTER:                  -9.301
REMARK INTRA:                  -1.591
REMARK UNBOUND:                -2.766
REMARK SMILES CCCCCCCCC=CCCCCCCCC(=O)[O-]
REMARK SMILES IDX 10 1 9 2 11 3 12 4 13 5 14 6 15 7 16 8 17 9 18 10 19 11
REMARK SMILES IDX 20 12 8 13 7 14 6 15 5 16 4 17 3 18 2 19 1 20
REMARK H PARENT
REMARK Flexibility Score: inf
ROOT
ATOM      1  C   UNL     1      35.437   6.358   4.657  1.00  0.00    -0.031 C 
ATOM      2  C   UNL     1      36.744   6.223   4.368  1.00  0.00    -0.031 C 
ENDROOT
BRANCH   1   3
ATOM      3  C   UNL     1      34.655   7.637   4.488  1.00  0.00     0.027 C 
BRANCH   3   4
ATOM      4  C   UNL     1      34.347   8.268   5.853  1.00  0.00     0.004 C 
BRANCH   4   5
ATOM      5  C   UNL     1      35.252   9.471   6.171  1.00  0.00     0.000 C 
BRANCH   5   6
ATOM      6  C   UNL     1      35.625  10.347   4.957  1.00  0.00     0.000 C 
BRANCH   6   7
ATOM      7  C   UNL     1      34.917  11.712   4.892  1.00  0.00     0.000 C 
BRANCH   7   8
ATOM      8  C   UNL     1      33.915  11.810   3.732  1.00  0.00     0.006 C 
BRANCH   8   9
ATOM      9  C   UNL     1      34.537  11.302   2.427  1.00  0.00     0.053 C 
BRANCH   9  10
ATOM     10  C   UNL     1      33.589  10.387   1.716  1.00  0.00     0.041 C 
ATOM     11  O   UNL     1      32.387  10.725   1.547  1.00  0.00    -0.550 OA
ATOM     12  O   UNL     1      34.025   9.145   1.271  1.00  0.00    -0.550 OA
ENDBRANCH   9  10
ENDBRANCH   8   9
ENDBRANCH   7   8
ENDBRANCH   6   7
ENDBRANCH   5   6
ENDBRANCH   4   5
ENDBRANCH   3   4
ENDBRANCH   1   3
BRANCH   2  13
ATOM     13  C   UNL     1      37.613   7.357   3.875  1.00  0.00     0.027 C 
BRANCH  13  14
ATOM     14  C   UNL     1      38.771   7.667   4.837  1.00  0.00     0.004 C 
BRANCH  14  15
ATOM     15  C   UNL     1      40.091   8.071   4.143  1.00  0.00     0.000 C 
BRANCH  15  16
ATOM     16  C   UNL     1      40.405   7.318   2.836  1.00  0.00     0.000 C 
BRANCH  16  17
ATOM     17  C   UNL     1      40.810   8.258   1.687  1.00  0.00    -0.000 C 
BRANCH  17  18
ATOM     18  C   UNL     1      41.204   7.492   0.413  1.00  0.00    -0.000 C 
BRANCH  18  19
ATOM     19  C   UNL     1      41.385   8.419  -0.798  1.00  0.00    -0.003 C 
ATOM     20  C   UNL     1      41.169   9.880  -0.409  1.00  0.00     0.004 C 
ENDBRANCH  18  19
ENDBRANCH  17  18
ENDBRANCH  16  17
ENDBRANCH  15  16
ENDBRANCH  14  15
ENDBRANCH  13  14
ENDBRANCH   2  13
TORSDOF 15
ENDMDL
MODEL 4
REMARK VINA RESULT:    -4.166     12.058     14.118
REMARK INTER + INTRA:         -10.584
REMARK INTER:                  -8.689
REMARK INTRA:                  -1.895
REMARK UNBOUND:                -2.766
REMARK SMILES CCCCCCCCC=CCCCCCCCC(=O)[O-]
REMARK SMILES IDX 10 1 9 2 11 3 12 4 13 5 14 6 15 7 16 8 17 9 18 10 19 11
REMARK SMILES IDX 20 12 8 13 7 14 6 15 5 16 4 17 3 18 2 19 1 20
REMARK H PARENT
REMARK Flexibility Score: inf
ROOT
ATOM      1  C   UNL     1      39.756   8.032   4.353  1.00  0.00    -0.031 C 
ATOM      2  C   UNL     1      40.318   9.244   4.196  1.00  0.00    -0.031 C 
ENDROOT
BRANCH   1   3
ATOM      3  C   UNL     1      38.471   7.778   5.102  1.00  0.00     0.027 C 
BRANCH   3   4
ATOM      4  C   UNL     1      37.481   6.997   4.228  1.00  0.00     0.004 C 
BRANCH   4   5
ATOM      5  C   UNL     1      36.239   7.823   3.849  1.00  0.00     0.000 C 
BRANCH   5   6
ATOM      6  C   UNL     1      35.853   8.923   4.860  1.00  0.00     0.000 C 
BRANCH   6   7
ATOM      7  C   UNL     1      35.971  10.365   4.335  1.00  0.00     0.000 C 
BRANCH   7   8
ATOM      8  C   UNL     1      34.616  10.964   3.927  1.00  0.00     0.006 C 
BRANCH   8   9
ATOM      9  C   UNL     1      34.587  11.278   2.428  1.00  0.00     0.053 C 
BRANCH   9  10
ATOM     10  C   UNL     1      33.624  10.376   1.722  1.00  0.00     0.041 C 
ATOM     11  O   UNL     1      32.426  10.731   1.558  1.00  0.00    -0.550 OA
ATOM     12  O   UNL     1      34.039   9.127   1.278  1.00  0.00    -0.550 OA
ENDBRANCH   9  10
ENDBRANCH   8   9
ENDBRANCH   7   8
ENDBRANCH   6   7
ENDBRANCH   5   6
ENDBRANCH   4   5
ENDBRANCH   3   4
ENDBRANCH   1   3
BRANCH   2  13
ATOM     13  C   UNL     1      39.751  10.511   4.792  1.00  0.00     0.027 C 
BRANCH  13  14
ATOM     14  C   UNL     1      39.512  11.600   3.733  1.00  0.00     0.004 C 
BRANCH  14  15
ATOM     15  C   UNL     1      40.766  11.993   2.922  1.00  0.00     0.000 C 
BRANCH  15  16
ATOM     16  C   UNL     1      40.659  11.780   1.399  1.00  0.00     0.000 C 
BRANCH  16  17
ATOM     17  C   UNL     1      41.464  10.564   0.907  1.00  0.00    -0.000 C 
BRANCH  17  18
ATOM     18  C   UNL     1      41.035  10.104  -0.496  1.00  0.00    -0.000 C 
BRANCH  18  19
ATOM     19  C   UNL     1      41.022   8.575  -0.634  1.00  0.00    -0.003 C 
ATOM     20  C   UNL     1      41.164   7.898   0.726  1.00  0.00     0.004 C 
ENDBRANCH  18  19
ENDBRANCH  17  18
ENDBRANCH  16  17
ENDBRANCH  15  16
ENDBRANCH  14  15
ENDBRANCH  13  14
ENDBRANCH   2  13
TORSDOF 15
ENDMDL
MODEL 5
REMARK VINA RESULT:    -4.145      4.098      6.723
REMARK INTER + INTRA:         -10.546
REMARK INTER:                  -9.296
REMARK INTRA:                  -1.250
REMARK UNBOUND:                -2.766
REMARK SMILES CCCCCCCCC=CCCCCCCCC(=O)[O-]
REMARK SMILES IDX 10 1 9 2 11 3 12 4 13 5 14 6 15 7 16 8 17 9 18 10 19 11
REMARK SMILES IDX 20 12 8 13 7 14 6 15 5 16 4 17 3 18 2 19 1 20
REMARK H PARENT
REMARK Flexibility Score: inf
ROOT
ATOM      1  C   UNL     1      38.815   4.358  -7.591  1.00  0.00    -0.031 C 
ATOM      2  C   UNL     1      38.854   5.653  -7.954  1.00  0.00    -0.031 C 
ENDROOT
BRANCH   1   3
ATOM      3  C   UNL     1      40.014   3.566  -7.131  1.00  0.00     0.027 C 
BRANCH   3   4
ATOM      4  C   UNL     1      40.278   2.386  -8.076  1.00  0.00     0.004 C 
BRANCH   4   5
ATOM      5  C   UNL     1      40.904   2.821  -9.413  1.00  0.00     0.000 C 
BRANCH   5   6
ATOM      6  C   UNL     1      42.447   2.833  -9.438  1.00  0.00     0.000 C 
BRANCH   6   7
ATOM      7  C   UNL     1      43.119   3.229  -8.111  1.00  0.00     0.000 C 
BRANCH   7   8
ATOM      8  C   UNL     1      43.894   2.070  -7.465  1.00  0.00     0.006 C 
BRANCH   8   9
ATOM      9  C   UNL     1      43.721   2.079  -5.943  1.00  0.00     0.053 C 
BRANCH   9  10
ATOM     10  C   UNL     1      42.700   1.066  -5.525  1.00  0.00     0.041 C 
ATOM     11  O   UNL     1      42.792  -0.127  -5.921  1.00  0.00    -0.550 OA
ATOM     12  O   UNL     1      41.627   1.449  -4.730  1.00  0.00    -0.550 OA
ENDBRANCH   9  10
ENDBRANCH   8   9
ENDBRANCH   7   8
ENDBRANCH   6   7
ENDBRANCH   5   6
ENDBRANCH   4   5
ENDBRANCH   3   4
ENDBRANCH   1   3
BRANCH   2  13
ATOM     13  C   UNL     1      40.123   6.473  -7.990  1.00  0.00     0.027 C 
BRANCH  13  14
ATOM     14  C   UNL     1      40.003   7.772  -7.176  1.00  0.00     0.004 C 
BRANCH  14  15
ATOM     15  C   UNL     1      38.908   7.748  -6.087  1.00  0.00     0.000 C 
BRANCH  15  16
ATOM     16  C   UNL     1      39.053   8.816  -4.985  1.00  0.00     0.000 C 
BRANCH  16  17
ATOM     17  C   UNL     1      40.447   8.816  -4.332  1.00  0.00    -0.000 C 
BRANCH  17  18
ATOM     18  C   UNL     1      40.377   8.894  -2.798  1.00  0.00    -0.000 C 
BRANCH  18  19
ATOM     19  C   UNL     1      41.745   8.672  -2.136  1.00  0.00    -0.003 C 
ATOM     20  C   UNL     1      41.613   8.570  -0.619  1.00  0.00     0.004 C 
ENDBRANCH  18  19
ENDBRANCH  17  18
ENDBRANCH  16  17
ENDBRANCH  15  16
ENDBRANCH  14  15
ENDBRANCH  13  14
ENDBRANCH   2  13
TORSDOF 15
ENDMDL
MODEL 6
REMARK VINA RESULT:    -4.078     13.671     15.484
REMARK INTER + INTRA:         -10.420
REMARK INTER:                  -8.411
REMARK INTRA:                  -2.009
REMARK UNBOUND:                -2.766
REMARK SMILES CCCCCCCCC=CCCCCCCCC(=O)[O-]
REMARK SMILES IDX 10 1 9 2 11 3 12 4 13 5 14 6 15 7 16 8 17 9 18 10 19 11
REMARK SMILES IDX 20 12 8 13 7 14 6 15 5 16 4 17 3 18 2 19 1 20
REMARK H PARENT
REMARK Flexibility Score: inf
ROOT
ATOM      1  C   UNL     1      34.505   6.030   5.586  1.00  0.00    -0.031 C 
ATOM      2  C   UNL     1      35.284   5.179   6.279  1.00  0.00    -0.031 C 
ENDROOT
BRANCH   1   3
ATOM      3  C   UNL     1      33.957   7.324   6.136  1.00  0.00     0.027 C 
BRANCH   3   4
ATOM      4  C   UNL     1      34.364   8.506   5.246  1.00  0.00     0.004 C 
BRANCH   4   5
ATOM      5  C   UNL     1      35.068   9.629   6.030  1.00  0.00     0.000 C 
BRANCH   5   6
ATOM      6  C   UNL     1      35.448  10.868   5.194  1.00  0.00     0.000 C 
BRANCH   6   7
ATOM      7  C   UNL     1      34.331  11.914   5.028  1.00  0.00     0.000 C 
BRANCH   7   8
ATOM      8  C   UNL     1      33.862  12.061   3.573  1.00  0.00     0.006 C 
BRANCH   8   9
ATOM      9  C   UNL     1      34.565  11.047   2.666  1.00  0.00     0.053 C 
BRANCH   9  10
ATOM     10  C   UNL     1      33.569  10.334   1.804  1.00  0.00     0.041 C 
ATOM     11  O   UNL     1      32.384  10.756   1.724  1.00  0.00    -0.550 OA
ATOM     12  O   UNL     1      33.940   9.184   1.119  1.00  0.00    -0.550 OA
ENDBRANCH   9  10
ENDBRANCH   8   9
ENDBRANCH   7   8
ENDBRANCH   6   7
ENDBRANCH   5   6
ENDBRANCH   4   5
ENDBRANCH   3   4
ENDBRANCH   1   3
BRANCH   2  13
ATOM     13  C   UNL     1      35.675   5.392   7.723  1.00  0.00     0.027 C 
BRANCH  13  14
ATOM     14  C   UNL     1      37.163   5.748   7.879  1.00  0.00     0.004 C 
BRANCH  14  15
ATOM     15  C   UNL     1      37.517   7.205   7.507  1.00  0.00     0.000 C 
BRANCH  15  16
ATOM     16  C   UNL     1      38.594   7.362   6.416  1.00  0.00     0.000 C 
BRANCH  16  17
ATOM     17  C   UNL     1      38.029   7.901   5.090  1.00  0.00    -0.000 C 
BRANCH  17  18
ATOM     18  C   UNL     1      38.603   7.168   3.866  1.00  0.00    -0.000 C 
BRANCH  18  19
ATOM     19  C   UNL     1      39.983   7.703   3.456  1.00  0.00    -0.003 C 
ATOM     20  C   UNL     1      40.535   6.939   2.255  1.00  0.00     0.004 C 
ENDBRANCH  18  19
ENDBRANCH  17  18
ENDBRANCH  16  17
ENDBRANCH  15  16
ENDBRANCH  14  15
ENDBRANCH  13  14
ENDBRANCH   2  13
TORSDOF 15
ENDMDL
MODEL 7
REMARK VINA RESULT:    -4.029      2.616      4.134
REMARK INTER + INTRA:         -10.328
REMARK INTER:                  -7.729
REMARK INTRA:                  -2.599
REMARK UNBOUND:                -2.766
REMARK SMILES CCCCCCCCC=CCCCCCCCC(=O)[O-]
REMARK SMILES IDX 10 1 9 2 11 3 12 4 13 5 14 6 15 7 16 8 17 9 18 10 19 11
REMARK SMILES IDX 20 12 8 13 7 14 6 15 5 16 4 17 3 18 2 19 1 20
REMARK H PARENT
REMARK Flexibility Score: inf
ROOT
ATOM      1  C   UNL     1      39.335   4.141 -11.560  1.00  0.00    -0.031 C 
ATOM      2  C   UNL     1      40.621   4.523 -11.658  1.00  0.00    -0.031 C 
ENDROOT
BRANCH   1   3
ATOM      3  C   UNL     1      38.845   2.732 -11.785  1.00  0.00     0.027 C 
BRANCH   3   4
ATOM      4  C   UNL     1      38.794   1.959 -10.461  1.00  0.00     0.004 C 
BRANCH   4   5
ATOM      5  C   UNL     1      38.271   2.812  -9.291  1.00  0.00     0.000 C 
BRANCH   5   6
ATOM      6  C   UNL     1      39.125   2.754  -8.008  1.00  0.00     0.000 C 
BRANCH   6   7
ATOM      7  C   UNL     1      39.236   4.081  -7.235  1.00  0.00     0.000 C 
BRANCH   7   8
ATOM      8  C   UNL     1      38.884   5.304  -8.095  1.00  0.00     0.006 C 
BRANCH   8   9
ATOM      9  C   UNL     1      40.130   6.147  -8.383  1.00  0.00     0.053 C 
BRANCH   9  10
ATOM     10  C   UNL     1      40.011   7.495  -7.742  1.00  0.00     0.041 C 
ATOM     11  O   UNL     1      40.584   8.494  -8.254  1.00  0.00    -0.550 OA
ATOM     12  O   UNL     1      39.300   7.640  -6.558  1.00  0.00    -0.550 OA
ENDBRANCH   9  10
ENDBRANCH   8   9
ENDBRANCH   7   8
ENDBRANCH   6   7
ENDBRANCH   5   6
ENDBRANCH   4   5
ENDBRANCH   3   4
ENDBRANCH   1   3
BRANCH   2  13
ATOM     13  C   UNL     1      41.743   3.590 -12.051  1.00  0.00     0.027 C 
BRANCH  13  14
ATOM     14  C   UNL     1      42.792   3.434 -10.938  1.00  0.00     0.004 C 
BRANCH  14  15
ATOM     15  C   UNL     1      42.237   2.883  -9.606  1.00  0.00     0.000 C 
BRANCH  15  16
ATOM     16  C   UNL     1      42.911   3.432  -8.334  1.00  0.00     0.000 C 
BRANCH  16  17
ATOM     17  C   UNL     1      43.376   2.321  -7.376  1.00  0.00    -0.000 C 
BRANCH  17  18
ATOM     18  C   UNL     1      42.704   2.417  -5.996  1.00  0.00    -0.000 C 
BRANCH  18  19
ATOM     19  C   UNL     1      42.583   1.050  -5.306  1.00  0.00    -0.003 C 
ATOM     20  C   UNL     1      42.980  -0.081  -6.251  1.00  0.00     0.004 C 
ENDBRANCH  18  19
ENDBRANCH  17  18
ENDBRANCH  16  17
ENDBRANCH  15  16
ENDBRANCH  14  15
ENDBRANCH  13  14
ENDBRANCH   2  13
TORSDOF 15
ENDMDL
MODEL 8
REMARK VINA RESULT:    -3.966      2.824      6.006
REMARK INTER + INTRA:         -10.209
REMARK INTER:                  -7.956
REMARK INTRA:                  -2.253
REMARK UNBOUND:                -2.766
REMARK SMILES CCCCCCCCC=CCCCCCCCC(=O)[O-]
REMARK SMILES IDX 10 1 9 2 11 3 12 4 13 5 14 6 15 7 16 8 17 9 18 10 19 11
REMARK SMILES IDX 20 12 8 13 7 14 6 15 5 16 4 17 3 18 2 19 1 20
REMARK H PARENT
REMARK Flexibility Score: inf
ROOT
ATOM      1  C   UNL     1      36.977   3.109 -10.184  1.00  0.00    -0.031 C 
ATOM      2  C   UNL     1      37.075   3.496 -11.469  1.00  0.00    -0.031 C 
ENDROOT
BRANCH   1   3
ATOM      3  C   UNL     1      38.017   3.388  -9.128  1.00  0.00     0.027 C 
BRANCH   3   4
ATOM      4  C   UNL     1      38.835   2.125  -8.827  1.00  0.00     0.004 C 
BRANCH   4   5
ATOM      5  C   UNL     1      40.251   2.440  -8.310  1.00  0.00     0.000 C 
BRANCH   5   6
ATOM      6  C   UNL     1      41.315   2.646  -9.407  1.00  0.00     0.000 C 
BRANCH   6   7
ATOM      7  C   UNL     1      42.699   3.092  -8.901  1.00  0.00     0.000 C 
BRANCH   7   8
ATOM      8  C   UNL     1      42.829   3.013  -7.373  1.00  0.00     0.006 C 
BRANCH   8   9
ATOM      9  C   UNL     1      43.657   1.793  -6.956  1.00  0.00     0.053 C 
BRANCH   9  10
ATOM     10  C   UNL     1      42.868   0.915  -6.035  1.00  0.00     0.041 C 
ATOM     11  O   UNL     1      42.948  -0.339  -6.132  1.00  0.00    -0.550 OA
ATOM     12  O   UNL     1      42.017   1.481  -5.094  1.00  0.00    -0.550 OA
ENDBRANCH   9  10
ENDBRANCH   8   9
ENDBRANCH   7   8
ENDBRANCH   6   7
ENDBRANCH   5   6
ENDBRANCH   4   5
ENDBRANCH   3   4
ENDBRANCH   1   3
BRANCH   2  13
ATOM     13  C   UNL     1      38.271   4.228 -12.032  1.00  0.00     0.027 C 
BRANCH  13  14
ATOM     14  C   UNL     1      38.079   5.753 -12.029  1.00  0.00     0.004 C 
BRANCH  14  15
ATOM     15  C   UNL     1      39.020   6.517 -11.071  1.00  0.00     0.000 C 
BRANCH  15  16
ATOM     16  C   UNL     1      40.330   5.788 -10.715  1.00  0.00     0.000 C 
BRANCH  16  17
ATOM     17  C   UNL     1      41.061   6.423  -9.519  1.00  0.00    -0.000 C 
BRANCH  17  18
ATOM     18  C   UNL     1      40.196   6.447  -8.247  1.00  0.00    -0.000 C 
BRANCH  18  19
ATOM     19  C   UNL     1      40.043   7.861  -7.668  1.00  0.00    -0.003 C 
ATOM     20  C   UNL     1      39.230   7.843  -6.377  1.00  0.00     0.004 C 
ENDBRANCH  18  19
ENDBRANCH  17  18
ENDBRANCH  16  17
ENDBRANCH  15  16
ENDBRANCH  14  15
ENDBRANCH  13  14
ENDBRANCH   2  13
TORSDOF 15
ENDMDL
MODEL 9
REMARK VINA RESULT:    -3.942      2.866      6.067
REMARK INTER + INTRA:         -10.165
REMARK INTER:                  -7.192
REMARK INTRA:                  -2.973
REMARK UNBOUND:                -2.766
REMARK SMILES CCCCCCCCC=CCCCCCCCC(=O)[O-]
REMARK SMILES IDX 10 1 9 2 11 3 12 4 13 5 14 6 15 7 16 8 17 9 18 10 19 11
REMARK SMILES IDX 20 12 8 13 7 14 6 15 5 16 4 17 3 18 2 19 1 20
REMARK H PARENT
REMARK Flexibility Score: inf
ROOT
ATOM      1  C   UNL     1      39.720   6.396  -8.082  1.00  0.00    -0.031 C 
ATOM      2  C   UNL     1      40.973   6.695  -8.470  1.00  0.00    -0.031 C 
ENDROOT
BRANCH   1   3
ATOM      3  C   UNL     1      38.881   5.297  -8.685  1.00  0.00     0.027 C 
BRANCH   3   4
ATOM      4  C   UNL     1      38.495   4.263  -7.618  1.00  0.00     0.004 C 
BRANCH   4   5
ATOM      5  C   UNL     1      39.667   3.346  -7.224  1.00  0.00     0.000 C 
BRANCH   5   6
ATOM      6  C   UNL     1      40.195   2.441  -8.355  1.00  0.00     0.000 C 
BRANCH   6   7
ATOM      7  C   UNL     1      41.725   2.430  -8.525  1.00  0.00     0.000 C 
BRANCH   7   8
ATOM      8  C   UNL     1      42.455   3.187  -7.405  1.00  0.00     0.006 C 
BRANCH   8   9
ATOM      9  C   UNL     1      43.404   2.255  -6.644  1.00  0.00     0.053 C 
BRANCH   9  10
ATOM     10  C   UNL     1      42.628   1.256  -5.843  1.00  0.00     0.041 C 
ATOM     11  O   UNL     1      41.817   1.644  -4.959  1.00  0.00    -0.550 OA
ATOM     12  O   UNL     1      42.827  -0.104  -6.047  1.00  0.00    -0.550 OA
ENDBRANCH   9  10
ENDBRANCH   8   9
ENDBRANCH   7   8
ENDBRANCH   6   7
ENDBRANCH   5   6
ENDBRANCH   4   5
ENDBRANCH   3   4
ENDBRANCH   1   3
BRANCH   2  13
ATOM     13  C   UNL     1      41.689   5.990  -9.598  1.00  0.00     0.027 C 
BRANCH  13  14
ATOM     14  C   UNL     1      41.275   6.525 -10.979  1.00  0.00     0.004 C 
BRANCH  14  15
ATOM     15  C   UNL     1      41.314   5.475 -12.112  1.00  0.00     0.000 C 
BRANCH  15  16
ATOM     16  C   UNL     1      40.730   4.096 -11.752  1.00  0.00     0.000 C 
BRANCH  16  17
ATOM     17  C   UNL     1      39.213   4.008 -11.994  1.00  0.00    -0.000 C 
BRANCH  17  18
ATOM     18  C   UNL     1      38.643   2.621 -11.650  1.00  0.00    -0.000 C 
BRANCH  18  19
ATOM     19  C   UNL     1      37.312   2.706 -10.889  1.00  0.00    -0.003 C 
ATOM     20  C   UNL     1      36.465   3.873 -11.389  1.00  0.00     0.004 C 
ENDBRANCH  18  19
ENDBRANCH  17  18
ENDBRANCH  16  17
ENDBRANCH  15  16
ENDBRANCH  14  15
ENDBRANCH  13  14
ENDBRANCH   2  13
TORSDOF 15
ENDMDL
