MODEL 1
REMARK VINA RESULT:    -6.410      0.000      0.000
REMARK INTER + INTRA:         -12.485
REMARK INTER:                 -11.282
REMARK INTRA:                  -1.203
REMARK UNBOUND:                -1.203
REMARK SMILES COc1cc(-c2[o+]c3cc(O)cc(O[C@H]4O[C@@H](CO)[C@@H](O)[C@@H](O)[C@H]4O)c3cc2O[C@@H]2O[C@@H](CO)[C@@H](O)[C@H](O)[C@H]2O)ccc1O
REMARK SMILES IDX 6 1 28 2 27 3 26 4 13 5 12 6 10 7 9 8 8 9 7 10 5 11 3 12
REMARK SMILES IDX 43 13 4 14 42 15 41 16 2 17 1 18 44 19 29 21 30 22 39 23
REMARK SMILES IDX 31 24 37 25 32 26 35 27 40 28 38 30 33 32 34 33 36 35 14 37
REMARK SMILES IDX 15 38 24 39 16 40 22 41 17 42 20 43 25 44 23 46 18 48 19 49
REMARK SMILES IDX 21 51 11 53
REMARK H PARENT 44 20 40 29 38 31 34 34 36 36 25 45 23 47 19 50 21 52 11 54
REMARK Flexibility Score: inf
ROOT
ATOM      1  C   UNL     1      -2.916   6.128  14.610  1.00  0.00     0.402 A 
ATOM      2  C   UNL     1      -4.226   6.079  14.141  1.00  0.00     0.229 A 
ATOM      3  C   UNL     1      -4.668   7.057  13.292  1.00  0.00     0.079 A 
ATOM      4  C   UNL     1      -3.863   8.180  12.922  1.00  0.00     0.126 A 
ATOM      5  C   UNL     1      -4.291   9.326  12.158  1.00  0.00     0.143 A 
ATOM      6  C   UNL     1      -3.292  10.286  11.809  1.00  0.00     0.094 A 
ATOM      7  C   UNL     1      -1.941  10.087  12.145  1.00  0.00     0.128 A 
ATOM      8  C   UNL     1      -1.558   9.022  12.911  1.00  0.00     0.162 A 
ATOM      9  C   UNL     1      -2.514   8.066  13.345  1.00  0.00     0.368 A 
ATOM     10  O   UNL     1      -2.102   7.083  14.130  1.00  0.00    -0.202 OA
ENDROOT
BRANCH   1  11
ATOM     11  C   UNL     1      -2.286   5.101  15.515  1.00  0.00     0.087 A 
ATOM     12  C   UNL     1      -0.895   4.635  17.459  1.00  0.00     0.161 A 
ATOM     13  C   UNL     1      -1.360   3.304  17.465  1.00  0.00     0.157 A 
ATOM     14  C   UNL     1      -1.356   5.508  16.473  1.00  0.00     0.068 A 
ATOM     15  C   UNL     1      -2.148   2.818  16.407  1.00  0.00     0.051 A 
ATOM     16  C   UNL     1      -2.587   3.718  15.432  1.00  0.00     0.022 A 
BRANCH  12  17
ATOM     17  O   UNL     1       0.031   5.031  18.428  1.00  0.00    -0.493 OA
ATOM     18  C   UNL     1       0.113   6.342  18.961  1.00  0.00     0.278 C 
ENDBRANCH  12  17
BRANCH  13  19
ATOM     19  O   UNL     1      -0.927   2.426  18.448  1.00  0.00    -0.504 OA
ATOM     20  H   UNL     1      -0.376   2.729  19.280  1.00  0.00     0.293 HD
ENDBRANCH  13  19
ENDBRANCH   1  11
BRANCH   2  21
ATOM     21  O   UNL     1      -5.034   4.954  14.276  1.00  0.00    -0.452 OA
BRANCH  21  22
ATOM     22  C   UNL     1      -5.745   4.520  15.450  1.00  0.00     0.339 C 
ATOM     23  C   UNL     1      -5.591   5.540  16.620  1.00  0.00     0.214 C 
ATOM     24  O   UNL     1      -7.126   4.363  15.135  1.00  0.00    -0.332 OA
ATOM     25  C   UNL     1      -6.483   6.829  16.421  1.00  0.00     0.180 C 
ATOM     26  C   UNL     1      -7.664   5.559  14.535  1.00  0.00     0.179 C 
ATOM     27  C   UNL     1      -7.772   6.657  15.597  1.00  0.00     0.177 C 
BRANCH  23  28
ATOM     28  O   UNL     1      -5.785   5.005  17.913  1.00  0.00    -0.384 OA
ATOM     29  H   UNL     1      -5.364   5.652  18.595  1.00  0.00     0.211 HD
ENDBRANCH  23  28
BRANCH  25  30
ATOM     30  O   UNL     1      -5.708   7.802  15.768  1.00  0.00    -0.387 OA
ATOM     31  H   UNL     1      -6.354   8.468  15.365  1.00  0.00     0.211 HD
ENDBRANCH  25  30
BRANCH  26  32
ATOM     32  C   UNL     1      -9.008   5.268  13.799  1.00  0.00     0.191 C 
BRANCH  32  33
ATOM     33  O   UNL     1      -9.149   6.096  12.691  1.00  0.00    -0.394 OA
ATOM     34  H   UNL     1      -8.383   5.850  12.085  1.00  0.00     0.210 HD
ENDBRANCH  32  33
ENDBRANCH  26  32
BRANCH  27  35
ATOM     35  O   UNL     1      -8.816   6.365  16.507  1.00  0.00    -0.387 OA
ATOM     36  H   UNL     1      -8.934   7.183  17.046  1.00  0.00     0.211 HD
ENDBRANCH  27  35
ENDBRANCH  21  22
ENDBRANCH   2  21
BRANCH   5  37
ATOM     37  O   UNL     1      -5.654   9.566  11.807  1.00  0.00    -0.461 OA
BRANCH  37  38
ATOM     38  C   UNL     1      -6.362  10.850  11.896  1.00  0.00     0.339 C 
ATOM     39  C   UNL     1      -7.168  10.981  13.190  1.00  0.00     0.214 C 
ATOM     40  O   UNL     1      -7.173  11.125  10.768  1.00  0.00    -0.332 OA
ATOM     41  C   UNL     1      -8.390  10.058  13.165  1.00  0.00     0.180 C 
ATOM     42  C   UNL     1      -8.245  10.243  10.568  1.00  0.00     0.179 C 
ATOM     43  C   UNL     1      -9.166  10.162  11.802  1.00  0.00     0.177 C 
BRANCH  39  44
ATOM     44  O   UNL     1      -6.375  10.642  14.288  1.00  0.00    -0.384 OA
ATOM     45  H   UNL     1      -5.448  10.563  13.978  1.00  0.00     0.211 HD
ENDBRANCH  39  44
BRANCH  41  46
ATOM     46  O   UNL     1      -8.050   8.768  13.584  1.00  0.00    -0.387 OA
ATOM     47  H   UNL     1      -7.647   8.274  12.791  1.00  0.00     0.211 HD
ENDBRANCH  41  46
BRANCH  42  48
ATOM     48  C   UNL     1      -7.772   8.892   9.987  1.00  0.00     0.191 C 
BRANCH  48  49
ATOM     49  O   UNL     1      -7.772   7.907  11.016  1.00  0.00    -0.394 OA
ATOM     50  H   UNL     1      -7.418   7.064  10.625  1.00  0.00     0.210 HD
ENDBRANCH  48  49
ENDBRANCH  42  48
BRANCH  43  51
ATOM     51  O   UNL     1     -10.112   9.143  11.584  1.00  0.00    -0.387 OA
ATOM     52  H   UNL     1     -10.431   8.771  12.486  1.00  0.00     0.211 HD
ENDBRANCH  43  51
ENDBRANCH  37  38
ENDBRANCH   5  37
BRANCH   7  53
ATOM     53  O   UNL     1      -0.950  11.013  11.751  1.00  0.00    -0.507 OA
ATOM     54  H   UNL     1      -0.069  11.073  12.256  1.00  0.00     0.293 HD
ENDBRANCH   7  53
TORSDOF 18
ENDMDL
MODEL 2
REMARK VINA RESULT:    -4.982     12.838     16.771
REMARK INTER + INTRA:          -9.971
REMARK INTER:                  -8.588
REMARK INTRA:                  -1.383
REMARK UNBOUND:                -1.203
REMARK SMILES COc1cc(-c2[o+]c3cc(O)cc(O[C@H]4O[C@@H](CO)[C@@H](O)[C@@H](O)[C@H]4O)c3cc2O[C@@H]2O[C@@H](CO)[C@@H](O)[C@H](O)[C@H]2O)ccc1O
REMARK SMILES IDX 6 1 28 2 27 3 26 4 13 5 12 6 10 7 9 8 8 9 7 10 5 11 3 12
REMARK SMILES IDX 43 13 4 14 42 15 41 16 2 17 1 18 44 19 29 21 30 22 39 23
REMARK SMILES IDX 31 24 37 25 32 26 35 27 40 28 38 30 33 32 34 33 36 35 14 37
REMARK SMILES IDX 15 38 24 39 16 40 22 41 17 42 20 43 25 44 23 46 18 48 19 49
REMARK SMILES IDX 21 51 11 53
REMARK H PARENT 44 20 40 29 38 31 34 34 36 36 25 45 23 47 19 50 21 52 11 54
REMARK Flexibility Score: inf
ROOT
ATOM      1  C   UNL     1      -4.313  -6.770  24.677  1.00  0.00     0.402 A 
ATOM      2  C   UNL     1      -5.680  -6.530  24.558  1.00  0.00     0.229 A 
ATOM      3  C   UNL     1      -6.155  -5.923  23.427  1.00  0.00     0.079 A 
ATOM      4  C   UNL     1      -5.296  -5.451  22.385  1.00  0.00     0.126 A 
ATOM      5  C   UNL     1      -5.690  -4.675  21.236  1.00  0.00     0.143 A 
ATOM      6  C   UNL     1      -4.684  -4.399  20.260  1.00  0.00     0.094 A 
ATOM      7  C   UNL     1      -3.382  -4.915  20.389  1.00  0.00     0.128 A 
ATOM      8  C   UNL     1      -3.009  -5.608  21.507  1.00  0.00     0.162 A 
ATOM      9  C   UNL     1      -3.946  -5.860  22.544  1.00  0.00     0.368 A 
ATOM     10  O   UNL     1      -3.522  -6.486  23.630  1.00  0.00    -0.202 OA
ENDROOT
BRANCH   1  11
ATOM     11  C   UNL     1      -3.660  -7.462  25.846  1.00  0.00     0.087 A 
ATOM     12  C   UNL     1      -1.923  -7.438  27.553  1.00  0.00     0.161 A 
ATOM     13  C   UNL     1      -2.590  -8.475  28.238  1.00  0.00     0.157 A 
ATOM     14  C   UNL     1      -2.463  -6.959  26.360  1.00  0.00     0.068 A 
ATOM     15  C   UNL     1      -3.691  -9.125  27.651  1.00  0.00     0.051 A 
ATOM     16  C   UNL     1      -4.203  -8.623  26.451  1.00  0.00     0.022 A 
BRANCH  12  17
ATOM     17  O   UNL     1      -0.729  -6.940  28.082  1.00  0.00    -0.493 OA
ATOM     18  C   UNL     1       0.546  -7.143  27.496  1.00  0.00     0.278 C 
ENDBRANCH  12  17
BRANCH  13  19
ATOM     19  O   UNL     1      -2.079  -8.951  29.436  1.00  0.00    -0.504 OA
ATOM     20  H   UNL     1      -1.238  -8.544  29.899  1.00  0.00     0.293 HD
ENDBRANCH  13  19
ENDBRANCH   1  11
BRANCH   2  21
ATOM     21  O   UNL     1      -6.624  -7.104  25.405  1.00  0.00    -0.452 OA
BRANCH  21  22
ATOM     22  C   UNL     1      -7.673  -6.436  26.130  1.00  0.00     0.339 C 
ATOM     23  C   UNL     1      -9.066  -6.682  25.475  1.00  0.00     0.214 C 
ATOM     24  O   UNL     1      -7.690  -6.907  27.475  1.00  0.00    -0.332 OA
ATOM     25  C   UNL     1      -9.629  -8.130  25.774  1.00  0.00     0.180 C 
ATOM     26  C   UNL     1      -7.771  -8.346  27.524  1.00  0.00     0.179 C 
ATOM     27  C   UNL     1      -9.168  -8.793  27.083  1.00  0.00     0.177 C 
BRANCH  23  28
ATOM     28  O   UNL     1     -10.047  -5.707  25.763  1.00  0.00    -0.384 OA
ATOM     29  H   UNL     1     -10.268  -5.205  24.890  1.00  0.00     0.211 HD
ENDBRANCH  23  28
BRANCH  25  30
ATOM     30  O   UNL     1      -9.236  -8.978  24.725  1.00  0.00    -0.387 OA
ATOM     31  H   UNL     1      -9.324  -8.445  23.870  1.00  0.00     0.211 HD
ENDBRANCH  25  30
BRANCH  26  32
ATOM     32  C   UNL     1      -7.355  -8.889  28.925  1.00  0.00     0.191 C 
BRANCH  32  33
ATOM     33  O   UNL     1      -8.338  -8.615  29.869  1.00  0.00    -0.394 OA
ATOM     34  H   UNL     1      -8.840  -7.825  29.498  1.00  0.00     0.210 HD
ENDBRANCH  32  33
ENDBRANCH  26  32
BRANCH  27  35
ATOM     35  O   UNL     1     -10.125  -8.475  28.075  1.00  0.00    -0.387 OA
ATOM     36  H   UNL     1     -10.637  -9.305  28.225  1.00  0.00     0.211 HD
ENDBRANCH  27  35
ENDBRANCH  21  22
ENDBRANCH   2  21
BRANCH   5  37
ATOM     37  O   UNL     1      -6.998  -4.126  21.075  1.00  0.00    -0.461 OA
BRANCH  37  38
ATOM     38  C   UNL     1      -7.995  -4.531  20.075  1.00  0.00     0.339 C 
ATOM     39  C   UNL     1      -7.901  -3.704  18.792  1.00  0.00     0.214 C 
ATOM     40  O   UNL     1      -9.321  -4.538  20.573  1.00  0.00    -0.332 OA
ATOM     41  C   UNL     1      -8.397  -2.274  19.029  1.00  0.00     0.180 C 
ATOM     42  C   UNL     1      -9.825  -3.289  20.961  1.00  0.00     0.179 C 
ATOM     43  C   UNL     1      -9.757  -2.257  19.817  1.00  0.00     0.177 C 
BRANCH  39  44
ATOM     44  O   UNL     1      -6.577  -3.649  18.350  1.00  0.00    -0.384 OA
ATOM     45  H   UNL     1      -6.325  -2.705  18.270  1.00  0.00     0.211 HD
ENDBRANCH  39  44
BRANCH  41  46
ATOM     46  O   UNL     1      -7.376  -1.470  19.545  1.00  0.00    -0.387 OA
ATOM     47  H   UNL     1      -6.969  -1.950  20.344  1.00  0.00     0.211 HD
ENDBRANCH  41  46
BRANCH  42  48
ATOM     48  C   UNL     1      -9.243  -2.834  22.317  1.00  0.00     0.191 C 
BRANCH  48  49
ATOM     49  O   UNL     1      -9.683  -3.718  23.343  1.00  0.00    -0.394 OA
ATOM     50  H   UNL     1      -9.046  -3.637  24.103  1.00  0.00     0.210 HD
ENDBRANCH  48  49
ENDBRANCH  42  48
BRANCH  43  51
ATOM     51  O   UNL     1     -10.125  -0.999  20.330  1.00  0.00    -0.387 OA
ATOM     52  H   UNL     1      -9.326  -0.357  20.272  1.00  0.00     0.211 HD
ENDBRANCH  43  51
ENDBRANCH  37  38
ENDBRANCH   5  37
BRANCH   7  53
ATOM     53  O   UNL     1      -2.406  -4.684  19.395  1.00  0.00    -0.507 OA
ATOM     54  H   UNL     1      -2.530  -5.050  18.454  1.00  0.00     0.293 HD
ENDBRANCH   7  53
TORSDOF 18
ENDMDL
MODEL 3
REMARK VINA RESULT:    -4.709     12.135     15.955
REMARK INTER + INTRA:          -9.490
REMARK INTER:                  -8.032
REMARK INTRA:                  -1.458
REMARK UNBOUND:                -1.203
REMARK SMILES COc1cc(-c2[o+]c3cc(O)cc(O[C@H]4O[C@@H](CO)[C@@H](O)[C@@H](O)[C@H]4O)c3cc2O[C@@H]2O[C@@H](CO)[C@@H](O)[C@H](O)[C@H]2O)ccc1O
REMARK SMILES IDX 6 1 28 2 27 3 26 4 13 5 12 6 10 7 9 8 8 9 7 10 5 11 3 12
REMARK SMILES IDX 43 13 4 14 42 15 41 16 2 17 1 18 44 19 29 21 30 22 39 23
REMARK SMILES IDX 31 24 37 25 32 26 35 27 40 28 38 30 33 32 34 33 36 35 14 37
REMARK SMILES IDX 15 38 24 39 16 40 22 41 17 42 20 43 25 44 23 46 18 48 19 49
REMARK SMILES IDX 21 51 11 53
REMARK H PARENT 44 20 40 29 38 31 34 34 36 36 25 45 23 47 19 50 21 52 11 54
REMARK Flexibility Score: inf
ROOT
ATOM      1  C   UNL     1      -4.356  -6.196  24.566  1.00  0.00     0.402 A 
ATOM      2  C   UNL     1      -5.689  -5.838  24.384  1.00  0.00     0.229 A 
ATOM      3  C   UNL     1      -6.071  -5.271  23.198  1.00  0.00     0.079 A 
ATOM      4  C   UNL     1      -5.142  -4.956  22.157  1.00  0.00     0.126 A 
ATOM      5  C   UNL     1      -5.427  -4.230  20.944  1.00  0.00     0.143 A 
ATOM      6  C   UNL     1      -4.372  -4.120  19.987  1.00  0.00     0.094 A 
ATOM      7  C   UNL     1      -3.130  -4.747  20.196  1.00  0.00     0.128 A 
ATOM      8  C   UNL     1      -2.857  -5.390  21.371  1.00  0.00     0.162 A 
ATOM      9  C   UNL     1      -3.843  -5.479  22.390  1.00  0.00     0.368 A 
ATOM     10  O   UNL     1      -3.512  -6.063  23.530  1.00  0.00    -0.202 OA
ENDROOT
BRANCH   1  11
ATOM     11  C   UNL     1      -3.805  -6.861  25.801  1.00  0.00     0.087 A 
ATOM     12  C   UNL     1      -2.639  -6.630  27.927  1.00  0.00     0.161 A 
ATOM     13  C   UNL     1      -3.058  -7.926  28.291  1.00  0.00     0.157 A 
ATOM     14  C   UNL     1      -3.008  -6.125  26.680  1.00  0.00     0.068 A 
ATOM     15  C   UNL     1      -3.699  -8.758  27.356  1.00  0.00     0.051 A 
ATOM     16  C   UNL     1      -4.049  -8.222  26.113  1.00  0.00     0.022 A 
BRANCH  12  17
ATOM     17  O   UNL     1      -1.847  -5.902  28.819  1.00  0.00    -0.493 OA
ATOM     18  C   UNL     1      -0.445  -6.065  28.953  1.00  0.00     0.278 C 
ENDBRANCH  12  17
BRANCH  13  19
ATOM     19  O   UNL     1      -2.717  -8.438  29.534  1.00  0.00    -0.504 OA
ATOM     20  H   UNL     1      -2.854  -7.913  30.424  1.00  0.00     0.293 HD
ENDBRANCH  13  19
ENDBRANCH   1  11
BRANCH   2  21
ATOM     21  O   UNL     1      -6.707  -6.258  25.234  1.00  0.00    -0.452 OA
BRANCH  21  22
ATOM     22  C   UNL     1      -7.063  -7.611  25.575  1.00  0.00     0.339 C 
ATOM     23  C   UNL     1      -8.343  -7.657  26.465  1.00  0.00     0.214 C 
ATOM     24  O   UNL     1      -7.287  -8.355  24.381  1.00  0.00    -0.332 OA
ATOM     25  C   UNL     1      -9.666  -7.400  25.637  1.00  0.00     0.180 C 
ATOM     26  C   UNL     1      -8.245  -7.697  23.527  1.00  0.00     0.179 C 
ATOM     27  C   UNL     1      -9.639  -7.799  24.151  1.00  0.00     0.177 C 
BRANCH  23  28
ATOM     28  O   UNL     1      -8.481  -8.816  27.260  1.00  0.00    -0.384 OA
ATOM     29  H   UNL     1      -8.436  -9.639  26.640  1.00  0.00     0.211 HD
ENDBRANCH  23  28
BRANCH  25  30
ATOM     30  O   UNL     1      -9.953  -6.026  25.686  1.00  0.00    -0.387 OA
ATOM     31  H   UNL     1     -10.709  -5.909  26.349  1.00  0.00     0.211 HD
ENDBRANCH  25  30
BRANCH  26  32
ATOM     32  C   UNL     1      -8.172  -8.244  22.068  1.00  0.00     0.191 C 
BRANCH  32  33
ATOM     33  O   UNL     1      -8.462  -7.239  21.152  1.00  0.00    -0.394 OA
ATOM     34  H   UNL     1      -7.736  -7.304  20.458  1.00  0.00     0.210 HD
ENDBRANCH  32  33
ENDBRANCH  26  32
BRANCH  27  35
ATOM     35  O   UNL     1     -10.125  -9.125  24.063  1.00  0.00    -0.387 OA
ATOM     36  H   UNL     1     -10.744  -9.231  24.824  1.00  0.00     0.211 HD
ENDBRANCH  27  35
ENDBRANCH  21  22
ENDBRANCH   2  21
BRANCH   5  37
ATOM     37  O   UNL     1      -6.671  -3.574  20.701  1.00  0.00    -0.461 OA
BRANCH  37  38
ATOM     38  C   UNL     1      -7.648  -3.918  19.659  1.00  0.00     0.339 C 
ATOM     39  C   UNL     1      -7.675  -2.891  18.526  1.00  0.00     0.214 C 
ATOM     40  O   UNL     1      -8.951  -4.146  20.163  1.00  0.00    -0.332 OA
ATOM     41  C   UNL     1      -8.310  -1.578  18.996  1.00  0.00     0.180 C 
ATOM     42  C   UNL     1      -9.572  -3.036  20.753  1.00  0.00     0.179 C 
ATOM     43  C   UNL     1      -9.643  -1.833  19.791  1.00  0.00     0.177 C 
BRANCH  39  44
ATOM     44  O   UNL     1      -6.377  -2.625  18.086  1.00  0.00    -0.384 OA
ATOM     45  H   UNL     1      -5.863  -3.458  18.142  1.00  0.00     0.211 HD
ENDBRANCH  39  44
BRANCH  41  46
ATOM     46  O   UNL     1      -7.365  -0.763  19.625  1.00  0.00    -0.387 OA
ATOM     47  H   UNL     1      -6.557  -0.684  19.012  1.00  0.00     0.211 HD
ENDBRANCH  41  46
BRANCH  42  48
ATOM     48  C   UNL     1      -9.003  -2.744  22.159  1.00  0.00     0.191 C 
BRANCH  48  49
ATOM     49  O   UNL     1      -9.995  -2.092  22.947  1.00  0.00    -0.394 OA
ATOM     50  H   UNL     1      -9.954  -1.120  22.739  1.00  0.00     0.210 HD
ENDBRANCH  48  49
ENDBRANCH  42  48
BRANCH  43  51
ATOM     51  O   UNL     1     -10.124  -0.720  20.504  1.00  0.00    -0.387 OA
ATOM     52  H   UNL     1      -9.461  -0.475  21.248  1.00  0.00     0.211 HD
ENDBRANCH  43  51
ENDBRANCH  37  38
ENDBRANCH   5  37
BRANCH   7  53
ATOM     53  O   UNL     1      -2.109  -4.680  19.223  1.00  0.00    -0.507 OA
ATOM     54  H   UNL     1      -1.761  -3.780  18.901  1.00  0.00     0.293 HD
ENDBRANCH   7  53
TORSDOF 18
ENDMDL
MODEL 4
REMARK VINA RESULT:    -4.613     12.541     18.355
REMARK INTER + INTRA:          -9.322
REMARK INTER:                  -8.552
REMARK INTRA:                  -0.770
REMARK UNBOUND:                -1.203
REMARK SMILES COc1cc(-c2[o+]c3cc(O)cc(O[C@H]4O[C@@H](CO)[C@@H](O)[C@@H](O)[C@H]4O)c3cc2O[C@@H]2O[C@@H](CO)[C@@H](O)[C@H](O)[C@H]2O)ccc1O
REMARK SMILES IDX 6 1 28 2 27 3 26 4 13 5 12 6 10 7 9 8 8 9 7 10 5 11 3 12
REMARK SMILES IDX 43 13 4 14 42 15 41 16 2 17 1 18 44 19 29 21 30 22 39 23
REMARK SMILES IDX 31 24 37 25 32 26 35 27 40 28 38 30 33 32 34 33 36 35 14 37
REMARK SMILES IDX 15 38 24 39 16 40 22 41 17 42 20 43 25 44 23 46 18 48 19 49
REMARK SMILES IDX 21 51 11 53
REMARK H PARENT 44 20 40 29 38 31 34 34 36 36 25 45 23 47 19 50 21 52 11 54
REMARK Flexibility Score: inf
ROOT
ATOM      1  C   UNL     1      -8.071  -5.192  23.124  1.00  0.00     0.402 A 
ATOM      2  C   UNL     1      -6.696  -5.406  23.194  1.00  0.00     0.229 A 
ATOM      3  C   UNL     1      -6.199  -6.239  24.159  1.00  0.00     0.079 A 
ATOM      4  C   UNL     1      -7.026  -6.846  25.157  1.00  0.00     0.126 A 
ATOM      5  C   UNL     1      -6.576  -7.613  26.292  1.00  0.00     0.143 A 
ATOM      6  C   UNL     1      -7.580  -8.220  27.108  1.00  0.00     0.094 A 
ATOM      7  C   UNL     1      -8.944  -8.121  26.779  1.00  0.00     0.128 A 
ATOM      8  C   UNL     1      -9.359  -7.351  25.729  1.00  0.00     0.162 A 
ATOM      9  C   UNL     1      -8.413  -6.669  24.917  1.00  0.00     0.368 A 
ATOM     10  O   UNL     1      -8.868  -5.892  23.948  1.00  0.00    -0.202 OA
ENDROOT
BRANCH   1  11
ATOM     11  C   UNL     1      -8.756  -4.333  22.093  1.00  0.00     0.087 A 
ATOM     12  C   UNL     1      -9.255  -2.097  21.268  1.00  0.00     0.161 A 
ATOM     13  C   UNL     1      -9.686  -2.650  20.045  1.00  0.00     0.157 A 
ATOM     14  C   UNL     1      -8.811  -2.950  22.278  1.00  0.00     0.068 A 
ATOM     15  C   UNL     1      -9.818  -4.043  19.899  1.00  0.00     0.051 A 
ATOM     16  C   UNL     1      -9.369  -4.870  20.933  1.00  0.00     0.022 A 
BRANCH  12  17
ATOM     17  O   UNL     1      -9.310  -0.710  21.437  1.00  0.00    -0.493 OA
ATOM     18  C   UNL     1      -8.573   0.215  20.655  1.00  0.00     0.278 C 
ENDBRANCH  12  17
BRANCH  13  19
ATOM     19  O   UNL     1     -10.113  -1.817  19.022  1.00  0.00    -0.504 OA
ATOM     20  H   UNL     1     -10.080  -2.086  18.015  1.00  0.00     0.293 HD
ENDBRANCH  13  19
ENDBRANCH   1  11
BRANCH   2  21
ATOM     21  O   UNL     1      -5.821  -5.030  22.180  1.00  0.00    -0.452 OA
BRANCH  21  22
ATOM     22  C   UNL     1      -5.011  -5.889  21.356  1.00  0.00     0.339 C 
ATOM     23  C   UNL     1      -5.523  -7.361  21.391  1.00  0.00     0.214 C 
ATOM     24  O   UNL     1      -5.028  -5.410  20.015  1.00  0.00    -0.332 OA
ATOM     25  C   UNL     1      -6.826  -7.570  20.519  1.00  0.00     0.180 C 
ATOM     26  C   UNL     1      -6.379  -5.247  19.536  1.00  0.00     0.179 C 
ATOM     27  C   UNL     1      -7.013  -6.624  19.320  1.00  0.00     0.177 C 
BRANCH  23  28
ATOM     28  O   UNL     1      -4.558  -8.341  21.069  1.00  0.00    -0.384 OA
ATOM     29  H   UNL     1      -3.626  -7.904  21.119  1.00  0.00     0.211 HD
ENDBRANCH  23  28
BRANCH  25  30
ATOM     30  O   UNL     1      -7.943  -7.398  21.353  1.00  0.00    -0.387 OA
ATOM     31  H   UNL     1      -8.561  -8.180  21.179  1.00  0.00     0.211 HD
ENDBRANCH  25  30
BRANCH  26  32
ATOM     32  C   UNL     1      -6.426  -4.333  18.273  1.00  0.00     0.191 C 
BRANCH  32  33
ATOM     33  O   UNL     1      -6.687  -3.015  18.631  1.00  0.00    -0.394 OA
ATOM     34  H   UNL     1      -6.104  -2.845  19.434  1.00  0.00     0.210 HD
ENDBRANCH  32  33
ENDBRANCH  26  32
BRANCH  27  35
ATOM     35  O   UNL     1      -6.444  -7.259  18.191  1.00  0.00    -0.387 OA
ATOM     36  H   UNL     1      -7.065  -7.988  17.956  1.00  0.00     0.211 HD
ENDBRANCH  27  35
ENDBRANCH  21  22
ENDBRANCH   2  21
BRANCH   5  37
ATOM     37  O   UNL     1      -5.202  -7.727  26.662  1.00  0.00    -0.461 OA
BRANCH  37  38
ATOM     38  C   UNL     1      -4.418  -8.968  26.726  1.00  0.00     0.339 C 
ATOM     39  C   UNL     1      -3.685  -9.125  28.059  1.00  0.00     0.214 C 
ATOM     40  O   UNL     1      -3.524  -9.124  25.638  1.00  0.00    -0.332 OA
ATOM     41  C   UNL     1      -2.526  -8.128  28.164  1.00  0.00     0.180 C 
ATOM     42  C   UNL     1      -2.502  -8.167  25.556  1.00  0.00     0.179 C 
ATOM     43  C   UNL     1      -1.664  -8.103  26.849  1.00  0.00     0.177 C 
BRANCH  39  44
ATOM     44  O   UNL     1      -4.563  -8.901  29.121  1.00  0.00    -0.384 OA
ATOM     45  H   UNL     1      -4.086  -8.383  29.803  1.00  0.00     0.211 HD
ENDBRANCH  39  44
BRANCH  41  46
ATOM     46  O   UNL     1      -2.974  -6.889  28.630  1.00  0.00    -0.387 OA
ATOM     47  H   UNL     1      -2.246  -6.201  28.452  1.00  0.00     0.211 HD
ENDBRANCH  41  46
BRANCH  42  48
ATOM     48  C   UNL     1      -3.026  -6.816  25.022  1.00  0.00     0.191 C 
BRANCH  48  49
ATOM     49  O   UNL     1      -3.299  -5.947  26.117  1.00  0.00    -0.394 OA
ATOM     50  H   UNL     1      -2.477  -5.414  26.290  1.00  0.00     0.210 HD
ENDBRANCH  48  49
ENDBRANCH  42  48
BRANCH  43  51
ATOM     51  O   UNL     1      -0.775  -7.017  26.750  1.00  0.00    -0.387 OA
ATOM     52  H   UNL     1      -0.409  -6.958  25.793  1.00  0.00     0.211 HD
ENDBRANCH  43  51
ENDBRANCH  37  38
ENDBRANCH   5  37
BRANCH   7  53
ATOM     53  O   UNL     1      -9.927  -8.768  27.558  1.00  0.00    -0.507 OA
ATOM     54  H   UNL     1     -10.044  -8.534  28.541  1.00  0.00     0.293 HD
ENDBRANCH   7  53
TORSDOF 18
ENDMDL
MODEL 5
REMARK VINA RESULT:    -4.580      2.180      8.229
REMARK INTER + INTRA:          -9.263
REMARK INTER:                  -6.351
REMARK INTRA:                  -2.912
REMARK UNBOUND:                -1.203
REMARK SMILES COc1cc(-c2[o+]c3cc(O)cc(O[C@H]4O[C@@H](CO)[C@@H](O)[C@@H](O)[C@H]4O)c3cc2O[C@@H]2O[C@@H](CO)[C@@H](O)[C@H](O)[C@H]2O)ccc1O
REMARK SMILES IDX 6 1 28 2 27 3 26 4 13 5 12 6 10 7 9 8 8 9 7 10 5 11 3 12
REMARK SMILES IDX 43 13 4 14 42 15 41 16 2 17 1 18 44 19 29 21 30 22 39 23
REMARK SMILES IDX 31 24 37 25 32 26 35 27 40 28 38 30 33 32 34 33 36 35 14 37
REMARK SMILES IDX 15 38 24 39 16 40 22 41 17 42 20 43 25 44 23 46 18 48 19 49
REMARK SMILES IDX 21 51 11 53
REMARK H PARENT 44 20 40 29 38 31 34 34 36 36 25 45 23 47 19 50 21 52 11 54
REMARK Flexibility Score: inf
ROOT
ATOM      1  C   UNL     1      -4.692   5.713  14.478  1.00  0.00     0.402 A 
ATOM      2  C   UNL     1      -3.916   6.853  14.673  1.00  0.00     0.229 A 
ATOM      3  C   UNL     1      -2.721   6.741  15.331  1.00  0.00     0.079 A 
ATOM      4  C   UNL     1      -2.264   5.511  15.901  1.00  0.00     0.126 A 
ATOM      5  C   UNL     1      -1.100   5.332  16.732  1.00  0.00     0.143 A 
ATOM      6  C   UNL     1      -0.767   3.994  17.107  1.00  0.00     0.094 A 
ATOM      7  C   UNL     1      -1.510   2.897  16.633  1.00  0.00     0.128 A 
ATOM      8  C   UNL     1      -2.639   3.085  15.887  1.00  0.00     0.162 A 
ATOM      9  C   UNL     1      -3.061   4.395  15.534  1.00  0.00     0.368 A 
ATOM     10  O   UNL     1      -4.190   4.527  14.858  1.00  0.00    -0.202 OA
ENDROOT
BRANCH   1  11
ATOM     11  C   UNL     1      -6.005   5.683  13.740  1.00  0.00     0.087 A 
ATOM     12  C   UNL     1      -8.417   6.017  13.799  1.00  0.00     0.161 A 
ATOM     13  C   UNL     1      -8.447   6.005  12.390  1.00  0.00     0.157 A 
ATOM     14  C   UNL     1      -7.197   5.841  14.451  1.00  0.00     0.068 A 
ATOM     15  C   UNL     1      -7.299   5.663  11.654  1.00  0.00     0.051 A 
ATOM     16  C   UNL     1      -6.094   5.486  12.339  1.00  0.00     0.022 A 
BRANCH  12  17
ATOM     17  O   UNL     1      -9.616   6.183  14.498  1.00  0.00    -0.493 OA
ATOM     18  C   UNL     1      -9.695   6.570  15.860  1.00  0.00     0.278 C 
ENDBRANCH  12  17
BRANCH  13  19
ATOM     19  O   UNL     1      -9.649   6.198  11.723  1.00  0.00    -0.504 OA
ATOM     20  H   UNL     1      -9.710   6.362  10.696  1.00  0.00     0.293 HD
ENDBRANCH  13  19
ENDBRANCH   1  11
BRANCH   2  21
ATOM     21  O   UNL     1      -4.157   8.053  14.012  1.00  0.00    -0.452 OA
BRANCH  21  22
ATOM     22  C   UNL     1      -3.202   9.075  13.672  1.00  0.00     0.339 C 
ATOM     23  C   UNL     1      -2.259   8.615  12.518  1.00  0.00     0.214 C 
ATOM     24  O   UNL     1      -3.895  10.256  13.277  1.00  0.00    -0.332 OA
ATOM     25  C   UNL     1      -2.968   8.652  11.106  1.00  0.00     0.180 C 
ATOM     26  C   UNL     1      -4.849   9.977  12.232  1.00  0.00     0.179 C 
ATOM     27  C   UNL     1      -4.103   9.676  10.929  1.00  0.00     0.177 C 
BRANCH  23  28
ATOM     28  O   UNL     1      -1.014   9.279  12.458  1.00  0.00    -0.384 OA
ATOM     29  H   UNL     1      -0.290   8.639  12.816  1.00  0.00     0.211 HD
ENDBRANCH  23  28
BRANCH  25  30
ATOM     30  O   UNL     1      -3.520   7.384  10.859  1.00  0.00    -0.387 OA
ATOM     31  H   UNL     1      -3.300   7.151   9.899  1.00  0.00     0.211 HD
ENDBRANCH  25  30
BRANCH  26  32
ATOM     32  C   UNL     1      -5.897  11.125  12.101  1.00  0.00     0.191 C 
BRANCH  32  33
ATOM     33  O   UNL     1      -6.479  11.115  10.838  1.00  0.00    -0.394 OA
ATOM     34  H   UNL     1      -6.873  12.034  10.727  1.00  0.00     0.210 HD
ENDBRANCH  32  33
ENDBRANCH  26  32
BRANCH  27  35
ATOM     35  O   UNL     1      -3.526  10.857  10.405  1.00  0.00    -0.387 OA
ATOM     36  H   UNL     1      -2.661  10.580  10.019  1.00  0.00     0.211 HD
ENDBRANCH  27  35
ENDBRANCH  21  22
ENDBRANCH   2  21
BRANCH   5  37
ATOM     37  O   UNL     1      -0.327   6.419  17.239  1.00  0.00    -0.461 OA
BRANCH  37  38
ATOM     38  C   UNL     1       1.094   6.380  17.609  1.00  0.00     0.339 C 
ATOM     39  C   UNL     1       1.358   7.024  18.971  1.00  0.00     0.214 C 
ATOM     40  O   UNL     1       1.948   6.925  16.620  1.00  0.00    -0.332 OA
ATOM     41  C   UNL     1       1.194   8.546  18.894  1.00  0.00     0.180 C 
ATOM     42  C   UNL     1       1.777   8.293  16.365  1.00  0.00     0.179 C 
ATOM     43  C   UNL     1       1.932   9.144  17.642  1.00  0.00     0.177 C 
BRANCH  39  44
ATOM     44  O   UNL     1       0.464   6.527  19.921  1.00  0.00    -0.384 OA
ATOM     45  H   UNL     1      -0.425   6.491  19.509  1.00  0.00     0.211 HD
ENDBRANCH  39  44
BRANCH  41  46
ATOM     46  O   UNL     1      -0.145   8.912  19.053  1.00  0.00    -0.387 OA
ATOM     47  H   UNL     1      -0.276   9.826  18.627  1.00  0.00     0.211 HD
ENDBRANCH  41  46
BRANCH  42  48
ATOM     48  C   UNL     1       0.512   8.564  15.522  1.00  0.00     0.191 C 
BRANCH  48  49
ATOM     49  O   UNL     1       0.706   9.736  14.737  1.00  0.00    -0.394 OA
ATOM     50  H   UNL     1      -0.151   9.931  14.271  1.00  0.00     0.210 HD
ENDBRANCH  48  49
ENDBRANCH  42  48
BRANCH  43  51
ATOM     51  O   UNL     1       1.587  10.473  17.335  1.00  0.00    -0.387 OA
ATOM     52  H   UNL     1       1.559  11.029  18.197  1.00  0.00     0.211 HD
ENDBRANCH  43  51
ENDBRANCH  37  38
ENDBRANCH   5  37
BRANCH   7  53
ATOM     53  O   UNL     1      -1.144   1.575  16.963  1.00  0.00    -0.507 OA
ATOM     54  H   UNL     1      -0.939   1.320  17.926  1.00  0.00     0.293 HD
ENDBRANCH   7  53
TORSDOF 18
ENDMDL
MODEL 6
REMARK VINA RESULT:    -4.404      2.234      8.439
REMARK INTER + INTRA:          -8.954
REMARK INTER:                  -6.391
REMARK INTRA:                  -2.563
REMARK UNBOUND:                -1.203
REMARK SMILES COc1cc(-c2[o+]c3cc(O)cc(O[C@H]4O[C@@H](CO)[C@@H](O)[C@@H](O)[C@H]4O)c3cc2O[C@@H]2O[C@@H](CO)[C@@H](O)[C@H](O)[C@H]2O)ccc1O
REMARK SMILES IDX 6 1 28 2 27 3 26 4 13 5 12 6 10 7 9 8 8 9 7 10 5 11 3 12
REMARK SMILES IDX 43 13 4 14 42 15 41 16 2 17 1 18 44 19 29 21 30 22 39 23
REMARK SMILES IDX 31 24 37 25 32 26 35 27 40 28 38 30 33 32 34 33 36 35 14 37
REMARK SMILES IDX 15 38 24 39 16 40 22 41 17 42 20 43 25 44 23 46 18 48 19 49
REMARK SMILES IDX 21 51 11 53
REMARK H PARENT 44 20 40 29 38 31 34 34 36 36 25 45 23 47 19 50 21 52 11 54
REMARK Flexibility Score: inf
ROOT
ATOM      1  C   UNL     1      -4.585   5.814  14.141  1.00  0.00     0.402 A 
ATOM      2  C   UNL     1      -3.714   6.898  14.214  1.00  0.00     0.229 A 
ATOM      3  C   UNL     1      -2.566   6.782  14.951  1.00  0.00     0.079 A 
ATOM      4  C   UNL     1      -2.254   5.616  15.718  1.00  0.00     0.126 A 
ATOM      5  C   UNL     1      -1.151   5.462  16.633  1.00  0.00     0.143 A 
ATOM      6  C   UNL     1      -0.963   4.171  17.216  1.00  0.00     0.094 A 
ATOM      7  C   UNL     1      -1.784   3.085  16.862  1.00  0.00     0.128 A 
ATOM      8  C   UNL     1      -2.856   3.257  16.032  1.00  0.00     0.162 A 
ATOM      9  C   UNL     1      -3.135   4.531  15.470  1.00  0.00     0.368 A 
ATOM     10  O   UNL     1      -4.215   4.658  14.716  1.00  0.00    -0.202 OA
ENDROOT
BRANCH   1  11
ATOM     11  C   UNL     1      -5.860   5.788  13.338  1.00  0.00     0.087 A 
ATOM     12  C   UNL     1      -8.069   6.733  12.940  1.00  0.00     0.161 A 
ATOM     13  C   UNL     1      -8.122   6.071  11.696  1.00  0.00     0.157 A 
ATOM     14  C   UNL     1      -6.944   6.568  13.748  1.00  0.00     0.068 A 
ATOM     15  C   UNL     1      -7.133   5.135  11.344  1.00  0.00     0.051 A 
ATOM     16  C   UNL     1      -6.021   4.990  12.178  1.00  0.00     0.022 A 
BRANCH  12  17
ATOM     17  O   UNL     1      -9.159   7.515  13.334  1.00  0.00    -0.493 OA
ATOM     18  C   UNL     1      -9.043   8.785  13.955  1.00  0.00     0.278 C 
ENDBRANCH  12  17
BRANCH  13  19
ATOM     19  O   UNL     1      -9.224   6.238  10.871  1.00  0.00    -0.504 OA
ATOM     20  H   UNL     1     -10.114   5.708  10.995  1.00  0.00     0.293 HD
ENDBRANCH  13  19
ENDBRANCH   1  11
BRANCH   2  21
ATOM     21  O   UNL     1      -3.810   8.003  13.374  1.00  0.00    -0.452 OA
BRANCH  21  22
ATOM     22  C   UNL     1      -3.972   8.006  11.943  1.00  0.00     0.339 C 
ATOM     23  C   UNL     1      -5.183   8.886  11.508  1.00  0.00     0.214 C 
ATOM     24  O   UNL     1      -2.782   8.500  11.335  1.00  0.00    -0.332 OA
ATOM     25  C   UNL     1      -4.868  10.433  11.587  1.00  0.00     0.180 C 
ATOM     26  C   UNL     1      -2.408   9.781  11.883  1.00  0.00     0.179 C 
ATOM     27  C   UNL     1      -3.397  10.848  11.406  1.00  0.00     0.177 C 
BRANCH  23  28
ATOM     28  O   UNL     1      -5.739   8.564  10.249  1.00  0.00    -0.384 OA
ATOM     29  H   UNL     1      -5.213   7.767   9.860  1.00  0.00     0.211 HD
ENDBRANCH  23  28
BRANCH  25  30
ATOM     30  O   UNL     1      -5.271  10.898  12.849  1.00  0.00    -0.387 OA
ATOM     31  H   UNL     1      -6.062  10.334  13.129  1.00  0.00     0.211 HD
ENDBRANCH  25  30
BRANCH  26  32
ATOM     32  C   UNL     1      -0.920  10.121  11.564  1.00  0.00     0.191 C 
BRANCH  32  33
ATOM     33  O   UNL     1      -0.063   9.309  12.300  1.00  0.00    -0.394 OA
ATOM     34  H   UNL     1      -0.426   9.334  13.239  1.00  0.00     0.210 HD
ENDBRANCH  32  33
ENDBRANCH  26  32
BRANCH  27  35
ATOM     35  O   UNL     1      -3.204  11.121  10.030  1.00  0.00    -0.387 OA
ATOM     36  H   UNL     1      -4.106  11.122   9.632  1.00  0.00     0.211 HD
ENDBRANCH  27  35
ENDBRANCH  21  22
ENDBRANCH   2  21
BRANCH   5  37
ATOM     37  O   UNL     1      -0.303   6.542  17.023  1.00  0.00    -0.461 OA
BRANCH  37  38
ATOM     38  C   UNL     1       1.104   6.439  17.435  1.00  0.00     0.339 C 
ATOM     39  C   UNL     1       1.336   6.978  18.847  1.00  0.00     0.214 C 
ATOM     40  O   UNL     1       2.004   7.031  16.516  1.00  0.00    -0.332 OA
ATOM     41  C   UNL     1       1.211   8.504  18.875  1.00  0.00     0.180 C 
ATOM     42  C   UNL     1       1.875   8.418  16.355  1.00  0.00     0.179 C 
ATOM     43  C   UNL     1       2.006   9.171  17.694  1.00  0.00     0.177 C 
BRANCH  39  44
ATOM     44  O   UNL     1       0.399   6.437  19.729  1.00  0.00    -0.384 OA
ATOM     45  H   UNL     1       0.540   6.847  20.609  1.00  0.00     0.211 HD
ENDBRANCH  39  44
BRANCH  41  46
ATOM     46  O   UNL     1      -0.124   8.893  19.017  1.00  0.00    -0.387 OA
ATOM     47  H   UNL     1      -0.484   8.482  19.875  1.00  0.00     0.211 HD
ENDBRANCH  41  46
BRANCH  42  48
ATOM     48  C   UNL     1       0.645   8.781  15.492  1.00  0.00     0.191 C 
BRANCH  48  49
ATOM     49  O   UNL     1       0.820  10.081  14.939  1.00  0.00    -0.394 OA
ATOM     50  H   UNL     1      -0.042  10.349  14.522  1.00  0.00     0.210 HD
ENDBRANCH  48  49
ENDBRANCH  42  48
BRANCH  43  51
ATOM     51  O   UNL     1       1.702  10.527  17.473  1.00  0.00    -0.387 OA
ATOM     52  H   UNL     1       0.700  10.686  17.627  1.00  0.00     0.211 HD
ENDBRANCH  43  51
ENDBRANCH  37  38
ENDBRANCH   5  37
BRANCH   7  53
ATOM     53  O   UNL     1      -1.561   1.799  17.401  1.00  0.00    -0.507 OA
ATOM     54  H   UNL     1      -1.549   1.655  18.408  1.00  0.00     0.293 HD
ENDBRANCH   7  53
TORSDOF 18
ENDMDL
MODEL 7
REMARK VINA RESULT:    -3.855      2.499      7.526
REMARK INTER + INTRA:          -7.988
REMARK INTER:                  -5.991
REMARK INTRA:                  -1.997
REMARK UNBOUND:                -1.203
REMARK SMILES COc1cc(-c2[o+]c3cc(O)cc(O[C@H]4O[C@@H](CO)[C@@H](O)[C@@H](O)[C@H]4O)c3cc2O[C@@H]2O[C@@H](CO)[C@@H](O)[C@H](O)[C@H]2O)ccc1O
REMARK SMILES IDX 6 1 28 2 27 3 26 4 13 5 12 6 10 7 9 8 8 9 7 10 5 11 3 12
REMARK SMILES IDX 43 13 4 14 42 15 41 16 2 17 1 18 44 19 29 21 30 22 39 23
REMARK SMILES IDX 31 24 37 25 32 26 35 27 40 28 38 30 33 32 34 33 36 35 14 37
REMARK SMILES IDX 15 38 24 39 16 40 22 41 17 42 20 43 25 44 23 46 18 48 19 49
REMARK SMILES IDX 21 51 11 53
REMARK H PARENT 44 20 40 29 38 31 34 34 36 36 25 45 23 47 19 50 21 52 11 54
REMARK Flexibility Score: inf
ROOT
ATOM      1  C   UNL     1      -4.138   7.418  12.888  1.00  0.00     0.402 A 
ATOM      2  C   UNL     1      -3.858   7.220  14.238  1.00  0.00     0.229 A 
ATOM      3  C   UNL     1      -2.749   7.809  14.782  1.00  0.00     0.079 A 
ATOM      4  C   UNL     1      -1.814   8.563  14.005  1.00  0.00     0.126 A 
ATOM      5  C   UNL     1      -0.552   9.091  14.459  1.00  0.00     0.143 A 
ATOM      6  C   UNL     1       0.179   9.910  13.543  1.00  0.00     0.094 A 
ATOM      7  C   UNL     1      -0.343  10.233  12.278  1.00  0.00     0.128 A 
ATOM      8  C   UNL     1      -1.517   9.685  11.842  1.00  0.00     0.162 A 
ATOM      9  C   UNL     1      -2.260   8.812  12.681  1.00  0.00     0.368 A 
ATOM     10  O   UNL     1      -3.361   8.265  12.193  1.00  0.00    -0.202 OA
ENDROOT
BRANCH   1  11
ATOM     11  C   UNL     1      -5.341   6.864  12.169  1.00  0.00     0.087 A 
ATOM     12  C   UNL     1      -7.689   6.227  12.259  1.00  0.00     0.161 A 
ATOM     13  C   UNL     1      -7.725   6.182  10.850  1.00  0.00     0.157 A 
ATOM     14  C   UNL     1      -6.492   6.553  12.895  1.00  0.00     0.068 A 
ATOM     15  C   UNL     1      -6.541   6.306  10.102  1.00  0.00     0.051 A 
ATOM     16  C   UNL     1      -5.357   6.627  10.771  1.00  0.00     0.022 A 
BRANCH  12  17
ATOM     17  O   UNL     1      -8.851   5.920  12.973  1.00  0.00    -0.493 OA
ATOM     18  C   UNL     1      -9.833   6.874  13.343  1.00  0.00     0.278 C 
ENDBRANCH  12  17
BRANCH  13  19
ATOM     19  O   UNL     1      -8.912   5.877  10.199  1.00  0.00    -0.504 OA
ATOM     20  H   UNL     1      -9.492   6.591   9.709  1.00  0.00     0.293 HD
ENDBRANCH  13  19
ENDBRANCH   1  11
BRANCH   2  21
ATOM     21  O   UNL     1      -4.777   6.672  15.127  1.00  0.00    -0.452 OA
BRANCH  21  22
ATOM     22  C   UNL     1      -4.571   6.352  16.515  1.00  0.00     0.339 C 
ATOM     23  C   UNL     1      -5.811   5.629  17.124  1.00  0.00     0.214 C 
ATOM     24  O   UNL     1      -3.424   5.515  16.641  1.00  0.00    -0.332 OA
ATOM     25  C   UNL     1      -5.912   4.116  16.675  1.00  0.00     0.180 C 
ATOM     26  C   UNL     1      -3.523   4.360  15.783  1.00  0.00     0.179 C 
ATOM     27  C   UNL     1      -4.589   3.408  16.331  1.00  0.00     0.177 C 
BRANCH  23  28
ATOM     28  O   UNL     1      -5.938   5.731  18.527  1.00  0.00    -0.384 OA
ATOM     29  H   UNL     1      -5.210   5.144  18.960  1.00  0.00     0.211 HD
ENDBRANCH  23  28
BRANCH  25  30
ATOM     30  O   UNL     1      -6.719   4.053  15.527  1.00  0.00    -0.387 OA
ATOM     31  H   UNL     1      -7.039   4.995  15.342  1.00  0.00     0.211 HD
ENDBRANCH  25  30
BRANCH  26  32
ATOM     32  C   UNL     1      -2.131   3.687  15.577  1.00  0.00     0.191 C 
BRANCH  32  33
ATOM     33  O   UNL     1      -1.239   4.577  14.990  1.00  0.00    -0.394 OA
ATOM     34  H   UNL     1      -1.195   5.356  15.625  1.00  0.00     0.210 HD
ENDBRANCH  32  33
ENDBRANCH  26  32
BRANCH  27  35
ATOM     35  O   UNL     1      -4.131   2.779  17.513  1.00  0.00    -0.387 OA
ATOM     36  H   UNL     1      -4.201   3.462  18.221  1.00  0.00     0.211 HD
ENDBRANCH  27  35
ENDBRANCH  21  22
ENDBRANCH   2  21
BRANCH   5  37
ATOM     37  O   UNL     1       0.014   8.778  15.731  1.00  0.00    -0.461 OA
BRANCH  37  38
ATOM     38  C   UNL     1       1.098   7.821  15.990  1.00  0.00     0.339 C 
ATOM     39  C   UNL     1       0.808   6.927  17.197  1.00  0.00     0.214 C 
ATOM     40  O   UNL     1       2.370   8.431  16.110  1.00  0.00    -0.332 OA
ATOM     41  C   UNL     1       0.904   7.725  18.502  1.00  0.00     0.180 C 
ATOM     42  C   UNL     1       2.520   9.303  17.198  1.00  0.00     0.179 C 
ATOM     43  C   UNL     1       2.200   8.615  18.540  1.00  0.00     0.177 C 
BRANCH  39  44
ATOM     44  O   UNL     1      -0.476   6.387  17.099  1.00  0.00    -0.384 OA
ATOM     45  H   UNL     1      -0.620   6.121  16.167  1.00  0.00     0.211 HD
ENDBRANCH  39  44
BRANCH  41  46
ATOM     46  O   UNL     1      -0.300   8.378  18.778  1.00  0.00    -0.387 OA
ATOM     47  H   UNL     1      -0.490   9.027  18.017  1.00  0.00     0.211 HD
ENDBRANCH  41  46
BRANCH  42  48
ATOM     48  C   UNL     1       1.817  10.656  16.946  1.00  0.00     0.191 C 
BRANCH  48  49
ATOM     49  O   UNL     1       2.144  11.125  15.642  1.00  0.00    -0.394 OA
ATOM     50  H   UNL     1       2.119  10.343  15.027  1.00  0.00     0.210 HD
ENDBRANCH  48  49
ENDBRANCH  42  48
BRANCH  43  51
ATOM     51  O   UNL     1       2.213   9.591  19.554  1.00  0.00    -0.387 OA
ATOM     52  H   UNL     1       2.146  10.525  19.134  1.00  0.00     0.211 HD
ENDBRANCH  43  51
ENDBRANCH  37  38
ENDBRANCH   5  37
BRANCH   7  53
ATOM     53  O   UNL     1       0.360  11.085  11.398  1.00  0.00    -0.507 OA
ATOM     54  H   UNL     1       0.146  11.092  10.404  1.00  0.00     0.293 HD
ENDBRANCH   7  53
TORSDOF 18
ENDMDL
MODEL 8
REMARK VINA RESULT:    -3.432      1.650      7.521
REMARK INTER + INTRA:          -7.243
REMARK INTER:                  -6.609
REMARK INTRA:                  -0.633
REMARK UNBOUND:                -1.203
REMARK SMILES COc1cc(-c2[o+]c3cc(O)cc(O[C@H]4O[C@@H](CO)[C@@H](O)[C@@H](O)[C@H]4O)c3cc2O[C@@H]2O[C@@H](CO)[C@@H](O)[C@H](O)[C@H]2O)ccc1O
REMARK SMILES IDX 6 1 28 2 27 3 26 4 13 5 12 6 10 7 9 8 8 9 7 10 5 11 3 12
REMARK SMILES IDX 43 13 4 14 42 15 41 16 2 17 1 18 44 19 29 21 30 22 39 23
REMARK SMILES IDX 31 24 37 25 32 26 35 27 40 28 38 30 33 32 34 33 36 35 14 37
REMARK SMILES IDX 15 38 24 39 16 40 22 41 17 42 20 43 25 44 23 46 18 48 19 49
REMARK SMILES IDX 21 51 11 53
REMARK H PARENT 44 20 40 29 38 31 34 34 36 36 25 45 23 47 19 50 21 52 11 54
REMARK Flexibility Score: inf
ROOT
ATOM      1  C   UNL     1      -5.497   8.750  12.403  1.00  0.00     0.402 A 
ATOM      2  C   UNL     1      -5.569   7.657  13.263  1.00  0.00     0.229 A 
ATOM      3  C   UNL     1      -4.456   7.290  13.970  1.00  0.00     0.079 A 
ATOM      4  C   UNL     1      -3.190   7.935  13.808  1.00  0.00     0.126 A 
ATOM      5  C   UNL     1      -1.938   7.526  14.395  1.00  0.00     0.143 A 
ATOM      6  C   UNL     1      -0.811   8.379  14.187  1.00  0.00     0.094 A 
ATOM      7  C   UNL     1      -0.936   9.596  13.492  1.00  0.00     0.128 A 
ATOM      8  C   UNL     1      -2.116   9.947  12.899  1.00  0.00     0.162 A 
ATOM      9  C   UNL     1      -3.258   9.110  13.014  1.00  0.00     0.368 A 
ATOM     10  O   UNL     1      -4.361   9.467  12.376  1.00  0.00    -0.202 OA
ENDROOT
BRANCH   1  11
ATOM     11  C   UNL     1      -6.650   9.287  11.596  1.00  0.00     0.087 A 
ATOM     12  C   UNL     1      -8.946   9.006  10.833  1.00  0.00     0.161 A 
ATOM     13  C   UNL     1      -8.969  10.355  10.423  1.00  0.00     0.157 A 
ATOM     14  C   UNL     1      -7.781   8.491  11.400  1.00  0.00     0.068 A 
ATOM     15  C   UNL     1      -7.792  11.125  10.436  1.00  0.00     0.051 A 
ATOM     16  C   UNL     1      -6.639  10.576  11.005  1.00  0.00     0.022 A 
BRANCH  12  17
ATOM     17  O   UNL     1     -10.087   8.223  10.637  1.00  0.00    -0.493 OA
ATOM     18  C   UNL     1     -10.057   6.855  10.265  1.00  0.00     0.278 C 
ENDBRANCH  12  17
BRANCH  13  19
ATOM     19  O   UNL     1     -10.125  10.891   9.875  1.00  0.00    -0.504 OA
ATOM     20  H   UNL     1     -11.004  10.344   9.752  1.00  0.00     0.293 HD
ENDBRANCH  13  19
ENDBRANCH   1  11
BRANCH   2  21
ATOM     21  O   UNL     1      -6.774   7.074  13.643  1.00  0.00    -0.452 OA
BRANCH  21  22
ATOM     22  C   UNL     1      -7.811   7.653  14.457  1.00  0.00     0.339 C 
ATOM     23  C   UNL     1      -8.364   6.626  15.492  1.00  0.00     0.214 C 
ATOM     24  O   UNL     1      -7.292   8.788  15.145  1.00  0.00    -0.332 OA
ATOM     25  C   UNL     1      -7.380   6.401  16.709  1.00  0.00     0.180 C 
ATOM     26  C   UNL     1      -6.094   8.454  15.876  1.00  0.00     0.179 C 
ATOM     27  C   UNL     1      -6.457   7.576  17.077  1.00  0.00     0.177 C 
BRANCH  23  28
ATOM     28  O   UNL     1      -9.670   6.890  15.962  1.00  0.00    -0.384 OA
ATOM     29  H   UNL     1      -9.646   7.766  16.503  1.00  0.00     0.211 HD
ENDBRANCH  23  28
BRANCH  25  30
ATOM     30  O   UNL     1      -6.550   5.310  16.405  1.00  0.00    -0.387 OA
ATOM     31  H   UNL     1      -7.118   4.642  15.900  1.00  0.00     0.211 HD
ENDBRANCH  25  30
BRANCH  26  32
ATOM     32  C   UNL     1      -5.288   9.733  16.258  1.00  0.00     0.191 C 
BRANCH  32  33
ATOM     33  O   UNL     1      -5.443  10.718  15.288  1.00  0.00    -0.394 OA
ATOM     34  H   UNL     1      -6.317  10.502  14.837  1.00  0.00     0.210 HD
ENDBRANCH  32  33
ENDBRANCH  26  32
BRANCH  27  35
ATOM     35  O   UNL     1      -7.123   8.341  18.064  1.00  0.00    -0.387 OA
ATOM     36  H   UNL     1      -6.855   9.276  17.900  1.00  0.00     0.211 HD
ENDBRANCH  27  35
ENDBRANCH  21  22
ENDBRANCH   2  21
BRANCH   5  37
ATOM     37  O   UNL     1      -1.771   6.295  15.098  1.00  0.00    -0.461 OA
BRANCH  37  38
ATOM     38  C   UNL     1      -2.013   6.071  16.530  1.00  0.00     0.339 C 
ATOM     39  C   UNL     1      -0.838   5.373  17.216  1.00  0.00     0.214 C 
ATOM     40  O   UNL     1      -3.227   5.391  16.795  1.00  0.00    -0.332 OA
ATOM     41  C   UNL     1      -0.744   3.908  16.779  1.00  0.00     0.180 C 
ATOM     42  C   UNL     1      -3.302   4.080  16.304  1.00  0.00     0.179 C 
ATOM     43  C   UNL     1      -2.147   3.200  16.823  1.00  0.00     0.177 C 
BRANCH  39  44
ATOM     44  O   UNL     1       0.359   6.014  16.891  1.00  0.00    -0.384 OA
ATOM     45  H   UNL     1       0.148   6.761  16.291  1.00  0.00     0.211 HD
ENDBRANCH  39  44
BRANCH  41  46
ATOM     46  O   UNL     1      -0.031   3.790  15.582  1.00  0.00    -0.387 OA
ATOM     47  H   UNL     1      -0.002   4.705  15.139  1.00  0.00     0.211 HD
ENDBRANCH  41  46
BRANCH  42  48
ATOM     48  C   UNL     1      -3.540   4.054  14.778  1.00  0.00     0.191 C 
BRANCH  48  49
ATOM     49  O   UNL     1      -4.906   3.749  14.515  1.00  0.00    -0.394 OA
ATOM     50  H   UNL     1      -4.971   3.453  13.568  1.00  0.00     0.210 HD
ENDBRANCH  48  49
ENDBRANCH  42  48
BRANCH  43  51
ATOM     51  O   UNL     1      -2.201   1.960  16.161  1.00  0.00    -0.387 OA
ATOM     52  H   UNL     1      -2.975   1.962  15.487  1.00  0.00     0.211 HD
ENDBRANCH  43  51
ENDBRANCH  37  38
ENDBRANCH   5  37
BRANCH   7  53
ATOM     53  O   UNL     1       0.169  10.460  13.336  1.00  0.00    -0.507 OA
ATOM     54  H   UNL     1       0.956  10.193  12.750  1.00  0.00     0.293 HD
ENDBRANCH   7  53
TORSDOF 18
ENDMDL
