MODEL 1
REMARK VINA RESULT:    -8.665      0.000      0.000
REMARK INTER + INTRA:         -10.247
REMARK INTER:                 -10.438
REMARK INTRA:                   0.191
REMARK UNBOUND:                 0.191
REMARK SMILES O=c1c(O)c(-c2ccc(O)c(O)c2)oc2cc(O)cc(O)c12
REMARK SMILES IDX 5 1 3 2 2 3 1 4 22 5 20 6 19 7 17 8 16 9 15 10 14 11 6 12
REMARK SMILES IDX 7 13 8 14 9 15 13 16 11 17 10 18 12 20 4 22 21 24 18 26
REMARK H PARENT 10 19 12 21 4 23 21 25 18 27
REMARK Flexibility Score: inf
ROOT
ATOM      1  C   UNL     1     129.361 125.601 127.387  1.00  0.00     0.180 A 
ATOM      2  C   UNL     1     130.478 126.454 127.393  1.00  0.00     0.208 A 
ATOM      3  C   UNL     1     130.701 127.293 126.290  1.00  0.00     0.238 A 
ATOM      4  O   UNL     1     131.672 128.093 126.325  1.00  0.00    -0.285 OA
ATOM      5  C   UNL     1     129.813 127.259 125.188  1.00  0.00     0.111 A 
ATOM      6  C   UNL     1     129.965 128.036 124.001  1.00  0.00     0.134 A 
ATOM      7  C   UNL     1     128.955 128.017 123.030  1.00  0.00     0.093 A 
ATOM      8  C   UNL     1     127.831 127.200 123.175  1.00  0.00     0.123 A 
ATOM      9  C   UNL     1     127.704 126.393 124.302  1.00  0.00     0.094 A 
ATOM     10  C   UNL     1     128.676 126.416 125.304  1.00  0.00     0.146 A 
ATOM     11  O   UNL     1     128.510 125.639 126.368  1.00  0.00    -0.452 OA
ENDROOT
BRANCH   1  12
ATOM     12  C   UNL     1     129.074 124.670 128.502  1.00  0.00     0.025 A 
ATOM     13  C   UNL     1     128.566 123.379 128.264  1.00  0.00     0.016 A 
ATOM     14  C   UNL     1     128.279 122.526 129.333  1.00  0.00     0.051 A 
ATOM     15  C   UNL     1     128.481 122.953 130.652  1.00  0.00     0.157 A 
ATOM     16  C   UNL     1     129.255 125.099 129.827  1.00  0.00     0.062 A 
ATOM     17  C   UNL     1     128.967 124.243 130.899  1.00  0.00     0.158 A 
BRANCH  15  18
ATOM     18  O   UNL     1     128.198 122.104 131.721  1.00  0.00    -0.504 OA
ATOM     19  H   UNL     1     127.305 122.134 132.199  1.00  0.00     0.293 HD
ENDBRANCH  15  18
BRANCH  17  20
ATOM     20  O   UNL     1     129.160 124.668 132.212  1.00  0.00    -0.504 OA
ATOM     21  H   UNL     1     128.536 124.384 132.959  1.00  0.00     0.293 HD
ENDBRANCH  17  20
ENDBRANCH   1  12
BRANCH   2  22
ATOM     22  O   UNL     1     131.330 126.488 128.500  1.00  0.00    -0.502 OA
ATOM     23  H   UNL     1     131.152 127.076 129.307  1.00  0.00     0.293 HD
ENDBRANCH   2  22
BRANCH   6  24
ATOM     24  O   UNL     1     131.090 128.814 123.716  1.00  0.00    -0.507 OA
ATOM     25  H   UNL     1     131.768 129.115 124.399  1.00  0.00     0.293 HD
ENDBRANCH   6  24
BRANCH   8  26
ATOM     26  O   UNL     1     126.839 127.176 122.197  1.00  0.00    -0.508 OA
ATOM     27  H   UNL     1     125.922 126.789 122.382  1.00  0.00     0.293 HD
ENDBRANCH   8  26
TORSDOF 6
ENDMDL
MODEL 2
REMARK VINA RESULT:    -6.996     12.858     13.730
REMARK INTER + INTRA:          -8.236
REMARK INTER:                  -8.000
REMARK INTRA:                  -0.236
REMARK UNBOUND:                 0.191
REMARK SMILES O=c1c(O)c(-c2ccc(O)c(O)c2)oc2cc(O)cc(O)c12
REMARK SMILES IDX 5 1 3 2 2 3 1 4 22 5 20 6 19 7 17 8 16 9 15 10 14 11 6 12
REMARK SMILES IDX 7 13 8 14 9 15 13 16 11 17 10 18 12 20 4 22 21 24 18 26
REMARK H PARENT 10 19 12 21 4 23 21 25 18 27
REMARK Flexibility Score: inf
ROOT
ATOM      1  C   UNL     1     116.802 128.684 130.405  1.00  0.00     0.180 A 
ATOM      2  C   UNL     1     116.239 129.495 131.404  1.00  0.00     0.208 A 
ATOM      3  C   UNL     1     115.352 130.518 131.031  1.00  0.00     0.238 A 
ATOM      4  O   UNL     1     114.810 131.207 131.935  1.00  0.00    -0.285 OA
ATOM      5  C   UNL     1     115.052 130.728 129.664  1.00  0.00     0.111 A 
ATOM      6  C   UNL     1     114.200 131.760 129.170  1.00  0.00     0.134 A 
ATOM      7  C   UNL     1     113.871 131.791 127.809  1.00  0.00     0.093 A 
ATOM      8  C   UNL     1     114.416 130.867 126.914  1.00  0.00     0.123 A 
ATOM      9  C   UNL     1     115.297 129.893 127.378  1.00  0.00     0.094 A 
ATOM     10  C   UNL     1     115.615 129.813 128.735  1.00  0.00     0.146 A 
ATOM     11  O   UNL     1     116.450 128.862 129.136  1.00  0.00    -0.452 OA
ENDROOT
BRANCH   1  12
ATOM     12  C   UNL     1     117.763 127.601 130.717  1.00  0.00     0.025 A 
ATOM     13  C   UNL     1     117.347 126.411 131.341  1.00  0.00     0.016 A 
ATOM     14  C   UNL     1     118.275 125.413 131.648  1.00  0.00     0.051 A 
ATOM     15  C   UNL     1     119.632 125.594 131.348  1.00  0.00     0.157 A 
ATOM     16  C   UNL     1     119.128 127.785 130.437  1.00  0.00     0.062 A 
ATOM     17  C   UNL     1     120.059 126.784 130.745  1.00  0.00     0.158 A 
BRANCH  15  18
ATOM     18  O   UNL     1     120.561 124.599 131.651  1.00  0.00    -0.504 OA
ATOM     19  H   UNL     1     120.606 123.737 131.119  1.00  0.00     0.293 HD
ENDBRANCH  15  18
BRANCH  17  20
ATOM     20  O   UNL     1     121.410 126.963 130.455  1.00  0.00    -0.504 OA
ATOM     21  H   UNL     1     122.118 126.932 131.181  1.00  0.00     0.293 HD
ENDBRANCH  17  20
ENDBRANCH   1  12
BRANCH   2  22
ATOM     22  O   UNL     1     116.531 129.258 132.750  1.00  0.00    -0.502 OA
ATOM     23  H   UNL     1     115.973 129.640 133.504  1.00  0.00     0.293 HD
ENDBRANCH   2  22
BRANCH   6  24
ATOM     24  O   UNL     1     113.677 132.785 129.962  1.00  0.00    -0.507 OA
ATOM     25  H   UNL     1     113.778 132.847 130.963  1.00  0.00     0.293 HD
ENDBRANCH   6  24
BRANCH   8  26
ATOM     26  O   UNL     1     114.096 130.915 125.559  1.00  0.00    -0.508 OA
ATOM     27  H   UNL     1     113.135 130.974 125.243  1.00  0.00     0.293 HD
ENDBRANCH   8  26
TORSDOF 6
ENDMDL
MODEL 3
REMARK VINA RESULT:    -6.894      9.918     11.322
REMARK INTER + INTRA:          -8.113
REMARK INTER:                  -7.847
REMARK INTRA:                  -0.266
REMARK UNBOUND:                 0.191
REMARK SMILES O=c1c(O)c(-c2ccc(O)c(O)c2)oc2cc(O)cc(O)c12
REMARK SMILES IDX 5 1 3 2 2 3 1 4 22 5 20 6 19 7 17 8 16 9 15 10 14 11 6 12
REMARK SMILES IDX 7 13 8 14 9 15 13 16 11 17 10 18 12 20 4 22 21 24 18 26
REMARK H PARENT 10 19 12 21 4 23 21 25 18 27
REMARK Flexibility Score: inf
ROOT
ATOM      1  C   UNL     1     119.795 126.465 133.258  1.00  0.00     0.180 A 
ATOM      2  C   UNL     1     120.458 127.387 134.087  1.00  0.00     0.208 A 
ATOM      3  C   UNL     1     121.359 128.296 133.510  1.00  0.00     0.238 A 
ATOM      4  O   UNL     1     121.908 129.153 134.249  1.00  0.00    -0.285 OA
ATOM      5  C   UNL     1     121.599 128.262 132.115  1.00  0.00     0.111 A 
ATOM      6  C   UNL     1     122.522 129.108 131.431  1.00  0.00     0.134 A 
ATOM      7  C   UNL     1     122.582 129.075 130.032  1.00  0.00     0.093 A 
ATOM      8  C   UNL     1     121.799 128.180 129.298  1.00  0.00     0.123 A 
ATOM      9  C   UNL     1     120.940 127.309 129.962  1.00  0.00     0.094 A 
ATOM     10  C   UNL     1     120.831 127.342 131.354  1.00  0.00     0.146 A 
ATOM     11  O   UNL     1     119.991 126.501 131.945  1.00  0.00    -0.452 OA
ENDROOT
BRANCH   1  12
ATOM     12  C   UNL     1     118.849 125.460 133.795  1.00  0.00     0.025 A 
ATOM     13  C   UNL     1     119.302 124.342 134.519  1.00  0.00     0.016 A 
ATOM     14  C   UNL     1     118.394 123.394 134.995  1.00  0.00     0.051 A 
ATOM     15  C   UNL     1     117.023 123.541 134.745  1.00  0.00     0.157 A 
ATOM     16  C   UNL     1     117.475 125.591 133.530  1.00  0.00     0.062 A 
ATOM     17  C   UNL     1     116.564 124.640 134.008  1.00  0.00     0.158 A 
BRANCH  15  18
ATOM     18  O   UNL     1     116.113 122.598 135.221  1.00  0.00    -0.504 OA
ATOM     19  H   UNL     1     115.120 122.676 135.029  1.00  0.00     0.293 HD
ENDBRANCH  15  18
BRANCH  17  20
ATOM     20  O   UNL     1     115.201 124.779 133.755  1.00  0.00    -0.504 OA
ATOM     21  H   UNL     1     114.573 125.189 134.438  1.00  0.00     0.293 HD
ENDBRANCH  17  20
ENDBRANCH   1  12
BRANCH   2  22
ATOM     22  O   UNL     1     120.190 127.418 135.458  1.00  0.00    -0.502 OA
ATOM     23  H   UNL     1     119.249 127.365 135.831  1.00  0.00     0.293 HD
ENDBRANCH   2  22
BRANCH   6  24
ATOM     24  O   UNL     1     123.413 129.971 132.074  1.00  0.00    -0.507 OA
ATOM     25  H   UNL     1     124.308 129.697 132.450  1.00  0.00     0.293 HD
ENDBRANCH   6  24
BRANCH   8  26
ATOM     26  O   UNL     1     121.876 128.144 127.908  1.00  0.00    -0.508 OA
ATOM     27  H   UNL     1     122.602 127.622 127.431  1.00  0.00     0.293 HD
ENDBRANCH   8  26
TORSDOF 6
ENDMDL
MODEL 4
REMARK VINA RESULT:    -6.869     11.820     14.036
REMARK INTER + INTRA:          -8.083
REMARK INTER:                  -7.850
REMARK INTRA:                  -0.232
REMARK UNBOUND:                 0.191
REMARK SMILES O=c1c(O)c(-c2ccc(O)c(O)c2)oc2cc(O)cc(O)c12
REMARK SMILES IDX 5 1 3 2 2 3 1 4 22 5 20 6 19 7 17 8 16 9 15 10 14 11 6 12
REMARK SMILES IDX 7 13 8 14 9 15 13 16 11 17 10 18 12 20 4 22 21 24 18 26
REMARK H PARENT 10 19 12 21 4 23 21 25 18 27
REMARK Flexibility Score: inf
ROOT
ATOM      1  C   UNL     1     117.143 128.231 130.069  1.00  0.00     0.180 A 
ATOM      2  C   UNL     1     116.438 127.214 130.735  1.00  0.00     0.208 A 
ATOM      3  C   UNL     1     117.155 126.263 131.478  1.00  0.00     0.238 A 
ATOM      4  O   UNL     1     116.515 125.387 132.116  1.00  0.00    -0.285 OA
ATOM      5  C   UNL     1     118.568 126.331 131.534  1.00  0.00     0.111 A 
ATOM      6  C   UNL     1     119.397 125.396 132.222  1.00  0.00     0.134 A 
ATOM      7  C   UNL     1     120.774 125.636 132.319  1.00  0.00     0.093 A 
ATOM      8  C   UNL     1     121.359 126.741 131.696  1.00  0.00     0.123 A 
ATOM      9  C   UNL     1     120.565 127.626 130.971  1.00  0.00     0.094 A 
ATOM     10  C   UNL     1     119.184 127.434 130.887  1.00  0.00     0.146 A 
ATOM     11  O   UNL     1     118.463 128.308 130.194  1.00  0.00    -0.452 OA
ENDROOT
BRANCH   1  12
ATOM     12  C   UNL     1     116.459 129.256 129.246  1.00  0.00     0.025 A 
ATOM     13  C   UNL     1     116.574 129.263 127.844  1.00  0.00     0.016 A 
ATOM     14  C   UNL     1     115.940 130.253 127.090  1.00  0.00     0.051 A 
ATOM     15  C   UNL     1     115.195 131.257 127.724  1.00  0.00     0.157 A 
ATOM     16  C   UNL     1     115.728 130.276 129.877  1.00  0.00     0.062 A 
ATOM     17  C   UNL     1     115.093 131.270 129.121  1.00  0.00     0.158 A 
BRANCH  15  18
ATOM     18  O   UNL     1     114.560 132.246 126.974  1.00  0.00    -0.504 OA
ATOM     19  H   UNL     1     114.017 132.979 127.416  1.00  0.00     0.293 HD
ENDBRANCH  15  18
BRANCH  17  20
ATOM     20  O   UNL     1     114.358 132.273 129.748  1.00  0.00    -0.504 OA
ATOM     21  H   UNL     1     114.749 133.194 129.915  1.00  0.00     0.293 HD
ENDBRANCH  17  20
ENDBRANCH   1  12
BRANCH   2  22
ATOM     22  O   UNL     1     115.042 127.178 130.685  1.00  0.00    -0.502 OA
ATOM     23  H   UNL     1     114.461 127.466 131.464  1.00  0.00     0.293 HD
ENDBRANCH   2  22
BRANCH   6  24
ATOM     24  O   UNL     1     118.928 124.214 132.801  1.00  0.00    -0.507 OA
ATOM     25  H   UNL     1     118.011 123.824 132.647  1.00  0.00     0.293 HD
ENDBRANCH   6  24
BRANCH   8  26
ATOM     26  O   UNL     1     122.731 126.964 131.784  1.00  0.00    -0.508 OA
ATOM     27  H   UNL     1     123.282 126.581 132.543  1.00  0.00     0.293 HD
ENDBRANCH   8  26
TORSDOF 6
ENDMDL
MODEL 5
REMARK VINA RESULT:    -6.775     12.382     14.650
REMARK INTER + INTRA:          -7.971
REMARK INTER:                  -7.661
REMARK INTRA:                  -0.309
REMARK UNBOUND:                 0.191
REMARK SMILES O=c1c(O)c(-c2ccc(O)c(O)c2)oc2cc(O)cc(O)c12
REMARK SMILES IDX 5 1 3 2 2 3 1 4 22 5 20 6 19 7 17 8 16 9 15 10 14 11 6 12
REMARK SMILES IDX 7 13 8 14 9 15 13 16 11 17 10 18 12 20 4 22 21 24 18 26
REMARK H PARENT 10 19 12 21 4 23 21 25 18 27
REMARK Flexibility Score: inf
ROOT
ATOM      1  C   UNL     1     117.027 127.549 131.350  1.00  0.00     0.180 A 
ATOM      2  C   UNL     1     118.296 127.253 130.823  1.00  0.00     0.208 A 
ATOM      3  C   UNL     1     118.982 126.123 131.295  1.00  0.00     0.238 A 
ATOM      4  O   UNL     1     120.094 125.833 130.781  1.00  0.00    -0.285 OA
ATOM      5  C   UNL     1     118.400 125.312 132.299  1.00  0.00     0.111 A 
ATOM      6  C   UNL     1     119.024 124.168 132.879  1.00  0.00     0.134 A 
ATOM      7  C   UNL     1     118.301 123.365 133.770  1.00  0.00     0.093 A 
ATOM      8  C   UNL     1     116.999 123.703 134.151  1.00  0.00     0.123 A 
ATOM      9  C   UNL     1     116.405 124.851 133.636  1.00  0.00     0.094 A 
ATOM     10  C   UNL     1     117.087 125.652 132.718  1.00  0.00     0.146 A 
ATOM     11  O   UNL     1     116.478 126.733 132.243  1.00  0.00    -0.452 OA
ENDROOT
BRANCH   1  12
ATOM     12  C   UNL     1     116.252 128.736 130.921  1.00  0.00     0.025 A 
ATOM     13  C   UNL     1     116.259 129.924 131.674  1.00  0.00     0.016 A 
ATOM     14  C   UNL     1     115.501 131.024 131.263  1.00  0.00     0.051 A 
ATOM     15  C   UNL     1     114.716 130.948 130.104  1.00  0.00     0.157 A 
ATOM     16  C   UNL     1     115.448 128.660 129.772  1.00  0.00     0.062 A 
ATOM     17  C   UNL     1     114.687 129.762 129.359  1.00  0.00     0.158 A 
BRANCH  15  18
ATOM     18  O   UNL     1     113.961 132.044 129.690  1.00  0.00    -0.504 OA
ATOM     19  H   UNL     1     113.257 131.959 128.964  1.00  0.00     0.293 HD
ENDBRANCH  15  18
BRANCH  17  20
ATOM     20  O   UNL     1     113.901 129.688 128.211  1.00  0.00    -0.504 OA
ATOM     21  H   UNL     1     112.963 129.304 128.234  1.00  0.00     0.293 HD
ENDBRANCH  17  20
ENDBRANCH   1  12
BRANCH   2  22
ATOM     22  O   UNL     1     118.843 128.054 129.818  1.00  0.00    -0.502 OA
ATOM     23  H   UNL     1     119.122 127.683 128.917  1.00  0.00     0.293 HD
ENDBRANCH   2  22
BRANCH   6  24
ATOM     24  O   UNL     1     120.348 123.794 132.637  1.00  0.00    -0.507 OA
ATOM     25  H   UNL     1     120.987 123.454 133.340  1.00  0.00     0.293 HD
ENDBRANCH   6  24
BRANCH   8  26
ATOM     26  O   UNL     1     116.293 122.907 135.050  1.00  0.00    -0.508 OA
ATOM     27  H   UNL     1     116.723 122.553 135.897  1.00  0.00     0.293 HD
ENDBRANCH   8  26
TORSDOF 6
ENDMDL
MODEL 6
REMARK VINA RESULT:    -6.653     12.306     14.648
REMARK INTER + INTRA:          -7.823
REMARK INTER:                  -7.560
REMARK INTRA:                  -0.263
REMARK UNBOUND:                 0.191
REMARK SMILES O=c1c(O)c(-c2ccc(O)c(O)c2)oc2cc(O)cc(O)c12
REMARK SMILES IDX 5 1 3 2 2 3 1 4 22 5 20 6 19 7 17 8 16 9 15 10 14 11 6 12
REMARK SMILES IDX 7 13 8 14 9 15 13 16 11 17 10 18 12 20 4 22 21 24 18 26
REMARK H PARENT 10 19 12 21 4 23 21 25 18 27
REMARK Flexibility Score: inf
ROOT
ATOM      1  C   UNL     1     116.549 128.512 130.613  1.00  0.00     0.180 A 
ATOM      2  C   UNL     1     116.328 128.955 131.928  1.00  0.00     0.208 A 
ATOM      3  C   UNL     1     116.951 128.278 132.989  1.00  0.00     0.238 A 
ATOM      4  O   UNL     1     116.792 128.713 134.160  1.00  0.00    -0.285 OA
ATOM      5  C   UNL     1     117.773 127.157 132.724  1.00  0.00     0.111 A 
ATOM      6  C   UNL     1     118.420 126.372 133.725  1.00  0.00     0.134 A 
ATOM      7  C   UNL     1     119.314 125.365 133.341  1.00  0.00     0.093 A 
ATOM      8  C   UNL     1     119.535 125.073 131.992  1.00  0.00     0.123 A 
ATOM      9  C   UNL     1     118.862 125.794 131.010  1.00  0.00     0.094 A 
ATOM     10  C   UNL     1     117.991 126.828 131.360  1.00  0.00     0.146 A 
ATOM     11  O   UNL     1     117.379 127.498 130.391  1.00  0.00    -0.452 OA
ENDROOT
BRANCH   1  12
ATOM     12  C   UNL     1     115.909 129.158 129.445  1.00  0.00     0.025 A 
ATOM     13  C   UNL     1     114.539 128.992 129.177  1.00  0.00     0.016 A 
ATOM     14  C   UNL     1     113.961 129.592 128.055  1.00  0.00     0.051 A 
ATOM     15  C   UNL     1     114.745 130.354 127.179  1.00  0.00     0.157 A 
ATOM     16  C   UNL     1     116.694 129.907 128.551  1.00  0.00     0.062 A 
ATOM     17  C   UNL     1     116.115 130.508 127.426  1.00  0.00     0.158 A 
BRANCH  15  18
ATOM     18  O   UNL     1     114.172 130.956 126.059  1.00  0.00    -0.504 OA
ATOM     19  H   UNL     1     114.719 131.167 125.233  1.00  0.00     0.293 HD
ENDBRANCH  15  18
BRANCH  17  20
ATOM     20  O   UNL     1     116.894 131.261 126.549  1.00  0.00    -0.504 OA
ATOM     21  H   UNL     1     116.956 132.270 126.627  1.00  0.00     0.293 HD
ENDBRANCH  17  20
ENDBRANCH   1  12
BRANCH   2  22
ATOM     22  O   UNL     1     115.530 130.078 132.167  1.00  0.00    -0.502 OA
ATOM     23  H   UNL     1     115.907 130.948 132.524  1.00  0.00     0.293 HD
ENDBRANCH   2  22
BRANCH   6  24
ATOM     24  O   UNL     1     118.199 126.520 135.097  1.00  0.00    -0.507 OA
ATOM     25  H   UNL     1     117.327 126.324 135.563  1.00  0.00     0.293 HD
ENDBRANCH   6  24
BRANCH   8  26
ATOM     26  O   UNL     1     120.414 124.059 131.619  1.00  0.00    -0.508 OA
ATOM     27  H   UNL     1     120.831 123.440 132.304  1.00  0.00     0.293 HD
ENDBRANCH   8  26
TORSDOF 6
ENDMDL
MODEL 7
REMARK VINA RESULT:    -6.644     12.918     13.821
REMARK INTER + INTRA:          -7.812
REMARK INTER:                  -7.696
REMARK INTRA:                  -0.117
REMARK UNBOUND:                 0.191
REMARK SMILES O=c1c(O)c(-c2ccc(O)c(O)c2)oc2cc(O)cc(O)c12
REMARK SMILES IDX 5 1 3 2 2 3 1 4 22 5 20 6 19 7 17 8 16 9 15 10 14 11 6 12
REMARK SMILES IDX 7 13 8 14 9 15 13 16 11 17 10 18 12 20 4 22 21 24 18 26
REMARK H PARENT 10 19 12 21 4 23 21 25 18 27
REMARK Flexibility Score: inf
ROOT
ATOM      1  C   UNL     1     116.862 128.688 130.581  1.00  0.00     0.180 A 
ATOM      2  C   UNL     1     116.285 129.523 131.553  1.00  0.00     0.208 A 
ATOM      3  C   UNL     1     115.389 130.524 131.146  1.00  0.00     0.238 A 
ATOM      4  O   UNL     1     114.835 131.233 132.026  1.00  0.00    -0.285 OA
ATOM      5  C   UNL     1     115.094 130.690 129.772  1.00  0.00     0.111 A 
ATOM      6  C   UNL     1     114.233 131.698 129.244  1.00  0.00     0.134 A 
ATOM      7  C   UNL     1     113.910 131.686 127.881  1.00  0.00     0.093 A 
ATOM      8  C   UNL     1     114.470 130.741 127.016  1.00  0.00     0.123 A 
ATOM      9  C   UNL     1     115.358 129.791 127.513  1.00  0.00     0.094 A 
ATOM     10  C   UNL     1     115.671 129.755 128.873  1.00  0.00     0.146 A 
ATOM     11  O   UNL     1     116.515 128.825 129.306  1.00  0.00    -0.452 OA
ENDROOT
BRANCH   1  12
ATOM     12  C   UNL     1     117.834 127.626 130.929  1.00  0.00     0.025 A 
ATOM     13  C   UNL     1     119.140 127.631 130.408  1.00  0.00     0.016 A 
ATOM     14  C   UNL     1     120.033 126.606 130.731  1.00  0.00     0.051 A 
ATOM     15  C   UNL     1     119.630 125.555 131.566  1.00  0.00     0.157 A 
ATOM     16  C   UNL     1     117.429 126.559 131.749  1.00  0.00     0.062 A 
ATOM     17  C   UNL     1     118.324 125.530 132.073  1.00  0.00     0.158 A 
BRANCH  15  18
ATOM     18  O   UNL     1     120.518 124.531 131.893  1.00  0.00    -0.504 OA
ATOM     19  H   UNL     1     121.369 124.380 131.364  1.00  0.00     0.293 HD
ENDBRANCH  15  18
BRANCH  17  20
ATOM     20  O   UNL     1     117.924 124.481 132.897  1.00  0.00    -0.504 OA
ATOM     21  H   UNL     1     117.503 123.639 132.519  1.00  0.00     0.293 HD
ENDBRANCH  17  20
ENDBRANCH   1  12
BRANCH   2  22
ATOM     22  O   UNL     1     116.574 129.328 132.907  1.00  0.00    -0.502 OA
ATOM     23  H   UNL     1     117.419 128.868 133.223  1.00  0.00     0.293 HD
ENDBRANCH   2  22
BRANCH   6  24
ATOM     24  O   UNL     1     113.694 132.740 130.003  1.00  0.00    -0.507 OA
ATOM     25  H   UNL     1     112.724 133.014 129.996  1.00  0.00     0.293 HD
ENDBRANCH   6  24
BRANCH   8  26
ATOM     26  O   UNL     1     114.156 130.746 125.659  1.00  0.00    -0.508 OA
ATOM     27  H   UNL     1     113.798 129.919 125.195  1.00  0.00     0.293 HD
ENDBRANCH   8  26
TORSDOF 6
ENDMDL
MODEL 8
REMARK VINA RESULT:    -6.556     12.019     14.391
REMARK INTER + INTRA:          -7.707
REMARK INTER:                  -7.402
REMARK INTRA:                  -0.305
REMARK UNBOUND:                 0.191
REMARK SMILES O=c1c(O)c(-c2ccc(O)c(O)c2)oc2cc(O)cc(O)c12
REMARK SMILES IDX 5 1 3 2 2 3 1 4 22 5 20 6 19 7 17 8 16 9 15 10 14 11 6 12
REMARK SMILES IDX 7 13 8 14 9 15 13 16 11 17 10 18 12 20 4 22 21 24 18 26
REMARK H PARENT 10 19 12 21 4 23 21 25 18 27
REMARK Flexibility Score: inf
ROOT
ATOM      1  C   UNL     1     117.353 128.104 131.551  1.00  0.00     0.180 A 
ATOM      2  C   UNL     1     117.200 126.709 131.611  1.00  0.00     0.208 A 
ATOM      3  C   UNL     1     117.972 125.978 132.528  1.00  0.00     0.238 A 
ATOM      4  O   UNL     1     117.793 124.735 132.615  1.00  0.00    -0.285 OA
ATOM      5  C   UNL     1     118.899 126.649 133.363  1.00  0.00     0.111 A 
ATOM      6  C   UNL     1     119.761 126.004 134.299  1.00  0.00     0.134 A 
ATOM      7  C   UNL     1     120.544 126.780 135.164  1.00  0.00     0.093 A 
ATOM      8  C   UNL     1     120.543 128.175 135.081  1.00  0.00     0.123 A 
ATOM      9  C   UNL     1     119.749 128.810 134.130  1.00  0.00     0.094 A 
ATOM     10  C   UNL     1     118.931 128.066 133.277  1.00  0.00     0.146 A 
ATOM     11  O   UNL     1     118.182 128.713 132.392  1.00  0.00    -0.452 OA
ENDROOT
BRANCH   1  12
ATOM     12  C   UNL     1     116.593 128.941 130.594  1.00  0.00     0.025 A 
ATOM     13  C   UNL     1     115.407 129.593 130.976  1.00  0.00     0.016 A 
ATOM     14  C   UNL     1     114.692 130.358 130.050  1.00  0.00     0.051 A 
ATOM     15  C   UNL     1     115.144 130.470 128.728  1.00  0.00     0.157 A 
ATOM     16  C   UNL     1     117.029 129.041 129.263  1.00  0.00     0.062 A 
ATOM     17  C   UNL     1     116.313 129.807 128.333  1.00  0.00     0.158 A 
BRANCH  15  18
ATOM     18  O   UNL     1     114.435 131.234 127.802  1.00  0.00    -0.504 OA
ATOM     19  H   UNL     1     113.816 130.804 127.123  1.00  0.00     0.293 HD
ENDBRANCH  15  18
BRANCH  17  20
ATOM     20  O   UNL     1     116.756 129.916 127.017  1.00  0.00    -0.504 OA
ATOM     21  H   UNL     1     117.499 130.555 126.757  1.00  0.00     0.293 HD
ENDBRANCH  17  20
ENDBRANCH   1  12
BRANCH   2  22
ATOM     22  O   UNL     1     116.265 126.068 130.794  1.00  0.00    -0.502 OA
ATOM     23  H   UNL     1     116.460 125.190 130.328  1.00  0.00     0.293 HD
ENDBRANCH   2  22
BRANCH   6  24
ATOM     24  O   UNL     1     119.906 124.618 134.400  1.00  0.00    -0.507 OA
ATOM     25  H   UNL     1     120.788 124.139 134.499  1.00  0.00     0.293 HD
ENDBRANCH   6  24
BRANCH   8  26
ATOM     26  O   UNL     1     121.336 128.937 135.936  1.00  0.00    -0.508 OA
ATOM     27  H   UNL     1     121.393 128.736 136.927  1.00  0.00     0.293 HD
ENDBRANCH   8  26
TORSDOF 6
ENDMDL
MODEL 9
REMARK VINA RESULT:    -6.547     10.554     13.159
REMARK INTER + INTRA:          -7.696
REMARK INTER:                  -7.449
REMARK INTRA:                  -0.247
REMARK UNBOUND:                 0.191
REMARK SMILES O=c1c(O)c(-c2ccc(O)c(O)c2)oc2cc(O)cc(O)c12
REMARK SMILES IDX 5 1 3 2 2 3 1 4 22 5 20 6 19 7 17 8 16 9 15 10 14 11 6 12
REMARK SMILES IDX 7 13 8 14 9 15 13 16 11 17 10 18 12 20 4 22 21 24 18 26
REMARK H PARENT 10 19 12 21 4 23 21 25 18 27
REMARK Flexibility Score: inf
ROOT
ATOM      1  C   UNL     1     119.754 126.765 132.603  1.00  0.00     0.180 A 
ATOM      2  C   UNL     1     119.951 125.373 132.588  1.00  0.00     0.208 A 
ATOM      3  C   UNL     1     118.927 124.535 133.057  1.00  0.00     0.238 A 
ATOM      4  O   UNL     1     119.088 123.289 132.991  1.00  0.00    -0.285 OA
ATOM      5  C   UNL     1     117.725 125.099 133.550  1.00  0.00     0.111 A 
ATOM      6  C   UNL     1     116.638 124.347 134.087  1.00  0.00     0.134 A 
ATOM      7  C   UNL     1     115.447 125.000 134.425  1.00  0.00     0.093 A 
ATOM      8  C   UNL     1     115.327 126.388 134.305  1.00  0.00     0.123 A 
ATOM      9  C   UNL     1     116.404 127.137 133.838  1.00  0.00     0.094 A 
ATOM     10  C   UNL     1     117.593 126.509 133.460  1.00  0.00     0.146 A 
ATOM     11  O   UNL     1     118.591 127.261 133.009  1.00  0.00    -0.452 OA
ENDROOT
BRANCH   1  12
ATOM     12  C   UNL     1     120.796 127.714 132.148  1.00  0.00     0.025 A 
ATOM     13  C   UNL     1     121.507 128.512 133.062  1.00  0.00     0.016 A 
ATOM     14  C   UNL     1     122.469 129.418 132.608  1.00  0.00     0.051 A 
ATOM     15  C   UNL     1     122.725 129.550 131.236  1.00  0.00     0.157 A 
ATOM     16  C   UNL     1     121.042 127.864 130.773  1.00  0.00     0.062 A 
ATOM     17  C   UNL     1     122.007 128.774 130.317  1.00  0.00     0.158 A 
BRANCH  15  18
ATOM     18  O   UNL     1     123.685 130.451 130.779  1.00  0.00    -0.504 OA
ATOM     19  H   UNL     1     124.249 130.254 129.960  1.00  0.00     0.293 HD
ENDBRANCH  15  18
BRANCH  17  20
ATOM     20  O   UNL     1     122.258 128.911 128.954  1.00  0.00    -0.504 OA
ATOM     21  H   UNL     1     122.167 128.129 128.315  1.00  0.00     0.293 HD
ENDBRANCH  17  20
ENDBRANCH   1  12
BRANCH   2  22
ATOM     22  O   UNL     1     121.136 124.837 132.077  1.00  0.00    -0.502 OA
ATOM     23  H   UNL     1     121.889 125.416 131.725  1.00  0.00     0.293 HD
ENDBRANCH   2  22
BRANCH   6  24
ATOM     24  O   UNL     1     116.686 122.972 134.333  1.00  0.00    -0.507 OA
ATOM     25  H   UNL     1     117.070 122.550 135.165  1.00  0.00     0.293 HD
ENDBRANCH   6  24
BRANCH   8  26
ATOM     26  O   UNL     1     114.143 127.032 134.658  1.00  0.00    -0.508 OA
ATOM     27  H   UNL     1     113.248 126.559 134.611  1.00  0.00     0.293 HD
ENDBRANCH   8  26
TORSDOF 6
ENDMDL
