MODEL 1
REMARK VINA RESULT:    -6.004      0.000      0.000
REMARK INTER + INTRA:         -20.470
REMARK INTER:                 -15.130
REMARK INTRA:                  -5.340
REMARK UNBOUND:                -5.340
REMARK SMILES CCCCCCCCCCCCCCCCCCCCCCCCCCCC(=O)[O-]
REMARK SMILES IDX 15 1 16 2 17 3 18 4 19 5 20 6 21 7 22 8 23 9 24 10 25 11
REMARK SMILES IDX 26 12 27 13 28 14 29 15 30 16 14 17 13 18 12 19 11 20 10 21
REMARK SMILES IDX 9 22 8 23 7 24 6 25 5 26 4 27 3 28 2 29 1 30
REMARK H PARENT
REMARK Flexibility Score: inf
ROOT
ATOM      1  C   UNL     1      15.192  -7.885  15.116  1.00  0.00     0.000 C 
ENDROOT
BRANCH   1   2
ATOM      2  C   UNL     1      15.102  -7.237  13.718  1.00  0.00     0.000 C 
BRANCH   2   3
ATOM      3  C   UNL     1      13.681  -6.754  13.374  1.00  0.00     0.000 C 
BRANCH   3   4
ATOM      4  C   UNL     1      13.670  -5.374  12.698  1.00  0.00     0.000 C 
BRANCH   4   5
ATOM      5  C   UNL     1      12.430  -5.147  11.823  1.00  0.00     0.000 C 
BRANCH   5   6
ATOM      6  C   UNL     1      12.828  -4.590  10.447  1.00  0.00     0.000 C 
BRANCH   6   7
ATOM      7  C   UNL     1      13.079  -5.693   9.402  1.00  0.00     0.000 C 
BRANCH   7   8
ATOM      8  C   UNL     1      14.564  -6.004   9.118  1.00  0.00     0.000 C 
BRANCH   8   9
ATOM      9  C   UNL     1      15.573  -5.139   9.896  1.00  0.00     0.000 C 
BRANCH   9  10
ATOM     10  C   UNL     1      16.639  -5.971  10.622  1.00  0.00     0.000 C 
BRANCH  10  11
ATOM     11  C   UNL     1      17.141  -5.240  11.878  1.00  0.00     0.000 C 
BRANCH  11  12
ATOM     12  C   UNL     1      18.626  -5.516  12.176  1.00  0.00     0.006 C 
BRANCH  12  13
ATOM     13  C   UNL     1      19.426  -4.276  12.605  1.00  0.00     0.053 C 
BRANCH  13  14
ATOM     14  C   UNL     1      19.640  -4.230  14.087  1.00  0.00     0.041 C 
ATOM     15  O   UNL     1      20.061  -5.247  14.699  1.00  0.00    -0.550 OA
ATOM     16  O   UNL     1      19.341  -3.073  14.797  1.00  0.00    -0.550 OA
ENDBRANCH  13  14
ENDBRANCH  12  13
ENDBRANCH  11  12
ENDBRANCH  10  11
ENDBRANCH   9  10
ENDBRANCH   8   9
ENDBRANCH   7   8
ENDBRANCH   6   7
ENDBRANCH   5   6
ENDBRANCH   4   5
ENDBRANCH   3   4
ENDBRANCH   2   3
ENDBRANCH   1   2
BRANCH   1  17
ATOM     17  C   UNL     1      15.400  -6.879  16.264  1.00  0.00     0.000 C 
BRANCH  17  18
ATOM     18  C   UNL     1      16.718  -6.089  16.212  1.00  0.00     0.000 C 
BRANCH  18  19
ATOM     19  C   UNL     1      16.518  -4.626  15.785  1.00  0.00     0.000 C 
BRANCH  19  20
ATOM     20  C   UNL     1      16.297  -3.720  17.002  1.00  0.00     0.000 C 
BRANCH  20  21
ATOM     21  C   UNL     1      14.875  -3.138  17.000  1.00  0.00     0.000 C 
BRANCH  21  22
ATOM     22  C   UNL     1      14.130  -3.385  15.679  1.00  0.00    -0.000 C 
BRANCH  22  23
ATOM     23  C   UNL     1      12.639  -3.701  15.888  1.00  0.00    -0.000 C 
BRANCH  23  24
ATOM     24  C   UNL     1      11.763  -3.186  14.733  1.00  0.00    -0.000 C 
BRANCH  24  25
ATOM     25  C   UNL     1      12.189  -1.790  14.243  1.00  0.00    -0.000 C 
BRANCH  25  26
ATOM     26  C   UNL     1      12.624  -1.783  12.766  1.00  0.00    -0.000 C 
BRANCH  26  27
ATOM     27  C   UNL     1      13.987  -1.117  12.497  1.00  0.00    -0.000 C 
BRANCH  27  28
ATOM     28  C   UNL     1      15.150  -2.092  12.229  1.00  0.00    -0.000 C 
BRANCH  28  29
ATOM     29  C   UNL     1      16.266  -2.038  13.294  1.00  0.00    -0.003 C 
ATOM     30  C   UNL     1      17.147  -0.796  13.162  1.00  0.00     0.004 C 
ENDBRANCH  28  29
ENDBRANCH  27  28
ENDBRANCH  26  27
ENDBRANCH  25  26
ENDBRANCH  24  25
ENDBRANCH  23  24
ENDBRANCH  22  23
ENDBRANCH  21  22
ENDBRANCH  20  21
ENDBRANCH  19  20
ENDBRANCH  18  19
ENDBRANCH  17  18
ENDBRANCH   1  17
TORSDOF 26
ENDMDL
MODEL 2
REMARK VINA RESULT:    -5.971      2.359      6.429
REMARK INTER + INTRA:         -20.385
REMARK INTER:                 -15.286
REMARK INTRA:                  -5.100
REMARK UNBOUND:                -5.340
REMARK SMILES CCCCCCCCCCCCCCCCCCCCCCCCCCCC(=O)[O-]
REMARK SMILES IDX 15 1 16 2 17 3 18 4 19 5 20 6 21 7 22 8 23 9 24 10 25 11
REMARK SMILES IDX 26 12 27 13 28 14 29 15 30 16 14 17 13 18 12 19 11 20 10 21
REMARK SMILES IDX 9 22 8 23 7 24 6 25 5 26 4 27 3 28 2 29 1 30
REMARK H PARENT
REMARK Flexibility Score: inf
ROOT
ATOM      1  C   UNL     1      13.495  -3.739  15.234  1.00  0.00     0.000 C 
ENDROOT
BRANCH   1   2
ATOM      2  C   UNL     1      14.105  -3.297  16.580  1.00  0.00     0.000 C 
BRANCH   2   3
ATOM      3  C   UNL     1      15.571  -3.741  16.747  1.00  0.00     0.000 C 
BRANCH   3   4
ATOM      4  C   UNL     1      16.441  -2.673  17.428  1.00  0.00     0.000 C 
BRANCH   4   5
ATOM      5  C   UNL     1      17.927  -3.055  17.476  1.00  0.00     0.000 C 
BRANCH   5   6
ATOM      6  C   UNL     1      18.232  -4.186  16.481  1.00  0.00     0.000 C 
BRANCH   6   7
ATOM      7  C   UNL     1      19.385  -3.844  15.518  1.00  0.00     0.000 C 
BRANCH   7   8
ATOM      8  C   UNL     1      19.194  -4.332  14.066  1.00  0.00     0.000 C 
BRANCH   8   9
ATOM      9  C   UNL     1      19.136  -3.217  13.005  1.00  0.00     0.000 C 
BRANCH   9  10
ATOM     10  C   UNL     1      18.238  -2.042  13.420  1.00  0.00     0.000 C 
BRANCH  10  11
ATOM     11  C   UNL     1      16.759  -2.462  13.430  1.00  0.00     0.000 C 
BRANCH  11  12
ATOM     12  C   UNL     1      15.822  -1.357  12.908  1.00  0.00     0.006 C 
BRANCH  12  13
ATOM     13  C   UNL     1      14.605  -1.879  12.128  1.00  0.00     0.053 C 
BRANCH  13  14
ATOM     14  C   UNL     1      13.669  -0.773  11.743  1.00  0.00     0.041 C 
ATOM     15  O   UNL     1      14.123   0.332  11.344  1.00  0.00    -0.550 OA
ATOM     16  O   UNL     1      12.295  -0.953  11.860  1.00  0.00    -0.550 OA
ENDBRANCH  13  14
ENDBRANCH  12  13
ENDBRANCH  11  12
ENDBRANCH  10  11
ENDBRANCH   9  10
ENDBRANCH   8   9
ENDBRANCH   7   8
ENDBRANCH   6   7
ENDBRANCH   5   6
ENDBRANCH   4   5
ENDBRANCH   3   4
ENDBRANCH   2   3
ENDBRANCH   1   2
BRANCH   1  17
ATOM     17  C   UNL     1      12.227  -2.960  14.831  1.00  0.00     0.000 C 
BRANCH  17  18
ATOM     18  C   UNL     1      11.237  -3.735  13.946  1.00  0.00     0.000 C 
BRANCH  18  19
ATOM     19  C   UNL     1      11.914  -4.401  12.738  1.00  0.00     0.000 C 
BRANCH  19  20
ATOM     20  C   UNL     1      11.180  -4.061  11.436  1.00  0.00     0.000 C 
BRANCH  20  21
ATOM     21  C   UNL     1      12.019  -4.464  10.214  1.00  0.00     0.000 C 
BRANCH  21  22
ATOM     22  C   UNL     1      13.373  -5.083  10.596  1.00  0.00    -0.000 C 
BRANCH  22  23
ATOM     23  C   UNL     1      14.137  -5.639   9.382  1.00  0.00    -0.000 C 
BRANCH  23  24
ATOM     24  C   UNL     1      15.660  -5.628   9.592  1.00  0.00    -0.000 C 
BRANCH  24  25
ATOM     25  C   UNL     1      16.061  -5.145  10.998  1.00  0.00    -0.000 C 
BRANCH  25  26
ATOM     26  C   UNL     1      17.148  -6.024  11.643  1.00  0.00    -0.000 C 
BRANCH  26  27
ATOM     27  C   UNL     1      16.642  -6.981  12.739  1.00  0.00    -0.000 C 
BRANCH  27  28
ATOM     28  C   UNL     1      15.641  -6.362  13.735  1.00  0.00    -0.000 C 
BRANCH  28  29
ATOM     29  C   UNL     1      14.852  -7.407  14.552  1.00  0.00    -0.003 C 
ATOM     30  C   UNL     1      14.831  -7.092  16.048  1.00  0.00     0.004 C 
ENDBRANCH  28  29
ENDBRANCH  27  28
ENDBRANCH  26  27
ENDBRANCH  25  26
ENDBRANCH  24  25
ENDBRANCH  23  24
ENDBRANCH  22  23
ENDBRANCH  21  22
ENDBRANCH  20  21
ENDBRANCH  19  20
ENDBRANCH  18  19
ENDBRANCH  17  18
ENDBRANCH   1  17
TORSDOF 26
ENDMDL
MODEL 3
REMARK VINA RESULT:    -5.961      2.089      4.175
REMARK INTER + INTRA:         -20.362
REMARK INTER:                 -15.815
REMARK INTRA:                  -4.547
REMARK UNBOUND:                -5.340
REMARK SMILES CCCCCCCCCCCCCCCCCCCCCCCCCCCC(=O)[O-]
REMARK SMILES IDX 15 1 16 2 17 3 18 4 19 5 20 6 21 7 22 8 23 9 24 10 25 11
REMARK SMILES IDX 26 12 27 13 28 14 29 15 30 16 14 17 13 18 12 19 11 20 10 21
REMARK SMILES IDX 9 22 8 23 7 24 6 25 5 26 4 27 3 28 2 29 1 30
REMARK H PARENT
REMARK Flexibility Score: inf
ROOT
ATOM      1  C   UNL     1      13.079  -3.369  14.995  1.00  0.00     0.000 C 
ENDROOT
BRANCH   1   2
ATOM      2  C   UNL     1      11.561  -3.225  14.762  1.00  0.00     0.000 C 
BRANCH   2   3
ATOM      3  C   UNL     1      11.052  -4.086  13.590  1.00  0.00     0.000 C 
BRANCH   3   4
ATOM      4  C   UNL     1      12.061  -4.171  12.434  1.00  0.00     0.000 C 
BRANCH   4   5
ATOM      5  C   UNL     1      11.518  -3.583  11.124  1.00  0.00     0.000 C 
BRANCH   5   6
ATOM      6  C   UNL     1      11.924  -4.456   9.926  1.00  0.00     0.000 C 
BRANCH   6   7
ATOM      7  C   UNL     1      13.062  -5.440  10.257  1.00  0.00     0.000 C 
BRANCH   7   8
ATOM      8  C   UNL     1      14.024  -5.749   9.091  1.00  0.00     0.000 C 
BRANCH   8   9
ATOM      9  C   UNL     1      15.521  -5.661   9.438  1.00  0.00     0.000 C 
BRANCH   9  10
ATOM     10  C   UNL     1      15.775  -5.178  10.874  1.00  0.00     0.000 C 
BRANCH  10  11
ATOM     11  C   UNL     1      16.996  -5.888  11.481  1.00  0.00     0.000 C 
BRANCH  11  12
ATOM     12  C   UNL     1      16.639  -6.742  12.712  1.00  0.00     0.006 C 
BRANCH  12  13
ATOM     13  C   UNL     1      15.849  -5.990  13.795  1.00  0.00     0.053 C 
BRANCH  13  14
ATOM     14  C   UNL     1      14.628  -6.744  14.224  1.00  0.00     0.041 C 
ATOM     15  O   UNL     1      14.521  -7.158  15.408  1.00  0.00    -0.550 OA
ATOM     16  O   UNL     1      13.623  -7.019  13.304  1.00  0.00    -0.550 OA
ENDBRANCH  13  14
ENDBRANCH  12  13
ENDBRANCH  11  12
ENDBRANCH  10  11
ENDBRANCH   9  10
ENDBRANCH   8   9
ENDBRANCH   7   8
ENDBRANCH   6   7
ENDBRANCH   5   6
ENDBRANCH   4   5
ENDBRANCH   3   4
ENDBRANCH   2   3
ENDBRANCH   1   2
BRANCH   1  17
ATOM     17  C   UNL     1      13.464  -3.711  16.448  1.00  0.00     0.000 C 
BRANCH  17  18
ATOM     18  C   UNL     1      14.973  -3.736  16.737  1.00  0.00     0.000 C 
BRANCH  18  19
ATOM     19  C   UNL     1      15.421  -2.595  17.663  1.00  0.00     0.000 C 
BRANCH  19  20
ATOM     20  C   UNL     1      16.765  -2.915  18.327  1.00  0.00     0.000 C 
BRANCH  20  21
ATOM     21  C   UNL     1      17.709  -3.620  17.339  1.00  0.00     0.000 C 
BRANCH  21  22
ATOM     22  C   UNL     1      19.139  -3.060  17.378  1.00  0.00    -0.000 C 
BRANCH  22  23
ATOM     23  C   UNL     1      19.780  -2.968  15.983  1.00  0.00    -0.000 C 
BRANCH  23  24
ATOM     24  C   UNL     1      19.431  -4.176  15.097  1.00  0.00    -0.000 C 
BRANCH  24  25
ATOM     25  C   UNL     1      18.841  -3.763  13.737  1.00  0.00    -0.000 C 
BRANCH  25  26
ATOM     26  C   UNL     1      19.178  -2.309  13.358  1.00  0.00    -0.000 C 
BRANCH  26  27
ATOM     27  C   UNL     1      17.958  -1.377  13.220  1.00  0.00    -0.000 C 
BRANCH  27  28
ATOM     28  C   UNL     1      16.681  -1.862  13.933  1.00  0.00    -0.000 C 
BRANCH  28  29
ATOM     29  C   UNL     1      15.556  -2.295  12.968  1.00  0.00    -0.003 C 
ATOM     30  C   UNL     1      15.060  -1.148  12.088  1.00  0.00     0.004 C 
ENDBRANCH  28  29
ENDBRANCH  27  28
ENDBRANCH  26  27
ENDBRANCH  25  26
ENDBRANCH  24  25
ENDBRANCH  23  24
ENDBRANCH  22  23
ENDBRANCH  21  22
ENDBRANCH  20  21
ENDBRANCH  19  20
ENDBRANCH  18  19
ENDBRANCH  17  18
ENDBRANCH   1  17
TORSDOF 26
ENDMDL
MODEL 4
REMARK VINA RESULT:    -5.931      1.849      5.887
REMARK INTER + INTRA:         -20.285
REMARK INTER:                 -15.761
REMARK INTRA:                  -4.523
REMARK UNBOUND:                -5.340
REMARK SMILES CCCCCCCCCCCCCCCCCCCCCCCCCCCC(=O)[O-]
REMARK SMILES IDX 15 1 16 2 17 3 18 4 19 5 20 6 21 7 22 8 23 9 24 10 25 11
REMARK SMILES IDX 26 12 27 13 28 14 29 15 30 16 14 17 13 18 12 19 11 20 10 21
REMARK SMILES IDX 9 22 8 23 7 24 6 25 5 26 4 27 3 28 2 29 1 30
REMARK H PARENT
REMARK Flexibility Score: inf
ROOT
ATOM      1  C   UNL     1      18.218  -5.625  12.137  1.00  0.00     0.000 C 
ENDROOT
BRANCH   1   2
ATOM      2  C   UNL     1      18.912  -4.438  12.837  1.00  0.00     0.000 C 
BRANCH   2   3
ATOM      3  C   UNL     1      19.698  -4.860  14.092  1.00  0.00     0.000 C 
BRANCH   3   4
ATOM      4  C   UNL     1      18.980  -4.485  15.397  1.00  0.00     0.000 C 
BRANCH   4   5
ATOM      5  C   UNL     1      19.288  -3.053  15.858  1.00  0.00     0.000 C 
BRANCH   5   6
ATOM      6  C   UNL     1      19.198  -2.942  17.388  1.00  0.00     0.000 C 
BRANCH   6   7
ATOM      7  C   UNL     1      17.923  -3.589  17.964  1.00  0.00     0.000 C 
BRANCH   7   8
ATOM      8  C   UNL     1      16.669  -2.691  17.954  1.00  0.00     0.000 C 
BRANCH   8   9
ATOM      9  C   UNL     1      15.806  -2.787  16.682  1.00  0.00     0.000 C 
BRANCH   9  10
ATOM     10  C   UNL     1      14.418  -3.390  16.945  1.00  0.00     0.000 C 
BRANCH  10  11
ATOM     11  C   UNL     1      14.214  -4.673  16.123  1.00  0.00     0.000 C 
BRANCH  11  12
ATOM     12  C   UNL     1      15.459  -5.062  15.306  1.00  0.00     0.006 C 
BRANCH  12  13
ATOM     13  C   UNL     1      16.093  -6.400  15.719  1.00  0.00     0.053 C 
BRANCH  13  14
ATOM     14  C   UNL     1      15.481  -7.559  14.992  1.00  0.00     0.041 C 
ATOM     15  O   UNL     1      15.678  -7.710  13.758  1.00  0.00    -0.550 OA
ATOM     16  O   UNL     1      14.662  -8.453  15.675  1.00  0.00    -0.550 OA
ENDBRANCH  13  14
ENDBRANCH  12  13
ENDBRANCH  11  12
ENDBRANCH  10  11
ENDBRANCH   9  10
ENDBRANCH   8   9
ENDBRANCH   7   8
ENDBRANCH   6   7
ENDBRANCH   5   6
ENDBRANCH   4   5
ENDBRANCH   3   4
ENDBRANCH   2   3
ENDBRANCH   1   2
BRANCH   1  17
ATOM     17  C   UNL     1      16.787  -5.320  11.652  1.00  0.00     0.000 C 
BRANCH  17  18
ATOM     18  C   UNL     1      16.416  -5.925  10.288  1.00  0.00     0.000 C 
BRANCH  18  19
ATOM     19  C   UNL     1      15.419  -5.059   9.504  1.00  0.00     0.000 C 
BRANCH  19  20
ATOM     20  C   UNL     1      14.168  -5.859   9.125  1.00  0.00     0.000 C 
BRANCH  20  21
ATOM     21  C   UNL     1      12.948  -5.382   9.928  1.00  0.00     0.000 C 
BRANCH  21  22
ATOM     22  C   UNL     1      13.334  -4.590  11.186  1.00  0.00    -0.000 C 
BRANCH  22  23
ATOM     23  C   UNL     1      12.544  -5.029  12.431  1.00  0.00    -0.000 C 
BRANCH  23  24
ATOM     24  C   UNL     1      11.503  -3.982  12.865  1.00  0.00    -0.000 C 
BRANCH  24  25
ATOM     25  C   UNL     1      11.909  -3.240  14.150  1.00  0.00    -0.000 C 
BRANCH  25  26
ATOM     26  C   UNL     1      12.260  -1.762  13.900  1.00  0.00    -0.000 C 
BRANCH  26  27
ATOM     27  C   UNL     1      12.842  -1.462  12.505  1.00  0.00    -0.000 C 
BRANCH  27  28
ATOM     28  C   UNL     1      14.318  -1.018  12.495  1.00  0.00    -0.000 C 
BRANCH  28  29
ATOM     29  C   UNL     1      15.280  -2.041  13.134  1.00  0.00    -0.003 C 
ATOM     30  C   UNL     1      16.735  -1.572  13.119  1.00  0.00     0.004 C 
ENDBRANCH  28  29
ENDBRANCH  27  28
ENDBRANCH  26  27
ENDBRANCH  25  26
ENDBRANCH  24  25
ENDBRANCH  23  24
ENDBRANCH  22  23
ENDBRANCH  21  22
ENDBRANCH  20  21
ENDBRANCH  19  20
ENDBRANCH  18  19
ENDBRANCH  17  18
ENDBRANCH   1  17
TORSDOF 26
ENDMDL
MODEL 5
REMARK VINA RESULT:    -5.924      1.424      4.719
REMARK INTER + INTRA:         -20.269
REMARK INTER:                 -15.705
REMARK INTRA:                  -4.563
REMARK UNBOUND:                -5.340
REMARK SMILES CCCCCCCCCCCCCCCCCCCCCCCCCCCC(=O)[O-]
REMARK SMILES IDX 15 1 16 2 17 3 18 4 19 5 20 6 21 7 22 8 23 9 24 10 25 11
REMARK SMILES IDX 26 12 27 13 28 14 29 15 30 16 14 17 13 18 12 19 11 20 10 21
REMARK SMILES IDX 9 22 8 23 7 24 6 25 5 26 4 27 3 28 2 29 1 30
REMARK H PARENT
REMARK Flexibility Score: inf
ROOT
ATOM      1  C   UNL     1      16.021  -5.383  11.238  1.00  0.00     0.000 C 
ENDROOT
BRANCH   1   2
ATOM      2  C   UNL     1      15.678  -5.571   9.746  1.00  0.00     0.000 C 
BRANCH   2   3
ATOM      3  C   UNL     1      14.166  -5.719   9.494  1.00  0.00     0.000 C 
BRANCH   3   4
ATOM      4  C   UNL     1      13.321  -5.364  10.727  1.00  0.00     0.000 C 
BRANCH   4   5
ATOM      5  C   UNL     1      12.327  -4.224  10.462  1.00  0.00     0.000 C 
BRANCH   5   6
ATOM      6  C   UNL     1      11.309  -4.110  11.607  1.00  0.00     0.000 C 
BRANCH   6   7
ATOM      7  C   UNL     1      11.948  -4.283  12.998  1.00  0.00     0.000 C 
BRANCH   7   8
ATOM      8  C   UNL     1      11.760  -3.091  13.960  1.00  0.00     0.000 C 
BRANCH   8   9
ATOM      9  C   UNL     1      12.750  -1.928  13.760  1.00  0.00     0.000 C 
BRANCH   9  10
ATOM     10  C   UNL     1      14.123  -2.392  13.250  1.00  0.00     0.000 C 
BRANCH  10  11
ATOM     11  C   UNL     1      14.615  -1.489  12.108  1.00  0.00     0.000 C 
BRANCH  11  12
ATOM     12  C   UNL     1      15.888  -0.704  12.474  1.00  0.00     0.006 C 
BRANCH  12  13
ATOM     13  C   UNL     1      16.896  -1.494  13.324  1.00  0.00     0.053 C 
BRANCH  13  14
ATOM     14  C   UNL     1      18.257  -0.869  13.307  1.00  0.00     0.041 C 
ATOM     15  O   UNL     1      19.287  -1.589  13.373  1.00  0.00    -0.550 OA
ATOM     16  O   UNL     1      18.385   0.515  13.253  1.00  0.00    -0.550 OA
ENDBRANCH  13  14
ENDBRANCH  12  13
ENDBRANCH  11  12
ENDBRANCH  10  11
ENDBRANCH   9  10
ENDBRANCH   8   9
ENDBRANCH   7   8
ENDBRANCH   6   7
ENDBRANCH   5   6
ENDBRANCH   4   5
ENDBRANCH   3   4
ENDBRANCH   2   3
ENDBRANCH   1   2
BRANCH   1  17
ATOM     17  C   UNL     1      17.484  -5.714  11.595  1.00  0.00     0.000 C 
BRANCH  17  18
ATOM     18  C   UNL     1      18.079  -4.888  12.746  1.00  0.00     0.000 C 
BRANCH  18  19
ATOM     19  C   UNL     1      19.582  -5.139  12.944  1.00  0.00     0.000 C 
BRANCH  19  20
ATOM     20  C   UNL     1      19.964  -5.072  14.427  1.00  0.00     0.000 C 
BRANCH  20  21
ATOM     21  C   UNL     1      18.823  -4.469  15.260  1.00  0.00     0.000 C 
BRANCH  21  22
ATOM     22  C   UNL     1      19.311  -3.420  16.271  1.00  0.00    -0.000 C 
BRANCH  22  23
ATOM     23  C   UNL     1      18.238  -3.052  17.311  1.00  0.00    -0.000 C 
BRANCH  23  24
ATOM     24  C   UNL     1      16.934  -3.843  17.113  1.00  0.00    -0.000 C 
BRANCH  24  25
ATOM     25  C   UNL     1      15.684  -3.030  17.493  1.00  0.00    -0.000 C 
BRANCH  25  26
ATOM     26  C   UNL     1      14.479  -3.329  16.582  1.00  0.00    -0.000 C 
BRANCH  26  27
ATOM     27  C   UNL     1      14.108  -4.820  16.468  1.00  0.00    -0.000 C 
BRANCH  27  28
ATOM     28  C   UNL     1      14.596  -5.518  15.183  1.00  0.00    -0.000 C 
BRANCH  28  29
ATOM     29  C   UNL     1      14.822  -7.036  15.348  1.00  0.00    -0.003 C 
ATOM     30  C   UNL     1      15.590  -7.649  14.178  1.00  0.00     0.004 C 
ENDBRANCH  28  29
ENDBRANCH  27  28
ENDBRANCH  26  27
ENDBRANCH  25  26
ENDBRANCH  24  25
ENDBRANCH  23  24
ENDBRANCH  22  23
ENDBRANCH  21  22
ENDBRANCH  20  21
ENDBRANCH  19  20
ENDBRANCH  18  19
ENDBRANCH  17  18
ENDBRANCH   1  17
TORSDOF 26
ENDMDL
MODEL 6
REMARK VINA RESULT:    -5.922      1.070      4.761
REMARK INTER + INTRA:         -20.264
REMARK INTER:                 -15.130
REMARK INTRA:                  -5.134
REMARK UNBOUND:                -5.340
REMARK SMILES CCCCCCCCCCCCCCCCCCCCCCCCCCCC(=O)[O-]
REMARK SMILES IDX 15 1 16 2 17 3 18 4 19 5 20 6 21 7 22 8 23 9 24 10 25 11
REMARK SMILES IDX 26 12 27 13 28 14 29 15 30 16 14 17 13 18 12 19 11 20 10 21
REMARK SMILES IDX 9 22 8 23 7 24 6 25 5 26 4 27 3 28 2 29 1 30
REMARK H PARENT
REMARK Flexibility Score: inf
ROOT
ATOM      1  C   UNL     1      16.869  -5.197  11.781  1.00  0.00     0.000 C 
ENDROOT
BRANCH   1   2
ATOM      2  C   UNL     1      16.875  -6.051  13.066  1.00  0.00     0.000 C 
BRANCH   2   3
ATOM      3  C   UNL     1      15.941  -7.273  12.976  1.00  0.00     0.000 C 
BRANCH   3   4
ATOM      4  C   UNL     1      15.332  -7.656  14.333  1.00  0.00     0.000 C 
BRANCH   4   5
ATOM      5  C   UNL     1      15.773  -6.723  15.470  1.00  0.00     0.000 C 
BRANCH   5   6
ATOM      6  C   UNL     1      14.578  -5.925  16.015  1.00  0.00     0.000 C 
BRANCH   6   7
ATOM      7  C   UNL     1      14.641  -4.428  15.657  1.00  0.00     0.000 C 
BRANCH   7   8
ATOM      8  C   UNL     1      14.159  -3.467  16.763  1.00  0.00     0.000 C 
BRANCH   8   9
ATOM      9  C   UNL     1      15.276  -2.864  17.636  1.00  0.00     0.000 C 
BRANCH   9  10
ATOM     10  C   UNL     1      16.591  -2.661  16.870  1.00  0.00     0.000 C 
BRANCH  10  11
ATOM     11  C   UNL     1      17.672  -3.630  17.375  1.00  0.00     0.000 C 
BRANCH  11  12
ATOM     12  C   UNL     1      18.649  -4.065  16.267  1.00  0.00     0.006 C 
BRANCH  12  13
ATOM     13  C   UNL     1      18.778  -3.063  15.109  1.00  0.00     0.053 C 
BRANCH  13  14
ATOM     14  C   UNL     1      19.383  -3.689  13.890  1.00  0.00     0.041 C 
ATOM     15  O   UNL     1      19.891  -4.839  13.952  1.00  0.00    -0.550 OA
ATOM     16  O   UNL     1      19.416  -2.985  12.691  1.00  0.00    -0.550 OA
ENDBRANCH  13  14
ENDBRANCH  12  13
ENDBRANCH  11  12
ENDBRANCH  10  11
ENDBRANCH   9  10
ENDBRANCH   8   9
ENDBRANCH   7   8
ENDBRANCH   6   7
ENDBRANCH   5   6
ENDBRANCH   4   5
ENDBRANCH   3   4
ENDBRANCH   2   3
ENDBRANCH   1   2
BRANCH   1  17
ATOM     17  C   UNL     1      16.447  -5.967  10.514  1.00  0.00     0.000 C 
BRANCH  17  18
ATOM     18  C   UNL     1      15.508  -5.204   9.566  1.00  0.00     0.000 C 
BRANCH  18  19
ATOM     19  C   UNL     1      14.317  -6.053   9.096  1.00  0.00     0.000 C 
BRANCH  19  20
ATOM     20  C   UNL     1      13.004  -5.550   9.706  1.00  0.00     0.000 C 
BRANCH  20  21
ATOM     21  C   UNL     1      13.272  -4.502  10.797  1.00  0.00     0.000 C 
BRANCH  21  22
ATOM     22  C   UNL     1      13.389  -5.117  12.200  1.00  0.00    -0.000 C 
BRANCH  22  23
ATOM     23  C   UNL     1      12.025  -5.277  12.894  1.00  0.00    -0.000 C 
BRANCH  23  24
ATOM     24  C   UNL     1      11.255  -3.948  12.989  1.00  0.00    -0.000 C 
BRANCH  24  25
ATOM     25  C   UNL     1      11.548  -3.186  14.293  1.00  0.00    -0.000 C 
BRANCH  25  26
ATOM     26  C   UNL     1      12.288  -1.857  14.053  1.00  0.00    -0.000 C 
BRANCH  26  27
ATOM     27  C   UNL     1      12.537  -1.513  12.572  1.00  0.00    -0.000 C 
BRANCH  27  28
ATOM     28  C   UNL     1      13.974  -1.070  12.237  1.00  0.00    -0.000 C 
BRANCH  28  29
ATOM     29  C   UNL     1      15.064  -1.916  12.929  1.00  0.00    -0.003 C 
ATOM     30  C   UNL     1      16.431  -1.232  12.930  1.00  0.00     0.004 C 
ENDBRANCH  28  29
ENDBRANCH  27  28
ENDBRANCH  26  27
ENDBRANCH  25  26
ENDBRANCH  24  25
ENDBRANCH  23  24
ENDBRANCH  22  23
ENDBRANCH  21  22
ENDBRANCH  20  21
ENDBRANCH  19  20
ENDBRANCH  18  19
ENDBRANCH  17  18
ENDBRANCH   1  17
TORSDOF 26
ENDMDL
MODEL 7
REMARK VINA RESULT:    -5.875      2.725      6.022
REMARK INTER + INTRA:         -20.145
REMARK INTER:                 -15.360
REMARK INTRA:                  -4.785
REMARK UNBOUND:                -5.340
REMARK SMILES CCCCCCCCCCCCCCCCCCCCCCCCCCCC(=O)[O-]
REMARK SMILES IDX 15 1 16 2 17 3 18 4 19 5 20 6 21 7 22 8 23 9 24 10 25 11
REMARK SMILES IDX 26 12 27 13 28 14 29 15 30 16 14 17 13 18 12 19 11 20 10 21
REMARK SMILES IDX 9 22 8 23 7 24 6 25 5 26 4 27 3 28 2 29 1 30
REMARK H PARENT
REMARK Flexibility Score: inf
ROOT
ATOM      1  C   UNL     1      13.149  -3.444  14.448  1.00  0.00     0.000 C 
ENDROOT
BRANCH   1   2
ATOM      2  C   UNL     1      13.357  -3.503  15.976  1.00  0.00     0.000 C 
BRANCH   2   3
ATOM      3  C   UNL     1      14.130  -4.757  16.427  1.00  0.00     0.000 C 
BRANCH   3   4
ATOM      4  C   UNL     1      15.409  -4.992  15.608  1.00  0.00     0.000 C 
BRANCH   4   5
ATOM      5  C   UNL     1      15.996  -6.397  15.808  1.00  0.00     0.000 C 
BRANCH   5   6
ATOM      6  C   UNL     1      15.570  -7.332  14.666  1.00  0.00     0.000 C 
BRANCH   6   7
ATOM      7  C   UNL     1      15.142  -6.573  13.395  1.00  0.00     0.000 C 
BRANCH   7   8
ATOM      8  C   UNL     1      16.230  -6.443  12.309  1.00  0.00     0.000 C 
BRANCH   8   9
ATOM      9  C   UNL     1      16.070  -5.236  11.366  1.00  0.00     0.000 C 
BRANCH   9  10
ATOM     10  C   UNL     1      15.980  -5.641   9.887  1.00  0.00     0.000 C 
BRANCH  10  11
ATOM     11  C   UNL     1      14.515  -5.689   9.422  1.00  0.00     0.000 C 
BRANCH  11  12
ATOM     12  C   UNL     1      13.571  -4.893  10.340  1.00  0.00     0.006 C 
BRANCH  12  13
ATOM     13  C   UNL     1      12.123  -4.803   9.833  1.00  0.00     0.053 C 
BRANCH  13  14
ATOM     14  C   UNL     1      11.315  -3.812  10.613  1.00  0.00     0.041 C 
ATOM     15  O   UNL     1      11.146  -2.644  10.173  1.00  0.00    -0.550 OA
ATOM     16  O   UNL     1      10.777  -4.169  11.845  1.00  0.00    -0.550 OA
ENDBRANCH  13  14
ENDBRANCH  12  13
ENDBRANCH  11  12
ENDBRANCH  10  11
ENDBRANCH   9  10
ENDBRANCH   8   9
ENDBRANCH   7   8
ENDBRANCH   6   7
ENDBRANCH   5   6
ENDBRANCH   4   5
ENDBRANCH   3   4
ENDBRANCH   2   3
ENDBRANCH   1   2
BRANCH   1  17
ATOM     17  C   UNL     1      12.349  -2.218  13.968  1.00  0.00     0.000 C 
BRANCH  17  18
ATOM     18  C   UNL     1      13.069  -1.327  12.943  1.00  0.00     0.000 C 
BRANCH  18  19
ATOM     19  C   UNL     1      14.277  -2.020  12.296  1.00  0.00     0.000 C 
BRANCH  19  20
ATOM     20  C   UNL     1      15.563  -1.219  12.525  1.00  0.00     0.000 C 
BRANCH  20  21
ATOM     21  C   UNL     1      16.561  -2.016  13.380  1.00  0.00     0.000 C 
BRANCH  21  22
ATOM     22  C   UNL     1      17.980  -1.429  13.344  1.00  0.00    -0.000 C 
BRANCH  22  23
ATOM     23  C   UNL     1      19.073  -2.510  13.404  1.00  0.00    -0.000 C 
BRANCH  23  24
ATOM     24  C   UNL     1      18.498  -3.910  13.679  1.00  0.00    -0.000 C 
BRANCH  24  25
ATOM     25  C   UNL     1      19.155  -4.594  14.891  1.00  0.00    -0.000 C 
BRANCH  25  26
ATOM     26  C   UNL     1      20.023  -3.630  15.721  1.00  0.00    -0.000 C 
BRANCH  26  27
ATOM     27  C   UNL     1      19.294  -2.952  16.896  1.00  0.00    -0.000 C 
BRANCH  27  28
ATOM     28  C   UNL     1      18.011  -3.663  17.368  1.00  0.00    -0.000 C 
BRANCH  28  29
ATOM     29  C   UNL     1      17.313  -2.964  18.553  1.00  0.00    -0.003 C 
ATOM     30  C   UNL     1      16.031  -2.240  18.141  1.00  0.00     0.004 C 
ENDBRANCH  28  29
ENDBRANCH  27  28
ENDBRANCH  26  27
ENDBRANCH  25  26
ENDBRANCH  24  25
ENDBRANCH  23  24
ENDBRANCH  22  23
ENDBRANCH  21  22
ENDBRANCH  20  21
ENDBRANCH  19  20
ENDBRANCH  18  19
ENDBRANCH  17  18
ENDBRANCH   1  17
TORSDOF 26
ENDMDL
MODEL 8
REMARK VINA RESULT:    -5.856      1.805      4.969
REMARK INTER + INTRA:         -20.098
REMARK INTER:                 -15.004
REMARK INTRA:                  -5.093
REMARK UNBOUND:                -5.340
REMARK SMILES CCCCCCCCCCCCCCCCCCCCCCCCCCCC(=O)[O-]
REMARK SMILES IDX 15 1 16 2 17 3 18 4 19 5 20 6 21 7 22 8 23 9 24 10 25 11
REMARK SMILES IDX 26 12 27 13 28 14 29 15 30 16 14 17 13 18 12 19 11 20 10 21
REMARK SMILES IDX 9 22 8 23 7 24 6 25 5 26 4 27 3 28 2 29 1 30
REMARK H PARENT
REMARK Flexibility Score: inf
ROOT
ATOM      1  C   UNL     1      12.792  -1.954  13.925  1.00  0.00     0.000 C 
ENDROOT
BRANCH   1   2
ATOM      2  C   UNL     1      11.768  -3.108  13.952  1.00  0.00     0.000 C 
BRANCH   2   3
ATOM      3  C   UNL     1      12.074  -4.203  12.913  1.00  0.00     0.000 C 
BRANCH   3   4
ATOM      4  C   UNL     1      11.212  -4.077  11.647  1.00  0.00     0.000 C 
BRANCH   4   5
ATOM      5  C   UNL     1      12.013  -4.295  10.355  1.00  0.00     0.000 C 
BRANCH   5   6
ATOM      6  C   UNL     1      13.174  -5.272  10.593  1.00  0.00     0.000 C 
BRANCH   6   7
ATOM      7  C   UNL     1      13.931  -5.633   9.300  1.00  0.00     0.000 C 
BRANCH   7   8
ATOM      8  C   UNL     1      15.470  -5.612   9.412  1.00  0.00     0.000 C 
BRANCH   8   9
ATOM      9  C   UNL     1      16.021  -5.053  10.737  1.00  0.00     0.000 C 
BRANCH   9  10
ATOM     10  C   UNL     1      17.084  -5.961  11.373  1.00  0.00     0.000 C 
BRANCH  10  11
ATOM     11  C   UNL     1      16.900  -6.033  12.898  1.00  0.00     0.000 C 
BRANCH  11  12
ATOM     12  C   UNL     1      15.560  -5.436  13.366  1.00  0.00     0.006 C 
BRANCH  12  13
ATOM     13  C   UNL     1      14.617  -6.448  14.035  1.00  0.00     0.053 C 
BRANCH  13  14
ATOM     14  C   UNL     1      15.323  -7.280  15.062  1.00  0.00     0.041 C 
ATOM     15  O   UNL     1      15.366  -8.533  14.943  1.00  0.00    -0.550 OA
ATOM     16  O   UNL     1      15.903  -6.672  16.170  1.00  0.00    -0.550 OA
ENDBRANCH  13  14
ENDBRANCH  12  13
ENDBRANCH  11  12
ENDBRANCH  10  11
ENDBRANCH   9  10
ENDBRANCH   8   9
ENDBRANCH   7   8
ENDBRANCH   6   7
ENDBRANCH   5   6
ENDBRANCH   4   5
ENDBRANCH   3   4
ENDBRANCH   2   3
ENDBRANCH   1   2
BRANCH   1  17
ATOM     17  C   UNL     1      13.226  -1.530  12.509  1.00  0.00     0.000 C 
BRANCH  17  18
ATOM     18  C   UNL     1      14.686  -1.850  12.149  1.00  0.00     0.000 C 
BRANCH  18  19
ATOM     19  C   UNL     1      15.583  -0.602  12.137  1.00  0.00     0.000 C 
BRANCH  19  20
ATOM     20  C   UNL     1      16.662  -0.686  13.222  1.00  0.00     0.000 C 
BRANCH  20  21
ATOM     21  C   UNL     1      17.033  -2.148  13.515  1.00  0.00     0.000 C 
BRANCH  21  22
ATOM     22  C   UNL     1      18.491  -2.477  13.159  1.00  0.00    -0.000 C 
BRANCH  22  23
ATOM     23  C   UNL     1      19.338  -2.836  14.392  1.00  0.00    -0.000 C 
BRANCH  23  24
ATOM     24  C   UNL     1      19.158  -4.303  14.819  1.00  0.00    -0.000 C 
BRANCH  24  25
ATOM     25  C   UNL     1      18.604  -4.440  16.249  1.00  0.00    -0.000 C 
BRANCH  25  26
ATOM     26  C   UNL     1      18.302  -3.080  16.904  1.00  0.00    -0.000 C 
BRANCH  26  27
ATOM     27  C   UNL     1      17.293  -3.133  18.068  1.00  0.00    -0.000 C 
BRANCH  27  28
ATOM     28  C   UNL     1      15.881  -2.617  17.732  1.00  0.00    -0.000 C 
BRANCH  28  29
ATOM     29  C   UNL     1      15.254  -3.284  16.489  1.00  0.00    -0.003 C 
ATOM     30  C   UNL     1      13.866  -3.862  16.766  1.00  0.00     0.004 C 
ENDBRANCH  28  29
ENDBRANCH  27  28
ENDBRANCH  26  27
ENDBRANCH  25  26
ENDBRANCH  24  25
ENDBRANCH  23  24
ENDBRANCH  22  23
ENDBRANCH  21  22
ENDBRANCH  20  21
ENDBRANCH  19  20
ENDBRANCH  18  19
ENDBRANCH  17  18
ENDBRANCH   1  17
TORSDOF 26
ENDMDL
MODEL 9
REMARK VINA RESULT:    -5.832      1.152      5.007
REMARK INTER + INTRA:         -20.035
REMARK INTER:                 -15.284
REMARK INTRA:                  -4.751
REMARK UNBOUND:                -5.340
REMARK SMILES CCCCCCCCCCCCCCCCCCCCCCCCCCCC(=O)[O-]
REMARK SMILES IDX 15 1 16 2 17 3 18 4 19 5 20 6 21 7 22 8 23 9 24 10 25 11
REMARK SMILES IDX 26 12 27 13 28 14 29 15 30 16 14 17 13 18 12 19 11 20 10 21
REMARK SMILES IDX 9 22 8 23 7 24 6 25 5 26 4 27 3 28 2 29 1 30
REMARK H PARENT
REMARK Flexibility Score: inf
ROOT
ATOM      1  C   UNL     1      12.703  -4.500  10.538  1.00  0.00     0.000 C 
ENDROOT
BRANCH   1   2
ATOM      2  C   UNL     1      11.252  -3.981  10.603  1.00  0.00     0.000 C 
BRANCH   2   3
ATOM      3  C   UNL     1      10.634  -4.107  12.008  1.00  0.00     0.000 C 
BRANCH   3   4
ATOM      4  C   UNL     1      11.692  -4.279  13.109  1.00  0.00     0.000 C 
BRANCH   4   5
ATOM      5  C   UNL     1      11.493  -3.312  14.285  1.00  0.00     0.000 C 
BRANCH   5   6
ATOM      6  C   UNL     1      12.249  -1.997  14.042  1.00  0.00     0.000 C 
BRANCH   6   7
ATOM      7  C   UNL     1      13.634  -2.208  13.403  1.00  0.00     0.000 C 
BRANCH   7   8
ATOM      8  C   UNL     1      13.940  -1.313  12.184  1.00  0.00     0.000 C 
BRANCH   8   9
ATOM      9  C   UNL     1      15.369  -0.741  12.135  1.00  0.00     0.000 C 
BRANCH   9  10
ATOM     10  C   UNL     1      16.374  -1.573  12.945  1.00  0.00     0.000 C 
BRANCH  10  11
ATOM     11  C   UNL     1      17.660  -0.773  13.207  1.00  0.00     0.000 C 
BRANCH  11  12
ATOM     12  C   UNL     1      18.831  -1.659  13.668  1.00  0.00     0.006 C 
BRANCH  12  13
ATOM     13  C   UNL     1      18.404  -3.001  14.283  1.00  0.00     0.053 C 
BRANCH  13  14
ATOM     14  C   UNL     1      19.331  -4.114  13.900  1.00  0.00     0.041 C 
ATOM     15  O   UNL     1      19.790  -4.890  14.779  1.00  0.00    -0.550 OA
ATOM     16  O   UNL     1      19.717  -4.271  12.573  1.00  0.00    -0.550 OA
ENDBRANCH  13  14
ENDBRANCH  12  13
ENDBRANCH  11  12
ENDBRANCH  10  11
ENDBRANCH   9  10
ENDBRANCH   8   9
ENDBRANCH   7   8
ENDBRANCH   6   7
ENDBRANCH   5   6
ENDBRANCH   4   5
ENDBRANCH   3   4
ENDBRANCH   2   3
ENDBRANCH   1   2
BRANCH   1  17
ATOM     17  C   UNL     1      12.932  -5.601   9.483  1.00  0.00     0.000 C 
BRANCH  17  18
ATOM     18  C   UNL     1      14.401  -5.853   9.108  1.00  0.00     0.000 C 
BRANCH  18  19
ATOM     19  C   UNL     1      15.380  -5.005   9.934  1.00  0.00     0.000 C 
BRANCH  19  20
ATOM     20  C   UNL     1      16.493  -5.871  10.534  1.00  0.00     0.000 C 
BRANCH  20  21
ATOM     21  C   UNL     1      16.623  -5.627  12.046  1.00  0.00     0.000 C 
BRANCH  21  22
ATOM     22  C   UNL     1      15.272  -5.349  12.723  1.00  0.00    -0.000 C 
BRANCH  22  23
ATOM     23  C   UNL     1      14.526  -6.636  13.113  1.00  0.00    -0.000 C 
BRANCH  23  24
ATOM     24  C   UNL     1      15.353  -7.534  14.049  1.00  0.00    -0.000 C 
BRANCH  24  25
ATOM     25  C   UNL     1      14.850  -7.497  15.503  1.00  0.00    -0.000 C 
BRANCH  25  26
ATOM     26  C   UNL     1      15.155  -6.161  16.206  1.00  0.00    -0.000 C 
BRANCH  26  27
ATOM     27  C   UNL     1      13.982  -5.162  16.234  1.00  0.00    -0.000 C 
BRANCH  27  28
ATOM     28  C   UNL     1      14.353  -3.728  16.658  1.00  0.00    -0.000 C 
BRANCH  28  29
ATOM     29  C   UNL     1      15.871  -3.502  16.821  1.00  0.00    -0.003 C 
ATOM     30  C   UNL     1      16.199  -2.407  17.837  1.00  0.00     0.004 C 
ENDBRANCH  28  29
ENDBRANCH  27  28
ENDBRANCH  26  27
ENDBRANCH  25  26
ENDBRANCH  24  25
ENDBRANCH  23  24
ENDBRANCH  22  23
ENDBRANCH  21  22
ENDBRANCH  20  21
ENDBRANCH  19  20
ENDBRANCH  18  19
ENDBRANCH  17  18
ENDBRANCH   1  17
TORSDOF 26
ENDMDL
