MODEL 1
REMARK VINA RESULT:    -5.199      0.000      0.000
REMARK INTER + INTRA:          -6.378
REMARK INTER:                  -6.110
REMARK INTRA:                  -0.267
REMARK UNBOUND:                -0.267
REMARK SMILES O=C([O-])C=Cc1ccc(O)c(O)c1
REMARK SMILES IDX 6 1 13 2 7 3 11 4 8 5 9 6 5 7 4 8 2 9 1 10 3 11 12 12 10 14
REMARK H PARENT 12 13 10 15
REMARK Flexibility Score: inf
ROOT
ATOM      1  C   UNL     1       9.486  -6.992  -8.219  1.00  0.00    -0.022 A 
ATOM      2  C   UNL     1      10.239  -6.140  -7.399  1.00  0.00     0.058 A 
ATOM      3  C   UNL     1       8.109  -7.134  -7.983  1.00  0.00     0.012 A 
ATOM      4  C   UNL     1       9.635  -5.475  -6.320  1.00  0.00     0.157 A 
ATOM      5  C   UNL     1       7.506  -6.474  -6.910  1.00  0.00     0.051 A 
ATOM      6  C   UNL     1       8.263  -5.648  -6.073  1.00  0.00     0.157 A 
ENDROOT
BRANCH   1   7
ATOM      7  C   UNL     1      10.134  -7.637  -9.380  1.00  0.00     0.010 C 
ATOM      8  C   UNL     1      10.209  -7.119 -10.615  1.00  0.00     0.025 C 
BRANCH   8   9
ATOM      9  C   UNL     1       9.500  -5.912 -11.080  1.00  0.00     0.064 C 
ATOM     10  O   UNL     1      10.113  -4.813 -11.116  1.00  0.00    -0.545 OA
ATOM     11  O   UNL     1       8.191  -5.972 -11.548  1.00  0.00    -0.545 OA
ENDBRANCH   8   9
ENDBRANCH   1   7
BRANCH   4  12
ATOM     12  O   UNL     1      10.394  -4.645  -5.497  1.00  0.00    -0.504 OA
ATOM     13  H   UNL     1      10.064  -3.728  -5.216  1.00  0.00     0.293 HD
ENDBRANCH   4  12
BRANCH   6  14
ATOM     14  O   UNL     1       7.635  -5.004  -5.008  1.00  0.00    -0.504 OA
ATOM     15  H   UNL     1       7.587  -3.993  -4.943  1.00  0.00     0.293 HD
ENDBRANCH   6  14
TORSDOF 4
ENDMDL
MODEL 2
REMARK VINA RESULT:    -4.922      1.892      2.713
REMARK INTER + INTRA:          -6.052
REMARK INTER:                  -5.759
REMARK INTRA:                  -0.293
REMARK UNBOUND:                -0.267
REMARK SMILES O=C([O-])C=Cc1ccc(O)c(O)c1
REMARK SMILES IDX 6 1 13 2 7 3 11 4 8 5 9 6 5 7 4 8 2 9 1 10 3 11 12 12 10 14
REMARK H PARENT 12 13 10 15
REMARK Flexibility Score: inf
ROOT
ATOM      1  C   UNL     1       8.387  -7.781  -9.237  1.00  0.00    -0.022 A 
ATOM      2  C   UNL     1       7.824  -6.583  -8.777  1.00  0.00     0.058 A 
ATOM      3  C   UNL     1       9.651  -8.173  -8.768  1.00  0.00     0.012 A 
ATOM      4  C   UNL     1       8.538  -5.754  -7.896  1.00  0.00     0.157 A 
ATOM      5  C   UNL     1      10.363  -7.351  -7.891  1.00  0.00     0.051 A 
ATOM      6  C   UNL     1       9.815  -6.140  -7.456  1.00  0.00     0.157 A 
ENDROOT
BRANCH   1   7
ATOM      7  C   UNL     1       7.593  -8.660 -10.121  1.00  0.00     0.010 C 
ATOM      8  C   UNL     1       7.634  -8.656 -11.462  1.00  0.00     0.025 C 
BRANCH   8   9
ATOM      9  C   UNL     1       8.328  -7.654 -12.293  1.00  0.00     0.064 C 
ATOM     10  O   UNL     1       7.698  -6.639 -12.689  1.00  0.00    -0.545 OA
ATOM     11  O   UNL     1       9.682  -7.768 -12.590  1.00  0.00    -0.545 OA
ENDBRANCH   8   9
ENDBRANCH   1   7
BRANCH   4  12
ATOM     12  O   UNL     1       7.981  -4.554  -7.458  1.00  0.00    -0.504 OA
ATOM     13  H   UNL     1       8.403  -4.013  -6.712  1.00  0.00     0.293 HD
ENDBRANCH   4  12
BRANCH   6  14
ATOM     14  O   UNL     1      10.550  -5.338  -6.584  1.00  0.00    -0.504 OA
ATOM     15  H   UNL     1      11.253  -4.687  -6.915  1.00  0.00     0.293 HD
ENDBRANCH   6  14
TORSDOF 4
ENDMDL
MODEL 3
REMARK VINA RESULT:    -4.888      1.779      2.224
REMARK INTER + INTRA:          -6.013
REMARK INTER:                  -5.751
REMARK INTRA:                  -0.262
REMARK UNBOUND:                -0.267
REMARK SMILES O=C([O-])C=Cc1ccc(O)c(O)c1
REMARK SMILES IDX 6 1 13 2 7 3 11 4 8 5 9 6 5 7 4 8 2 9 1 10 3 11 12 12 10 14
REMARK H PARENT 12 13 10 15
REMARK Flexibility Score: inf
ROOT
ATOM      1  C   UNL     1       8.269  -7.498  -9.003  1.00  0.00    -0.022 A 
ATOM      2  C   UNL     1       9.586  -7.790  -8.626  1.00  0.00     0.058 A 
ATOM      3  C   UNL     1       7.641  -6.354  -8.484  1.00  0.00     0.012 A 
ATOM      4  C   UNL     1      10.257  -6.978  -7.697  1.00  0.00     0.157 A 
ATOM      5  C   UNL     1       8.306  -5.544  -7.560  1.00  0.00     0.051 A 
ATOM      6  C   UNL     1       9.610  -5.852  -7.159  1.00  0.00     0.157 A 
ENDROOT
BRANCH   1   7
ATOM      7  C   UNL     1       7.605  -8.338 -10.023  1.00  0.00     0.010 C 
ATOM      8  C   UNL     1       7.768  -8.222 -11.350  1.00  0.00     0.025 C 
BRANCH   8   9
ATOM      9  C   UNL     1       8.482  -7.127 -12.032  1.00  0.00     0.064 C 
ATOM     10  O   UNL     1       9.721  -7.227 -12.228  1.00  0.00    -0.545 OA
ATOM     11  O   UNL     1       7.806  -6.017 -12.528  1.00  0.00    -0.545 OA
ENDBRANCH   8   9
ENDBRANCH   1   7
BRANCH   4  12
ATOM     12  O   UNL     1      11.560  -7.285  -7.311  1.00  0.00    -0.504 OA
ATOM     13  H   UNL     1      11.758  -7.757  -6.437  1.00  0.00     0.293 HD
ENDBRANCH   4  12
BRANCH   6  14
ATOM     14  O   UNL     1      10.248  -5.028  -6.233  1.00  0.00    -0.504 OA
ATOM     15  H   UNL     1      10.728  -5.400  -5.423  1.00  0.00     0.293 HD
ENDBRANCH   6  14
TORSDOF 4
ENDMDL
MODEL 4
REMARK VINA RESULT:    -4.874      1.063      1.312
REMARK INTER + INTRA:          -5.996
REMARK INTER:                  -6.013
REMARK INTRA:                   0.018
REMARK UNBOUND:                -0.267
REMARK SMILES O=C([O-])C=Cc1ccc(O)c(O)c1
REMARK SMILES IDX 6 1 13 2 7 3 11 4 8 5 9 6 5 7 4 8 2 9 1 10 3 11 12 12 10 14
REMARK H PARENT 12 13 10 15
REMARK Flexibility Score: inf
ROOT
ATOM      1  C   UNL     1       9.728  -7.173  -8.324  1.00  0.00    -0.022 A 
ATOM      2  C   UNL     1      10.404  -6.327  -7.434  1.00  0.00     0.058 A 
ATOM      3  C   UNL     1       8.326  -7.237  -8.282  1.00  0.00     0.012 A 
ATOM      4  C   UNL     1       9.693  -5.591  -6.473  1.00  0.00     0.157 A 
ATOM      5  C   UNL     1       7.615  -6.506  -7.327  1.00  0.00     0.051 A 
ATOM      6  C   UNL     1       8.292  -5.686  -6.418  1.00  0.00     0.157 A 
ENDROOT
BRANCH   1   7
ATOM      7  C   UNL     1      10.496  -7.894  -9.361  1.00  0.00     0.010 C 
ATOM      8  C   UNL     1      11.368  -7.334 -10.213  1.00  0.00     0.025 C 
BRANCH   8   9
ATOM      9  C   UNL     1      11.575  -5.884 -10.395  1.00  0.00     0.064 C 
ATOM     10  O   UNL     1      12.677  -5.374 -10.068  1.00  0.00    -0.545 OA
ATOM     11  O   UNL     1      10.606  -5.081 -10.987  1.00  0.00    -0.545 OA
ENDBRANCH   8   9
ENDBRANCH   1   7
BRANCH   4  12
ATOM     12  O   UNL     1      10.373  -4.768  -5.578  1.00  0.00    -0.504 OA
ATOM     13  H   UNL     1      11.017  -4.053  -5.897  1.00  0.00     0.293 HD
ENDBRANCH   4  12
BRANCH   6  14
ATOM     14  O   UNL     1       7.557  -4.970  -5.474  1.00  0.00    -0.504 OA
ATOM     15  H   UNL     1       7.857  -4.887  -4.510  1.00  0.00     0.293 HD
ENDBRANCH   6  14
TORSDOF 4
ENDMDL
MODEL 5
REMARK VINA RESULT:    -4.641      1.674      2.139
REMARK INTER + INTRA:          -5.722
REMARK INTER:                  -5.441
REMARK INTRA:                  -0.281
REMARK UNBOUND:                -0.267
REMARK SMILES O=C([O-])C=Cc1ccc(O)c(O)c1
REMARK SMILES IDX 6 1 13 2 7 3 11 4 8 5 9 6 5 7 4 8 2 9 1 10 3 11 12 12 10 14
REMARK H PARENT 12 13 10 15
REMARK Flexibility Score: inf
ROOT
ATOM      1  C   UNL     1      10.471  -6.831  -8.172  1.00  0.00    -0.022 A 
ATOM      2  C   UNL     1       9.634  -5.896  -7.547  1.00  0.00     0.058 A 
ATOM      3  C   UNL     1      10.090  -8.183  -8.204  1.00  0.00     0.012 A 
ATOM      4  C   UNL     1       8.453  -6.312  -6.912  1.00  0.00     0.157 A 
ATOM      5  C   UNL     1       8.916  -8.599  -7.574  1.00  0.00     0.051 A 
ATOM      6  C   UNL     1       8.096  -7.671  -6.923  1.00  0.00     0.157 A 
ENDROOT
BRANCH   1   7
ATOM      7  C   UNL     1      11.681  -6.360  -8.879  1.00  0.00     0.010 C 
ATOM      8  C   UNL     1      11.706  -5.853 -10.121  1.00  0.00     0.025 C 
BRANCH   8   9
ATOM      9  C   UNL     1      10.575  -5.851 -11.068  1.00  0.00     0.064 C 
ATOM     10  O   UNL     1      10.361  -6.870 -11.774  1.00  0.00    -0.545 OA
ATOM     11  O   UNL     1       9.696  -4.776 -11.148  1.00  0.00    -0.545 OA
ENDBRANCH   8   9
ENDBRANCH   1   7
BRANCH   4  12
ATOM     12  O   UNL     1       7.636  -5.380  -6.275  1.00  0.00    -0.504 OA
ATOM     13  H   UNL     1       7.838  -5.047  -5.339  1.00  0.00     0.293 HD
ENDBRANCH   4  12
BRANCH   6  14
ATOM     14  O   UNL     1       6.931  -8.115  -6.299  1.00  0.00    -0.504 OA
ATOM     15  H   UNL     1       6.534  -7.638  -5.499  1.00  0.00     0.293 HD
ENDBRANCH   6  14
TORSDOF 4
ENDMDL
MODEL 6
REMARK VINA RESULT:    -4.581      1.895      2.444
REMARK INTER + INTRA:          -5.652
REMARK INTER:                  -5.406
REMARK INTRA:                  -0.246
REMARK UNBOUND:                -0.267
REMARK SMILES O=C([O-])C=Cc1ccc(O)c(O)c1
REMARK SMILES IDX 6 1 13 2 7 3 11 4 8 5 9 6 5 7 4 8 2 9 1 10 3 11 12 12 10 14
REMARK H PARENT 12 13 10 15
REMARK Flexibility Score: inf
ROOT
ATOM      1  C   UNL     1       8.095  -6.438  -7.737  1.00  0.00    -0.022 A 
ATOM      2  C   UNL     1       8.107  -5.412  -6.782  1.00  0.00     0.058 A 
ATOM      3  C   UNL     1       7.868  -7.761  -7.323  1.00  0.00     0.012 A 
ATOM      4  C   UNL     1       7.946  -5.708  -5.418  1.00  0.00     0.157 A 
ATOM      5  C   UNL     1       7.708  -8.058  -5.968  1.00  0.00     0.051 A 
ATOM      6  C   UNL     1       7.750  -7.038  -5.011  1.00  0.00     0.157 A 
ENDROOT
BRANCH   1   7
ATOM      7  C   UNL     1       8.212  -6.094  -9.169  1.00  0.00     0.010 C 
ATOM      8  C   UNL     1       9.272  -6.361  -9.948  1.00  0.00     0.025 C 
BRANCH   8   9
ATOM      9  C   UNL     1      10.574  -6.869  -9.476  1.00  0.00     0.064 C 
ATOM     10  O   UNL     1      10.865  -8.080  -9.655  1.00  0.00    -0.545 OA
ATOM     11  O   UNL     1      11.518  -6.024  -8.902  1.00  0.00    -0.545 OA
ENDBRANCH   8   9
ENDBRANCH   1   7
BRANCH   4  12
ATOM     12  O   UNL     1       7.979  -4.685  -4.472  1.00  0.00    -0.504 OA
ATOM     13  H   UNL     1       8.790  -4.530  -3.885  1.00  0.00     0.293 HD
ENDBRANCH   4  12
BRANCH   6  14
ATOM     14  O   UNL     1       7.591  -7.364  -3.665  1.00  0.00    -0.504 OA
ATOM     15  H   UNL     1       6.681  -7.561  -3.264  1.00  0.00     0.293 HD
ENDBRANCH   6  14
TORSDOF 4
ENDMDL
MODEL 7
REMARK VINA RESULT:    -4.565      1.959      2.739
REMARK INTER + INTRA:          -5.633
REMARK INTER:                  -5.377
REMARK INTRA:                  -0.255
REMARK UNBOUND:                -0.267
REMARK SMILES O=C([O-])C=Cc1ccc(O)c(O)c1
REMARK SMILES IDX 6 1 13 2 7 3 11 4 8 5 9 6 5 7 4 8 2 9 1 10 3 11 12 12 10 14
REMARK H PARENT 12 13 10 15
REMARK Flexibility Score: inf
ROOT
ATOM      1  C   UNL     1       9.289  -5.738  -9.687  1.00  0.00    -0.022 A 
ATOM      2  C   UNL     1       7.987  -5.240  -9.546  1.00  0.00     0.058 A 
ATOM      3  C   UNL     1      10.005  -6.128  -8.543  1.00  0.00     0.012 A 
ATOM      4  C   UNL     1       7.420  -5.081  -8.271  1.00  0.00     0.157 A 
ATOM      5  C   UNL     1       9.444  -5.971  -7.274  1.00  0.00     0.051 A 
ATOM      6  C   UNL     1       8.156  -5.445  -7.130  1.00  0.00     0.157 A 
ENDROOT
BRANCH   1   7
ATOM      7  C   UNL     1       9.842  -5.947 -11.042  1.00  0.00     0.010 C 
ATOM      8  C   UNL     1       9.530  -6.964 -11.861  1.00  0.00     0.025 C 
BRANCH   8   9
ATOM      9  C   UNL     1       8.734  -8.149 -11.488  1.00  0.00     0.064 C 
ATOM     10  O   UNL     1       9.275  -9.068 -10.822  1.00  0.00    -0.545 OA
ATOM     11  O   UNL     1       7.380  -8.240 -11.793  1.00  0.00    -0.545 OA
ENDBRANCH   8   9
ENDBRANCH   1   7
BRANCH   4  12
ATOM     12  O   UNL     1       6.132  -4.566  -8.137  1.00  0.00    -0.504 OA
ATOM     13  H   UNL     1       5.835  -4.090  -7.293  1.00  0.00     0.293 HD
ENDBRANCH   4  12
BRANCH   6  14
ATOM     14  O   UNL     1       7.622  -5.296  -5.851  1.00  0.00    -0.504 OA
ATOM     15  H   UNL     1       7.624  -4.406  -5.368  1.00  0.00     0.293 HD
ENDBRANCH   6  14
TORSDOF 4
ENDMDL
MODEL 8
REMARK VINA RESULT:    -4.509      1.667      2.464
REMARK INTER + INTRA:          -5.567
REMARK INTER:                  -5.325
REMARK INTRA:                  -0.242
REMARK UNBOUND:                -0.267
REMARK SMILES O=C([O-])C=Cc1ccc(O)c(O)c1
REMARK SMILES IDX 6 1 13 2 7 3 11 4 8 5 9 6 5 7 4 8 2 9 1 10 3 11 12 12 10 14
REMARK H PARENT 12 13 10 15
REMARK Flexibility Score: inf
ROOT
ATOM      1  C   UNL     1       9.053  -6.677  -9.153  1.00  0.00    -0.022 A 
ATOM      2  C   UNL     1       7.885  -5.904  -9.207  1.00  0.00     0.058 A 
ATOM      3  C   UNL     1       9.633  -6.961  -7.906  1.00  0.00     0.012 A 
ATOM      4  C   UNL     1       7.328  -5.374  -8.032  1.00  0.00     0.157 A 
ATOM      5  C   UNL     1       9.082  -6.436  -6.736  1.00  0.00     0.051 A 
ATOM      6  C   UNL     1       7.933  -5.638  -6.791  1.00  0.00     0.157 A 
ENDROOT
BRANCH   1   7
ATOM      7  C   UNL     1       9.587  -7.267 -10.398  1.00  0.00     0.010 C 
ATOM      8  C   UNL     1      10.727  -6.900 -11.005  1.00  0.00     0.025 C 
BRANCH   8   9
ATOM      9  C   UNL     1      11.546  -5.726 -10.650  1.00  0.00     0.064 C 
ATOM     10  O   UNL     1      11.324  -4.626 -11.218  1.00  0.00    -0.545 OA
ATOM     11  O   UNL     1      12.510  -5.788  -9.649  1.00  0.00    -0.545 OA
ENDBRANCH   8   9
ENDBRANCH   1   7
BRANCH   4  12
ATOM     12  O   UNL     1       6.178  -4.590  -8.094  1.00  0.00    -0.504 OA
ATOM     13  H   UNL     1       5.356  -4.891  -8.606  1.00  0.00     0.293 HD
ENDBRANCH   4  12
BRANCH   6  14
ATOM     14  O   UNL     1       7.407  -5.125  -5.607  1.00  0.00    -0.504 OA
ATOM     15  H   UNL     1       7.889  -4.416  -5.068  1.00  0.00     0.293 HD
ENDBRANCH   6  14
TORSDOF 4
ENDMDL
MODEL 9
REMARK VINA RESULT:    -4.407     11.688     12.442
REMARK INTER + INTRA:          -5.448
REMARK INTER:                  -5.223
REMARK INTRA:                  -0.224
REMARK UNBOUND:                -0.267
REMARK SMILES O=C([O-])C=Cc1ccc(O)c(O)c1
REMARK SMILES IDX 6 1 13 2 7 3 11 4 8 5 9 6 5 7 4 8 2 9 1 10 3 11 12 12 10 14
REMARK H PARENT 12 13 10 15
REMARK Flexibility Score: inf
ROOT
ATOM      1  C   UNL     1       4.485   4.928  -9.244  1.00  0.00    -0.022 A 
ATOM      2  C   UNL     1       5.713   4.318  -9.532  1.00  0.00     0.058 A 
ATOM      3  C   UNL     1       3.908   4.748  -7.975  1.00  0.00     0.012 A 
ATOM      4  C   UNL     1       6.339   3.494  -8.583  1.00  0.00     0.157 A 
ATOM      5  C   UNL     1       4.527   3.929  -7.029  1.00  0.00     0.051 A 
ATOM      6  C   UNL     1       5.739   3.296  -7.327  1.00  0.00     0.157 A 
ENDROOT
BRANCH   1   7
ATOM      7  C   UNL     1       3.875   5.833 -10.240  1.00  0.00     0.010 C 
ATOM      8  C   UNL     1       4.031   7.166 -10.276  1.00  0.00     0.025 C 
BRANCH   8   9
ATOM      9  C   UNL     1       4.676   7.981  -9.229  1.00  0.00     0.064 C 
ATOM     10  O   UNL     1       5.799   8.500  -9.458  1.00  0.00    -0.545 OA
ATOM     11  O   UNL     1       4.040   8.247  -8.021  1.00  0.00    -0.545 OA
ENDBRANCH   8   9
ENDBRANCH   1   7
BRANCH   4  12
ATOM     12  O   UNL     1       7.551   2.875  -8.883  1.00  0.00    -0.504 OA
ATOM     13  H   UNL     1       7.620   2.160  -9.598  1.00  0.00     0.293 HD
ENDBRANCH   4  12
BRANCH   6  14
ATOM     14  O   UNL     1       6.333   2.481  -6.365  1.00  0.00    -0.504 OA
ATOM     15  H   UNL     1       6.808   2.863  -5.556  1.00  0.00     0.293 HD
ENDBRANCH   6  14
TORSDOF 4
ENDMDL
