MODEL 1
REMARK VINA RESULT:    -1.286      0.000      0.000
REMARK INTER + INTRA:          -3.816
REMARK INTER:                  -2.188
REMARK INTRA:                  -1.628
REMARK UNBOUND:                -1.628
REMARK SMILES CCCCCCCCCCCCCC(=O)[O-]
REMARK SMILES IDX 8 1 9 2 10 3 11 4 12 5 13 6 14 7 15 8 16 9 7 10 6 11 5 12
REMARK SMILES IDX 4 13 3 14 2 15 1 16
REMARK H PARENT
REMARK Flexibility Score: inf
ROOT
ATOM      1  C   UNL     1      30.421  -9.481  17.611  1.00  0.00     0.000 C 
ENDROOT
BRANCH   1   2
ATOM      2  C   UNL     1      30.466 -10.775  16.784  1.00  0.00     0.000 C 
BRANCH   2   3
ATOM      3  C   UNL     1      29.747 -10.594  15.441  1.00  0.00     0.000 C 
BRANCH   3   4
ATOM      4  C   UNL     1      29.770  -9.123  14.998  1.00  0.00     0.000 C 
BRANCH   4   5
ATOM      5  C   UNL     1      30.762  -8.865  13.853  1.00  0.00     0.006 C 
BRANCH   5   6
ATOM      6  C   UNL     1      31.125 -10.143  13.088  1.00  0.00     0.053 C 
BRANCH   6   7
ATOM      7  C   UNL     1      30.416 -10.181  11.770  1.00  0.00     0.041 C 
ATOM      8  O   UNL     1      29.183  -9.930  11.707  1.00  0.00    -0.550 OA
ATOM      9  O   UNL     1      31.125 -10.450  10.607  1.00  0.00    -0.550 OA
ENDBRANCH   6   7
ENDBRANCH   5   6
ENDBRANCH   4   5
ENDBRANCH   3   4
ENDBRANCH   2   3
ENDBRANCH   1   2
BRANCH   1  10
ATOM     10  C   UNL     1      29.964  -9.717  19.059  1.00  0.00     0.000 C 
BRANCH  10  11
ATOM     11  C   UNL     1      28.869 -10.793  19.164  1.00  0.00    -0.000 C 
BRANCH  11  12
ATOM     12  C   UNL     1      27.472 -10.190  19.393  1.00  0.00    -0.000 C 
BRANCH  12  13
ATOM     13  C   UNL     1      26.427 -10.738  18.406  1.00  0.00    -0.000 C 
BRANCH  13  14
ATOM     14  C   UNL     1      26.467 -10.032  17.039  1.00  0.00    -0.000 C 
BRANCH  14  15
ATOM     15  C   UNL     1      26.776  -8.525  17.096  1.00  0.00    -0.003 C 
ATOM     16  C   UNL     1      25.542  -7.672  17.394  1.00  0.00     0.004 C 
ENDBRANCH  14  15
ENDBRANCH  13  14
ENDBRANCH  12  13
ENDBRANCH  11  12
ENDBRANCH  10  11
ENDBRANCH   1  10
TORSDOF 12
ENDMDL
MODEL 2
REMARK VINA RESULT:    -1.278      3.947      5.851
REMARK INTER + INTRA:          -3.803
REMARK INTER:                  -1.532
REMARK INTRA:                  -2.271
REMARK UNBOUND:                -1.628
REMARK SMILES CCCCCCCCCCCCCC(=O)[O-]
REMARK SMILES IDX 8 1 9 2 10 3 11 4 12 5 13 6 14 7 15 8 16 9 7 10 6 11 5 12
REMARK SMILES IDX 4 13 3 14 2 15 1 16
REMARK H PARENT
REMARK Flexibility Score: inf
ROOT
ATOM      1  C   UNL     1      29.017 -11.060  18.268  1.00  0.00     0.000 C 
ENDROOT
BRANCH   1   2
ATOM      2  C   UNL     1      27.772 -10.344  17.719  1.00  0.00     0.000 C 
BRANCH   2   3
ATOM      3  C   UNL     1      27.340  -9.203  18.649  1.00  0.00     0.000 C 
BRANCH   3   4
ATOM      4  C   UNL     1      27.341  -7.858  17.908  1.00  0.00     0.000 C 
BRANCH   4   5
ATOM      5  C   UNL     1      28.137  -6.774  18.650  1.00  0.00     0.006 C 
BRANCH   5   6
ATOM      6  C   UNL     1      28.746  -7.283  19.963  1.00  0.00     0.053 C 
BRANCH   6   7
ATOM      7  C   UNL     1      30.049  -6.598  20.233  1.00  0.00     0.041 C 
ATOM      8  O   UNL     1      31.022  -7.249  20.699  1.00  0.00    -0.550 OA
ATOM      9  O   UNL     1      30.204  -5.252  19.927  1.00  0.00    -0.550 OA
ENDBRANCH   6   7
ENDBRANCH   5   6
ENDBRANCH   4   5
ENDBRANCH   3   4
ENDBRANCH   2   3
ENDBRANCH   1   2
BRANCH   1  10
ATOM     10  C   UNL     1      30.282 -10.762  17.447  1.00  0.00     0.000 C 
BRANCH  10  11
ATOM     11  C   UNL     1      31.125  -9.625  18.052  1.00  0.00    -0.000 C 
BRANCH  11  12
ATOM     12  C   UNL     1      31.113  -8.357  17.182  1.00  0.00    -0.000 C 
BRANCH  12  13
ATOM     13  C   UNL     1      30.607  -8.628  15.754  1.00  0.00    -0.000 C 
BRANCH  13  14
ATOM     14  C   UNL     1      29.705  -7.503  15.215  1.00  0.00    -0.000 C 
BRANCH  14  15
ATOM     15  C   UNL     1      28.665  -7.949  14.172  1.00  0.00    -0.003 C 
ATOM     16  C   UNL     1      28.251  -9.412  14.329  1.00  0.00     0.004 C 
ENDBRANCH  14  15
ENDBRANCH  13  14
ENDBRANCH  12  13
ENDBRANCH  11  12
ENDBRANCH  10  11
ENDBRANCH   1  10
TORSDOF 12
ENDMDL
MODEL 3
REMARK VINA RESULT:    -1.252      3.855      5.950
REMARK INTER + INTRA:          -3.758
REMARK INTER:                  -1.543
REMARK INTRA:                  -2.215
REMARK UNBOUND:                -1.628
REMARK SMILES CCCCCCCCCCCCCC(=O)[O-]
REMARK SMILES IDX 8 1 9 2 10 3 11 4 12 5 13 6 14 7 15 8 16 9 7 10 6 11 5 12
REMARK SMILES IDX 4 13 3 14 2 15 1 16
REMARK H PARENT
REMARK Flexibility Score: inf
ROOT
ATOM      1  C   UNL     1      29.774  -7.530  15.773  1.00  0.00     0.000 C 
ENDROOT
BRANCH   1   2
ATOM      2  C   UNL     1      28.540  -8.133  15.083  1.00  0.00     0.000 C 
BRANCH   2   3
ATOM      3  C   UNL     1      27.330  -8.136  16.026  1.00  0.00     0.000 C 
BRANCH   3   4
ATOM      4  C   UNL     1      27.626  -7.336  17.304  1.00  0.00     0.000 C 
BRANCH   4   5
ATOM      5  C   UNL     1      26.916  -7.911  18.539  1.00  0.00     0.006 C 
BRANCH   5   6
ATOM      6  C   UNL     1      26.065  -9.144  18.211  1.00  0.00     0.053 C 
BRANCH   6   7
ATOM      7  C   UNL     1      24.785  -9.116  18.986  1.00  0.00     0.041 C 
ATOM      8  O   UNL     1      23.716  -8.748  18.431  1.00  0.00    -0.550 OA
ATOM      9  O   UNL     1      24.765  -9.539  20.309  1.00  0.00    -0.550 OA
ENDBRANCH   6   7
ENDBRANCH   5   6
ENDBRANCH   4   5
ENDBRANCH   3   4
ENDBRANCH   2   3
ENDBRANCH   1   2
BRANCH   1  10
ATOM     10  C   UNL     1      31.055  -8.338  15.510  1.00  0.00     0.000 C 
BRANCH  10  11
ATOM     11  C   UNL     1      30.773  -9.832  15.272  1.00  0.00    -0.000 C 
BRANCH  11  12
ATOM     12  C   UNL     1      30.991 -10.681  16.536  1.00  0.00    -0.000 C 
BRANCH  12  13
ATOM     13  C   UNL     1      29.680 -10.962  17.289  1.00  0.00    -0.000 C 
BRANCH  13  14
ATOM     14  C   UNL     1      29.628 -10.290  18.673  1.00  0.00    -0.000 C 
BRANCH  14  15
ATOM     15  C   UNL     1      30.896  -9.507  19.061  1.00  0.00    -0.003 C 
ATOM     16  C   UNL     1      30.609  -8.051  19.429  1.00  0.00     0.004 C 
ENDBRANCH  14  15
ENDBRANCH  13  14
ENDBRANCH  12  13
ENDBRANCH  11  12
ENDBRANCH  10  11
ENDBRANCH   1  10
TORSDOF 12
ENDMDL
MODEL 4
REMARK VINA RESULT:    -1.243      4.647      6.894
REMARK INTER + INTRA:          -3.744
REMARK INTER:                  -1.633
REMARK INTRA:                  -2.111
REMARK UNBOUND:                -1.628
REMARK SMILES CCCCCCCCCCCCCC(=O)[O-]
REMARK SMILES IDX 8 1 9 2 10 3 11 4 12 5 13 6 14 7 15 8 16 9 7 10 6 11 5 12
REMARK SMILES IDX 4 13 3 14 2 15 1 16
REMARK H PARENT
REMARK Flexibility Score: inf
ROOT
ATOM      1  C   UNL     1      26.909  -8.403  17.093  1.00  0.00     0.000 C 
ENDROOT
BRANCH   1   2
ATOM      2  C   UNL     1      26.639  -9.720  17.836  1.00  0.00     0.000 C 
BRANCH   2   3
ATOM      3  C   UNL     1      27.276  -9.704  19.231  1.00  0.00     0.000 C 
BRANCH   3   4
ATOM      4  C   UNL     1      27.797 -11.098  19.614  1.00  0.00     0.000 C 
BRANCH   4   5
ATOM      5  C   UNL     1      28.731 -11.065  20.834  1.00  0.00     0.006 C 
BRANCH   5   6
ATOM      6  C   UNL     1      29.441  -9.715  20.999  1.00  0.00     0.053 C 
BRANCH   6   7
ATOM      7  C   UNL     1      29.334  -9.240  22.413  1.00  0.00     0.041 C 
ATOM      8  O   UNL     1      28.212  -8.931  22.895  1.00  0.00    -0.550 OA
ATOM      9  O   UNL     1      30.468  -9.180  23.214  1.00  0.00    -0.550 OA
ENDBRANCH   6   7
ENDBRANCH   5   6
ENDBRANCH   4   5
ENDBRANCH   3   4
ENDBRANCH   2   3
ENDBRANCH   1   2
BRANCH   1  10
ATOM     10  C   UNL     1      27.387  -7.280  18.029  1.00  0.00     0.000 C 
BRANCH  10  11
ATOM     11  C   UNL     1      28.777  -6.744  17.646  1.00  0.00    -0.000 C 
BRANCH  11  12
ATOM     12  C   UNL     1      29.216  -7.195  16.242  1.00  0.00    -0.000 C 
BRANCH  12  13
ATOM     13  C   UNL     1      30.501  -8.040  16.270  1.00  0.00    -0.000 C 
BRANCH  13  14
ATOM     14  C   UNL     1      30.737  -8.726  17.627  1.00  0.00    -0.000 C 
BRANCH  14  15
ATOM     15  C   UNL     1      30.779 -10.264  17.578  1.00  0.00    -0.003 C 
ATOM     16  C   UNL     1      29.936 -10.849  16.446  1.00  0.00     0.004 C 
ENDBRANCH  14  15
ENDBRANCH  13  14
ENDBRANCH  12  13
ENDBRANCH  11  12
ENDBRANCH  10  11
ENDBRANCH   1  10
TORSDOF 12
ENDMDL
MODEL 5
REMARK VINA RESULT:    -1.231      3.042      4.753
REMARK INTER + INTRA:          -3.723
REMARK INTER:                  -1.890
REMARK INTRA:                  -1.833
REMARK UNBOUND:                -1.628
REMARK SMILES CCCCCCCCCCCCCC(=O)[O-]
REMARK SMILES IDX 8 1 9 2 10 3 11 4 12 5 13 6 14 7 15 8 16 9 7 10 6 11 5 12
REMARK SMILES IDX 4 13 3 14 2 15 1 16
REMARK H PARENT
REMARK Flexibility Score: inf
ROOT
ATOM      1  C   UNL     1      28.928 -10.802  13.203  1.00  0.00     0.000 C 
ENDROOT
BRANCH   1   2
ATOM      2  C   UNL     1      30.453 -10.633  13.297  1.00  0.00     0.000 C 
BRANCH   2   3
ATOM      3  C   UNL     1      30.935 -10.801  14.744  1.00  0.00     0.000 C 
BRANCH   3   4
ATOM      4  C   UNL     1      30.962  -9.450  15.476  1.00  0.00     0.000 C 
BRANCH   4   5
ATOM      5  C   UNL     1      29.978  -9.396  16.655  1.00  0.00     0.006 C 
BRANCH   5   6
ATOM      6  C   UNL     1      29.640 -10.787  17.206  1.00  0.00     0.053 C 
BRANCH   6   7
ATOM      7  C   UNL     1      28.742 -10.672  18.397  1.00  0.00     0.041 C 
ATOM      8  O   UNL     1      27.491 -10.731  18.255  1.00  0.00    -0.550 OA
ATOM      9  O   UNL     1      29.285 -10.546  19.669  1.00  0.00    -0.550 OA
ENDBRANCH   6   7
ENDBRANCH   5   6
ENDBRANCH   4   5
ENDBRANCH   3   4
ENDBRANCH   2   3
ENDBRANCH   1   2
BRANCH   1  10
ATOM     10  C   UNL     1      28.206  -9.488  12.861  1.00  0.00     0.000 C 
BRANCH  10  11
ATOM     11  C   UNL     1      27.329  -8.978  14.019  1.00  0.00    -0.000 C 
BRANCH  11  12
ATOM     12  C   UNL     1      26.748 -10.123  14.865  1.00  0.00    -0.000 C 
BRANCH  12  13
ATOM     13  C   UNL     1      25.444  -9.725  15.577  1.00  0.00    -0.000 C 
BRANCH  13  14
ATOM     14  C   UNL     1      25.356  -8.216  15.865  1.00  0.00    -0.000 C 
BRANCH  14  15
ATOM     15  C   UNL     1      25.733  -7.805  17.300  1.00  0.00    -0.003 C 
ATOM     16  C   UNL     1      27.138  -7.211  17.402  1.00  0.00     0.004 C 
ENDBRANCH  14  15
ENDBRANCH  13  14
ENDBRANCH  12  13
ENDBRANCH  11  12
ENDBRANCH  10  11
ENDBRANCH   1  10
TORSDOF 12
ENDMDL
MODEL 6
REMARK VINA RESULT:    -1.208      3.497      5.403
REMARK INTER + INTRA:          -3.683
REMARK INTER:                  -1.692
REMARK INTRA:                  -1.991
REMARK UNBOUND:                -1.628
REMARK SMILES CCCCCCCCCCCCCC(=O)[O-]
REMARK SMILES IDX 8 1 9 2 10 3 11 4 12 5 13 6 14 7 15 8 16 9 7 10 6 11 5 12
REMARK SMILES IDX 4 13 3 14 2 15 1 16
REMARK H PARENT
REMARK Flexibility Score: inf
ROOT
ATOM      1  C   UNL     1      28.809  -6.307  17.086  1.00  0.00     0.000 C 
ENDROOT
BRANCH   1   2
ATOM      2  C   UNL     1      29.381  -7.031  15.857  1.00  0.00     0.000 C 
BRANCH   2   3
ATOM      3  C   UNL     1      28.418  -8.117  15.362  1.00  0.00     0.000 C 
BRANCH   3   4
ATOM      4  C   UNL     1      27.534  -8.633  16.508  1.00  0.00     0.000 C 
BRANCH   4   5
ATOM      5  C   UNL     1      27.191 -10.124  16.365  1.00  0.00     0.006 C 
BRANCH   5   6
ATOM      6  C   UNL     1      25.714 -10.360  16.025  1.00  0.00     0.053 C 
BRANCH   6   7
ATOM      7  C   UNL     1      24.948 -10.730  17.257  1.00  0.00     0.041 C 
ATOM      8  O   UNL     1      25.559 -11.054  18.309  1.00  0.00    -0.550 OA
ATOM      9  O   UNL     1      23.560 -10.674  17.256  1.00  0.00    -0.550 OA
ENDBRANCH   6   7
ENDBRANCH   5   6
ENDBRANCH   4   5
ENDBRANCH   3   4
ENDBRANCH   2   3
ENDBRANCH   1   2
BRANCH   1  10
ATOM     10  C   UNL     1      29.795  -6.266  18.264  1.00  0.00     0.000 C 
BRANCH  10  11
ATOM     11  C   UNL     1      30.712  -7.501  18.309  1.00  0.00    -0.000 C 
BRANCH  11  12
ATOM     12  C   UNL     1      30.149  -8.621  19.201  1.00  0.00    -0.000 C 
BRANCH  12  13
ATOM     13  C   UNL     1      30.329 -10.016  18.579  1.00  0.00    -0.000 C 
BRANCH  13  14
ATOM     14  C   UNL     1      31.125  -9.985  17.261  1.00  0.00    -0.000 C 
BRANCH  14  15
ATOM     15  C   UNL     1      30.708 -11.046  16.227  1.00  0.00    -0.003 C 
ATOM     16  C   UNL     1      31.121 -10.684  14.800  1.00  0.00     0.004 C 
ENDBRANCH  14  15
ENDBRANCH  13  14
ENDBRANCH  12  13
ENDBRANCH  11  12
ENDBRANCH  10  11
ENDBRANCH   1  10
TORSDOF 12
ENDMDL
MODEL 7
REMARK VINA RESULT:    -1.188      3.896      6.518
REMARK INTER + INTRA:          -3.650
REMARK INTER:                  -1.894
REMARK INTRA:                  -1.756
REMARK UNBOUND:                -1.628
REMARK SMILES CCCCCCCCCCCCCC(=O)[O-]
REMARK SMILES IDX 8 1 9 2 10 3 11 4 12 5 13 6 14 7 15 8 16 9 7 10 6 11 5 12
REMARK SMILES IDX 4 13 3 14 2 15 1 16
REMARK H PARENT
REMARK Flexibility Score: inf
ROOT
ATOM      1  C   UNL     1      26.119  -8.321  15.927  1.00  0.00     0.000 C 
ENDROOT
BRANCH   1   2
ATOM      2  C   UNL     1      26.152  -8.666  17.425  1.00  0.00     0.000 C 
BRANCH   2   3
ATOM      3  C   UNL     1      25.885 -10.160  17.650  1.00  0.00     0.000 C 
BRANCH   3   4
ATOM      4  C   UNL     1      26.948 -10.778  18.570  1.00  0.00     0.000 C 
BRANCH   4   5
ATOM      5  C   UNL     1      27.542  -9.758  19.555  1.00  0.00     0.006 C 
BRANCH   5   6
ATOM      6  C   UNL     1      29.054  -9.933  19.746  1.00  0.00     0.053 C 
BRANCH   6   7
ATOM      7  C   UNL     1      29.359 -10.332  21.155  1.00  0.00     0.041 C 
ATOM      8  O   UNL     1      30.411  -9.924  21.716  1.00  0.00    -0.550 OA
ATOM      9  O   UNL     1      28.460 -11.117  21.866  1.00  0.00    -0.550 OA
ENDBRANCH   6   7
ENDBRANCH   5   6
ENDBRANCH   4   5
ENDBRANCH   3   4
ENDBRANCH   2   3
ENDBRANCH   1   2
BRANCH   1  10
ATOM     10  C   UNL     1      27.514  -8.345  15.282  1.00  0.00     0.000 C 
BRANCH  10  11
ATOM     11  C   UNL     1      28.626  -7.929  16.262  1.00  0.00    -0.000 C 
BRANCH  11  12
ATOM     12  C   UNL     1      29.826  -8.891  16.233  1.00  0.00    -0.000 C 
BRANCH  12  13
ATOM     13  C   UNL     1      29.407 -10.347  15.968  1.00  0.00    -0.000 C 
BRANCH  13  14
ATOM     14  C   UNL     1      30.315 -11.055  14.947  1.00  0.00    -0.000 C 
BRANCH  14  15
ATOM     15  C   UNL     1      29.752 -11.125  13.516  1.00  0.00    -0.003 C 
ATOM     16  C   UNL     1      30.396 -10.112  12.570  1.00  0.00     0.004 C 
ENDBRANCH  14  15
ENDBRANCH  13  14
ENDBRANCH  12  13
ENDBRANCH  11  12
ENDBRANCH  10  11
ENDBRANCH   1  10
TORSDOF 12
ENDMDL
MODEL 8
REMARK VINA RESULT:    -1.097      4.916      6.956
REMARK INTER + INTRA:          -3.495
REMARK INTER:                  -1.737
REMARK INTRA:                  -1.758
REMARK UNBOUND:                -1.628
REMARK SMILES CCCCCCCCCCCCCC(=O)[O-]
REMARK SMILES IDX 8 1 9 2 10 3 11 4 12 5 13 6 14 7 15 8 16 9 7 10 6 11 5 12
REMARK SMILES IDX 4 13 3 14 2 15 1 16
REMARK H PARENT
REMARK Flexibility Score: inf
ROOT
ATOM      1  C   UNL     1      29.663 -10.852  17.779  1.00  0.00     0.000 C 
ENDROOT
BRANCH   1   2
ATOM      2  C   UNL     1      30.743  -9.869  18.258  1.00  0.00     0.000 C 
BRANCH   2   3
ATOM      3  C   UNL     1      30.634  -9.628  19.769  1.00  0.00     0.000 C 
BRANCH   3   4
ATOM      4  C   UNL     1      29.268  -9.029  20.134  1.00  0.00     0.000 C 
BRANCH   4   5
ATOM      5  C   UNL     1      28.648  -9.685  21.378  1.00  0.00     0.006 C 
BRANCH   5   6
ATOM      6  C   UNL     1      29.393 -10.954  21.810  1.00  0.00     0.053 C 
BRANCH   6   7
ATOM      7  C   UNL     1      29.946 -10.790  23.191  1.00  0.00     0.041 C 
ATOM      8  O   UNL     1      31.107 -10.329  23.358  1.00  0.00    -0.550 OA
ATOM      9  O   UNL     1      29.164 -11.102  24.295  1.00  0.00    -0.550 OA
ENDBRANCH   6   7
ENDBRANCH   5   6
ENDBRANCH   4   5
ENDBRANCH   3   4
ENDBRANCH   2   3
ENDBRANCH   1   2
BRANCH   1  10
ATOM     10  C   UNL     1      28.931 -10.361  16.519  1.00  0.00     0.000 C 
BRANCH  10  11
ATOM     11  C   UNL     1      27.590  -9.679  16.844  1.00  0.00    -0.000 C 
BRANCH  11  12
ATOM     12  C   UNL     1      27.463  -8.291  16.193  1.00  0.00    -0.000 C 
BRANCH  12  13
ATOM     13  C   UNL     1      27.759  -7.149  17.181  1.00  0.00    -0.000 C 
BRANCH  13  14
ATOM     14  C   UNL     1      29.243  -6.741  17.196  1.00  0.00    -0.000 C 
BRANCH  14  15
ATOM     15  C   UNL     1      29.651  -5.821  18.361  1.00  0.00    -0.003 C 
ATOM     16  C   UNL     1      31.125  -5.956  18.742  1.00  0.00     0.004 C 
ENDBRANCH  14  15
ENDBRANCH  13  14
ENDBRANCH  12  13
ENDBRANCH  11  12
ENDBRANCH  10  11
ENDBRANCH   1  10
TORSDOF 12
ENDMDL
MODEL 9
REMARK VINA RESULT:     1.485      5.155      7.743
REMARK INTER + INTRA:           0.899
REMARK INTER:                   2.606
REMARK INTRA:                  -1.707
REMARK UNBOUND:                -1.628
REMARK SMILES CCCCCCCCCCCCCC(=O)[O-]
REMARK SMILES IDX 8 1 9 2 10 3 11 4 12 5 13 6 14 7 15 8 16 9 7 10 6 11 5 12
REMARK SMILES IDX 4 13 3 14 2 15 1 16
REMARK H PARENT
REMARK Flexibility Score: inf
ROOT
ATOM      1  C   UNL     1      27.280  -9.851  20.486  1.00  0.00     0.000 C 
ENDROOT
BRANCH   1   2
ATOM      2  C   UNL     1      27.808 -10.607  21.715  1.00  0.00     0.000 C 
BRANCH   2   3
ATOM      3  C   UNL     1      29.248 -11.085  21.489  1.00  0.00     0.000 C 
BRANCH   3   4
ATOM      4  C   UNL     1      30.029 -11.125  22.811  1.00  0.00     0.000 C 
BRANCH   4   5
ATOM      5  C   UNL     1      31.125 -10.050  22.884  1.00  0.00     0.006 C 
BRANCH   5   6
ATOM      6  C   UNL     1      30.973  -9.134  24.105  1.00  0.00     0.053 C 
BRANCH   6   7
ATOM      7  C   UNL     1      29.719  -8.326  23.997  1.00  0.00     0.041 C 
ATOM      8  O   UNL     1      29.593  -7.470  23.081  1.00  0.00    -0.550 OA
ATOM      9  O   UNL     1      28.670  -8.548  24.880  1.00  0.00    -0.550 OA
ENDBRANCH   6   7
ENDBRANCH   5   6
ENDBRANCH   4   5
ENDBRANCH   3   4
ENDBRANCH   2   3
ENDBRANCH   1   2
BRANCH   1  10
ATOM     10  C   UNL     1      26.414 -10.734  19.573  1.00  0.00     0.000 C 
BRANCH  10  11
ATOM     11  C   UNL     1      26.794 -10.599  18.088  1.00  0.00    -0.000 C 
BRANCH  11  12
ATOM     12  C   UNL     1      28.107  -9.824  17.884  1.00  0.00    -0.000 C 
BRANCH  12  13
ATOM     13  C   UNL     1      29.325 -10.754  17.754  1.00  0.00    -0.000 C 
BRANCH  13  14
ATOM     14  C   UNL     1      30.651 -10.057  18.112  1.00  0.00    -0.000 C 
BRANCH  14  15
ATOM     15  C   UNL     1      30.547  -8.537  18.329  1.00  0.00    -0.003 C 
ATOM     16  C   UNL     1      30.851  -8.116  19.767  1.00  0.00     0.004 C 
ENDBRANCH  14  15
ENDBRANCH  13  14
ENDBRANCH  12  13
ENDBRANCH  11  12
ENDBRANCH  10  11
ENDBRANCH   1  10
TORSDOF 12
ENDMDL
