MODEL 1
REMARK VINA RESULT:    -3.812      0.000      0.000
REMARK INTER + INTRA:          -9.092
REMARK INTER:                  -7.377
REMARK INTRA:                  -1.715
REMARK UNBOUND:                -1.715
REMARK SMILES CCCCCCCCCCCCCCCCCC(=O)[O-]
REMARK SMILES IDX 10 1 11 2 12 3 13 4 14 5 15 6 16 7 17 8 18 9 19 10 20 11
REMARK SMILES IDX 9 12 8 13 7 14 6 15 5 16 4 17 3 18 2 19 1 20
REMARK H PARENT
REMARK Flexibility Score: inf
ROOT
ATOM      1  C   UNL     1       6.556  11.217   8.184  1.00  0.00     0.000 C 
ENDROOT
BRANCH   1   2
ATOM      2  C   UNL     1       5.915  12.613   8.081  1.00  0.00     0.000 C 
BRANCH   2   3
ATOM      3  C   UNL     1       4.980  12.988   9.248  1.00  0.00     0.000 C 
BRANCH   3   4
ATOM      4  C   UNL     1       3.489  13.124   8.879  1.00  0.00     0.000 C 
BRANCH   4   5
ATOM      5  C   UNL     1       2.503  12.852  10.031  1.00  0.00     0.000 C 
BRANCH   5   6
ATOM      6  C   UNL     1       1.587  11.646   9.759  1.00  0.00     0.000 C 
BRANCH   6   7
ATOM      7  C   UNL     1       2.112  10.349  10.395  1.00  0.00     0.006 C 
BRANCH   7   8
ATOM      8  C   UNL     1       3.513   9.967   9.894  1.00  0.00     0.053 C 
BRANCH   8   9
ATOM      9  C   UNL     1       3.425   9.248   8.585  1.00  0.00     0.041 C 
ATOM     10  O   UNL     1       3.336   7.993   8.557  1.00  0.00    -0.550 OA
ATOM     11  O   UNL     1       3.478   9.962   7.392  1.00  0.00    -0.550 OA
ENDBRANCH   8   9
ENDBRANCH   7   8
ENDBRANCH   6   7
ENDBRANCH   5   6
ENDBRANCH   4   5
ENDBRANCH   3   4
ENDBRANCH   2   3
ENDBRANCH   1   2
BRANCH   1  12
ATOM     12  C   UNL     1       8.062  11.228   7.869  1.00  0.00     0.000 C 
BRANCH  12  13
ATOM     13  C   UNL     1       8.729  12.561   8.247  1.00  0.00    -0.000 C 
BRANCH  13  14
ATOM     14  C   UNL     1       9.663  13.084   7.140  1.00  0.00    -0.000 C 
BRANCH  14  15
ATOM     15  C   UNL     1       9.789  12.107   5.960  1.00  0.00    -0.000 C 
BRANCH  15  16
ATOM     16  C   UNL     1       9.872  12.824   4.601  1.00  0.00    -0.000 C 
BRANCH  16  17
ATOM     17  C   UNL     1       8.583  12.671   3.776  1.00  0.00    -0.000 C 
BRANCH  17  18
ATOM     18  C   UNL     1       7.341  12.435   4.657  1.00  0.00    -0.000 C 
BRANCH  18  19
ATOM     19  C   UNL     1       6.535  11.203   4.216  1.00  0.00    -0.003 C 
ATOM     20  C   UNL     1       5.105  11.205   4.760  1.00  0.00     0.004 C 
ENDBRANCH  18  19
ENDBRANCH  17  18
ENDBRANCH  16  17
ENDBRANCH  15  16
ENDBRANCH  14  15
ENDBRANCH  13  14
ENDBRANCH  12  13
ENDBRANCH   1  12
TORSDOF 16
ENDMDL
MODEL 2
REMARK VINA RESULT:    -3.732      1.598      6.438
REMARK INTER + INTRA:          -8.939
REMARK INTER:                  -7.148
REMARK INTRA:                  -1.791
REMARK UNBOUND:                -1.715
REMARK SMILES CCCCCCCCCCCCCCCCCC(=O)[O-]
REMARK SMILES IDX 10 1 11 2 12 3 13 4 14 5 15 6 16 7 17 8 18 9 19 10 20 11
REMARK SMILES IDX 9 12 8 13 7 14 6 15 5 16 4 17 3 18 2 19 1 20
REMARK H PARENT
REMARK Flexibility Score: inf
ROOT
ATOM      1  C   UNL     1       6.471  11.641   7.926  1.00  0.00     0.000 C 
ENDROOT
BRANCH   1   2
ATOM      2  C   UNL     1       7.998  11.509   8.077  1.00  0.00     0.000 C 
BRANCH   2   3
ATOM      3  C   UNL     1       8.778  12.835   7.991  1.00  0.00     0.000 C 
BRANCH   3   4
ATOM      4  C   UNL     1      10.125  12.758   7.243  1.00  0.00     0.000 C 
BRANCH   4   5
ATOM      5  C   UNL     1      10.084  12.006   5.901  1.00  0.00     0.000 C 
BRANCH   5   6
ATOM      6  C   UNL     1       9.779  12.930   4.709  1.00  0.00     0.000 C 
BRANCH   6   7
ATOM      7  C   UNL     1       8.656  12.387   3.811  1.00  0.00     0.006 C 
BRANCH   7   8
ATOM      8  C   UNL     1       7.262  12.567   4.430  1.00  0.00     0.053 C 
BRANCH   8   9
ATOM      9  C   UNL     1       6.581  11.244   4.585  1.00  0.00     0.041 C 
ATOM     10  O   UNL     1       7.261  10.187   4.661  1.00  0.00    -0.550 OA
ATOM     11  O   UNL     1       5.192  11.173   4.608  1.00  0.00    -0.550 OA
ENDBRANCH   8   9
ENDBRANCH   7   8
ENDBRANCH   6   7
ENDBRANCH   5   6
ENDBRANCH   4   5
ENDBRANCH   3   4
ENDBRANCH   2   3
ENDBRANCH   1   2
BRANCH   1  12
ATOM     12  C   UNL     1       5.927  12.964   8.492  1.00  0.00     0.000 C 
BRANCH  12  13
ATOM     13  C   UNL     1       4.882  12.739   9.598  1.00  0.00    -0.000 C 
BRANCH  13  14
ATOM     14  C   UNL     1       3.458  13.108   9.143  1.00  0.00    -0.000 C 
BRANCH  14  15
ATOM     15  C   UNL     1       2.369  12.415   9.979  1.00  0.00    -0.000 C 
BRANCH  15  16
ATOM     16  C   UNL     1       2.089  10.976   9.514  1.00  0.00    -0.000 C 
BRANCH  16  17
ATOM     17  C   UNL     1       2.062  10.848   7.981  1.00  0.00    -0.000 C 
BRANCH  17  18
ATOM     18  C   UNL     1       3.322  10.161   7.423  1.00  0.00    -0.000 C 
BRANCH  18  19
ATOM     19  C   UNL     1       3.654   8.854   8.159  1.00  0.00    -0.003 C 
ATOM     20  C   UNL     1       4.839   8.997   9.115  1.00  0.00     0.004 C 
ENDBRANCH  18  19
ENDBRANCH  17  18
ENDBRANCH  16  17
ENDBRANCH  15  16
ENDBRANCH  14  15
ENDBRANCH  13  14
ENDBRANCH  12  13
ENDBRANCH   1  12
TORSDOF 16
ENDMDL
MODEL 3
REMARK VINA RESULT:    -3.719      2.563      6.814
REMARK INTER + INTRA:          -8.914
REMARK INTER:                  -6.892
REMARK INTRA:                  -2.022
REMARK UNBOUND:                -1.715
REMARK SMILES CCCCCCCCCCCCCCCCCC(=O)[O-]
REMARK SMILES IDX 10 1 11 2 12 3 13 4 14 5 15 6 16 7 17 8 18 9 19 10 20 11
REMARK SMILES IDX 9 12 8 13 7 14 6 15 5 16 4 17 3 18 2 19 1 20
REMARK H PARENT
REMARK Flexibility Score: inf
ROOT
ATOM      1  C   UNL     1       5.706  11.623   5.624  1.00  0.00     0.000 C 
ENDROOT
BRANCH   1   2
ATOM      2  C   UNL     1       5.944  12.893   6.460  1.00  0.00     0.000 C 
BRANCH   2   3
ATOM      3  C   UNL     1       6.865  12.706   7.682  1.00  0.00     0.000 C 
BRANCH   3   4
ATOM      4  C   UNL     1       7.231  11.244   8.011  1.00  0.00     0.000 C 
BRANCH   4   5
ATOM      5  C   UNL     1       8.653  10.818   7.599  1.00  0.00     0.000 C 
BRANCH   5   6
ATOM      6  C   UNL     1       9.536  12.009   7.187  1.00  0.00     0.000 C 
BRANCH   6   7
ATOM      7  C   UNL     1       9.971  11.942   5.715  1.00  0.00     0.006 C 
BRANCH   7   8
ATOM      8  C   UNL     1       9.440  13.121   4.885  1.00  0.00     0.053 C 
BRANCH   8   9
ATOM      9  C   UNL     1       8.933  12.645   3.560  1.00  0.00     0.041 C 
ATOM     10  O   UNL     1       8.007  11.795   3.505  1.00  0.00    -0.550 OA
ATOM     11  O   UNL     1       9.511  13.112   2.384  1.00  0.00    -0.550 OA
ENDBRANCH   8   9
ENDBRANCH   7   8
ENDBRANCH   6   7
ENDBRANCH   5   6
ENDBRANCH   4   5
ENDBRANCH   3   4
ENDBRANCH   2   3
ENDBRANCH   1   2
BRANCH   1  12
ATOM     12  C   UNL     1       4.389  10.911   5.980  1.00  0.00     0.000 C 
BRANCH  12  13
ATOM     13  C   UNL     1       4.624   9.583   6.719  1.00  0.00    -0.000 C 
BRANCH  13  14
ATOM     14  C   UNL     1       3.362   9.084   7.445  1.00  0.00    -0.000 C 
BRANCH  14  15
ATOM     15  C   UNL     1       3.625   8.729   8.917  1.00  0.00    -0.000 C 
BRANCH  15  16
ATOM     16  C   UNL     1       4.566   9.728   9.611  1.00  0.00    -0.000 C 
BRANCH  16  17
ATOM     17  C   UNL     1       3.807  10.890  10.273  1.00  0.00    -0.000 C 
BRANCH  17  18
ATOM     18  C   UNL     1       3.646  12.102   9.336  1.00  0.00    -0.000 C 
BRANCH  18  19
ATOM     19  C   UNL     1       2.379  12.916   9.642  1.00  0.00    -0.003 C 
ATOM     20  C   UNL     1       1.194  12.040  10.048  1.00  0.00     0.004 C 
ENDBRANCH  18  19
ENDBRANCH  17  18
ENDBRANCH  16  17
ENDBRANCH  15  16
ENDBRANCH  14  15
ENDBRANCH  13  14
ENDBRANCH  12  13
ENDBRANCH   1  12
TORSDOF 16
ENDMDL
MODEL 4
REMARK VINA RESULT:    -3.624      1.657      3.595
REMARK INTER + INTRA:          -8.729
REMARK INTER:                  -7.342
REMARK INTRA:                  -1.388
REMARK UNBOUND:                -1.715
REMARK SMILES CCCCCCCCCCCCCCCCCC(=O)[O-]
REMARK SMILES IDX 10 1 11 2 12 3 13 4 14 5 15 6 16 7 17 8 18 9 19 10 20 11
REMARK SMILES IDX 9 12 8 13 7 14 6 15 5 16 4 17 3 18 2 19 1 20
REMARK H PARENT
REMARK Flexibility Score: inf
ROOT
ATOM      1  C   UNL     1       4.963  10.499   4.687  1.00  0.00     0.000 C 
ENDROOT
BRANCH   1   2
ATOM      2  C   UNL     1       4.710  10.923   6.146  1.00  0.00     0.000 C 
BRANCH   2   3
ATOM      3  C   UNL     1       4.792   9.782   7.179  1.00  0.00     0.000 C 
BRANCH   3   4
ATOM      4  C   UNL     1       3.731   9.830   8.297  1.00  0.00     0.000 C 
BRANCH   4   5
ATOM      5  C   UNL     1       4.240  10.334   9.660  1.00  0.00     0.000 C 
BRANCH   5   6
ATOM      6  C   UNL     1       4.654  11.816   9.631  1.00  0.00     0.000 C 
BRANCH   6   7
ATOM      7  C   UNL     1       3.583  12.717   8.996  1.00  0.00     0.006 C 
BRANCH   7   8
ATOM      8  C   UNL     1       2.484  13.123   9.991  1.00  0.00     0.053 C 
BRANCH   8   9
ATOM      9  C   UNL     1       1.306  12.208   9.873  1.00  0.00     0.041 C 
ATOM     10  O   UNL     1       1.125  11.297  10.722  1.00  0.00    -0.550 OA
ATOM     11  O   UNL     1       0.426  12.339   8.803  1.00  0.00    -0.550 OA
ENDBRANCH   8   9
ENDBRANCH   7   8
ENDBRANCH   6   7
ENDBRANCH   5   6
ENDBRANCH   4   5
ENDBRANCH   3   4
ENDBRANCH   2   3
ENDBRANCH   1   2
BRANCH   1  12
ATOM     12  C   UNL     1       6.024  11.367   3.988  1.00  0.00     0.000 C 
BRANCH  12  13
ATOM     13  C   UNL     1       6.086  12.792   4.565  1.00  0.00    -0.000 C 
BRANCH  13  14
ATOM     14  C   UNL     1       7.467  13.125   5.157  1.00  0.00    -0.000 C 
BRANCH  14  15
ATOM     15  C   UNL     1       8.625  12.550   4.324  1.00  0.00    -0.000 C 
BRANCH  15  16
ATOM     16  C   UNL     1       9.997  12.769   4.983  1.00  0.00    -0.000 C 
BRANCH  16  17
ATOM     17  C   UNL     1      10.125  12.044   6.333  1.00  0.00    -0.000 C 
BRANCH  17  18
ATOM     18  C   UNL     1       9.785  12.955   7.528  1.00  0.00    -0.000 C 
BRANCH  18  19
ATOM     19  C   UNL     1       8.589  12.436   8.341  1.00  0.00    -0.003 C 
ATOM     20  C   UNL     1       8.024  11.125   7.793  1.00  0.00     0.004 C 
ENDBRANCH  18  19
ENDBRANCH  17  18
ENDBRANCH  16  17
ENDBRANCH  15  16
ENDBRANCH  14  15
ENDBRANCH  13  14
ENDBRANCH  12  13
ENDBRANCH   1  12
TORSDOF 16
ENDMDL
MODEL 5
REMARK VINA RESULT:    -3.582      2.261      6.561
REMARK INTER + INTRA:          -8.648
REMARK INTER:                  -7.683
REMARK INTRA:                  -0.965
REMARK UNBOUND:                -1.715
REMARK SMILES CCCCCCCCCCCCCCCCCC(=O)[O-]
REMARK SMILES IDX 10 1 11 2 12 3 13 4 14 5 15 6 16 7 17 8 18 9 19 10 20 11
REMARK SMILES IDX 9 12 8 13 7 14 6 15 5 16 4 17 3 18 2 19 1 20
REMARK H PARENT
REMARK Flexibility Score: inf
ROOT
ATOM      1  C   UNL     1       3.709  10.224   6.251  1.00  0.00     0.000 C 
ENDROOT
BRANCH   1   2
ATOM      2  C   UNL     1       5.097  10.884   6.170  1.00  0.00     0.000 C 
BRANCH   2   3
ATOM      3  C   UNL     1       5.496  11.394   4.771  1.00  0.00     0.000 C 
BRANCH   3   4
ATOM      4  C   UNL     1       6.146  12.792   4.742  1.00  0.00     0.000 C 
BRANCH   4   5
ATOM      5  C   UNL     1       7.685  12.796   4.686  1.00  0.00     0.000 C 
BRANCH   5   6
ATOM      6  C   UNL     1       8.279  11.385   4.523  1.00  0.00     0.000 C 
BRANCH   6   7
ATOM      7  C   UNL     1       9.041  10.916   5.773  1.00  0.00     0.006 C 
BRANCH   7   8
ATOM      8  C   UNL     1       9.759  12.066   6.496  1.00  0.00     0.053 C 
BRANCH   8   9
ATOM      9  C   UNL     1       9.099  12.356   7.807  1.00  0.00     0.041 C 
ATOM     10  O   UNL     1       7.935  11.935   8.036  1.00  0.00    -0.550 OA
ATOM     11  O   UNL     1       9.756  13.124   8.763  1.00  0.00    -0.550 OA
ENDBRANCH   8   9
ENDBRANCH   7   8
ENDBRANCH   6   7
ENDBRANCH   5   6
ENDBRANCH   4   5
ENDBRANCH   3   4
ENDBRANCH   2   3
ENDBRANCH   1   2
BRANCH   1  12
ATOM     12  C   UNL     1       3.505   9.418   7.546  1.00  0.00     0.000 C 
BRANCH  12  13
ATOM     13  C   UNL     1       4.717   9.510   8.488  1.00  0.00    -0.000 C 
BRANCH  13  14
ATOM     14  C   UNL     1       4.427  10.368   9.733  1.00  0.00    -0.000 C 
BRANCH  14  15
ATOM     15  C   UNL     1       5.075  11.760   9.659  1.00  0.00    -0.000 C 
BRANCH  15  16
ATOM     16  C   UNL     1       4.193  12.789   8.932  1.00  0.00    -0.000 C 
BRANCH  16  17
ATOM     17  C   UNL     1       2.913  13.125   9.717  1.00  0.00    -0.000 C 
BRANCH  17  18
ATOM     18  C   UNL     1       2.056  11.880  10.011  1.00  0.00    -0.000 C 
BRANCH  18  19
ATOM     19  C   UNL     1       0.813  11.795   9.111  1.00  0.00    -0.003 C 
ATOM     20  C   UNL     1      -0.116  13.000   9.268  1.00  0.00     0.004 C 
ENDBRANCH  18  19
ENDBRANCH  17  18
ENDBRANCH  16  17
ENDBRANCH  15  16
ENDBRANCH  14  15
ENDBRANCH  13  14
ENDBRANCH  12  13
ENDBRANCH   1  12
TORSDOF 16
ENDMDL
MODEL 6
REMARK VINA RESULT:    -3.304      1.795      3.403
REMARK INTER + INTRA:          -8.110
REMARK INTER:                  -6.949
REMARK INTRA:                  -1.161
REMARK UNBOUND:                -1.715
REMARK SMILES CCCCCCCCCCCCCCCCCC(=O)[O-]
REMARK SMILES IDX 10 1 11 2 12 3 13 4 14 5 15 6 16 7 17 8 18 9 19 10 20 11
REMARK SMILES IDX 9 12 8 13 7 14 6 15 5 16 4 17 3 18 2 19 1 20
REMARK H PARENT
REMARK Flexibility Score: inf
ROOT
ATOM      1  C   UNL     1       5.211  10.638   5.608  1.00  0.00     0.000 C 
ENDROOT
BRANCH   1   2
ATOM      2  C   UNL     1       4.155  10.672   6.727  1.00  0.00     0.000 C 
BRANCH   2   3
ATOM      3  C   UNL     1       4.185   9.466   7.688  1.00  0.00     0.000 C 
BRANCH   3   4
ATOM      4  C   UNL     1       3.156   9.516   8.836  1.00  0.00     0.000 C 
BRANCH   4   5
ATOM      5  C   UNL     1       3.663  10.162  10.139  1.00  0.00     0.000 C 
BRANCH   5   6
ATOM      6  C   UNL     1       4.210  11.585   9.925  1.00  0.00     0.000 C 
BRANCH   6   7
ATOM      7  C   UNL     1       3.210  12.500   9.201  1.00  0.00     0.006 C 
BRANCH   7   8
ATOM      8  C   UNL     1       1.944  12.769  10.029  1.00  0.00     0.053 C 
BRANCH   8   9
ATOM      9  C   UNL     1       0.719  12.411   9.248  1.00  0.00     0.041 C 
ATOM     10  O   UNL     1       0.771  11.518   8.364  1.00  0.00    -0.550 OA
ATOM     11  O   UNL     1      -0.474  13.092   9.471  1.00  0.00    -0.550 OA
ENDBRANCH   8   9
ENDBRANCH   7   8
ENDBRANCH   6   7
ENDBRANCH   5   6
ENDBRANCH   4   5
ENDBRANCH   3   4
ENDBRANCH   2   3
ENDBRANCH   1   2
BRANCH   1  12
ATOM     12  C   UNL     1       6.238  11.777   5.720  1.00  0.00     0.000 C 
BRANCH  12  13
ATOM     13  C   UNL     1       6.099  12.562   7.036  1.00  0.00    -0.000 C 
BRANCH  13  14
ATOM     14  C   UNL     1       7.204  12.210   8.048  1.00  0.00    -0.000 C 
BRANCH  14  15
ATOM     15  C   UNL     1       8.416  11.529   7.391  1.00  0.00    -0.000 C 
BRANCH  15  16
ATOM     16  C   UNL     1       9.674  12.414   7.402  1.00  0.00    -0.000 C 
BRANCH  16  17
ATOM     17  C   UNL     1       9.959  13.048   6.030  1.00  0.00    -0.000 C 
BRANCH  17  18
ATOM     18  C   UNL     1       9.504  12.156   4.860  1.00  0.00    -0.000 C 
BRANCH  18  19
ATOM     19  C   UNL     1       8.778  12.951   3.764  1.00  0.00    -0.003 C 
ATOM     20  C   UNL     1       9.620  13.122   2.498  1.00  0.00     0.004 C 
ENDBRANCH  18  19
ENDBRANCH  17  18
ENDBRANCH  16  17
ENDBRANCH  15  16
ENDBRANCH  14  15
ENDBRANCH  13  14
ENDBRANCH  12  13
ENDBRANCH   1  12
TORSDOF 16
ENDMDL
MODEL 7
REMARK VINA RESULT:    -3.183      1.508      3.695
REMARK INTER + INTRA:          -7.876
REMARK INTER:                  -6.315
REMARK INTRA:                  -1.561
REMARK UNBOUND:                -1.715
REMARK SMILES CCCCCCCCCCCCCCCCCC(=O)[O-]
REMARK SMILES IDX 10 1 11 2 12 3 13 4 14 5 15 6 16 7 17 8 18 9 19 10 20 11
REMARK SMILES IDX 9 12 8 13 7 14 6 15 5 16 4 17 3 18 2 19 1 20
REMARK H PARENT
REMARK Flexibility Score: inf
ROOT
ATOM      1  C   UNL     1       7.342  11.518   4.116  1.00  0.00     0.000 C 
ENDROOT
BRANCH   1   2
ATOM      2  C   UNL     1       6.229  11.103   5.095  1.00  0.00     0.000 C 
BRANCH   2   3
ATOM      3  C   UNL     1       4.793  11.347   4.591  1.00  0.00     0.000 C 
BRANCH   3   4
ATOM      4  C   UNL     1       3.680  10.686   5.430  1.00  0.00     0.000 C 
BRANCH   4   5
ATOM      5  C   UNL     1       4.139  10.101   6.778  1.00  0.00     0.000 C 
BRANCH   5   6
ATOM      6  C   UNL     1       3.029  10.119   7.844  1.00  0.00     0.000 C 
BRANCH   6   7
ATOM      7  C   UNL     1       3.493   9.547   9.193  1.00  0.00     0.006 C 
BRANCH   7   8
ATOM      8  C   UNL     1       3.319  10.542  10.350  1.00  0.00     0.053 C 
BRANCH   8   9
ATOM      9  C   UNL     1       2.209  11.502  10.056  1.00  0.00     0.041 C 
ATOM     10  O   UNL     1       1.013  11.111  10.073  1.00  0.00    -0.550 OA
ATOM     11  O   UNL     1       2.499  12.822   9.724  1.00  0.00    -0.550 OA
ENDBRANCH   8   9
ENDBRANCH   7   8
ENDBRANCH   6   7
ENDBRANCH   5   6
ENDBRANCH   4   5
ENDBRANCH   3   4
ENDBRANCH   2   3
ENDBRANCH   1   2
BRANCH   1  12
ATOM     12  C   UNL     1       7.854  12.947   4.365  1.00  0.00     0.000 C 
BRANCH  12  13
ATOM     13  C   UNL     1       9.389  13.009   4.456  1.00  0.00    -0.000 C 
BRANCH  13  14
ATOM     14  C   UNL     1       9.941  12.171   5.623  1.00  0.00    -0.000 C 
BRANCH  14  15
ATOM     15  C   UNL     1      10.016  12.961   6.939  1.00  0.00    -0.000 C 
BRANCH  15  16
ATOM     16  C   UNL     1       8.750  12.804   7.799  1.00  0.00    -0.000 C 
BRANCH  16  17
ATOM     17  C   UNL     1       8.401  11.331   8.070  1.00  0.00    -0.000 C 
BRANCH  17  18
ATOM     18  C   UNL     1       6.896  11.115   8.312  1.00  0.00    -0.000 C 
BRANCH  18  19
ATOM     19  C   UNL     1       6.310  12.124   9.312  1.00  0.00    -0.003 C 
ATOM     20  C   UNL     1       5.357  13.124   8.656  1.00  0.00     0.004 C 
ENDBRANCH  18  19
ENDBRANCH  17  18
ENDBRANCH  16  17
ENDBRANCH  15  16
ENDBRANCH  14  15
ENDBRANCH  13  14
ENDBRANCH  12  13
ENDBRANCH   1  12
TORSDOF 16
ENDMDL
MODEL 8
REMARK VINA RESULT:    -2.816      2.476      6.927
REMARK INTER + INTRA:          -7.165
REMARK INTER:                  -7.197
REMARK INTRA:                   0.033
REMARK UNBOUND:                -1.715
REMARK SMILES CCCCCCCCCCCCCCCCCC(=O)[O-]
REMARK SMILES IDX 10 1 11 2 12 3 13 4 14 5 15 6 16 7 17 8 18 9 19 10 20 11
REMARK SMILES IDX 9 12 8 13 7 14 6 15 5 16 4 17 3 18 2 19 1 20
REMARK H PARENT
REMARK Flexibility Score: inf
ROOT
ATOM      1  C   UNL     1       5.071  10.100   6.510  1.00  0.00     0.000 C 
ENDROOT
BRANCH   1   2
ATOM      2  C   UNL     1       5.679  11.474   6.178  1.00  0.00     0.000 C 
BRANCH   2   3
ATOM      3  C   UNL     1       6.217  12.259   7.391  1.00  0.00     0.000 C 
BRANCH   3   4
ATOM      4  C   UNL     1       7.479  11.666   8.051  1.00  0.00     0.000 C 
BRANCH   4   5
ATOM      5  C   UNL     1       8.454  12.700   8.643  1.00  0.00     0.000 C 
BRANCH   5   6
ATOM      6  C   UNL     1       9.658  12.977   7.725  1.00  0.00     0.000 C 
BRANCH   6   7
ATOM      7  C   UNL     1       9.619  12.147   6.432  1.00  0.00     0.006 C 
BRANCH   7   8
ATOM      8  C   UNL     1       9.827  13.002   5.173  1.00  0.00     0.053 C 
BRANCH   8   9
ATOM      9  C   UNL     1       8.917  12.550   4.074  1.00  0.00     0.041 C 
ATOM     10  O   UNL     1       9.095  12.958   2.897  1.00  0.00    -0.550 OA
ATOM     11  O   UNL     1       7.848  11.706   4.358  1.00  0.00    -0.550 OA
ENDBRANCH   8   9
ENDBRANCH   7   8
ENDBRANCH   6   7
ENDBRANCH   5   6
ENDBRANCH   4   5
ENDBRANCH   3   4
ENDBRANCH   2   3
ENDBRANCH   1   2
BRANCH   1  12
ATOM     12  C   UNL     1       5.131   9.767   8.011  1.00  0.00     0.000 C 
BRANCH  12  13
ATOM     13  C   UNL     1       3.808   9.180   8.533  1.00  0.00    -0.000 C 
BRANCH  13  14
ATOM     14  C   UNL     1       3.212  10.012   9.683  1.00  0.00    -0.000 C 
BRANCH  14  15
ATOM     15  C   UNL     1       4.023  11.283   9.980  1.00  0.00    -0.000 C 
BRANCH  15  16
ATOM     16  C   UNL     1       3.509  12.511   9.209  1.00  0.00    -0.000 C 
BRANCH  16  17
ATOM     17  C   UNL     1       2.249  13.120   9.847  1.00  0.00    -0.000 C 
BRANCH  17  18
ATOM     18  C   UNL     1       1.062  12.138   9.868  1.00  0.00    -0.000 C 
BRANCH  18  19
ATOM     19  C   UNL     1       0.071  12.390   8.721  1.00  0.00    -0.003 C 
ATOM     20  C   UNL     1      -1.239  13.020   9.197  1.00  0.00     0.004 C 
ENDBRANCH  18  19
ENDBRANCH  17  18
ENDBRANCH  16  17
ENDBRANCH  15  16
ENDBRANCH  14  15
ENDBRANCH  13  14
ENDBRANCH  12  13
ENDBRANCH   1  12
TORSDOF 16
ENDMDL
MODEL 9
REMARK VINA RESULT:    -2.445      2.246      6.453
REMARK INTER + INTRA:          -6.448
REMARK INTER:                  -4.774
REMARK INTRA:                  -1.674
REMARK UNBOUND:                -1.715
REMARK SMILES CCCCCCCCCCCCCCCCCC(=O)[O-]
REMARK SMILES IDX 10 1 11 2 12 3 13 4 14 5 15 6 16 7 17 8 18 9 19 10 20 11
REMARK SMILES IDX 9 12 8 13 7 14 6 15 5 16 4 17 3 18 2 19 1 20
REMARK H PARENT
REMARK Flexibility Score: inf
ROOT
ATOM      1  C   UNL     1       3.849   8.590   8.846  1.00  0.00     0.000 C 
ENDROOT
BRANCH   1   2
ATOM      2  C   UNL     1       4.690   9.864   8.649  1.00  0.00     0.000 C 
BRANCH   2   3
ATOM      3  C   UNL     1       5.611   9.854   7.413  1.00  0.00     0.000 C 
BRANCH   3   4
ATOM      4  C   UNL     1       4.915  10.168   6.073  1.00  0.00     0.000 C 
BRANCH   4   5
ATOM      5  C   UNL     1       5.138  11.595   5.539  1.00  0.00     0.000 C 
BRANCH   5   6
ATOM      6  C   UNL     1       6.068  11.633   4.313  1.00  0.00     0.000 C 
BRANCH   6   7
ATOM      7  C   UNL     1       7.118  12.752   4.402  1.00  0.00     0.006 C 
BRANCH   7   8
ATOM      8  C   UNL     1       8.553  12.235   4.213  1.00  0.00     0.053 C 
BRANCH   8   9
ATOM      9  C   UNL     1       9.127  11.788   5.520  1.00  0.00     0.041 C 
ATOM     10  O   UNL     1       8.740  10.712   6.046  1.00  0.00    -0.550 OA
ATOM     11  O   UNL     1      10.063  12.579   6.178  1.00  0.00    -0.550 OA
ENDBRANCH   8   9
ENDBRANCH   7   8
ENDBRANCH   6   7
ENDBRANCH   5   6
ENDBRANCH   4   5
ENDBRANCH   3   4
ENDBRANCH   2   3
ENDBRANCH   1   2
BRANCH   1  12
ATOM     12  C   UNL     1       2.723   8.770   9.878  1.00  0.00     0.000 C 
BRANCH  12  13
ATOM     13  C   UNL     1       2.754  10.158  10.540  1.00  0.00    -0.000 C 
BRANCH  13  14
ATOM     14  C   UNL     1       1.578  11.046  10.095  1.00  0.00    -0.000 C 
BRANCH  14  15
ATOM     15  C   UNL     1       2.025  12.227   9.216  1.00  0.00    -0.000 C 
BRANCH  15  16
ATOM     16  C   UNL     1       3.242  12.970   9.793  1.00  0.00    -0.000 C 
BRANCH  16  17
ATOM     17  C   UNL     1       4.386  13.105   8.774  1.00  0.00    -0.000 C 
BRANCH  17  18
ATOM     18  C   UNL     1       5.775  13.076   9.438  1.00  0.00    -0.000 C 
BRANCH  18  19
ATOM     19  C   UNL     1       6.893  12.718   8.445  1.00  0.00    -0.003 C 
ATOM     20  C   UNL     1       8.281  13.120   8.945  1.00  0.00     0.004 C 
ENDBRANCH  18  19
ENDBRANCH  17  18
ENDBRANCH  16  17
ENDBRANCH  15  16
ENDBRANCH  14  15
ENDBRANCH  13  14
ENDBRANCH  12  13
ENDBRANCH   1  12
TORSDOF 16
ENDMDL
