MODEL 1
REMARK VINA RESULT:    -5.098      0.000      0.000
REMARK INTER + INTRA:          -6.472
REMARK INTER:                  -6.141
REMARK INTRA:                  -0.331
REMARK UNBOUND:                -0.331
REMARK SMILES O=c1c(O)c(-c2ccc(O)c(O)c2)oc2cc(O)cc(O)c12
REMARK SMILES IDX 5 1 3 2 2 3 1 4 22 5 20 6 19 7 17 8 16 9 15 10 14 11 6 12
REMARK SMILES IDX 7 13 8 14 9 15 13 16 11 17 10 18 12 20 4 22 21 24 18 26
REMARK H PARENT 10 19 12 21 4 23 21 25 18 27
REMARK Flexibility Score: inf
ROOT
ATOM      1  C   UNL     1      72.363 -79.870  32.551  1.00  0.00     0.180 A 
ATOM      2  C   UNL     1      71.518 -79.188  33.445  1.00  0.00     0.208 A 
ATOM      3  C   UNL     1      70.629 -79.928  34.240  1.00  0.00     0.238 A 
ATOM      4  O   UNL     1      69.914 -79.317  35.077  1.00  0.00    -0.285 OA
ATOM      5  C   UNL     1      70.583 -81.339  34.121  1.00  0.00     0.111 A 
ATOM      6  C   UNL     1      69.692 -82.184  34.848  1.00  0.00     0.134 A 
ATOM      7  C   UNL     1      69.824 -83.575  34.746  1.00  0.00     0.093 A 
ATOM      8  C   UNL     1      70.769 -84.149  33.896  1.00  0.00     0.123 A 
ATOM      9  C   UNL     1      71.605 -83.331  33.136  1.00  0.00     0.094 A 
ATOM     10  C   UNL     1      71.521 -81.940  33.243  1.00  0.00     0.146 A 
ATOM     11  O   UNL     1      72.342 -81.197  32.510  1.00  0.00    -0.452 OA
ENDROOT
BRANCH   1  12
ATOM     12  C   UNL     1      73.309 -79.158  31.662  1.00  0.00     0.025 A 
ATOM     13  C   UNL     1      74.649 -79.022  32.050  1.00  0.00     0.016 A 
ATOM     14  C   UNL     1      75.562 -78.370  31.218  1.00  0.00     0.051 A 
ATOM     15  C   UNL     1      75.161 -77.858  29.979  1.00  0.00     0.157 A 
ATOM     16  C   UNL     1      72.906 -78.664  30.410  1.00  0.00     0.062 A 
ATOM     17  C   UNL     1      73.816 -78.013  29.567  1.00  0.00     0.158 A 
BRANCH  15  18
ATOM     18  O   UNL     1      76.121 -77.212  29.198  1.00  0.00    -0.504 OA
ATOM     19  H   UNL     1      76.881 -77.686  28.731  1.00  0.00     0.293 HD
ENDBRANCH  15  18
BRANCH  17  20
ATOM     20  O   UNL     1      73.346 -77.546  28.338  1.00  0.00    -0.504 OA
ATOM     21  H   UNL     1      72.445 -77.787  27.949  1.00  0.00     0.293 HD
ENDBRANCH  17  20
ENDBRANCH   1  12
BRANCH   2  22
ATOM     22  O   UNL     1      71.595 -77.798  33.563  1.00  0.00    -0.502 OA
ATOM     23  H   UNL     1      72.468 -77.314  33.735  1.00  0.00     0.293 HD
ENDBRANCH   2  22
BRANCH   6  24
ATOM     24  O   UNL     1      68.652 -81.713  35.654  1.00  0.00    -0.507 OA
ATOM     25  H   UNL     1      68.710 -80.902  36.251  1.00  0.00     0.293 HD
ENDBRANCH   6  24
BRANCH   8  26
ATOM     26  O   UNL     1      70.861 -85.537  33.809  1.00  0.00    -0.508 OA
ATOM     27  H   UNL     1      70.528 -86.137  34.554  1.00  0.00     0.293 HD
ENDBRANCH   8  26
TORSDOF 6
ENDMDL
MODEL 2
REMARK VINA RESULT:    -4.582      1.503      6.660
REMARK INTER + INTRA:          -5.851
REMARK INTER:                  -5.532
REMARK INTRA:                  -0.319
REMARK UNBOUND:                -0.331
REMARK SMILES O=c1c(O)c(-c2ccc(O)c(O)c2)oc2cc(O)cc(O)c12
REMARK SMILES IDX 5 1 3 2 2 3 1 4 22 5 20 6 19 7 17 8 16 9 15 10 14 11 6 12
REMARK SMILES IDX 7 13 8 14 9 15 13 16 11 17 10 18 12 20 4 22 21 24 18 26
REMARK H PARENT 10 19 12 21 4 23 21 25 18 27
REMARK Flexibility Score: inf
ROOT
ATOM      1  C   UNL     1      71.379 -80.623  32.323  1.00  0.00     0.180 A 
ATOM      2  C   UNL     1      70.591 -79.578  32.838  1.00  0.00     0.208 A 
ATOM      3  C   UNL     1      70.950 -78.251  32.556  1.00  0.00     0.238 A 
ATOM      4  O   UNL     1      70.210 -77.323  32.974  1.00  0.00    -0.285 OA
ATOM      5  C   UNL     1      72.101 -77.983  31.776  1.00  0.00     0.111 A 
ATOM      6  C   UNL     1      72.581 -76.676  31.462  1.00  0.00     0.134 A 
ATOM      7  C   UNL     1      73.655 -76.529  30.575  1.00  0.00     0.093 A 
ATOM      8  C   UNL     1      74.306 -77.641  30.042  1.00  0.00     0.123 A 
ATOM      9  C   UNL     1      73.883 -78.924  30.389  1.00  0.00     0.094 A 
ATOM     10  C   UNL     1      72.792 -79.103  31.244  1.00  0.00     0.146 A 
ATOM     11  O   UNL     1      72.414 -80.340  31.540  1.00  0.00    -0.452 OA
ENDROOT
BRANCH   1  12
ATOM     12  C   UNL     1      71.078 -82.046  32.598  1.00  0.00     0.025 A 
ATOM     13  C   UNL     1      70.426 -82.813  31.623  1.00  0.00     0.016 A 
ATOM     14  C   UNL     1      70.150 -84.162  31.855  1.00  0.00     0.051 A 
ATOM     15  C   UNL     1      70.534 -84.775  33.052  1.00  0.00     0.157 A 
ATOM     16  C   UNL     1      71.485 -82.662  33.794  1.00  0.00     0.062 A 
ATOM     17  C   UNL     1      71.217 -84.016  34.032  1.00  0.00     0.158 A 
BRANCH  15  18
ATOM     18  O   UNL     1      70.223 -86.125  33.224  1.00  0.00    -0.504 OA
ATOM     19  H   UNL     1      70.648 -86.874  32.697  1.00  0.00     0.293 HD
ENDBRANCH  15  18
BRANCH  17  20
ATOM     20  O   UNL     1      71.648 -84.562  35.243  1.00  0.00    -0.504 OA
ATOM     21  H   UNL     1      71.271 -85.408  35.648  1.00  0.00     0.293 HD
ENDBRANCH  17  20
ENDBRANCH   1  12
BRANCH   2  22
ATOM     22  O   UNL     1      69.446 -79.865  33.586  1.00  0.00    -0.502 OA
ATOM     23  H   UNL     1      69.063 -80.800  33.657  1.00  0.00     0.293 HD
ENDBRANCH   2  22
BRANCH   6  24
ATOM     24  O   UNL     1      72.060 -75.500  32.012  1.00  0.00    -0.507 OA
ATOM     25  H   UNL     1      72.585 -74.847  32.573  1.00  0.00     0.293 HD
ENDBRANCH   6  24
BRANCH   8  26
ATOM     26  O   UNL     1      75.381 -77.457  29.175  1.00  0.00    -0.508 OA
ATOM     27  H   UNL     1      75.583 -78.118  28.434  1.00  0.00     0.293 HD
ENDBRANCH   8  26
TORSDOF 6
ENDMDL
MODEL 3
REMARK VINA RESULT:    -3.568      1.979      6.417
REMARK INTER + INTRA:          -4.630
REMARK INTER:                  -4.670
REMARK INTRA:                   0.040
REMARK UNBOUND:                -0.331
REMARK SMILES O=c1c(O)c(-c2ccc(O)c(O)c2)oc2cc(O)cc(O)c12
REMARK SMILES IDX 5 1 3 2 2 3 1 4 22 5 20 6 19 7 17 8 16 9 15 10 14 11 6 12
REMARK SMILES IDX 7 13 8 14 9 15 13 16 11 17 10 18 12 20 4 22 21 24 18 26
REMARK H PARENT 10 19 12 21 4 23 21 25 18 27
REMARK Flexibility Score: inf
ROOT
ATOM      1  C   UNL     1      70.779 -80.785  32.735  1.00  0.00     0.180 A 
ATOM      2  C   UNL     1      70.337 -80.311  33.983  1.00  0.00     0.208 A 
ATOM      3  C   UNL     1      70.602 -78.979  34.339  1.00  0.00     0.238 A 
ATOM      4  O   UNL     1      70.156 -78.546  35.434  1.00  0.00    -0.285 OA
ATOM      5  C   UNL     1      71.320 -78.142  33.451  1.00  0.00     0.111 A 
ATOM      6  C   UNL     1      71.680 -76.789  33.726  1.00  0.00     0.134 A 
ATOM      7  C   UNL     1      72.276 -76.015  32.722  1.00  0.00     0.093 A 
ATOM      8  C   UNL     1      72.584 -76.564  31.477  1.00  0.00     0.123 A 
ATOM      9  C   UNL     1      72.291 -77.902  31.218  1.00  0.00     0.094 A 
ATOM     10  C   UNL     1      71.663 -78.690  32.188  1.00  0.00     0.146 A 
ATOM     11  O   UNL     1      71.391 -79.957  31.897  1.00  0.00    -0.452 OA
ENDROOT
BRANCH   1  12
ATOM     12  C   UNL     1      70.558 -82.183  32.300  1.00  0.00     0.025 A 
ATOM     13  C   UNL     1      70.151 -82.439  30.984  1.00  0.00     0.016 A 
ATOM     14  C   UNL     1      69.956 -83.751  30.548  1.00  0.00     0.051 A 
ATOM     15  C   UNL     1      70.180 -84.831  31.409  1.00  0.00     0.157 A 
ATOM     16  C   UNL     1      70.804 -83.265  33.162  1.00  0.00     0.062 A 
ATOM     17  C   UNL     1      70.616 -84.584  32.732  1.00  0.00     0.158 A 
BRANCH  15  18
ATOM     18  O   UNL     1      69.960 -86.117  30.913  1.00  0.00    -0.504 OA
ATOM     19  H   UNL     1      69.888 -86.340  29.931  1.00  0.00     0.293 HD
ENDBRANCH  15  18
BRANCH  17  20
ATOM     20  O   UNL     1      70.878 -85.610  33.643  1.00  0.00    -0.504 OA
ATOM     21  H   UNL     1      70.201 -86.307  33.919  1.00  0.00     0.293 HD
ENDBRANCH  17  20
ENDBRANCH   1  12
BRANCH   2  22
ATOM     22  O   UNL     1      69.610 -81.147  34.835  1.00  0.00    -0.502 OA
ATOM     23  H   UNL     1      68.843 -80.811  35.404  1.00  0.00     0.293 HD
ENDBRANCH   2  22
BRANCH   6  24
ATOM     24  O   UNL     1      71.500 -76.170  34.967  1.00  0.00    -0.507 OA
ATOM     25  H   UNL     1      70.888 -75.387  35.135  1.00  0.00     0.293 HD
ENDBRANCH   6  24
BRANCH   8  26
ATOM     26  O   UNL     1      73.192 -75.769  30.508  1.00  0.00    -0.508 OA
ATOM     27  H   UNL     1      74.180 -75.850  30.299  1.00  0.00     0.293 HD
ENDBRANCH   8  26
TORSDOF 6
ENDMDL
