MODEL 1
REMARK VINA RESULT:    -4.824      0.000      0.000
REMARK INTER + INTRA:          -6.297
REMARK INTER:                  -5.953
REMARK INTRA:                  -0.345
REMARK UNBOUND:                -0.345
REMARK SMILES Oc1cc(O)c2cc(O)c(-c3cc(O)c(O)c(O)c3)[o+]c2c1
REMARK SMILES IDX 10 1 20 2 21 3 22 4 2 5 3 6 4 7 6 8 7 9 8 10 11 11 12 12
REMARK SMILES IDX 13 13 19 14 15 15 17 16 14 17 16 19 18 21 9 23 1 25 5 27
REMARK H PARENT 14 18 16 20 18 22 9 24 1 26 5 28
REMARK Flexibility Score: inf
ROOT
ATOM      1  C   UNL     1     -99.615  43.025   9.188  1.00  0.00     0.402 A 
ATOM      2  O   UNL     1     -99.418  41.762   9.555  1.00  0.00    -0.202 OA
ATOM      3  C   UNL     1     -98.999  41.410  10.766  1.00  0.00     0.368 A 
ATOM      4  C   UNL     1     -98.818  40.056  11.057  1.00  0.00     0.162 A 
ATOM      5  C   UNL     1     -98.376  39.658  12.318  1.00  0.00     0.128 A 
ATOM      6  C   UNL     1     -98.111  40.620  13.299  1.00  0.00     0.093 A 
ATOM      7  C   UNL     1     -98.283  41.985  13.033  1.00  0.00     0.136 A 
ATOM      8  C   UNL     1     -98.736  42.392  11.752  1.00  0.00     0.125 A 
ATOM      9  C   UNL     1     -98.950  43.735  11.400  1.00  0.00     0.078 A 
ATOM     10  C   UNL     1     -99.402  44.061  10.117  1.00  0.00     0.223 A 
ENDROOT
BRANCH   1  11
ATOM     11  C   UNL     1    -100.075  43.290   7.805  1.00  0.00     0.091 A 
ATOM     12  C   UNL     1    -101.436  43.530   7.566  1.00  0.00     0.068 A 
ATOM     13  C   UNL     1    -101.902  43.763   6.268  1.00  0.00     0.162 A 
ATOM     14  C   UNL     1     -99.186  43.251   6.718  1.00  0.00     0.068 A 
ATOM     15  C   UNL     1    -101.006  43.744   5.186  1.00  0.00     0.200 A 
ATOM     16  C   UNL     1     -99.644  43.482   5.414  1.00  0.00     0.162 A 
BRANCH  13  17
ATOM     17  O   UNL     1    -103.262  44.012   6.073  1.00  0.00    -0.504 OA
ATOM     18  H   UNL     1    -103.598  44.878   5.670  1.00  0.00     0.293 HD
ENDBRANCH  13  17
BRANCH  15  19
ATOM     19  O   UNL     1    -101.479  43.981   3.894  1.00  0.00    -0.502 OA
ATOM     20  H   UNL     1    -100.856  44.125   3.109  1.00  0.00     0.293 HD
ENDBRANCH  15  19
BRANCH  16  21
ATOM     21  O   UNL     1     -98.752  43.447   4.343  1.00  0.00    -0.504 OA
ATOM     22  H   UNL     1     -98.693  44.208   3.676  1.00  0.00     0.293 HD
ENDBRANCH  16  21
ENDBRANCH   1  11
BRANCH  10  23
ATOM     23  O   UNL     1     -99.662  45.390   9.783  1.00  0.00    -0.500 OA
ATOM     24  H   UNL     1    -100.605  45.726   9.632  1.00  0.00     0.294 HD
ENDBRANCH  10  23
BRANCH   5  25
ATOM     25  O   UNL     1     -98.203  38.302  12.588  1.00  0.00    -0.507 OA
ATOM     26  H   UNL     1     -98.947  37.632  12.432  1.00  0.00     0.293 HD
ENDBRANCH   5  25
BRANCH   7  27
ATOM     27  O   UNL     1     -97.994  42.883  14.064  1.00  0.00    -0.507 OA
ATOM     28  H   UNL     1     -97.757  43.854  13.924  1.00  0.00     0.293 HD
ENDBRANCH   7  27
TORSDOF 7
ENDMDL
MODEL 2
REMARK VINA RESULT:    -4.688      1.241      7.161
REMARK INTER + INTRA:          -6.129
REMARK INTER:                  -5.770
REMARK INTRA:                  -0.359
REMARK UNBOUND:                -0.345
REMARK SMILES Oc1cc(O)c2cc(O)c(-c3cc(O)c(O)c(O)c3)[o+]c2c1
REMARK SMILES IDX 10 1 20 2 21 3 22 4 2 5 3 6 4 7 6 8 7 9 8 10 11 11 12 12
REMARK SMILES IDX 13 13 19 14 15 15 17 16 14 17 16 19 18 21 9 23 1 25 5 27
REMARK H PARENT 14 18 16 20 18 22 9 24 1 26 5 28
REMARK Flexibility Score: inf
ROOT
ATOM      1  C   UNL     1     -99.928  42.644   9.124  1.00  0.00     0.402 A 
ATOM      2  O   UNL     1     -99.212  42.800   8.014  1.00  0.00    -0.202 OA
ATOM      3  C   UNL     1     -99.747  43.107   6.837  1.00  0.00     0.368 A 
ATOM      4  C   UNL     1     -98.912  43.247   5.726  1.00  0.00     0.162 A 
ATOM      5  C   UNL     1     -99.445  43.565   4.478  1.00  0.00     0.128 A 
ATOM      6  C   UNL     1    -100.826  43.746   4.335  1.00  0.00     0.093 A 
ATOM      7  C   UNL     1    -101.685  43.611   5.433  1.00  0.00     0.136 A 
ATOM      8  C   UNL     1    -101.145  43.290   6.705  1.00  0.00     0.125 A 
ATOM      9  C   UNL     1    -101.927  43.148   7.863  1.00  0.00     0.078 A 
ATOM     10  C   UNL     1    -101.323  42.834   9.084  1.00  0.00     0.223 A 
ENDROOT
BRANCH   1  11
ATOM     11  C   UNL     1     -99.217  42.292  10.374  1.00  0.00     0.091 A 
ATOM     12  C   UNL     1     -98.923  40.946  10.644  1.00  0.00     0.068 A 
ATOM     13  C   UNL     1     -98.271  40.582  11.826  1.00  0.00     0.162 A 
ATOM     14  C   UNL     1     -98.878  43.270  11.324  1.00  0.00     0.068 A 
ATOM     15  C   UNL     1     -97.915  41.566  12.764  1.00  0.00     0.200 A 
ATOM     16  C   UNL     1     -98.225  42.913  12.512  1.00  0.00     0.162 A 
BRANCH  13  17
ATOM     17  O   UNL     1     -97.984  39.235  12.051  1.00  0.00    -0.504 OA
ATOM     18  H   UNL     1     -97.219  38.762  11.585  1.00  0.00     0.293 HD
ENDBRANCH  13  17
BRANCH  15  19
ATOM     19  O   UNL     1     -97.261  41.194  13.940  1.00  0.00    -0.502 OA
ATOM     20  H   UNL     1     -97.471  41.622  14.833  1.00  0.00     0.293 HD
ENDBRANCH  15  19
BRANCH  16  21
ATOM     21  O   UNL     1     -97.889  43.893  13.445  1.00  0.00    -0.504 OA
ATOM     22  H   UNL     1     -98.495  44.685  13.626  1.00  0.00     0.293 HD
ENDBRANCH  16  21
ENDBRANCH   1  11
BRANCH  10  23
ATOM     23  O   UNL     1    -102.093  42.741  10.243  1.00  0.00    -0.500 OA
ATOM     24  H   UNL     1    -102.374  43.564  10.763  1.00  0.00     0.294 HD
ENDBRANCH  10  23
BRANCH   5  25
ATOM     25  O   UNL     1     -98.595  43.702   3.382  1.00  0.00    -0.507 OA
ATOM     26  H   UNL     1     -97.589  43.614   3.479  1.00  0.00     0.293 HD
ENDBRANCH   5  25
BRANCH   7  27
ATOM     27  O   UNL     1    -103.052  43.803   5.209  1.00  0.00    -0.507 OA
ATOM     28  H   UNL     1    -103.780  43.509   5.843  1.00  0.00     0.293 HD
ENDBRANCH   7  27
TORSDOF 7
ENDMDL
MODEL 3
REMARK VINA RESULT:    -4.566      1.189      2.537
REMARK INTER + INTRA:          -5.979
REMARK INTER:                  -5.610
REMARK INTRA:                  -0.369
REMARK UNBOUND:                -0.345
REMARK SMILES Oc1cc(O)c2cc(O)c(-c3cc(O)c(O)c(O)c3)[o+]c2c1
REMARK SMILES IDX 10 1 20 2 21 3 22 4 2 5 3 6 4 7 6 8 7 9 8 10 11 11 12 12
REMARK SMILES IDX 13 13 19 14 15 15 17 16 14 17 16 19 18 21 9 23 1 25 5 27
REMARK H PARENT 14 18 16 20 18 22 9 24 1 26 5 28
REMARK Flexibility Score: inf
ROOT
ATOM      1  C   UNL     1     -99.787  42.328   9.240  1.00  0.00     0.402 A 
ATOM      2  O   UNL     1     -99.193  43.074  10.168  1.00  0.00    -0.202 OA
ATOM      3  C   UNL     1     -98.950  42.647  11.403  1.00  0.00     0.368 A 
ATOM      4  C   UNL     1     -98.323  43.506  12.308  1.00  0.00     0.162 A 
ATOM      5  C   UNL     1     -98.059  43.086  13.612  1.00  0.00     0.128 A 
ATOM      6  C   UNL     1     -98.424  41.797  14.016  1.00  0.00     0.093 A 
ATOM      7  C   UNL     1     -99.055  40.916  13.128  1.00  0.00     0.136 A 
ATOM      8  C   UNL     1     -99.322  41.340  11.800  1.00  0.00     0.125 A 
ATOM      9  C   UNL     1     -99.937  40.522  10.839  1.00  0.00     0.078 A 
ATOM     10  C   UNL     1    -100.165  41.007   9.547  1.00  0.00     0.223 A 
ENDROOT
BRANCH   1  11
ATOM     11  C   UNL     1    -100.012  42.920   7.902  1.00  0.00     0.091 A 
ATOM     12  C   UNL     1    -101.179  43.662   7.663  1.00  0.00     0.068 A 
ATOM     13  C   UNL     1    -101.427  44.216   6.403  1.00  0.00     0.162 A 
ATOM     14  C   UNL     1     -99.108  42.710   6.847  1.00  0.00     0.068 A 
ATOM     15  C   UNL     1    -100.510  44.021   5.357  1.00  0.00     0.200 A 
ATOM     16  C   UNL     1     -99.349  43.260   5.581  1.00  0.00     0.162 A 
BRANCH  13  17
ATOM     17  O   UNL     1    -102.592  44.959   6.210  1.00  0.00    -0.504 OA
ATOM     18  H   UNL     1    -103.501  44.520   6.119  1.00  0.00     0.293 HD
ENDBRANCH  13  17
BRANCH  15  19
ATOM     19  O   UNL     1    -100.764  44.579   4.103  1.00  0.00    -0.502 OA
ATOM     20  H   UNL     1    -101.699  44.645   3.721  1.00  0.00     0.293 HD
ENDBRANCH  15  19
BRANCH  16  21
ATOM     21  O   UNL     1     -98.442  43.050   4.543  1.00  0.00    -0.504 OA
ATOM     22  H   UNL     1     -98.750  42.921   3.586  1.00  0.00     0.293 HD
ENDBRANCH  16  21
ENDBRANCH   1  11
BRANCH  10  23
ATOM     23  O   UNL     1    -100.731  40.178   8.578  1.00  0.00    -0.500 OA
ATOM     24  H   UNL     1    -101.734  40.109   8.456  1.00  0.00     0.294 HD
ENDBRANCH  10  23
BRANCH   5  25
ATOM     25  O   UNL     1     -97.432  43.958  14.500  1.00  0.00    -0.507 OA
ATOM     26  H   UNL     1     -96.928  43.616  15.310  1.00  0.00     0.293 HD
ENDBRANCH   5  25
BRANCH   7  27
ATOM     27  O   UNL     1     -99.391  39.648  13.609  1.00  0.00    -0.507 OA
ATOM     28  H   UNL     1     -98.807  38.829  13.515  1.00  0.00     0.293 HD
ENDBRANCH   7  27
TORSDOF 7
ENDMDL
MODEL 4
REMARK VINA RESULT:    -4.562      3.707      9.074
REMARK INTER + INTRA:          -5.974
REMARK INTER:                  -5.591
REMARK INTRA:                  -0.383
REMARK UNBOUND:                -0.345
REMARK SMILES Oc1cc(O)c2cc(O)c(-c3cc(O)c(O)c(O)c3)[o+]c2c1
REMARK SMILES IDX 10 1 20 2 21 3 22 4 2 5 3 6 4 7 6 8 7 9 8 10 11 11 12 12
REMARK SMILES IDX 13 13 19 14 15 15 17 16 14 17 16 19 18 21 9 23 1 25 5 27
REMARK H PARENT 14 18 16 20 18 22 9 24 1 26 5 28
REMARK Flexibility Score: inf
ROOT
ATOM      1  C   UNL     1     -99.957  44.053   3.585  1.00  0.00     0.402 A 
ATOM      2  O   UNL     1     -98.807  44.057   2.917  1.00  0.00    -0.202 OA
ATOM      3  C   UNL     1     -98.674  44.564   1.695  1.00  0.00     0.368 A 
ATOM      4  C   UNL     1     -97.424  44.518   1.073  1.00  0.00     0.162 A 
ATOM      5  C   UNL     1     -97.256  45.038  -0.211  1.00  0.00     0.128 A 
ATOM      6  C   UNL     1     -98.345  45.609  -0.879  1.00  0.00     0.093 A 
ATOM      7  C   UNL     1     -99.609  45.666  -0.277  1.00  0.00     0.136 A 
ATOM      8  C   UNL     1     -99.782  45.140   1.029  1.00  0.00     0.125 A 
ATOM      9  C   UNL     1    -101.007  45.166   1.715  1.00  0.00     0.078 A 
ATOM     10  C   UNL     1    -101.101  44.632   3.004  1.00  0.00     0.223 A 
ENDROOT
BRANCH   1  11
ATOM     11  C   UNL     1     -99.980  43.450   4.938  1.00  0.00     0.091 A 
ATOM     12  C   UNL     1     -99.578  44.218   6.041  1.00  0.00     0.068 A 
ATOM     13  C   UNL     1     -99.571  43.668   7.328  1.00  0.00     0.162 A 
ATOM     14  C   UNL     1    -100.342  42.107   5.134  1.00  0.00     0.068 A 
ATOM     15  C   UNL     1     -99.954  42.331   7.522  1.00  0.00     0.200 A 
ATOM     16  C   UNL     1    -100.336  41.548   6.420  1.00  0.00     0.162 A 
BRANCH  13  17
ATOM     17  O   UNL     1     -99.178  44.469   8.401  1.00  0.00    -0.504 OA
ATOM     18  H   UNL     1     -98.892  44.076   9.290  1.00  0.00     0.293 HD
ENDBRANCH  13  17
BRANCH  15  19
ATOM     19  O   UNL     1     -99.946  41.791   8.810  1.00  0.00    -0.502 OA
ATOM     20  H   UNL     1    -100.086  42.361   9.635  1.00  0.00     0.293 HD
ENDBRANCH  15  19
BRANCH  16  21
ATOM     21  O   UNL     1    -100.703  40.216   6.603  1.00  0.00    -0.504 OA
ATOM     22  H   UNL     1    -101.518  39.821   6.147  1.00  0.00     0.293 HD
ENDBRANCH  16  21
ENDBRANCH   1  11
BRANCH  10  23
ATOM     23  O   UNL     1    -102.305  44.702   3.705  1.00  0.00    -0.500 OA
ATOM     24  H   UNL     1    -102.464  44.159   4.545  1.00  0.00     0.294 HD
ENDBRANCH  10  23
BRANCH   5  25
ATOM     25  O   UNL     1     -96.001  44.985  -0.814  1.00  0.00    -0.507 OA
ATOM     26  H   UNL     1     -95.394  44.180  -0.701  1.00  0.00     0.293 HD
ENDBRANCH   5  25
BRANCH   7  27
ATOM     27  O   UNL     1    -100.646  46.249  -1.012  1.00  0.00    -0.507 OA
ATOM     28  H   UNL     1    -100.873  47.232  -0.995  1.00  0.00     0.293 HD
ENDBRANCH   7  27
TORSDOF 7
ENDMDL
MODEL 5
REMARK VINA RESULT:    -4.532      3.748      6.867
REMARK INTER + INTRA:          -5.937
REMARK INTER:                  -5.686
REMARK INTRA:                  -0.250
REMARK UNBOUND:                -0.345
REMARK SMILES Oc1cc(O)c2cc(O)c(-c3cc(O)c(O)c(O)c3)[o+]c2c1
REMARK SMILES IDX 10 1 20 2 21 3 22 4 2 5 3 6 4 7 6 8 7 9 8 10 11 11 12 12
REMARK SMILES IDX 13 13 19 14 15 15 17 16 14 17 16 19 18 21 9 23 1 25 5 27
REMARK H PARENT 14 18 16 20 18 22 9 24 1 26 5 28
REMARK Flexibility Score: inf
ROOT
ATOM      1  C   UNL     1     -99.381  43.675   3.206  1.00  0.00     0.402 A 
ATOM      2  O   UNL     1     -99.431  44.214   4.421  1.00  0.00    -0.202 OA
ATOM      3  C   UNL     1     -99.771  43.531   5.510  1.00  0.00     0.368 A 
ATOM      4  C   UNL     1     -99.797  44.186   6.743  1.00  0.00     0.162 A 
ATOM      5  C   UNL     1    -100.153  43.495   7.901  1.00  0.00     0.128 A 
ATOM      6  C   UNL     1    -100.487  42.138   7.829  1.00  0.00     0.093 A 
ATOM      7  C   UNL     1    -100.469  41.458   6.604  1.00  0.00     0.136 A 
ATOM      8  C   UNL     1    -100.104  42.157   5.424  1.00  0.00     0.125 A 
ATOM      9  C   UNL     1    -100.046  41.555   4.157  1.00  0.00     0.078 A 
ATOM     10  C   UNL     1     -99.674  42.308   3.039  1.00  0.00     0.223 A 
ENDROOT
BRANCH   1  11
ATOM     11  C   UNL     1     -98.998  44.543   2.069  1.00  0.00     0.091 A 
ATOM     12  C   UNL     1     -97.759  44.348   1.441  1.00  0.00     0.068 A 
ATOM     13  C   UNL     1     -97.361  45.165   0.378  1.00  0.00     0.162 A 
ATOM     14  C   UNL     1     -99.824  45.596   1.640  1.00  0.00     0.068 A 
ATOM     15  C   UNL     1     -98.199  46.204  -0.061  1.00  0.00     0.200 A 
ATOM     16  C   UNL     1     -99.432  46.420   0.577  1.00  0.00     0.162 A 
BRANCH  13  17
ATOM     17  O   UNL     1     -96.127  44.930  -0.230  1.00  0.00    -0.504 OA
ATOM     18  H   UNL     1     -95.925  45.234  -1.175  1.00  0.00     0.293 HD
ENDBRANCH  13  17
BRANCH  15  19
ATOM     19  O   UNL     1     -97.796  47.013  -1.125  1.00  0.00    -0.502 OA
ATOM     20  H   UNL     1     -96.949  46.834  -1.648  1.00  0.00     0.293 HD
ENDBRANCH  15  19
BRANCH  16  21
ATOM     21  O   UNL     1    -100.263  47.459   0.156  1.00  0.00    -0.504 OA
ATOM     22  H   UNL     1    -100.114  48.414   0.459  1.00  0.00     0.293 HD
ENDBRANCH  16  21
ENDBRANCH   1  11
BRANCH  10  23
ATOM     23  O   UNL     1     -99.567  41.699   1.789  1.00  0.00    -0.500 OA
ATOM     24  H   UNL     1     -99.576  40.691   1.684  1.00  0.00     0.294 HD
ENDBRANCH  10  23
BRANCH   5  25
ATOM     25  O   UNL     1    -100.172  44.167   9.122  1.00  0.00    -0.507 OA
ATOM     26  H   UNL     1    -101.029  44.276   9.652  1.00  0.00     0.293 HD
ENDBRANCH   5  25
BRANCH   7  27
ATOM     27  O   UNL     1    -100.819  40.105   6.614  1.00  0.00    -0.507 OA
ATOM     28  H   UNL     1    -100.692  39.477   5.833  1.00  0.00     0.293 HD
ENDBRANCH   7  27
TORSDOF 7
ENDMDL
MODEL 6
REMARK VINA RESULT:    -4.512      3.759      6.629
REMARK INTER + INTRA:          -5.912
REMARK INTER:                  -5.639
REMARK INTRA:                  -0.273
REMARK UNBOUND:                -0.345
REMARK SMILES Oc1cc(O)c2cc(O)c(-c3cc(O)c(O)c(O)c3)[o+]c2c1
REMARK SMILES IDX 10 1 20 2 21 3 22 4 2 5 3 6 4 7 6 8 7 9 8 10 11 11 12 12
REMARK SMILES IDX 13 13 19 14 15 15 17 16 14 17 16 19 18 21 9 23 1 25 5 27
REMARK H PARENT 14 18 16 20 18 22 9 24 1 26 5 28
REMARK Flexibility Score: inf
ROOT
ATOM      1  C   UNL     1     -99.327  43.581   3.195  1.00  0.00     0.402 A 
ATOM      2  O   UNL     1     -99.320  44.072   4.431  1.00  0.00    -0.202 OA
ATOM      3  C   UNL     1     -99.652  43.358   5.502  1.00  0.00     0.368 A 
ATOM      4  C   UNL     1     -99.617  43.963   6.760  1.00  0.00     0.162 A 
ATOM      5  C   UNL     1     -99.964  43.239   7.901  1.00  0.00     0.128 A 
ATOM      6  C   UNL     1    -100.349  41.899   7.786  1.00  0.00     0.093 A 
ATOM      7  C   UNL     1    -100.393  41.269   6.535  1.00  0.00     0.136 A 
ATOM      8  C   UNL     1    -100.038  42.002   5.374  1.00  0.00     0.125 A 
ATOM      9  C   UNL     1    -100.040  41.450   4.082  1.00  0.00     0.078 A 
ATOM     10  C   UNL     1     -99.674  42.233   2.984  1.00  0.00     0.223 A 
ENDROOT
BRANCH   1  11
ATOM     11  C   UNL     1     -98.946  44.480   2.081  1.00  0.00     0.091 A 
ATOM     12  C   UNL     1     -99.831  45.492   1.680  1.00  0.00     0.068 A 
ATOM     13  C   UNL     1     -99.506  46.343   0.618  1.00  0.00     0.162 A 
ATOM     14  C   UNL     1     -97.740  44.308   1.380  1.00  0.00     0.068 A 
ATOM     15  C   UNL     1     -98.290  46.180  -0.067  1.00  0.00     0.200 A 
ATOM     16  C   UNL     1     -97.408  45.155   0.315  1.00  0.00     0.162 A 
BRANCH  13  17
ATOM     17  O   UNL     1    -100.407  47.346   0.258  1.00  0.00    -0.504 OA
ATOM     18  H   UNL     1    -100.649  48.104   0.885  1.00  0.00     0.293 HD
ENDBRANCH  13  17
BRANCH  15  19
ATOM     19  O   UNL     1     -97.973  47.035  -1.123  1.00  0.00    -0.502 OA
ATOM     20  H   UNL     1     -98.376  46.927  -2.046  1.00  0.00     0.293 HD
ENDBRANCH  15  19
BRANCH  16  21
ATOM     21  O   UNL     1     -96.207  44.978  -0.370  1.00  0.00    -0.504 OA
ATOM     22  H   UNL     1     -96.173  44.935  -1.382  1.00  0.00     0.293 HD
ENDBRANCH  16  21
ENDBRANCH   1  11
BRANCH  10  23
ATOM     23  O   UNL     1     -99.627  41.672   1.708  1.00  0.00    -0.500 OA
ATOM     24  H   UNL     1     -98.875  41.878   1.062  1.00  0.00     0.294 HD
ENDBRANCH  10  23
BRANCH   5  25
ATOM     25  O   UNL     1     -99.921  43.862   9.148  1.00  0.00    -0.507 OA
ATOM     26  H   UNL     1     -99.096  43.814   9.734  1.00  0.00     0.293 HD
ENDBRANCH   5  25
BRANCH   7  27
ATOM     27  O   UNL     1    -100.791  39.929   6.503  1.00  0.00    -0.507 OA
ATOM     28  H   UNL     1    -101.320  39.510   5.753  1.00  0.00     0.293 HD
ENDBRANCH   7  27
TORSDOF 7
ENDMDL
MODEL 7
REMARK VINA RESULT:    -4.480      2.198      2.843
REMARK INTER + INTRA:          -5.873
REMARK INTER:                  -5.488
REMARK INTRA:                  -0.384
REMARK UNBOUND:                -0.345
REMARK SMILES Oc1cc(O)c2cc(O)c(-c3cc(O)c(O)c(O)c3)[o+]c2c1
REMARK SMILES IDX 10 1 20 2 21 3 22 4 2 5 3 6 4 7 6 8 7 9 8 10 11 11 12 12
REMARK SMILES IDX 13 13 19 14 15 15 17 16 14 17 16 19 18 21 9 23 1 25 5 27
REMARK H PARENT 14 18 16 20 18 22 9 24 1 26 5 28
REMARK Flexibility Score: inf
ROOT
ATOM      1  C   UNL     1     -99.970  42.651  10.732  1.00  0.00     0.402 A 
ATOM      2  O   UNL     1     -98.729  42.455  11.168  1.00  0.00    -0.202 OA
ATOM      3  C   UNL     1     -98.385  42.528  12.450  1.00  0.00     0.368 A 
ATOM      4  C   UNL     1     -97.054  42.309  12.811  1.00  0.00     0.162 A 
ATOM      5  C   UNL     1     -96.664  42.382  14.148  1.00  0.00     0.128 A 
ATOM      6  C   UNL     1     -97.612  42.678  15.135  1.00  0.00     0.093 A 
ATOM      7  C   UNL     1     -98.953  42.903  14.799  1.00  0.00     0.136 A 
ATOM      8  C   UNL     1     -99.353  42.826  13.440  1.00  0.00     0.125 A 
ATOM      9  C   UNL     1    -100.676  43.023  13.012  1.00  0.00     0.078 A 
ATOM     10  C   UNL     1    -100.996  42.927  11.655  1.00  0.00     0.223 A 
ENDROOT
BRANCH   1  11
ATOM     11  C   UNL     1    -100.225  42.552   9.276  1.00  0.00     0.091 A 
ATOM     12  C   UNL     1    -100.471  41.295   8.704  1.00  0.00     0.068 A 
ATOM     13  C   UNL     1    -100.696  41.168   7.329  1.00  0.00     0.162 A 
ATOM     14  C   UNL     1    -100.171  43.683   8.444  1.00  0.00     0.068 A 
ATOM     15  C   UNL     1    -100.661  42.305   6.504  1.00  0.00     0.200 A 
ATOM     16  C   UNL     1    -100.393  43.565   7.066  1.00  0.00     0.162 A 
BRANCH  13  17
ATOM     17  O   UNL     1    -100.951  39.902   6.801  1.00  0.00    -0.504 OA
ATOM     18  H   UNL     1    -100.242  39.179   6.768  1.00  0.00     0.293 HD
ENDBRANCH  13  17
BRANCH  15  19
ATOM     19  O   UNL     1    -100.889  42.170   5.134  1.00  0.00    -0.502 OA
ATOM     20  H   UNL     1    -101.822  42.143   4.742  1.00  0.00     0.293 HD
ENDBRANCH  15  19
BRANCH  16  21
ATOM     21  O   UNL     1    -100.343  44.695   6.251  1.00  0.00    -0.504 OA
ATOM     22  H   UNL     1     -99.821  44.701   5.382  1.00  0.00     0.293 HD
ENDBRANCH  16  21
ENDBRANCH   1  11
BRANCH  10  23
ATOM     23  O   UNL     1    -102.318  43.073  11.235  1.00  0.00    -0.500 OA
ATOM     24  H   UNL     1    -102.635  42.724  10.339  1.00  0.00     0.294 HD
ENDBRANCH  10  23
BRANCH   5  25
ATOM     25  O   UNL     1     -95.331  42.159  14.488  1.00  0.00    -0.507 OA
ATOM     26  H   UNL     1     -95.077  41.566  15.270  1.00  0.00     0.293 HD
ENDBRANCH   5  25
BRANCH   7  27
ATOM     27  O   UNL     1     -99.837  43.197  15.841  1.00  0.00    -0.507 OA
ATOM     28  H   UNL     1    -100.493  42.538  16.235  1.00  0.00     0.293 HD
ENDBRANCH   7  27
TORSDOF 7
ENDMDL
MODEL 8
REMARK VINA RESULT:    -4.418      9.144     12.341
REMARK INTER + INTRA:          -5.796
REMARK INTER:                  -5.732
REMARK INTRA:                  -0.065
REMARK UNBOUND:                -0.345
REMARK SMILES Oc1cc(O)c2cc(O)c(-c3cc(O)c(O)c(O)c3)[o+]c2c1
REMARK SMILES IDX 10 1 20 2 21 3 22 4 2 5 3 6 4 7 6 8 7 9 8 10 11 11 12 12
REMARK SMILES IDX 13 13 19 14 15 15 17 16 14 17 16 19 18 21 9 23 1 25 5 27
REMARK H PARENT 14 18 16 20 18 22 9 24 1 26 5 28
REMARK Flexibility Score: inf
ROOT
ATOM      1  C   UNL     1    -100.039  50.684  14.786  1.00  0.00     0.402 A 
ATOM      2  O   UNL     1     -99.404  51.736  14.276  1.00  0.00    -0.202 OA
ATOM      3  C   UNL     1     -99.875  52.451  13.260  1.00  0.00     0.368 A 
ATOM      4  C   UNL     1     -99.133  53.538  12.792  1.00  0.00     0.162 A 
ATOM      5  C   UNL     1     -99.601  54.305  11.725  1.00  0.00     0.128 A 
ATOM      6  C   UNL     1    -100.820  53.984  11.118  1.00  0.00     0.093 A 
ATOM      7  C   UNL     1    -101.583  52.898  11.567  1.00  0.00     0.136 A 
ATOM      8  C   UNL     1    -101.111  52.118  12.655  1.00  0.00     0.125 A 
ATOM      9  C   UNL     1    -101.814  51.022  13.181  1.00  0.00     0.078 A 
ATOM     10  C   UNL     1    -101.287  50.302  14.258  1.00  0.00     0.223 A 
ENDROOT
BRANCH   1  11
ATOM     11  C   UNL     1     -99.407  49.961  15.913  1.00  0.00     0.091 A 
ATOM     12  C   UNL     1     -98.853  50.692  16.976  1.00  0.00     0.068 A 
ATOM     13  C   UNL     1     -98.232  50.037  18.044  1.00  0.00     0.162 A 
ATOM     14  C   UNL     1     -99.299  48.560  15.917  1.00  0.00     0.068 A 
ATOM     15  C   UNL     1     -98.144  48.635  18.053  1.00  0.00     0.200 A 
ATOM     16  C   UNL     1     -98.676  47.896  16.982  1.00  0.00     0.162 A 
BRANCH  13  17
ATOM     17  O   UNL     1     -97.706  50.799  19.088  1.00  0.00    -0.504 OA
ATOM     18  H   UNL     1     -96.727  50.756  19.346  1.00  0.00     0.293 HD
ENDBRANCH  13  17
BRANCH  15  19
ATOM     19  O   UNL     1     -97.525  47.989  19.125  1.00  0.00    -0.502 OA
ATOM     20  H   UNL     1     -96.524  47.840  19.160  1.00  0.00     0.293 HD
ENDBRANCH  15  19
BRANCH  16  21
ATOM     21  O   UNL     1     -98.580  46.505  16.978  1.00  0.00    -0.504 OA
ATOM     22  H   UNL     1     -99.256  45.925  17.462  1.00  0.00     0.293 HD
ENDBRANCH  16  21
ENDBRANCH   1  11
BRANCH  10  23
ATOM     23  O   UNL     1    -102.008  49.244  14.812  1.00  0.00    -0.500 OA
ATOM     24  H   UNL     1    -101.686  48.756  15.639  1.00  0.00     0.294 HD
ENDBRANCH  10  23
BRANCH   5  25
ATOM     25  O   UNL     1     -98.846  55.386  11.274  1.00  0.00    -0.507 OA
ATOM     26  H   UNL     1     -99.183  56.338  11.358  1.00  0.00     0.293 HD
ENDBRANCH   5  25
BRANCH   7  27
ATOM     27  O   UNL     1    -102.787  52.640  10.906  1.00  0.00    -0.507 OA
ATOM     28  H   UNL     1    -103.486  51.986  11.229  1.00  0.00     0.293 HD
ENDBRANCH   7  27
TORSDOF 7
ENDMDL
MODEL 9
REMARK VINA RESULT:    -4.418      2.107      7.264
REMARK INTER + INTRA:          -5.796
REMARK INTER:                  -5.428
REMARK INTRA:                  -0.368
REMARK UNBOUND:                -0.345
REMARK SMILES Oc1cc(O)c2cc(O)c(-c3cc(O)c(O)c(O)c3)[o+]c2c1
REMARK SMILES IDX 10 1 20 2 21 3 22 4 2 5 3 6 4 7 6 8 7 9 8 10 11 11 12 12
REMARK SMILES IDX 13 13 19 14 15 15 17 16 14 17 16 19 18 21 9 23 1 25 5 27
REMARK H PARENT 14 18 16 20 18 22 9 24 1 26 5 28
REMARK Flexibility Score: inf
ROOT
ATOM      1  C   UNL     1    -100.041  42.053   7.811  1.00  0.00     0.402 A 
ATOM      2  O   UNL     1     -99.594  42.951   6.938  1.00  0.00    -0.202 OA
ATOM      3  C   UNL     1     -99.746  42.830   5.623  1.00  0.00     0.368 A 
ATOM      4  C   UNL     1     -99.238  43.825   4.786  1.00  0.00     0.162 A 
ATOM      5  C   UNL     1     -99.379  43.722   3.402  1.00  0.00     0.128 A 
ATOM      6  C   UNL     1    -100.033  42.616   2.848  1.00  0.00     0.093 A 
ATOM      7  C   UNL     1    -100.550  41.603   3.666  1.00  0.00     0.136 A 
ATOM      8  C   UNL     1    -100.411  41.706   5.074  1.00  0.00     0.125 A 
ATOM      9  C   UNL     1    -100.909  40.748   5.972  1.00  0.00     0.078 A 
ATOM     10  C   UNL     1    -100.737  40.919   7.348  1.00  0.00     0.223 A 
ENDROOT
BRANCH   1  11
ATOM     11  C   UNL     1     -99.801  42.296   9.252  1.00  0.00     0.091 A 
ATOM     12  C   UNL     1    -100.596  43.229   9.935  1.00  0.00     0.068 A 
ATOM     13  C   UNL     1    -100.379  43.494  11.291  1.00  0.00     0.162 A 
ATOM     14  C   UNL     1     -98.759  41.653   9.940  1.00  0.00     0.068 A 
ATOM     15  C   UNL     1     -99.349  42.834  11.980  1.00  0.00     0.200 A 
ATOM     16  C   UNL     1     -98.534  41.913  11.299  1.00  0.00     0.162 A 
BRANCH  13  17
ATOM     17  O   UNL     1    -101.200  44.419  11.937  1.00  0.00    -0.504 OA
ATOM     18  H   UNL     1    -101.411  45.325  11.536  1.00  0.00     0.293 HD
ENDBRANCH  13  17
BRANCH  15  19
ATOM     19  O   UNL     1     -99.141  43.102  13.334  1.00  0.00    -0.502 OA
ATOM     20  H   UNL     1     -98.779  43.989  13.659  1.00  0.00     0.293 HD
ENDBRANCH  15  19
BRANCH  16  21
ATOM     21  O   UNL     1     -97.499  41.265  11.972  1.00  0.00    -0.504 OA
ATOM     22  H   UNL     1     -96.922  41.749  12.651  1.00  0.00     0.293 HD
ENDBRANCH  16  21
ENDBRANCH   1  11
BRANCH  10  23
ATOM     23  O   UNL     1    -101.274  39.993   8.242  1.00  0.00    -0.500 OA
ATOM     24  H   UNL     1    -101.818  40.282   9.046  1.00  0.00     0.294 HD
ENDBRANCH  10  23
BRANCH   5  25
ATOM     25  O   UNL     1     -98.867  44.727   2.583  1.00  0.00    -0.507 OA
ATOM     26  H   UNL     1     -98.804  45.688   2.901  1.00  0.00     0.293 HD
ENDBRANCH   5  25
BRANCH   7  27
ATOM     27  O   UNL     1    -101.187  40.529   3.037  1.00  0.00    -0.507 OA
ATOM     28  H   UNL     1    -102.187  40.442   2.930  1.00  0.00     0.293 HD
ENDBRANCH   7  27
TORSDOF 7
ENDMDL
