MODEL 1
REMARK VINA RESULT:    -3.838      0.000      0.000
REMARK INTER + INTRA:          -7.422
REMARK INTER:                  -6.082
REMARK INTRA:                  -1.340
REMARK UNBOUND:                -1.340
REMARK SMILES CCCCCCCCCCCC(=O)[O-]
REMARK SMILES IDX 7 1 8 2 9 3 10 4 11 5 12 6 13 7 14 8 6 9 5 10 4 11 3 12 2 13
REMARK SMILES IDX 1 14
REMARK H PARENT
REMARK Flexibility Score: inf
ROOT
ATOM      1  C   UNL     1     100.060   3.468  25.132  1.00  0.00     0.000 C 
ENDROOT
BRANCH   1   2
ATOM      2  C   UNL     1      99.942   3.288  23.610  1.00  0.00     0.000 C 
BRANCH   2   3
ATOM      3  C   UNL     1      99.235   4.472  22.928  1.00  0.00     0.000 C 
BRANCH   3   4
ATOM      4  C   UNL     1      98.161   5.113  23.822  1.00  0.00     0.006 C 
BRANCH   4   5
ATOM      5  C   UNL     1      96.742   4.652  23.468  1.00  0.00     0.053 C 
BRANCH   5   6
ATOM      6  C   UNL     1      96.345   3.485  24.316  1.00  0.00     0.041 C 
ATOM      7  O   UNL     1      96.445   3.550  25.569  1.00  0.00    -0.550 OA
ATOM      8  O   UNL     1      95.911   2.308  23.719  1.00  0.00    -0.550 OA
ENDBRANCH   5   6
ENDBRANCH   4   5
ENDBRANCH   3   4
ENDBRANCH   2   3
ENDBRANCH   1   2
BRANCH   1   9
ATOM      9  C   UNL     1      99.832   2.160  25.905  1.00  0.00     0.000 C 
BRANCH   9  10
ATOM     10  C   UNL     1      99.166   1.105  25.015  1.00  0.00    -0.000 C 
BRANCH  10  11
ATOM     11  C   UNL     1      99.996  -0.187  24.977  1.00  0.00    -0.000 C 
BRANCH  11  12
ATOM     12  C   UNL     1     100.285  -0.672  23.544  1.00  0.00    -0.000 C 
BRANCH  12  13
ATOM     13  C   UNL     1     101.512  -0.026  22.877  1.00  0.00    -0.003 C 
ATOM     14  C   UNL     1     102.529   0.508  23.885  1.00  0.00     0.004 C 
ENDBRANCH  12  13
ENDBRANCH  11  12
ENDBRANCH  10  11
ENDBRANCH   9  10
ENDBRANCH   1   9
TORSDOF 10
ENDMDL
MODEL 2
REMARK VINA RESULT:    -3.830      2.276      5.482
REMARK INTER + INTRA:          -7.409
REMARK INTER:                  -6.389
REMARK INTRA:                  -1.020
REMARK UNBOUND:                -1.340
REMARK SMILES CCCCCCCCCCCC(=O)[O-]
REMARK SMILES IDX 7 1 8 2 9 3 10 4 11 5 12 6 13 7 14 8 6 9 5 10 4 11 3 12 2 13
REMARK SMILES IDX 1 14
REMARK H PARENT
REMARK Flexibility Score: inf
ROOT
ATOM      1  C   UNL     1      98.438   4.164  23.834  1.00  0.00     0.000 C 
ENDROOT
BRANCH   1   2
ATOM      2  C   UNL     1      99.742   3.997  23.037  1.00  0.00     0.000 C 
BRANCH   2   3
ATOM      3  C   UNL     1     100.869   3.367  23.875  1.00  0.00     0.000 C 
BRANCH   3   4
ATOM      4  C   UNL     1     101.434   2.089  23.235  1.00  0.00     0.006 C 
BRANCH   4   5
ATOM      5  C   UNL     1     101.127   0.829  24.055  1.00  0.00     0.053 C 
BRANCH   5   6
ATOM      6  C   UNL     1      99.936   0.119  23.494  1.00  0.00     0.041 C 
ATOM      7  O   UNL     1     100.090  -0.834  22.686  1.00  0.00    -0.550 OA
ATOM      8  O   UNL     1      98.654   0.542  23.824  1.00  0.00    -0.550 OA
ENDBRANCH   5   6
ENDBRANCH   4   5
ENDBRANCH   3   4
ENDBRANCH   2   3
ENDBRANCH   1   2
BRANCH   1   9
ATOM      9  C   UNL     1      98.599   3.807  25.319  1.00  0.00     0.000 C 
BRANCH   9  10
ATOM     10  C   UNL     1      97.247   3.449  25.948  1.00  0.00    -0.000 C 
BRANCH  10  11
ATOM     11  C   UNL     1      96.085   3.975  25.091  1.00  0.00    -0.000 C 
BRANCH  11  12
ATOM     12  C   UNL     1      95.422   5.230  25.687  1.00  0.00    -0.000 C 
BRANCH  12  13
ATOM     13  C   UNL     1      95.649   6.524  24.885  1.00  0.00    -0.003 C 
ATOM     14  C   UNL     1      95.251   6.396  23.415  1.00  0.00     0.004 C 
ENDBRANCH  12  13
ENDBRANCH  11  12
ENDBRANCH  10  11
ENDBRANCH   9  10
ENDBRANCH   1   9
TORSDOF 10
ENDMDL
MODEL 3
REMARK VINA RESULT:    -3.801      2.753      5.525
REMARK INTER + INTRA:          -7.363
REMARK INTER:                  -5.851
REMARK INTRA:                  -1.512
REMARK UNBOUND:                -1.340
REMARK SMILES CCCCCCCCCCCC(=O)[O-]
REMARK SMILES IDX 7 1 8 2 9 3 10 4 11 5 12 6 13 7 14 8 6 9 5 10 4 11 3 12 2 13
REMARK SMILES IDX 1 14
REMARK H PARENT
REMARK Flexibility Score: inf
ROOT
ATOM      1  C   UNL     1      95.954   7.336  22.610  1.00  0.00     0.000 C 
ENDROOT
BRANCH   1   2
ATOM      2  C   UNL     1      96.890   6.344  21.902  1.00  0.00     0.000 C 
BRANCH   2   3
ATOM      3  C   UNL     1      98.331   6.403  22.442  1.00  0.00     0.000 C 
BRANCH   3   4
ATOM      4  C   UNL     1      99.008   5.024  22.468  1.00  0.00     0.006 C 
BRANCH   4   5
ATOM      5  C   UNL     1      99.477   4.620  23.871  1.00  0.00     0.053 C 
BRANCH   5   6
ATOM      6  C   UNL     1     100.061   3.242  23.850  1.00  0.00     0.041 C 
ATOM      7  O   UNL     1      99.805   2.432  24.779  1.00  0.00    -0.550 OA
ATOM      8  O   UNL     1     100.928   2.870  22.830  1.00  0.00    -0.550 OA
ENDBRANCH   5   6
ENDBRANCH   4   5
ENDBRANCH   3   4
ENDBRANCH   2   3
ENDBRANCH   1   2
BRANCH   1   9
ATOM      9  C   UNL     1      96.571   7.931  23.885  1.00  0.00     0.000 C 
BRANCH   9  10
ATOM     10  C   UNL     1      95.844   7.424  25.135  1.00  0.00    -0.000 C 
BRANCH  10  11
ATOM     11  C   UNL     1      96.475   6.120  25.648  1.00  0.00    -0.000 C 
BRANCH  11  12
ATOM     12  C   UNL     1      95.596   4.884  25.383  1.00  0.00    -0.000 C 
BRANCH  12  13
ATOM     13  C   UNL     1      96.365   3.557  25.263  1.00  0.00    -0.003 C 
ATOM     14  C   UNL     1      96.145   2.856  23.923  1.00  0.00     0.004 C 
ENDBRANCH  12  13
ENDBRANCH  11  12
ENDBRANCH  10  11
ENDBRANCH   9  10
ENDBRANCH   1   9
TORSDOF 10
ENDMDL
MODEL 4
REMARK VINA RESULT:    -3.792      2.585      5.005
REMARK INTER + INTRA:          -7.348
REMARK INTER:                  -5.828
REMARK INTRA:                  -1.520
REMARK UNBOUND:                -1.340
REMARK SMILES CCCCCCCCCCCC(=O)[O-]
REMARK SMILES IDX 7 1 8 2 9 3 10 4 11 5 12 6 13 7 14 8 6 9 5 10 4 11 3 12 2 13
REMARK SMILES IDX 1 14
REMARK H PARENT
REMARK Flexibility Score: inf
ROOT
ATOM      1  C   UNL     1      98.887   3.284  26.757  1.00  0.00     0.000 C 
ENDROOT
BRANCH   1   2
ATOM      2  C   UNL     1     100.154   4.151  26.824  1.00  0.00     0.000 C 
BRANCH   2   3
ATOM      3  C   UNL     1     100.796   4.367  25.442  1.00  0.00     0.000 C 
BRANCH   3   4
ATOM      4  C   UNL     1      99.794   4.184  24.292  1.00  0.00     0.006 C 
BRANCH   4   5
ATOM      5  C   UNL     1     100.369   3.366  23.128  1.00  0.00     0.053 C 
BRANCH   5   6
ATOM      6  C   UNL     1     100.434   1.916  23.492  1.00  0.00     0.041 C 
ATOM      7  O   UNL     1      99.390   1.302  23.836  1.00  0.00    -0.550 OA
ATOM      8  O   UNL     1     101.656   1.255  23.498  1.00  0.00    -0.550 OA
ENDBRANCH   5   6
ENDBRANCH   4   5
ENDBRANCH   3   4
ENDBRANCH   2   3
ENDBRANCH   1   2
BRANCH   1   9
ATOM      9  C   UNL     1      97.672   3.956  27.415  1.00  0.00     0.000 C 
BRANCH   9  10
ATOM     10  C   UNL     1      97.753   5.482  27.291  1.00  0.00    -0.000 C 
BRANCH  10  11
ATOM     11  C   UNL     1      97.020   5.972  26.033  1.00  0.00    -0.000 C 
BRANCH  11  12
ATOM     12  C   UNL     1      95.916   5.005  25.568  1.00  0.00    -0.000 C 
BRANCH  12  13
ATOM     13  C   UNL     1      96.074   4.485  24.128  1.00  0.00    -0.003 C 
ATOM     14  C   UNL     1      96.208   2.964  24.052  1.00  0.00     0.004 C 
ENDBRANCH  12  13
ENDBRANCH  11  12
ENDBRANCH  10  11
ENDBRANCH   9  10
ENDBRANCH   1   9
TORSDOF 10
ENDMDL
MODEL 5
REMARK VINA RESULT:    -3.790      1.419      2.511
REMARK INTER + INTRA:          -7.345
REMARK INTER:                  -6.010
REMARK INTRA:                  -1.335
REMARK UNBOUND:                -1.340
REMARK SMILES CCCCCCCCCCCC(=O)[O-]
REMARK SMILES IDX 7 1 8 2 9 3 10 4 11 5 12 6 13 7 14 8 6 9 5 10 4 11 3 12 2 13
REMARK SMILES IDX 1 14
REMARK H PARENT
REMARK Flexibility Score: inf
ROOT
ATOM      1  C   UNL     1      99.647   0.273  25.153  1.00  0.00     0.000 C 
ENDROOT
BRANCH   1   2
ATOM      2  C   UNL     1      99.813   1.601  25.910  1.00  0.00     0.000 C 
BRANCH   2   3
ATOM      3  C   UNL     1      99.494   2.825  25.032  1.00  0.00     0.000 C 
BRANCH   3   4
ATOM      4  C   UNL     1      98.333   3.663  25.589  1.00  0.00     0.006 C 
BRANCH   4   5
ATOM      5  C   UNL     1      96.996   2.911  25.572  1.00  0.00     0.053 C 
BRANCH   5   6
ATOM      6  C   UNL     1      96.441   2.864  24.184  1.00  0.00     0.041 C 
ATOM      7  O   UNL     1      96.215   3.932  23.556  1.00  0.00    -0.550 OA
ATOM      8  O   UNL     1      96.127   1.643  23.601  1.00  0.00    -0.550 OA
ENDBRANCH   5   6
ENDBRANCH   4   5
ENDBRANCH   3   4
ENDBRANCH   2   3
ENDBRANCH   1   2
BRANCH   1   9
ATOM      9  C   UNL     1      99.558   0.464  23.631  1.00  0.00     0.000 C 
BRANCH   9  10
ATOM     10  C   UNL     1     100.525  -0.477  22.903  1.00  0.00    -0.000 C 
BRANCH  10  11
ATOM     11  C   UNL     1     101.869  -0.565  23.641  1.00  0.00    -0.000 C 
BRANCH  11  12
ATOM     12  C   UNL     1     102.817   0.600  23.301  1.00  0.00    -0.000 C 
BRANCH  12  13
ATOM     13  C   UNL     1     103.499   1.255  24.516  1.00  0.00    -0.003 C 
ATOM     14  C   UNL     1     103.097   2.716  24.712  1.00  0.00     0.004 C 
ENDBRANCH  12  13
ENDBRANCH  11  12
ENDBRANCH  10  11
ENDBRANCH   9  10
ENDBRANCH   1   9
TORSDOF 10
ENDMDL
MODEL 6
REMARK VINA RESULT:    -3.770      1.481      2.491
REMARK INTER + INTRA:          -7.313
REMARK INTER:                  -5.875
REMARK INTRA:                  -1.438
REMARK UNBOUND:                -1.340
REMARK SMILES CCCCCCCCCCCC(=O)[O-]
REMARK SMILES IDX 7 1 8 2 9 3 10 4 11 5 12 6 13 7 14 8 6 9 5 10 4 11 3 12 2 13
REMARK SMILES IDX 1 14
REMARK H PARENT
REMARK Flexibility Score: inf
ROOT
ATOM      1  C   UNL     1     101.549   2.994  26.417  1.00  0.00     0.000 C 
ENDROOT
BRANCH   1   2
ATOM      2  C   UNL     1     100.890   4.223  25.772  1.00  0.00     0.000 C 
BRANCH   2   3
ATOM      3  C   UNL     1      99.578   3.877  25.045  1.00  0.00     0.000 C 
BRANCH   3   4
ATOM      4  C   UNL     1      98.687   2.924  25.858  1.00  0.00     0.006 C 
BRANCH   4   5
ATOM      5  C   UNL     1      97.199   3.282  25.769  1.00  0.00     0.053 C 
BRANCH   5   6
ATOM      6  C   UNL     1      96.648   2.900  24.432  1.00  0.00     0.041 C 
ATOM      7  O   UNL     1      96.172   3.780  23.668  1.00  0.00    -0.550 OA
ATOM      8  O   UNL     1      96.616   1.565  24.049  1.00  0.00    -0.550 OA
ENDBRANCH   5   6
ENDBRANCH   4   5
ENDBRANCH   3   4
ENDBRANCH   2   3
ENDBRANCH   1   2
BRANCH   1   9
ATOM      9  C   UNL     1     102.986   2.763  25.924  1.00  0.00     0.000 C 
BRANCH   9  10
ATOM     10  C   UNL     1     102.998   2.327  24.454  1.00  0.00    -0.000 C 
BRANCH  10  11
ATOM     11  C   UNL     1     102.283   0.980  24.273  1.00  0.00    -0.000 C 
BRANCH  11  12
ATOM     12  C   UNL     1     101.150   1.038  23.232  1.00  0.00    -0.000 C 
BRANCH  12  13
ATOM     13  C   UNL     1      99.901   0.212  23.588  1.00  0.00    -0.003 C 
ATOM     14  C   UNL     1      99.972  -0.409  24.983  1.00  0.00     0.004 C 
ENDBRANCH  12  13
ENDBRANCH  11  12
ENDBRANCH  10  11
ENDBRANCH   9  10
ENDBRANCH   1   9
TORSDOF 10
ENDMDL
MODEL 7
REMARK VINA RESULT:    -3.752      2.798      5.606
REMARK INTER + INTRA:          -7.285
REMARK INTER:                  -6.044
REMARK INTRA:                  -1.241
REMARK UNBOUND:                -1.340
REMARK SMILES CCCCCCCCCCCC(=O)[O-]
REMARK SMILES IDX 7 1 8 2 9 3 10 4 11 5 12 6 13 7 14 8 6 9 5 10 4 11 3 12 2 13
REMARK SMILES IDX 1 14
REMARK H PARENT
REMARK Flexibility Score: inf
ROOT
ATOM      1  C   UNL     1      96.122   3.161  24.048  1.00  0.00     0.000 C 
ENDROOT
BRANCH   1   2
ATOM      2  C   UNL     1      97.352   2.314  24.413  1.00  0.00     0.000 C 
BRANCH   2   3
ATOM      3  C   UNL     1      98.673   2.973  23.978  1.00  0.00     0.000 C 
BRANCH   3   4
ATOM      4  C   UNL     1      99.889   2.407  24.727  1.00  0.00     0.006 C 
BRANCH   4   5
ATOM      5  C   UNL     1      99.579   1.091  25.452  1.00  0.00     0.053 C 
BRANCH   5   6
ATOM      6  C   UNL     1     100.195  -0.063  24.726  1.00  0.00     0.041 C 
ATOM      7  O   UNL     1     100.135  -1.223  25.213  1.00  0.00    -0.550 OA
ATOM      8  O   UNL     1     100.880   0.150  23.536  1.00  0.00    -0.550 OA
ENDBRANCH   5   6
ENDBRANCH   4   5
ENDBRANCH   3   4
ENDBRANCH   2   3
ENDBRANCH   1   2
BRANCH   1   9
ATOM      9  C   UNL     1      96.494   4.567  23.553  1.00  0.00     0.000 C 
BRANCH   9  10
ATOM     10  C   UNL     1      95.576   5.628  24.172  1.00  0.00    -0.000 C 
BRANCH  10  11
ATOM     11  C   UNL     1      95.620   5.566  25.706  1.00  0.00    -0.000 C 
BRANCH  11  12
ATOM     12  C   UNL     1      97.032   5.794  26.276  1.00  0.00    -0.000 C 
BRANCH  12  13
ATOM     13  C   UNL     1      97.275   5.186  27.669  1.00  0.00    -0.003 C 
ATOM     14  C   UNL     1      98.307   4.059  27.657  1.00  0.00     0.004 C 
ENDBRANCH  12  13
ENDBRANCH  11  12
ENDBRANCH  10  11
ENDBRANCH   9  10
ENDBRANCH   1   9
TORSDOF 10
ENDMDL
MODEL 8
REMARK VINA RESULT:    -3.751      3.671      4.912
REMARK INTER + INTRA:          -7.283
REMARK INTER:                  -5.842
REMARK INTRA:                  -1.441
REMARK UNBOUND:                -1.340
REMARK SMILES CCCCCCCCCCCC(=O)[O-]
REMARK SMILES IDX 7 1 8 2 9 3 10 4 11 5 12 6 13 7 14 8 6 9 5 10 4 11 3 12 2 13
REMARK SMILES IDX 1 14
REMARK H PARENT
REMARK Flexibility Score: inf
ROOT
ATOM      1  C   UNL     1      96.778   5.593  26.789  1.00  0.00     0.000 C 
ENDROOT
BRANCH   1   2
ATOM      2  C   UNL     1      95.627   5.715  25.778  1.00  0.00     0.000 C 
BRANCH   2   3
ATOM      3  C   UNL     1      96.031   6.497  24.515  1.00  0.00     0.000 C 
BRANCH   3   4
ATOM      4  C   UNL     1      94.999   6.363  23.384  1.00  0.00     0.006 C 
BRANCH   4   5
ATOM      5  C   UNL     1      95.635   6.430  21.989  1.00  0.00     0.053 C 
BRANCH   5   6
ATOM      6  C   UNL     1      94.882   7.385  21.118  1.00  0.00     0.041 C 
ATOM      7  O   UNL     1      94.185   8.298  21.633  1.00  0.00    -0.550 OA
ATOM      8  O   UNL     1      94.910   7.236  19.737  1.00  0.00    -0.550 OA
ENDBRANCH   5   6
ENDBRANCH   4   5
ENDBRANCH   3   4
ENDBRANCH   2   3
ENDBRANCH   1   2
BRANCH   1   9
ATOM      9  C   UNL     1      98.150   5.895  26.167  1.00  0.00     0.000 C 
BRANCH   9  10
ATOM     10  C   UNL     1      98.973   4.612  26.001  1.00  0.00    -0.000 C 
BRANCH  10  11
ATOM     11  C   UNL     1      99.480   4.465  24.559  1.00  0.00    -0.000 C 
BRANCH  11  12
ATOM     12  C   UNL     1      98.456   3.788  23.630  1.00  0.00    -0.000 C 
BRANCH  12  13
ATOM     13  C   UNL     1      97.693   2.608  24.258  1.00  0.00    -0.003 C 
ATOM     14  C   UNL     1      96.198   2.625  23.940  1.00  0.00     0.004 C 
ENDBRANCH  12  13
ENDBRANCH  11  12
ENDBRANCH  10  11
ENDBRANCH   9  10
ENDBRANCH   1   9
TORSDOF 10
ENDMDL
MODEL 9
REMARK VINA RESULT:    -3.684      2.943      5.408
REMARK INTER + INTRA:          -7.177
REMARK INTER:                  -5.795
REMARK INTRA:                  -1.382
REMARK UNBOUND:                -1.340
REMARK SMILES CCCCCCCCCCCC(=O)[O-]
REMARK SMILES IDX 7 1 8 2 9 3 10 4 11 5 12 6 13 7 14 8 6 9 5 10 4 11 3 12 2 13
REMARK SMILES IDX 1 14
REMARK H PARENT
REMARK Flexibility Score: inf
ROOT
ATOM      1  C   UNL     1      99.144   3.386  26.081  1.00  0.00     0.000 C 
ENDROOT
BRANCH   1   2
ATOM      2  C   UNL     1      99.541   4.572  25.187  1.00  0.00     0.000 C 
BRANCH   2   3
ATOM      3  C   UNL     1      99.838   4.146  23.738  1.00  0.00     0.000 C 
BRANCH   3   4
ATOM      4  C   UNL     1     100.055   2.631  23.601  1.00  0.00     0.006 C 
BRANCH   4   5
ATOM      5  C   UNL     1     101.359   2.282  22.872  1.00  0.00     0.053 C 
BRANCH   5   6
ATOM      6  C   UNL     1     102.345   1.684  23.825  1.00  0.00     0.041 C 
ATOM      7  O   UNL     1     102.076   1.612  25.052  1.00  0.00    -0.550 OA
ATOM      8  O   UNL     1     103.583   1.253  23.364  1.00  0.00    -0.550 OA
ENDBRANCH   5   6
ENDBRANCH   4   5
ENDBRANCH   3   4
ENDBRANCH   2   3
ENDBRANCH   1   2
BRANCH   1   9
ATOM      9  C   UNL     1      97.650   3.385  26.438  1.00  0.00     0.000 C 
BRANCH   9  10
ATOM     10  C   UNL     1      96.844   2.564  25.425  1.00  0.00    -0.000 C 
BRANCH  10  11
ATOM     11  C   UNL     1      96.095   3.481  24.445  1.00  0.00    -0.000 C 
BRANCH  11  12
ATOM     12  C   UNL     1      95.707   4.834  25.068  1.00  0.00    -0.000 C 
BRANCH  12  13
ATOM     13  C   UNL     1      96.025   6.062  24.197  1.00  0.00    -0.003 C 
ATOM     14  C   UNL     1      96.518   5.693  22.799  1.00  0.00     0.004 C 
ENDBRANCH  12  13
ENDBRANCH  11  12
ENDBRANCH  10  11
ENDBRANCH   9  10
ENDBRANCH   1   9
TORSDOF 10
ENDMDL
