MODEL 1
REMARK VINA RESULT:    -6.289      0.000      0.000
REMARK INTER + INTRA:         -13.452
REMARK INTER:                 -10.333
REMARK INTRA:                  -3.119
REMARK UNBOUND:                -3.119
REMARK SMILES C[C@@H]1O[C@H](OC[C@@H]2O[C@H](Oc3c(-c4ccc(O)c(O)c4)oc4cc(O)cc(O)c4c3=O)[C@H](O)[C@@H](O)[C@H]2O)[C@@H](O)[C@@H](O)[C@@H]1O
REMARK SMILES IDX 7 1 36 2 34 3 32 4 9 5 8 6 6 7 5 8 4 9 1 10 2 11 42 12 3 13
REMARK SMILES IDX 40 14 38 15 43 16 41 18 39 20 37 22 35 24 10 26 11 27 12 28
REMARK SMILES IDX 30 29 21 30 29 31 31 32 22 33 27 34 23 35 26 36 24 37 13 38
REMARK SMILES IDX 20 39 14 40 18 41 15 42 16 43 19 44 17 46 28 48 25 50 33 52
REMARK H PARENT 43 17 41 19 39 21 37 23 35 25 19 45 17 47 28 49 25 51 33 53
REMARK Flexibility Score: inf
ROOT
ATOM      1  C   UNL     1       0.374   0.369  26.239  1.00  0.00     0.180 C 
ATOM      2  C   UNL     1       1.818   0.069  27.137  1.00  0.00     0.177 C 
ATOM      3  C   UNL     1       1.466  -1.508  27.330  1.00  0.00     0.180 C 
ATOM      4  C   UNL     1       1.559  -2.306  25.864  1.00  0.00     0.214 C 
ATOM      5  C   UNL     1       0.517  -1.489  25.036  1.00  0.00     0.339 C 
ATOM      6  O   UNL     1      -0.390  -0.763  25.850  1.00  0.00    -0.332 OA
ENDROOT
BRANCH   1   7
ATOM      7  C   UNL     1      -0.596   1.536  26.655  1.00  0.00     0.198 C 
BRANCH   7   8
ATOM      8  O   UNL     1      -2.054   1.555  26.844  1.00  0.00    -0.347 OA
BRANCH   8   9
ATOM      9  C   UNL     1      -2.482   1.575  28.193  1.00  0.00     0.281 C 
ATOM     10  C   UNL     1      -5.751   0.628  27.111  1.00  0.00     0.041 C 
ATOM     11  C   UNL     1      -4.718   0.457  28.301  1.00  0.00     0.150 C 
ATOM     12  C   UNL     1      -3.629  -1.006  27.915  1.00  0.00     0.174 C 
ATOM     13  O   UNL     1      -3.969   1.724  28.279  1.00  0.00    -0.344 OA
ATOM     14  C   UNL     1      -2.142  -0.907  28.644  1.00  0.00     0.179 C 
ATOM     15  C   UNL     1      -2.091   0.421  29.252  1.00  0.00     0.202 C 
BRANCH  12  16
ATOM     16  O   UNL     1      -3.267  -0.991  26.453  1.00  0.00    -0.388 OA
ATOM     17  H   UNL     1      -2.282  -0.907  26.422  1.00  0.00     0.211 HD
ENDBRANCH  12  16
BRANCH  14  18
ATOM     18  O   UNL     1      -1.408  -1.988  29.389  1.00  0.00    -0.387 OA
ATOM     19  H   UNL     1      -1.332  -2.856  28.794  1.00  0.00     0.211 HD
ENDBRANCH  14  18
BRANCH  15  20
ATOM     20  O   UNL     1      -2.911   0.339  30.395  1.00  0.00    -0.385 OA
ATOM     21  H   UNL     1      -2.909   1.245  30.864  1.00  0.00     0.211 HD
ENDBRANCH  15  20
ENDBRANCH   8   9
ENDBRANCH   7   8
ENDBRANCH   1   7
BRANCH   2  22
ATOM     22  O   UNL     1       2.839   0.602  26.301  1.00  0.00    -0.387 OA
ATOM     23  H   UNL     1       3.305   1.420  26.634  1.00  0.00     0.211 HD
ENDBRANCH   2  22
BRANCH   3  24
ATOM     24  O   UNL     1       2.001  -2.369  28.338  1.00  0.00    -0.387 OA
ATOM     25  H   UNL     1       1.139  -2.891  28.705  1.00  0.00     0.211 HD
ENDBRANCH   3  24
BRANCH   5  26
ATOM     26  O   UNL     1      -0.188  -2.270  24.108  1.00  0.00    -0.454 OA
BRANCH  26  27
ATOM     27  C   UNL     1      -0.987  -1.900  22.963  1.00  0.00     0.214 A 
ATOM     28  C   UNL     1      -0.767  -1.274  21.710  1.00  0.00     0.180 A 
ATOM     29  C   UNL     1      -2.365  -2.066  23.303  1.00  0.00     0.239 A 
ATOM     30  O   UNL     1      -1.736  -0.512  21.168  1.00  0.00    -0.452 OA
ATOM     31  C   UNL     1      -3.346  -1.254  22.727  1.00  0.00     0.111 A 
ATOM     32  O   UNL     1      -2.666  -2.831  24.307  1.00  0.00    -0.285 OA
ATOM     33  C   UNL     1      -2.986  -0.583  21.548  1.00  0.00     0.146 A 
ATOM     34  C   UNL     1      -4.664  -1.385  23.069  1.00  0.00     0.134 A 
ATOM     35  C   UNL     1      -3.912  -0.023  20.714  1.00  0.00     0.094 A 
ATOM     36  C   UNL     1      -5.635  -0.838  22.205  1.00  0.00     0.093 A 
ATOM     37  C   UNL     1      -5.228  -0.253  20.957  1.00  0.00     0.123 A 
BRANCH  28  38
ATOM     38  C   UNL     1       0.167  -1.702  20.586  1.00  0.00     0.025 A 
ATOM     39  C   UNL     1       1.220  -2.601  20.944  1.00  0.00     0.062 A 
ATOM     40  C   UNL     1      -0.033  -1.640  19.183  1.00  0.00     0.016 A 
ATOM     41  C   UNL     1       1.614  -3.641  20.106  1.00  0.00     0.158 A 
ATOM     42  C   UNL     1       0.332  -2.719  18.373  1.00  0.00     0.051 A 
ATOM     43  C   UNL     1       1.156  -3.741  18.828  1.00  0.00     0.157 A 
BRANCH  41  44
ATOM     44  O   UNL     1       2.476  -4.649  20.575  1.00  0.00    -0.504 OA
ATOM     45  H   UNL     1       3.215  -4.914  19.923  1.00  0.00     0.293 HD
ENDBRANCH  41  44
BRANCH  43  46
ATOM     46  O   UNL     1       1.588  -4.724  17.979  1.00  0.00    -0.504 OA
ATOM     47  H   UNL     1       1.606  -4.478  16.944  1.00  0.00     0.293 HD
ENDBRANCH  43  46
ENDBRANCH  28  38
BRANCH  34  48
ATOM     48  O   UNL     1      -5.026  -1.902  24.297  1.00  0.00    -0.507 OA
ATOM     49  H   UNL     1      -4.290  -2.345  24.918  1.00  0.00     0.293 HD
ENDBRANCH  34  48
BRANCH  37  50
ATOM     50  O   UNL     1      -6.231   0.017  20.027  1.00  0.00    -0.508 OA
ATOM     51  H   UNL     1      -7.207   0.159  20.276  1.00  0.00     0.293 HD
ENDBRANCH  37  50
ENDBRANCH  26  27
ENDBRANCH   5  26
BRANCH   4  52
ATOM     52  O   UNL     1       1.439  -3.680  25.829  1.00  0.00    -0.384 OA
ATOM     53  H   UNL     1       2.313  -4.033  26.324  1.00  0.00     0.211 HD
ENDBRANCH   4  52
TORSDOF 16
ENDMDL
MODEL 2
REMARK VINA RESULT:    -6.127      2.085      7.806
REMARK INTER + INTRA:         -13.186
REMARK INTER:                 -10.349
REMARK INTRA:                  -2.837
REMARK UNBOUND:                -3.119
REMARK SMILES C[C@@H]1O[C@H](OC[C@@H]2O[C@H](Oc3c(-c4ccc(O)c(O)c4)oc4cc(O)cc(O)c4c3=O)[C@H](O)[C@@H](O)[C@H]2O)[C@@H](O)[C@@H](O)[C@@H]1O
REMARK SMILES IDX 7 1 36 2 34 3 32 4 9 5 8 6 6 7 5 8 4 9 1 10 2 11 42 12 3 13
REMARK SMILES IDX 40 14 38 15 43 16 41 18 39 20 37 22 35 24 10 26 11 27 12 28
REMARK SMILES IDX 30 29 21 30 29 31 31 32 22 33 27 34 23 35 26 36 24 37 13 38
REMARK SMILES IDX 20 39 14 40 18 41 15 42 16 43 19 44 17 46 28 48 25 50 33 52
REMARK H PARENT 43 17 41 19 39 21 37 23 35 25 19 45 17 47 28 49 25 51 33 53
REMARK Flexibility Score: inf
ROOT
ATOM      1  C   UNL     1      -1.266  -0.517  20.131  1.00  0.00     0.180 C 
ATOM      2  C   UNL     1      -1.308  -1.741  18.915  1.00  0.00     0.177 C 
ATOM      3  C   UNL     1       0.299  -1.987  18.994  1.00  0.00     0.180 C 
ATOM      4  C   UNL     1       0.706  -2.685  20.458  1.00  0.00     0.214 C 
ATOM      5  C   UNL     1       0.150  -1.609  21.443  1.00  0.00     0.339 C 
ATOM      6  O   UNL     1      -0.042  -0.344  20.831  1.00  0.00    -0.332 OA
ENDROOT
BRANCH   1   7
ATOM      7  C   UNL     1      -1.921   0.890  19.870  1.00  0.00     0.198 C 
BRANCH   7   8
ATOM      8  O   UNL     1      -3.297   1.259  19.505  1.00  0.00    -0.347 OA
BRANCH   8   9
ATOM      9  C   UNL     1      -4.152   1.534  20.599  1.00  0.00     0.281 C 
ATOM     10  C   UNL     1      -6.934   1.500  18.361  1.00  0.00     0.041 C 
ATOM     11  C   UNL     1      -6.506   1.146  19.845  1.00  0.00     0.150 C 
ATOM     12  C   UNL     1      -5.864  -0.604  19.858  1.00  0.00     0.174 C 
ATOM     13  O   UNL     1      -5.445   2.125  20.130  1.00  0.00    -0.344 OA
ATOM     14  C   UNL     1      -4.787  -0.882  21.089  1.00  0.00     0.179 C 
ATOM     15  C   UNL     1      -4.548   0.423  21.701  1.00  0.00     0.202 C 
BRANCH  12  16
ATOM     16  O   UNL     1      -5.016  -0.838  18.636  1.00  0.00    -0.388 OA
ATOM     17  H   UNL     1      -4.296  -0.161  18.676  1.00  0.00     0.211 HD
ENDBRANCH  12  16
BRANCH  14  18
ATOM     18  O   UNL     1      -4.746  -2.055  22.029  1.00  0.00    -0.387 OA
ATOM     19  H   UNL     1      -4.853  -2.958  21.494  1.00  0.00     0.211 HD
ENDBRANCH  14  18
BRANCH  15  20
ATOM     20  O   UNL     1      -5.705   0.699  22.457  1.00  0.00    -0.385 OA
ATOM     21  H   UNL     1      -6.008  -0.159  22.916  1.00  0.00     0.211 HD
ENDBRANCH  15  20
ENDBRANCH   8   9
ENDBRANCH   7   8
ENDBRANCH   1   7
BRANCH   2  22
ATOM     22  O   UNL     1      -2.314  -2.632  19.382  1.00  0.00    -0.387 OA
ATOM     23  H   UNL     1      -3.131  -2.213  19.777  1.00  0.00     0.211 HD
ENDBRANCH   2  22
BRANCH   3  24
ATOM     24  O   UNL     1       1.106  -2.586  17.978  1.00  0.00    -0.387 OA
ATOM     25  H   UNL     1       0.827  -2.053  17.090  1.00  0.00     0.211 HD
ENDBRANCH   3  24
BRANCH   5  26
ATOM     26  O   UNL     1       0.924  -1.470  22.605  1.00  0.00    -0.454 OA
BRANCH  26  27
ATOM     27  C   UNL     1       0.612  -1.720  23.993  1.00  0.00     0.214 A 
ATOM     28  C   UNL     1      -0.024  -1.020  25.050  1.00  0.00     0.180 A 
ATOM     29  C   UNL     1       1.291  -2.909  24.400  1.00  0.00     0.239 A 
ATOM     30  O   UNL     1       0.391  -1.211  26.317  1.00  0.00    -0.452 OA
ATOM     31  C   UNL     1       1.713  -3.073  25.723  1.00  0.00     0.111 A 
ATOM     32  O   UNL     1       1.696  -3.733  23.484  1.00  0.00    -0.285 OA
ATOM     33  C   UNL     1       1.104  -2.246  26.678  1.00  0.00     0.146 A 
ATOM     34  C   UNL     1       2.391  -4.194  26.114  1.00  0.00     0.134 A 
ATOM     35  C   UNL     1       1.175  -2.503  28.018  1.00  0.00     0.094 A 
ATOM     36  C   UNL     1       2.450  -4.492  27.492  1.00  0.00     0.093 A 
ATOM     37  C   UNL     1       1.724  -3.676  28.427  1.00  0.00     0.123 A 
BRANCH  28  38
ATOM     38  C   UNL     1      -1.442  -0.467  25.106  1.00  0.00     0.025 A 
ATOM     39  C   UNL     1      -2.468  -1.293  24.548  1.00  0.00     0.062 A 
ATOM     40  C   UNL     1      -1.968   0.566  25.924  1.00  0.00     0.016 A 
ATOM     41  C   UNL     1      -3.724  -1.401  25.138  1.00  0.00     0.158 A 
ATOM     42  C   UNL     1      -3.213   0.408  26.538  1.00  0.00     0.051 A 
ATOM     43  C   UNL     1      -4.107  -0.585  26.158  1.00  0.00     0.157 A 
BRANCH  41  44
ATOM     44  O   UNL     1      -4.628  -2.393  24.716  1.00  0.00    -0.504 OA
ATOM     45  H   UNL     1      -5.587  -2.259  25.037  1.00  0.00     0.293 HD
ENDBRANCH  41  44
BRANCH  43  46
ATOM     46  O   UNL     1      -5.363  -0.643  26.699  1.00  0.00    -0.504 OA
ATOM     47  H   UNL     1      -5.644  -1.570  27.138  1.00  0.00     0.293 HD
ENDBRANCH  43  46
ENDBRANCH  28  38
BRANCH  34  48
ATOM     48  O   UNL     1       3.125  -4.930  25.205  1.00  0.00    -0.507 OA
ATOM     49  H   UNL     1       3.549  -4.449  24.361  1.00  0.00     0.293 HD
ENDBRANCH  34  48
BRANCH  37  50
ATOM     50  O   UNL     1       1.588  -4.168  29.725  1.00  0.00    -0.508 OA
ATOM     51  H   UNL     1       2.336  -4.636  30.231  1.00  0.00     0.293 HD
ENDBRANCH  37  50
ENDBRANCH  26  27
ENDBRANCH   5  26
BRANCH   4  52
ATOM     52  O   UNL     1       2.002  -3.110  20.670  1.00  0.00    -0.384 OA
ATOM     53  H   UNL     1       2.378  -3.308  19.695  1.00  0.00     0.211 HD
ENDBRANCH   4  52
TORSDOF 16
ENDMDL
MODEL 3
REMARK VINA RESULT:    -5.775      1.557      2.164
REMARK INTER + INTRA:         -12.608
REMARK INTER:                 -10.089
REMARK INTRA:                  -2.520
REMARK UNBOUND:                -3.119
REMARK SMILES C[C@@H]1O[C@H](OC[C@@H]2O[C@H](Oc3c(-c4ccc(O)c(O)c4)oc4cc(O)cc(O)c4c3=O)[C@H](O)[C@@H](O)[C@H]2O)[C@@H](O)[C@@H](O)[C@@H]1O
REMARK SMILES IDX 7 1 36 2 34 3 32 4 9 5 8 6 6 7 5 8 4 9 1 10 2 11 42 12 3 13
REMARK SMILES IDX 40 14 38 15 43 16 41 18 39 20 37 22 35 24 10 26 11 27 12 28
REMARK SMILES IDX 30 29 21 30 29 31 31 32 22 33 27 34 23 35 26 36 24 37 13 38
REMARK SMILES IDX 20 39 14 40 18 41 15 42 16 43 19 44 17 46 28 48 25 50 33 52
REMARK H PARENT 43 17 41 19 39 21 37 23 35 25 19 45 17 47 28 49 25 51 33 53
REMARK Flexibility Score: inf
ROOT
ATOM      1  C   UNL     1      -0.176  -0.142  25.866  1.00  0.00     0.180 C 
ATOM      2  C   UNL     1       0.952  -1.396  26.234  1.00  0.00     0.177 C 
ATOM      3  C   UNL     1      -0.199  -2.547  26.212  1.00  0.00     0.180 C 
ATOM      4  C   UNL     1      -0.770  -2.765  24.657  1.00  0.00     0.214 C 
ATOM      5  C   UNL     1      -1.270  -1.321  24.339  1.00  0.00     0.339 C 
ATOM      6  O   UNL     1      -1.490  -0.542  25.504  1.00  0.00    -0.332 OA
ENDROOT
BRANCH   1   7
ATOM      7  C   UNL     1      -0.252   1.151  26.762  1.00  0.00     0.198 C 
BRANCH   7   8
ATOM      8  O   UNL     1      -1.325   1.659  27.629  1.00  0.00    -0.347 OA
BRANCH   8   9
ATOM      9  C   UNL     1      -1.080   1.538  29.017  1.00  0.00     0.281 C 
ATOM     10  C   UNL     1      -4.583   1.899  29.610  1.00  0.00     0.041 C 
ATOM     11  C   UNL     1      -3.281   1.177  30.152  1.00  0.00     0.150 C 
ATOM     12  C   UNL     1      -3.100  -0.443  29.246  1.00  0.00     0.174 C 
ATOM     13  O   UNL     1      -2.207   2.123  29.811  1.00  0.00    -0.344 OA
ATOM     14  C   UNL     1      -1.526  -0.963  29.175  1.00  0.00     0.179 C 
ATOM     15  C   UNL     1      -0.727   0.130  29.724  1.00  0.00     0.202 C 
BRANCH  12  16
ATOM     16  O   UNL     1      -3.435  -0.246  27.792  1.00  0.00    -0.388 OA
ATOM     17  H   UNL     1      -4.369   0.080  27.774  1.00  0.00     0.211 HD
ENDBRANCH  12  16
BRANCH  14  18
ATOM     18  O   UNL     1      -1.001  -2.347  29.443  1.00  0.00    -0.387 OA
ATOM     19  H   UNL     1      -1.430  -3.039  28.773  1.00  0.00     0.211 HD
ENDBRANCH  14  18
BRANCH  15  20
ATOM     20  O   UNL     1      -0.930   0.079  31.117  1.00  0.00    -0.385 OA
ATOM     21  H   UNL     1      -1.578  -0.680  31.325  1.00  0.00     0.211 HD
ENDBRANCH  15  20
ENDBRANCH   8   9
ENDBRANCH   7   8
ENDBRANCH   1   7
BRANCH   2  22
ATOM     22  O   UNL     1       1.972  -1.214  25.258  1.00  0.00    -0.387 OA
ATOM     23  H   UNL     1       2.878  -0.974  25.601  1.00  0.00     0.211 HD
ENDBRANCH   2  22
BRANCH   3  24
ATOM     24  O   UNL     1      -0.112  -3.830  26.837  1.00  0.00    -0.387 OA
ATOM     25  H   UNL     1      -0.637  -4.474  26.160  1.00  0.00     0.211 HD
ENDBRANCH   3  24
BRANCH   5  26
ATOM     26  O   UNL     1      -2.410  -1.297  23.522  1.00  0.00    -0.454 OA
BRANCH  26  27
ATOM     27  C   UNL     1      -2.564  -1.040  22.108  1.00  0.00     0.214 A 
ATOM     28  C   UNL     1      -1.751  -0.553  21.053  1.00  0.00     0.180 A 
ATOM     29  C   UNL     1      -3.949  -1.155  21.778  1.00  0.00     0.239 A 
ATOM     30  O   UNL     1      -2.312   0.158  20.057  1.00  0.00    -0.452 OA
ATOM     31  C   UNL     1      -4.501  -0.398  20.741  1.00  0.00     0.111 A 
ATOM     32  O   UNL     1      -4.726  -1.807  22.587  1.00  0.00    -0.285 OA
ATOM     33  C   UNL     1      -3.597   0.141  19.813  1.00  0.00     0.146 A 
ATOM     34  C   UNL     1      -5.833  -0.478  20.438  1.00  0.00     0.134 A 
ATOM     35  C   UNL     1      -3.996   0.620  18.598  1.00  0.00     0.094 A 
ATOM     36  C   UNL     1      -6.259  -0.014  19.175  1.00  0.00     0.093 A 
ATOM     37  C   UNL     1      -5.286   0.432  18.216  1.00  0.00     0.123 A 
BRANCH  28  38
ATOM     38  C   UNL     1      -0.429  -1.107  20.540  1.00  0.00     0.025 A 
ATOM     39  C   UNL     1       0.588  -1.333  21.519  1.00  0.00     0.062 A 
ATOM     40  C   UNL     1      -0.150  -1.764  19.313  1.00  0.00     0.016 A 
ATOM     41  C   UNL     1       1.429  -2.441  21.462  1.00  0.00     0.158 A 
ATOM     42  C   UNL     1       0.661  -2.901  19.295  1.00  0.00     0.051 A 
ATOM     43  C   UNL     1       1.457  -3.261  20.375  1.00  0.00     0.157 A 
BRANCH  41  44
ATOM     44  O   UNL     1       2.252  -2.770  22.554  1.00  0.00    -0.504 OA
ATOM     45  H   UNL     1       3.131  -3.222  22.303  1.00  0.00     0.293 HD
ENDBRANCH  41  44
BRANCH  43  46
ATOM     46  O   UNL     1       2.326  -4.314  20.287  1.00  0.00    -0.504 OA
ATOM     47  H   UNL     1       1.889  -5.280  20.199  1.00  0.00     0.293 HD
ENDBRANCH  43  46
ENDBRANCH  28  38
BRANCH  34  48
ATOM     48  O   UNL     1      -6.753  -0.859  21.394  1.00  0.00    -0.507 OA
ATOM     49  H   UNL     1      -7.588  -1.449  21.114  1.00  0.00     0.293 HD
ENDBRANCH  34  48
BRANCH  37  50
ATOM     50  O   UNL     1      -5.725   0.613  16.905  1.00  0.00    -0.508 OA
ATOM     51  H   UNL     1      -6.060   1.502  16.541  1.00  0.00     0.293 HD
ENDBRANCH  37  50
ENDBRANCH  26  27
ENDBRANCH   5  26
BRANCH   4  52
ATOM     52  O   UNL     1      -1.648  -3.797  24.394  1.00  0.00    -0.384 OA
ATOM     53  H   UNL     1      -2.583  -3.315  24.237  1.00  0.00     0.211 HD
ENDBRANCH   4  52
TORSDOF 16
ENDMDL
MODEL 4
REMARK VINA RESULT:    -5.672      1.805      5.730
REMARK INTER + INTRA:         -12.439
REMARK INTER:                  -9.733
REMARK INTRA:                  -2.707
REMARK UNBOUND:                -3.119
REMARK SMILES C[C@@H]1O[C@H](OC[C@@H]2O[C@H](Oc3c(-c4ccc(O)c(O)c4)oc4cc(O)cc(O)c4c3=O)[C@H](O)[C@@H](O)[C@H]2O)[C@@H](O)[C@@H](O)[C@@H]1O
REMARK SMILES IDX 7 1 36 2 34 3 32 4 9 5 8 6 6 7 5 8 4 9 1 10 2 11 42 12 3 13
REMARK SMILES IDX 40 14 38 15 43 16 41 18 39 20 37 22 35 24 10 26 11 27 12 28
REMARK SMILES IDX 30 29 21 30 29 31 31 32 22 33 27 34 23 35 26 36 24 37 13 38
REMARK SMILES IDX 20 39 14 40 18 41 15 42 16 43 19 44 17 46 28 48 25 50 33 52
REMARK H PARENT 43 17 41 19 39 21 37 23 35 25 19 45 17 47 28 49 25 51 33 53
REMARK Flexibility Score: inf
ROOT
ATOM      1  C   UNL     1       0.828  -2.578  23.249  1.00  0.00     0.180 C 
ATOM      2  C   UNL     1       2.370  -2.861  22.526  1.00  0.00     0.177 C 
ATOM      3  C   UNL     1       1.710  -3.401  21.140  1.00  0.00     0.180 C 
ATOM      4  C   UNL     1       0.950  -2.150  20.334  1.00  0.00     0.214 C 
ATOM      5  C   UNL     1      -0.073  -1.698  21.424  1.00  0.00     0.339 C 
ATOM      6  O   UNL     1      -0.310  -2.692  22.407  1.00  0.00    -0.332 OA
ENDROOT
BRANCH   1   7
ATOM      7  C   UNL     1       0.490  -3.174  24.666  1.00  0.00     0.198 C 
BRANCH   7   8
ATOM      8  O   UNL     1      -0.197  -2.579  25.822  1.00  0.00    -0.347 OA
BRANCH   8   9
ATOM      9  C   UNL     1       0.432  -2.800  27.071  1.00  0.00     0.281 C 
ATOM     10  C   UNL     1       3.120  -0.693  26.027  1.00  0.00     0.041 C 
ATOM     11  C   UNL     1       2.283  -1.133  27.300  1.00  0.00     0.150 C 
ATOM     12  C   UNL     1       0.801  -0.010  27.431  1.00  0.00     0.174 C 
ATOM     13  O   UNL     1       1.900  -2.518  26.986  1.00  0.00    -0.344 OA
ATOM     14  C   UNL     1      -0.471  -0.719  28.225  1.00  0.00     0.179 C 
ATOM     15  C   UNL     1      -0.073  -2.109  28.439  1.00  0.00     0.202 C 
BRANCH  12  16
ATOM     16  O   UNL     1       0.226   0.227  26.059  1.00  0.00    -0.388 OA
ATOM     17  H   UNL     1      -0.682   0.590  26.209  1.00  0.00     0.211 HD
ENDBRANCH  12  16
BRANCH  14  18
ATOM     18  O   UNL     1      -1.333  -0.120  29.302  1.00  0.00    -0.387 OA
ATOM     19  H   UNL     1      -1.367  -0.758  30.142  1.00  0.00     0.211 HD
ENDBRANCH  14  18
BRANCH  15  20
ATOM     20  O   UNL     1       0.869  -2.071  29.486  1.00  0.00    -0.385 OA
ATOM     21  H   UNL     1       0.947  -1.111  29.822  1.00  0.00     0.211 HD
ENDBRANCH  15  20
ENDBRANCH   8   9
ENDBRANCH   7   8
ENDBRANCH   1   7
BRANCH   2  22
ATOM     22  O   UNL     1       3.045  -1.620  22.703  1.00  0.00    -0.387 OA
ATOM     23  H   UNL     1       2.579  -0.935  23.260  1.00  0.00     0.211 HD
ENDBRANCH   2  22
BRANCH   3  24
ATOM     24  O   UNL     1       2.359  -4.225  20.169  1.00  0.00    -0.387 OA
ATOM     25  H   UNL     1       3.338  -4.374  20.581  1.00  0.00     0.211 HD
ENDBRANCH   3  24
BRANCH   5  26
ATOM     26  O   UNL     1      -1.290  -1.249  20.889  1.00  0.00    -0.454 OA
BRANCH  26  27
ATOM     27  C   UNL     1      -2.502  -0.794  21.530  1.00  0.00     0.214 A 
ATOM     28  C   UNL     1      -3.341  -1.237  22.584  1.00  0.00     0.180 A 
ATOM     29  C   UNL     1      -3.046   0.276  20.755  1.00  0.00     0.239 A 
ATOM     30  O   UNL     1      -4.664  -0.995  22.526  1.00  0.00    -0.452 OA
ATOM     31  C   UNL     1      -4.426   0.496  20.712  1.00  0.00     0.111 A 
ATOM     32  O   UNL     1      -2.265   0.901  19.929  1.00  0.00    -0.285 OA
ATOM     33  C   UNL     1      -5.182  -0.087  21.740  1.00  0.00     0.146 A 
ATOM     34  C   UNL     1      -4.959   1.498  19.949  1.00  0.00     0.134 A 
ATOM     35  C   UNL     1      -6.466   0.295  22.009  1.00  0.00     0.094 A 
ATOM     36  C   UNL     1      -6.273   1.925  20.231  1.00  0.00     0.093 A 
ATOM     37  C   UNL     1      -6.973   1.375  21.359  1.00  0.00     0.123 A 
BRANCH  28  38
ATOM     38  C   UNL     1      -2.980  -1.492  24.041  1.00  0.00     0.025 A 
ATOM     39  C   UNL     1      -2.765  -0.335  24.854  1.00  0.00     0.062 A 
ATOM     40  C   UNL     1      -3.163  -2.666  24.816  1.00  0.00     0.016 A 
ATOM     41  C   UNL     1      -3.198  -0.274  26.175  1.00  0.00     0.158 A 
ATOM     42  C   UNL     1      -3.643  -2.576  26.125  1.00  0.00     0.051 A 
ATOM     43  C   UNL     1      -3.675  -1.374  26.821  1.00  0.00     0.157 A 
BRANCH  41  44
ATOM     44  O   UNL     1      -3.192   0.946  26.874  1.00  0.00    -0.504 OA
ATOM     45  H   UNL     1      -2.930   1.757  26.313  1.00  0.00     0.293 HD
ENDBRANCH  41  44
BRANCH  43  46
ATOM     46  O   UNL     1      -4.042  -1.336  28.139  1.00  0.00    -0.504 OA
ATOM     47  H   UNL     1      -3.351  -1.751  28.833  1.00  0.00     0.293 HD
ENDBRANCH  43  46
ENDBRANCH  28  38
BRANCH  34  48
ATOM     48  O   UNL     1      -4.289   1.973  18.839  1.00  0.00    -0.507 OA
ATOM     49  H   UNL     1      -3.925   1.291  18.113  1.00  0.00     0.293 HD
ENDBRANCH  34  48
BRANCH  37  50
ATOM     50  O   UNL     1      -8.143   2.020  21.756  1.00  0.00    -0.508 OA
ATOM     51  H   UNL     1      -9.073   1.731  21.464  1.00  0.00     0.293 HD
ENDBRANCH  37  50
ENDBRANCH  26  27
ENDBRANCH   5  26
BRANCH   4  52
ATOM     52  O   UNL     1       0.451  -2.363  19.065  1.00  0.00    -0.384 OA
ATOM     53  H   UNL     1      -0.605  -2.295  19.182  1.00  0.00     0.211 HD
ENDBRANCH   4  52
TORSDOF 16
ENDMDL
MODEL 5
REMARK VINA RESULT:    -5.613      2.001      6.135
REMARK INTER + INTRA:         -12.342
REMARK INTER:                 -10.917
REMARK INTRA:                  -1.426
REMARK UNBOUND:                -3.119
REMARK SMILES C[C@@H]1O[C@H](OC[C@@H]2O[C@H](Oc3c(-c4ccc(O)c(O)c4)oc4cc(O)cc(O)c4c3=O)[C@H](O)[C@@H](O)[C@H]2O)[C@@H](O)[C@@H](O)[C@@H]1O
REMARK SMILES IDX 7 1 36 2 34 3 32 4 9 5 8 6 6 7 5 8 4 9 1 10 2 11 42 12 3 13
REMARK SMILES IDX 40 14 38 15 43 16 41 18 39 20 37 22 35 24 10 26 11 27 12 28
REMARK SMILES IDX 30 29 21 30 29 31 31 32 22 33 27 34 23 35 26 36 24 37 13 38
REMARK SMILES IDX 20 39 14 40 18 41 15 42 16 43 19 44 17 46 28 48 25 50 33 52
REMARK H PARENT 43 17 41 19 39 21 37 23 35 25 19 45 17 47 28 49 25 51 33 53
REMARK Flexibility Score: inf
ROOT
ATOM      1  C   UNL     1      -2.069  -3.092  24.883  1.00  0.00     0.180 C 
ATOM      2  C   UNL     1      -3.410  -3.359  25.939  1.00  0.00     0.177 C 
ATOM      3  C   UNL     1      -3.716  -1.767  26.083  1.00  0.00     0.180 C 
ATOM      4  C   UNL     1      -4.277  -1.152  24.634  1.00  0.00     0.214 C 
ATOM      5  C   UNL     1      -3.083  -1.516  23.697  1.00  0.00     0.339 C 
ATOM      6  O   UNL     1      -1.880  -1.768  24.405  1.00  0.00    -0.332 OA
ENDROOT
BRANCH   1   7
ATOM      7  C   UNL     1      -0.670  -3.741  25.192  1.00  0.00     0.198 C 
BRANCH   7   8
ATOM      8  O   UNL     1       0.664  -3.136  25.327  1.00  0.00    -0.347 OA
BRANCH   8   9
ATOM      9  C   UNL     1       1.204  -3.165  26.635  1.00  0.00     0.281 C 
ATOM     10  C   UNL     1       3.124  -0.260  25.846  1.00  0.00     0.041 C 
ATOM     11  C   UNL     1       2.361  -0.983  27.032  1.00  0.00     0.150 C 
ATOM     12  C   UNL     1       0.584  -0.421  27.002  1.00  0.00     0.174 C 
ATOM     13  O   UNL     1       2.495  -2.409  26.696  1.00  0.00    -0.344 OA
ATOM     14  C   UNL     1      -0.450  -1.532  27.671  1.00  0.00     0.179 C 
ATOM     15  C   UNL     1       0.365  -2.715  27.938  1.00  0.00     0.202 C 
BRANCH  12  16
ATOM     16  O   UNL     1       0.101  -0.356  25.577  1.00  0.00    -0.388 OA
ATOM     17  H   UNL     1       0.917  -0.346  25.018  1.00  0.00     0.211 HD
ENDBRANCH  12  16
BRANCH  14  18
ATOM     18  O   UNL     1      -1.565  -1.280  28.650  1.00  0.00    -0.387 OA
ATOM     19  H   UNL     1      -2.427  -0.945  28.144  1.00  0.00     0.211 HD
ENDBRANCH  14  18
BRANCH  15  20
ATOM     20  O   UNL     1       1.133  -2.391  29.074  1.00  0.00    -0.385 OA
ATOM     21  H   UNL     1       1.938  -3.014  29.114  1.00  0.00     0.211 HD
ENDBRANCH  15  20
ENDBRANCH   8   9
ENDBRANCH   7   8
ENDBRANCH   1   7
BRANCH   2  22
ATOM     22  O   UNL     1      -4.202  -4.303  25.227  1.00  0.00    -0.387 OA
ATOM     23  H   UNL     1      -3.940  -5.262  25.317  1.00  0.00     0.211 HD
ENDBRANCH   2  22
BRANCH   3  24
ATOM     24  O   UNL     1      -4.451  -1.148  27.142  1.00  0.00    -0.387 OA
ATOM     25  H   UNL     1      -4.982  -0.358  26.649  1.00  0.00     0.211 HD
ENDBRANCH   3  24
BRANCH   5  26
ATOM     26  O   UNL     1      -2.858  -0.564  22.691  1.00  0.00    -0.454 OA
BRANCH  26  27
ATOM     27  C   UNL     1      -2.347  -0.700  21.346  1.00  0.00     0.214 A 
ATOM     28  C   UNL     1      -2.877  -0.659  20.032  1.00  0.00     0.180 A 
ATOM     29  C   UNL     1      -1.000  -1.169  21.423  1.00  0.00     0.239 A 
ATOM     30  O   UNL     1      -2.329  -1.427  19.070  1.00  0.00    -0.452 OA
ATOM     31  C   UNL     1      -0.464  -1.970  20.410  1.00  0.00     0.111 A 
ATOM     32  O   UNL     1      -0.356  -1.021  22.539  1.00  0.00    -0.285 OA
ATOM     33  C   UNL     1      -1.135  -1.949  19.178  1.00  0.00     0.146 A 
ATOM     34  C   UNL     1       0.814  -2.450  20.489  1.00  0.00     0.134 A 
ATOM     35  C   UNL     1      -0.565  -2.414  18.027  1.00  0.00     0.094 A 
ATOM     36  C   UNL     1       1.430  -2.908  19.305  1.00  0.00     0.093 A 
ATOM     37  C   UNL     1       0.746  -2.770  18.049  1.00  0.00     0.123 A 
BRANCH  28  38
ATOM     38  C   UNL     1      -3.630   0.474  19.346  1.00  0.00     0.025 A 
ATOM     39  C   UNL     1      -4.185   0.181  18.062  1.00  0.00     0.062 A 
ATOM     40  C   UNL     1      -4.174   1.656  19.911  1.00  0.00     0.016 A 
ATOM     41  C   UNL     1      -5.430   0.666  17.672  1.00  0.00     0.158 A 
ATOM     42  C   UNL     1      -5.447   2.093  19.532  1.00  0.00     0.051 A 
ATOM     43  C   UNL     1      -6.097   1.597  18.409  1.00  0.00     0.157 A 
BRANCH  41  44
ATOM     44  O   UNL     1      -6.058   0.175  16.512  1.00  0.00    -0.504 OA
ATOM     45  H   UNL     1      -5.549  -0.570  16.036  1.00  0.00     0.293 HD
ENDBRANCH  41  44
BRANCH  43  46
ATOM     46  O   UNL     1      -7.291   2.125  17.999  1.00  0.00    -0.504 OA
ATOM     47  H   UNL     1      -7.772   2.785  18.679  1.00  0.00     0.293 HD
ENDBRANCH  43  46
ENDBRANCH  28  38
BRANCH  34  48
ATOM     48  O   UNL     1       1.429  -2.622  21.713  1.00  0.00    -0.507 OA
ATOM     49  H   UNL     1       0.885  -3.045  22.519  1.00  0.00     0.293 HD
ENDBRANCH  34  48
BRANCH  37  50
ATOM     50  O   UNL     1       1.497  -2.977  16.892  1.00  0.00    -0.508 OA
ATOM     51  H   UNL     1       1.566  -3.874  16.419  1.00  0.00     0.293 HD
ENDBRANCH  37  50
ENDBRANCH  26  27
ENDBRANCH   5  26
BRANCH   4  52
ATOM     52  O   UNL     1      -4.735   0.148  24.579  1.00  0.00    -0.384 OA
ATOM     53  H   UNL     1      -3.850   0.738  24.548  1.00  0.00     0.211 HD
ENDBRANCH   4  52
TORSDOF 16
ENDMDL
MODEL 6
REMARK VINA RESULT:    -5.605      2.054      4.777
REMARK INTER + INTRA:         -12.328
REMARK INTER:                  -9.885
REMARK INTRA:                  -2.443
REMARK UNBOUND:                -3.119
REMARK SMILES C[C@@H]1O[C@H](OC[C@@H]2O[C@H](Oc3c(-c4ccc(O)c(O)c4)oc4cc(O)cc(O)c4c3=O)[C@H](O)[C@@H](O)[C@H]2O)[C@@H](O)[C@@H](O)[C@@H]1O
REMARK SMILES IDX 7 1 36 2 34 3 32 4 9 5 8 6 6 7 5 8 4 9 1 10 2 11 42 12 3 13
REMARK SMILES IDX 40 14 38 15 43 16 41 18 39 20 37 22 35 24 10 26 11 27 12 28
REMARK SMILES IDX 30 29 21 30 29 31 31 32 22 33 27 34 23 35 26 36 24 37 13 38
REMARK SMILES IDX 20 39 14 40 18 41 15 42 16 43 19 44 17 46 28 48 25 50 33 52
REMARK H PARENT 43 17 41 19 39 21 37 23 35 25 19 45 17 47 28 49 25 51 33 53
REMARK Flexibility Score: inf
ROOT
ATOM      1  C   UNL     1      -2.022  -2.885  24.398  1.00  0.00     0.180 C 
ATOM      2  C   UNL     1      -3.216  -3.514  25.475  1.00  0.00     0.177 C 
ATOM      3  C   UNL     1      -3.616  -2.034  26.022  1.00  0.00     0.180 C 
ATOM      4  C   UNL     1      -4.375  -1.157  24.818  1.00  0.00     0.214 C 
ATOM      5  C   UNL     1      -3.267  -1.181  23.718  1.00  0.00     0.339 C 
ATOM      6  O   UNL     1      -1.980  -1.475  24.234  1.00  0.00    -0.332 OA
ENDROOT
BRANCH   1   7
ATOM      7  C   UNL     1      -0.555  -3.454  24.415  1.00  0.00     0.198 C 
BRANCH   7   8
ATOM      8  O   UNL     1       0.732  -2.790  24.670  1.00  0.00    -0.347 OA
BRANCH   8   9
ATOM      9  C   UNL     1       1.358  -3.146  25.888  1.00  0.00     0.281 C 
ATOM     10  C   UNL     1       3.125  -0.043  25.823  1.00  0.00     0.041 C 
ATOM     11  C   UNL     1       2.466  -1.099  26.805  1.00  0.00     0.150 C 
ATOM     12  C   UNL     1       0.673  -0.639  27.027  1.00  0.00     0.174 C 
ATOM     13  O   UNL     1       2.624  -2.372  26.084  1.00  0.00    -0.344 OA
ATOM     14  C   UNL     1      -0.277  -1.940  27.421  1.00  0.00     0.179 C 
ATOM     15  C   UNL     1       0.593  -3.109  27.309  1.00  0.00     0.202 C 
BRANCH  12  16
ATOM     16  O   UNL     1       0.095  -0.214  25.702  1.00  0.00    -0.388 OA
ATOM     17  H   UNL     1       0.579  -0.739  25.019  1.00  0.00     0.211 HD
ENDBRANCH  12  16
BRANCH  14  18
ATOM     18  O   UNL     1      -1.333  -2.020  28.490  1.00  0.00    -0.387 OA
ATOM     19  H   UNL     1      -1.800  -1.082  28.613  1.00  0.00     0.211 HD
ENDBRANCH  14  18
BRANCH  15  20
ATOM     20  O   UNL     1       1.422  -3.068  28.447  1.00  0.00    -0.385 OA
ATOM     21  H   UNL     1       2.205  -2.443  28.259  1.00  0.00     0.211 HD
ENDBRANCH  15  20
ENDBRANCH   8   9
ENDBRANCH   7   8
ENDBRANCH   1   7
BRANCH   2  22
ATOM     22  O   UNL     1      -4.014  -4.338  24.633  1.00  0.00    -0.387 OA
ATOM     23  H   UNL     1      -4.440  -3.892  23.848  1.00  0.00     0.211 HD
ENDBRANCH   2  22
BRANCH   3  24
ATOM     24  O   UNL     1      -4.272  -1.747  27.259  1.00  0.00    -0.387 OA
ATOM     25  H   UNL     1      -3.613  -2.165  27.995  1.00  0.00     0.211 HD
ENDBRANCH   3  24
BRANCH   5  26
ATOM     26  O   UNL     1      -3.222  -0.005  22.952  1.00  0.00    -0.454 OA
BRANCH  26  27
ATOM     27  C   UNL     1      -3.421   0.219  21.539  1.00  0.00     0.214 A 
ATOM     28  C   UNL     1      -2.612   0.545  20.421  1.00  0.00     0.180 A 
ATOM     29  C   UNL     1      -4.826   0.295  21.289  1.00  0.00     0.239 A 
ATOM     30  O   UNL     1      -3.124   1.294  19.426  1.00  0.00    -0.452 OA
ATOM     31  C   UNL     1      -5.325   1.087  20.251  1.00  0.00     0.111 A 
ATOM     32  O   UNL     1      -5.638  -0.207  22.168  1.00  0.00    -0.285 OA
ATOM     33  C   UNL     1      -4.410   1.454  19.253  1.00  0.00     0.146 A 
ATOM     34  C   UNL     1      -6.670   1.190  20.024  1.00  0.00     0.134 A 
ATOM     35  C   UNL     1      -4.808   1.942  18.040  1.00  0.00     0.094 A 
ATOM     36  C   UNL     1      -7.100   1.664  18.767  1.00  0.00     0.093 A 
ATOM     37  C   UNL     1      -6.132   1.929  17.737  1.00  0.00     0.123 A 
BRANCH  28  38
ATOM     38  C   UNL     1      -1.415  -0.213  19.862  1.00  0.00     0.025 A 
ATOM     39  C   UNL     1      -0.284  -0.340  20.727  1.00  0.00     0.062 A 
ATOM     40  C   UNL     1      -1.359  -1.114  18.767  1.00  0.00     0.016 A 
ATOM     41  C   UNL     1       0.468  -1.510  20.785  1.00  0.00     0.158 A 
ATOM     42  C   UNL     1      -0.632  -2.303  18.873  1.00  0.00     0.051 A 
ATOM     43  C   UNL     1       0.288  -2.521  19.890  1.00  0.00     0.157 A 
BRANCH  41  44
ATOM     44  O   UNL     1       1.419  -1.699  21.805  1.00  0.00    -0.504 OA
ATOM     45  H   UNL     1       2.161  -2.360  21.578  1.00  0.00     0.293 HD
ENDBRANCH  41  44
BRANCH  43  46
ATOM     46  O   UNL     1       1.067  -3.646  19.903  1.00  0.00    -0.504 OA
ATOM     47  H   UNL     1       1.438  -3.972  18.961  1.00  0.00     0.293 HD
ENDBRANCH  43  46
ENDBRANCH  28  38
BRANCH  34  48
ATOM     48  O   UNL     1      -7.576   0.981  21.044  1.00  0.00    -0.507 OA
ATOM     49  H   UNL     1      -7.966   0.010  21.210  1.00  0.00     0.293 HD
ENDBRANCH  34  48
BRANCH  37  50
ATOM     50  O   UNL     1      -6.618   2.125  16.445  1.00  0.00    -0.508 OA
ATOM     51  H   UNL     1      -6.655   3.033  15.989  1.00  0.00     0.293 HD
ENDBRANCH  37  50
ENDBRANCH  26  27
ENDBRANCH   5  26
BRANCH   4  52
ATOM     52  O   UNL     1      -4.926   0.073  25.117  1.00  0.00    -0.384 OA
ATOM     53  H   UNL     1      -4.398   0.756  24.495  1.00  0.00     0.211 HD
ENDBRANCH   4  52
TORSDOF 16
ENDMDL
MODEL 7
REMARK VINA RESULT:    -5.456      2.236      5.234
REMARK INTER + INTRA:         -12.083
REMARK INTER:                  -9.590
REMARK INTRA:                  -2.493
REMARK UNBOUND:                -3.119
REMARK SMILES C[C@@H]1O[C@H](OC[C@@H]2O[C@H](Oc3c(-c4ccc(O)c(O)c4)oc4cc(O)cc(O)c4c3=O)[C@H](O)[C@@H](O)[C@H]2O)[C@@H](O)[C@@H](O)[C@@H]1O
REMARK SMILES IDX 7 1 36 2 34 3 32 4 9 5 8 6 6 7 5 8 4 9 1 10 2 11 42 12 3 13
REMARK SMILES IDX 40 14 38 15 43 16 41 18 39 20 37 22 35 24 10 26 11 27 12 28
REMARK SMILES IDX 30 29 21 30 29 31 31 32 22 33 27 34 23 35 26 36 24 37 13 38
REMARK SMILES IDX 20 39 14 40 18 41 15 42 16 43 19 44 17 46 28 48 25 50 33 52
REMARK H PARENT 43 17 41 19 39 21 37 23 35 25 19 45 17 47 28 49 25 51 33 53
REMARK Flexibility Score: inf
ROOT
ATOM      1  C   UNL     1      -2.752   0.082  25.901  1.00  0.00     0.180 C 
ATOM      2  C   UNL     1      -3.924  -0.232  27.130  1.00  0.00     0.177 C 
ATOM      3  C   UNL     1      -4.719   1.158  26.840  1.00  0.00     0.180 C 
ATOM      4  C   UNL     1      -5.466   1.097  25.346  1.00  0.00     0.214 C 
ATOM      5  C   UNL     1      -4.230   0.834  24.428  1.00  0.00     0.339 C 
ATOM      6  O   UNL     1      -3.000   1.186  25.042  1.00  0.00    -0.332 OA
ENDROOT
BRANCH   1   7
ATOM      7  C   UNL     1      -1.215   0.009  26.228  1.00  0.00     0.198 C 
BRANCH   7   8
ATOM      8  O   UNL     1      -0.083  -0.485  25.429  1.00  0.00    -0.347 OA
BRANCH   8   9
ATOM      9  C   UNL     1       1.087  -0.781  26.168  1.00  0.00     0.281 C 
ATOM     10  C   UNL     1      -0.868  -2.838  28.335  1.00  0.00     0.041 C 
ATOM     11  C   UNL     1       0.570  -2.704  27.681  1.00  0.00     0.150 C 
ATOM     12  C   UNL     1       0.531  -3.560  26.025  1.00  0.00     0.174 C 
ATOM     13  O   UNL     1       0.743  -1.250  27.547  1.00  0.00    -0.344 OA
ATOM     14  C   UNL     1       1.653  -2.951  24.965  1.00  0.00     0.179 C 
ATOM     15  C   UNL     1       2.230  -1.786  25.631  1.00  0.00     0.202 C 
BRANCH  12  16
ATOM     16  O   UNL     1      -0.767  -3.248  25.328  1.00  0.00    -0.388 OA
ATOM     17  H   UNL     1      -0.520  -3.000  24.403  1.00  0.00     0.211 HD
ENDBRANCH  12  16
BRANCH  14  18
ATOM     18  O   UNL     1       2.592  -3.720  24.076  1.00  0.00    -0.387 OA
ATOM     19  H   UNL     1       3.584  -3.391  24.220  1.00  0.00     0.211 HD
ENDBRANCH  14  18
BRANCH  15  20
ATOM     20  O   UNL     1       3.093  -2.308  26.615  1.00  0.00    -0.385 OA
ATOM     21  H   UNL     1       2.667  -2.170  27.530  1.00  0.00     0.211 HD
ENDBRANCH  15  20
ENDBRANCH   8   9
ENDBRANCH   7   8
ENDBRANCH   1   7
BRANCH   2  22
ATOM     22  O   UNL     1      -4.385  -1.541  26.815  1.00  0.00    -0.387 OA
ATOM     23  H   UNL     1      -4.374  -2.208  27.559  1.00  0.00     0.211 HD
ENDBRANCH   2  22
BRANCH   3  24
ATOM     24  O   UNL     1      -5.598   1.826  27.748  1.00  0.00    -0.387 OA
ATOM     25  H   UNL     1      -5.799   2.760  27.261  1.00  0.00     0.211 HD
ENDBRANCH   3  24
BRANCH   5  26
ATOM     26  O   UNL     1      -4.333   1.449  23.171  1.00  0.00    -0.454 OA
BRANCH  26  27
ATOM     27  C   UNL     1      -4.311   0.897  21.836  1.00  0.00     0.214 A 
ATOM     28  C   UNL     1      -3.333   0.374  20.952  1.00  0.00     0.180 A 
ATOM     29  C   UNL     1      -5.587   1.120  21.235  1.00  0.00     0.239 A 
ATOM     30  O   UNL     1      -3.481   0.541  19.624  1.00  0.00    -0.452 OA
ATOM     31  C   UNL     1      -5.705   1.296  19.853  1.00  0.00     0.111 A 
ATOM     32  O   UNL     1      -6.599   1.369  22.008  1.00  0.00    -0.285 OA
ATOM     33  C   UNL     1      -4.627   0.850  19.074  1.00  0.00     0.146 A 
ATOM     34  C   UNL     1      -6.919   1.540  19.272  1.00  0.00     0.134 A 
ATOM     35  C   UNL     1      -4.728   0.663  17.725  1.00  0.00     0.094 A 
ATOM     36  C   UNL     1      -7.051   1.325  17.884  1.00  0.00     0.093 A 
ATOM     37  C   UNL     1      -5.952   0.768  17.144  1.00  0.00     0.123 A 
BRANCH  28  38
ATOM     38  C   UNL     1      -2.388  -0.800  21.168  1.00  0.00     0.025 A 
ATOM     39  C   UNL     1      -1.626  -1.219  20.033  1.00  0.00     0.062 A 
ATOM     40  C   UNL     1      -1.876  -1.325  22.383  1.00  0.00     0.016 A 
ATOM     41  C   UNL     1      -0.299  -1.624  20.148  1.00  0.00     0.158 A 
ATOM     42  C   UNL     1      -0.528  -1.680  22.481  1.00  0.00     0.051 A 
ATOM     43  C   UNL     1       0.282  -1.827  21.362  1.00  0.00     0.157 A 
BRANCH  41  44
ATOM     44  O   UNL     1       0.496  -1.800  19.001  1.00  0.00    -0.504 OA
ATOM     45  H   UNL     1       1.445  -1.436  19.081  1.00  0.00     0.293 HD
ENDBRANCH  41  44
BRANCH  43  46
ATOM     46  O   UNL     1       1.566  -2.287  21.482  1.00  0.00    -0.504 OA
ATOM     47  H   UNL     1       1.900  -2.502  22.468  1.00  0.00     0.293 HD
ENDBRANCH  43  46
ENDBRANCH  28  38
BRANCH  34  48
ATOM     48  O   UNL     1      -7.942   2.125  19.993  1.00  0.00    -0.507 OA
ATOM     49  H   UNL     1      -7.973   2.013  21.046  1.00  0.00     0.293 HD
ENDBRANCH  34  48
BRANCH  37  50
ATOM     50  O   UNL     1      -6.220   0.320  15.851  1.00  0.00    -0.508 OA
ATOM     51  H   UNL     1      -7.128   0.411  15.401  1.00  0.00     0.293 HD
ENDBRANCH  37  50
ENDBRANCH  26  27
ENDBRANCH   5  26
BRANCH   4  52
ATOM     52  O   UNL     1      -6.314   2.117  24.968  1.00  0.00    -0.384 OA
ATOM     53  H   UNL     1      -6.354   2.756  25.818  1.00  0.00     0.211 HD
ENDBRANCH   4  52
TORSDOF 16
ENDMDL
MODEL 8
REMARK VINA RESULT:    -5.255      2.010      5.991
REMARK INTER + INTRA:         -11.754
REMARK INTER:                  -9.361
REMARK INTRA:                  -2.393
REMARK UNBOUND:                -3.119
REMARK SMILES C[C@@H]1O[C@H](OC[C@@H]2O[C@H](Oc3c(-c4ccc(O)c(O)c4)oc4cc(O)cc(O)c4c3=O)[C@H](O)[C@@H](O)[C@H]2O)[C@@H](O)[C@@H](O)[C@@H]1O
REMARK SMILES IDX 7 1 36 2 34 3 32 4 9 5 8 6 6 7 5 8 4 9 1 10 2 11 42 12 3 13
REMARK SMILES IDX 40 14 38 15 43 16 41 18 39 20 37 22 35 24 10 26 11 27 12 28
REMARK SMILES IDX 30 29 21 30 29 31 31 32 22 33 27 34 23 35 26 36 24 37 13 38
REMARK SMILES IDX 20 39 14 40 18 41 15 42 16 43 19 44 17 46 28 48 25 50 33 52
REMARK H PARENT 43 17 41 19 39 21 37 23 35 25 19 45 17 47 28 49 25 51 33 53
REMARK Flexibility Score: inf
ROOT
ATOM      1  C   UNL     1      -4.281  -0.230  24.865  1.00  0.00     0.180 C 
ATOM      2  C   UNL     1      -4.805  -1.147  23.499  1.00  0.00     0.177 C 
ATOM      3  C   UNL     1      -3.488  -0.753  22.629  1.00  0.00     0.180 C 
ATOM      4  C   UNL     1      -2.127  -1.473  23.279  1.00  0.00     0.214 C 
ATOM      5  C   UNL     1      -2.167  -0.886  24.726  1.00  0.00     0.339 C 
ATOM      6  O   UNL     1      -2.959   0.287  24.826  1.00  0.00    -0.332 OA
ENDROOT
BRANCH   1   7
ATOM      7  C   UNL     1      -5.237   0.829  25.529  1.00  0.00     0.198 C 
BRANCH   7   8
ATOM      8  O   UNL     1      -5.198   1.463  26.855  1.00  0.00    -0.347 OA
BRANCH   8   9
ATOM      9  C   UNL     1      -5.988   0.830  27.844  1.00  0.00     0.281 C 
ATOM     10  C   UNL     1      -3.965  -2.094  27.509  1.00  0.00     0.041 C 
ATOM     11  C   UNL     1      -4.792  -1.247  28.563  1.00  0.00     0.150 C 
ATOM     12  C   UNL     1      -3.661   0.055  29.271  1.00  0.00     0.174 C 
ATOM     13  O   UNL     1      -5.869  -0.660  27.750  1.00  0.00    -0.344 OA
ATOM     14  C   UNL     1      -4.484   1.387  29.820  1.00  0.00     0.179 C 
ATOM     15  C   UNL     1      -5.873   1.184  29.415  1.00  0.00     0.202 C 
BRANCH  12  16
ATOM     16  O   UNL     1      -2.813   0.637  28.172  1.00  0.00    -0.388 OA
ATOM     17  H   UNL     1      -3.097   1.580  28.086  1.00  0.00     0.211 HD
ENDBRANCH  12  16
BRANCH  14  18
ATOM     18  O   UNL     1      -4.289   2.118  31.121  1.00  0.00    -0.387 OA
ATOM     19  H   UNL     1      -3.664   2.956  30.980  1.00  0.00     0.211 HD
ENDBRANCH  14  18
BRANCH  15  20
ATOM     20  O   UNL     1      -6.381   0.211  30.298  1.00  0.00    -0.385 OA
ATOM     21  H   UNL     1      -5.622  -0.119  30.893  1.00  0.00     0.211 HD
ENDBRANCH  15  20
ENDBRANCH   8   9
ENDBRANCH   7   8
ENDBRANCH   1   7
BRANCH   2  22
ATOM     22  O   UNL     1      -5.089  -2.427  24.053  1.00  0.00    -0.387 OA
ATOM     23  H   UNL     1      -5.632  -2.438  24.892  1.00  0.00     0.211 HD
ENDBRANCH   2  22
BRANCH   3  24
ATOM     24  O   UNL     1      -3.379  -0.804  21.204  1.00  0.00    -0.387 OA
ATOM     25  H   UNL     1      -2.625  -0.074  20.984  1.00  0.00     0.211 HD
ENDBRANCH   3  24
BRANCH   5  26
ATOM     26  O   UNL     1      -0.893  -0.654  25.264  1.00  0.00    -0.454 OA
BRANCH  26  27
ATOM     27  C   UNL     1       0.051  -1.546  25.897  1.00  0.00     0.214 A 
ATOM     28  C   UNL     1       0.732  -2.741  25.553  1.00  0.00     0.180 A 
ATOM     29  C   UNL     1       0.155  -1.187  27.276  1.00  0.00     0.239 A 
ATOM     30  O   UNL     1       1.012  -3.646  26.510  1.00  0.00    -0.452 OA
ATOM     31  C   UNL     1       0.441  -2.152  28.246  1.00  0.00     0.111 A 
ATOM     32  O   UNL     1      -0.230  -0.001  27.637  1.00  0.00    -0.285 OA
ATOM     33  C   UNL     1       1.006  -3.350  27.784  1.00  0.00     0.146 A 
ATOM     34  C   UNL     1       0.511  -1.824  29.572  1.00  0.00     0.134 A 
ATOM     35  C   UNL     1       1.622  -4.237  28.621  1.00  0.00     0.094 A 
ATOM     36  C   UNL     1       1.169  -2.714  30.446  1.00  0.00     0.093 A 
ATOM     37  C   UNL     1       1.825  -3.877  29.915  1.00  0.00     0.123 A 
BRANCH  28  38
ATOM     38  C   UNL     1       1.681  -2.991  24.388  1.00  0.00     0.025 A 
ATOM     39  C   UNL     1       1.832  -4.352  23.974  1.00  0.00     0.062 A 
ATOM     40  C   UNL     1       2.170  -2.077  23.420  1.00  0.00     0.016 A 
ATOM     41  C   UNL     1       1.940  -4.703  22.631  1.00  0.00     0.158 A 
ATOM     42  C   UNL     1       2.224  -2.443  22.072  1.00  0.00     0.051 A 
ATOM     43  C   UNL     1       2.101  -3.764  21.658  1.00  0.00     0.157 A 
BRANCH  41  44
ATOM     44  O   UNL     1       1.846  -6.049  22.235  1.00  0.00    -0.504 OA
ATOM     45  H   UNL     1       1.316  -6.205  21.377  1.00  0.00     0.293 HD
ENDBRANCH  41  44
BRANCH  43  46
ATOM     46  O   UNL     1       2.272  -4.106  20.344  1.00  0.00    -0.504 OA
ATOM     47  H   UNL     1       1.911  -3.409  19.626  1.00  0.00     0.293 HD
ENDBRANCH  43  46
ENDBRANCH  28  38
BRANCH  34  48
ATOM     48  O   UNL     1      -0.172  -0.730  30.066  1.00  0.00    -0.507 OA
ATOM     49  H   UNL     1      -1.186  -0.578  29.795  1.00  0.00     0.293 HD
ENDBRANCH  34  48
BRANCH  37  50
ATOM     50  O   UNL     1       2.685  -4.566  30.770  1.00  0.00    -0.508 OA
ATOM     51  H   UNL     1       2.518  -5.516  31.091  1.00  0.00     0.293 HD
ENDBRANCH  37  50
ENDBRANCH  26  27
ENDBRANCH   5  26
BRANCH   4  52
ATOM     52  O   UNL     1      -0.925  -1.385  22.607  1.00  0.00    -0.384 OA
ATOM     53  H   UNL     1      -0.990  -2.133  21.853  1.00  0.00     0.211 HD
ENDBRANCH   4  52
TORSDOF 16
ENDMDL
MODEL 9
REMARK VINA RESULT:    -3.572      2.333      7.103
REMARK INTER + INTRA:          -8.988
REMARK INTER:                  -8.229
REMARK INTRA:                  -0.759
REMARK UNBOUND:                -3.119
REMARK SMILES C[C@@H]1O[C@H](OC[C@@H]2O[C@H](Oc3c(-c4ccc(O)c(O)c4)oc4cc(O)cc(O)c4c3=O)[C@H](O)[C@@H](O)[C@H]2O)[C@@H](O)[C@@H](O)[C@@H]1O
REMARK SMILES IDX 7 1 36 2 34 3 32 4 9 5 8 6 6 7 5 8 4 9 1 10 2 11 42 12 3 13
REMARK SMILES IDX 40 14 38 15 43 16 41 18 39 20 37 22 35 24 10 26 11 27 12 28
REMARK SMILES IDX 30 29 21 30 29 31 31 32 22 33 27 34 23 35 26 36 24 37 13 38
REMARK SMILES IDX 20 39 14 40 18 41 15 42 16 43 19 44 17 46 28 48 25 50 33 52
REMARK H PARENT 43 17 41 19 39 21 37 23 35 25 19 45 17 47 28 49 25 51 33 53
REMARK Flexibility Score: inf
ROOT
ATOM      1  C   UNL     1      -3.979   0.671  24.588  1.00  0.00     0.180 C 
ATOM      2  C   UNL     1      -5.177  -0.492  25.030  1.00  0.00     0.177 C 
ATOM      3  C   UNL     1      -4.220  -1.747  24.631  1.00  0.00     0.180 C 
ATOM      4  C   UNL     1      -2.936  -1.856  25.695  1.00  0.00     0.214 C 
ATOM      5  C   UNL     1      -2.295  -0.445  25.502  1.00  0.00     0.339 C 
ATOM      6  O   UNL     1      -2.682   0.177  24.288  1.00  0.00    -0.332 OA
ENDROOT
BRANCH   1   7
ATOM      7  C   UNL     1      -4.333   1.845  23.602  1.00  0.00     0.198 C 
BRANCH   7   8
ATOM      8  O   UNL     1      -4.629   1.837  22.162  1.00  0.00    -0.347 OA
BRANCH   8   9
ATOM      9  C   UNL     1      -5.102   0.603  21.656  1.00  0.00     0.281 C 
ATOM     10  C   UNL     1      -5.474   2.125  18.447  1.00  0.00     0.041 C 
ATOM     11  C   UNL     1      -5.114   0.755  19.159  1.00  0.00     0.150 C 
ATOM     12  C   UNL     1      -3.279   0.740  19.486  1.00  0.00     0.174 C 
ATOM     13  O   UNL     1      -5.897   0.809  20.404  1.00  0.00    -0.344 OA
ATOM     14  C   UNL     1      -2.866  -0.227  20.769  1.00  0.00     0.179 C 
ATOM     15  C   UNL     1      -4.131  -0.653  21.362  1.00  0.00     0.202 C 
BRANCH  12  16
ATOM     16  O   UNL     1      -2.842   2.101  19.961  1.00  0.00    -0.388 OA
ATOM     17  H   UNL     1      -1.940   1.972  20.347  1.00  0.00     0.211 HD
ENDBRANCH  12  16
BRANCH  14  18
ATOM     18  O   UNL     1      -1.747  -1.230  20.843  1.00  0.00    -0.387 OA
ATOM     19  H   UNL     1      -2.130  -2.192  21.043  1.00  0.00     0.211 HD
ENDBRANCH  14  18
BRANCH  15  20
ATOM     20  O   UNL     1      -4.645  -1.629  20.485  1.00  0.00    -0.385 OA
ATOM     21  H   UNL     1      -4.905  -2.451  21.028  1.00  0.00     0.211 HD
ENDBRANCH  15  20
ENDBRANCH   8   9
ENDBRANCH   7   8
ENDBRANCH   1   7
BRANCH   2  22
ATOM     22  O   UNL     1      -5.540  -0.103  26.349  1.00  0.00    -0.387 OA
ATOM     23  H   UNL     1      -4.884   0.468  26.841  1.00  0.00     0.211 HD
ENDBRANCH   2  22
BRANCH   3  24
ATOM     24  O   UNL     1      -4.660  -3.073  24.330  1.00  0.00    -0.387 OA
ATOM     25  H   UNL     1      -3.934  -3.423  23.623  1.00  0.00     0.211 HD
ENDBRANCH   3  24
BRANCH   5  26
ATOM     26  O   UNL     1      -0.896  -0.452  25.616  1.00  0.00    -0.454 OA
BRANCH  26  27
ATOM     27  C   UNL     1       0.003  -1.386  26.253  1.00  0.00     0.214 A 
ATOM     28  C   UNL     1       0.659  -2.593  25.900  1.00  0.00     0.180 A 
ATOM     29  C   UNL     1       0.079  -1.061  27.642  1.00  0.00     0.239 A 
ATOM     30  O   UNL     1       0.885  -3.526  26.844  1.00  0.00    -0.452 OA
ATOM     31  C   UNL     1       0.309  -2.056  28.597  1.00  0.00     0.111 A 
ATOM     32  O   UNL     1      -0.281   0.127  28.020  1.00  0.00    -0.285 OA
ATOM     33  C   UNL     1       0.852  -3.260  28.124  1.00  0.00     0.146 A 
ATOM     34  C   UNL     1       0.353  -1.759  29.932  1.00  0.00     0.134 A 
ATOM     35  C   UNL     1       1.419  -4.183  28.956  1.00  0.00     0.094 A 
ATOM     36  C   UNL     1       0.960  -2.688  30.803  1.00  0.00     0.093 A 
ATOM     37  C   UNL     1       1.596  -3.858  30.263  1.00  0.00     0.123 A 
BRANCH  28  38
ATOM     38  C   UNL     1       1.631  -2.845  24.756  1.00  0.00     0.025 A 
ATOM     39  C   UNL     1       1.723  -4.193  24.287  1.00  0.00     0.062 A 
ATOM     40  C   UNL     1       2.202  -1.919  23.845  1.00  0.00     0.016 A 
ATOM     41  C   UNL     1       1.857  -4.492  22.934  1.00  0.00     0.158 A 
ATOM     42  C   UNL     1       2.281  -2.230  22.485  1.00  0.00     0.051 A 
ATOM     43  C   UNL     1       2.102  -3.523  22.009  1.00  0.00     0.157 A 
BRANCH  41  44
ATOM     44  O   UNL     1       1.705  -5.813  22.475  1.00  0.00    -0.504 OA
ATOM     45  H   UNL     1       2.172  -6.013  21.591  1.00  0.00     0.293 HD
ENDBRANCH  41  44
BRANCH  43  46
ATOM     46  O   UNL     1       2.298  -3.817  20.687  1.00  0.00    -0.504 OA
ATOM     47  H   UNL     1       1.426  -3.867  20.081  1.00  0.00     0.293 HD
ENDBRANCH  43  46
ENDBRANCH  28  38
BRANCH  34  48
ATOM     48  O   UNL     1      -0.312  -0.657  30.432  1.00  0.00    -0.507 OA
ATOM     49  H   UNL     1      -0.050   0.313  30.094  1.00  0.00     0.293 HD
ENDBRANCH  34  48
BRANCH  37  50
ATOM     50  O   UNL     1       2.412  -4.591  31.124  1.00  0.00    -0.508 OA
ATOM     51  H   UNL     1       2.111  -5.438  31.600  1.00  0.00     0.293 HD
ENDBRANCH  37  50
ENDBRANCH  26  27
ENDBRANCH   5  26
BRANCH   4  52
ATOM     52  O   UNL     1      -2.084  -2.939  25.623  1.00  0.00    -0.384 OA
ATOM     53  H   UNL     1      -1.111  -2.509  25.592  1.00  0.00     0.211 HD
ENDBRANCH   4  52
TORSDOF 16
ENDMDL
