MODEL 1
REMARK VINA RESULT:    16.388      0.000      0.000
REMARK INTER + INTRA:          40.689
REMARK INTER:                  41.298
REMARK INTRA:                  -0.610
REMARK UNBOUND:                -0.610
REMARK SMILES CCCCCCCCCCCCCCCCCCCCCCCCCCCC(=O)[O-]
REMARK SMILES IDX 15 1 16 2 17 3 18 4 19 5 20 6 21 7 22 8 23 9 24 10 25 11
REMARK SMILES IDX 26 12 27 13 28 14 29 15 30 16 14 17 13 18 12 19 11 20 10 21
REMARK SMILES IDX 9 22 8 23 7 24 6 25 5 26 4 27 3 28 2 29 1 30
REMARK H PARENT
REMARK Flexibility Score: inf
ROOT
ATOM      1  C   UNL     1       4.233 -24.923 -12.773  1.00  0.00     0.000 C 
ENDROOT
BRANCH   1   2
ATOM      2  C   UNL     1       4.599 -23.469 -13.110  1.00  0.00     0.000 C 
BRANCH   2   3
ATOM      3  C   UNL     1       6.120 -23.250 -13.189  1.00  0.00     0.000 C 
BRANCH   3   4
ATOM      4  C   UNL     1       6.498 -21.808 -13.568  1.00  0.00     0.000 C 
BRANCH   4   5
ATOM      5  C   UNL     1       5.301 -20.875 -13.827  1.00  0.00     0.000 C 
BRANCH   5   6
ATOM      6  C   UNL     1       5.474 -19.485 -13.188  1.00  0.00     0.000 C 
BRANCH   6   7
ATOM      7  C   UNL     1       5.056 -18.345 -14.128  1.00  0.00     0.000 C 
BRANCH   7   8
ATOM      8  C   UNL     1       3.628 -17.843 -13.848  1.00  0.00     0.000 C 
BRANCH   8   9
ATOM      9  C   UNL     1       3.372 -16.432 -14.410  1.00  0.00     0.000 C 
BRANCH   9  10
ATOM     10  C   UNL     1       1.946 -16.225 -14.971  1.00  0.00     0.000 C 
BRANCH  10  11
ATOM     11  C   UNL     1       1.750 -14.885 -15.707  1.00  0.00     0.000 C 
BRANCH  11  12
ATOM     12  C   UNL     1       1.904 -14.952 -17.240  1.00  0.00     0.006 C 
BRANCH  12  13
ATOM     13  C   UNL     1       3.289 -14.533 -17.761  1.00  0.00     0.053 C 
BRANCH  13  14
ATOM     14  C   UNL     1       3.203 -13.826 -19.078  1.00  0.00     0.041 C 
ATOM     15  O   UNL     1       3.354 -12.577 -19.138  1.00  0.00    -0.550 OA
ATOM     16  O   UNL     1       2.980 -14.550 -20.243  1.00  0.00    -0.550 OA
ENDBRANCH  13  14
ENDBRANCH  12  13
ENDBRANCH  11  12
ENDBRANCH  10  11
ENDBRANCH   9  10
ENDBRANCH   8   9
ENDBRANCH   7   8
ENDBRANCH   6   7
ENDBRANCH   5   6
ENDBRANCH   4   5
ENDBRANCH   3   4
ENDBRANCH   2   3
ENDBRANCH   1   2
BRANCH   1  17
ATOM     17  C   UNL     1       3.349 -25.573 -13.854  1.00  0.00     0.000 C 
BRANCH  17  18
ATOM     18  C   UNL     1       4.147 -26.013 -15.095  1.00  0.00     0.000 C 
BRANCH  18  19
ATOM     19  C   UNL     1       5.145 -24.972 -15.635  1.00  0.00     0.000 C 
BRANCH  19  20
ATOM     20  C   UNL     1       6.003 -25.508 -16.793  1.00  0.00     0.000 C 
BRANCH  20  21
ATOM     21  C   UNL     1       7.503 -25.555 -16.447  1.00  0.00     0.000 C 
BRANCH  21  22
ATOM     22  C   UNL     1       8.433 -24.900 -17.488  1.00  0.00    -0.000 C 
BRANCH  22  23
ATOM     23  C   UNL     1       8.023 -25.101 -18.961  1.00  0.00    -0.000 C 
BRANCH  23  24
ATOM     24  C   UNL     1       8.805 -24.247 -19.976  1.00  0.00    -0.000 C 
BRANCH  24  25
ATOM     25  C   UNL     1      10.228 -24.776 -20.229  1.00  0.00    -0.000 C 
BRANCH  25  26
ATOM     26  C   UNL     1      10.600 -24.777 -21.720  1.00  0.00    -0.000 C 
BRANCH  26  27
ATOM     27  C   UNL     1       9.881 -23.666 -22.506  1.00  0.00    -0.000 C 
BRANCH  27  28
ATOM     28  C   UNL     1      10.852 -22.771 -23.291  1.00  0.00    -0.000 C 
BRANCH  28  29
ATOM     29  C   UNL     1      11.534 -23.513 -24.452  1.00  0.00    -0.003 C 
ATOM     30  C   UNL     1      12.980 -23.055 -24.622  1.00  0.00     0.004 C 
ENDBRANCH  28  29
ENDBRANCH  27  28
ENDBRANCH  26  27
ENDBRANCH  25  26
ENDBRANCH  24  25
ENDBRANCH  23  24
ENDBRANCH  22  23
ENDBRANCH  21  22
ENDBRANCH  20  21
ENDBRANCH  19  20
ENDBRANCH  18  19
ENDBRANCH  17  18
ENDBRANCH   1  17
TORSDOF 26
ENDMDL
MODEL 2
REMARK VINA RESULT:    16.639      3.140     10.284
REMARK INTER + INTRA:          41.321
REMARK INTER:                  42.641
REMARK INTRA:                  -1.321
REMARK UNBOUND:                -0.610
REMARK SMILES CCCCCCCCCCCCCCCCCCCCCCCCCCCC(=O)[O-]
REMARK SMILES IDX 15 1 16 2 17 3 18 4 19 5 20 6 21 7 22 8 23 9 24 10 25 11
REMARK SMILES IDX 26 12 27 13 28 14 29 15 30 16 14 17 13 18 12 19 11 20 10 21
REMARK SMILES IDX 9 22 8 23 7 24 6 25 5 26 4 27 3 28 2 29 1 30
REMARK H PARENT
REMARK Flexibility Score: inf
ROOT
ATOM      1  C   UNL     1       5.843 -22.535 -13.941  1.00  0.00     0.000 C 
ENDROOT
BRANCH   1   2
ATOM      2  C   UNL     1       6.017 -23.444 -12.714  1.00  0.00     0.000 C 
BRANCH   2   3
ATOM      3  C   UNL     1       4.731 -24.214 -12.367  1.00  0.00     0.000 C 
BRANCH   3   4
ATOM      4  C   UNL     1       3.688 -24.177 -13.498  1.00  0.00     0.000 C 
BRANCH   4   5
ATOM      5  C   UNL     1       3.341 -25.550 -14.101  1.00  0.00     0.000 C 
BRANCH   5   6
ATOM      6  C   UNL     1       4.524 -26.195 -14.846  1.00  0.00     0.000 C 
BRANCH   6   7
ATOM      7  C   UNL     1       5.127 -25.269 -15.913  1.00  0.00     0.000 C 
BRANCH   7   8
ATOM      8  C   UNL     1       6.606 -24.941 -15.640  1.00  0.00     0.000 C 
BRANCH   8   9
ATOM      9  C   UNL     1       7.546 -25.473 -16.738  1.00  0.00     0.000 C 
BRANCH   9  10
ATOM     10  C   UNL     1       6.926 -25.475 -18.154  1.00  0.00     0.000 C 
BRANCH  10  11
ATOM     11  C   UNL     1       7.957 -25.630 -19.290  1.00  0.00     0.000 C 
BRANCH  11  12
ATOM     12  C   UNL     1       8.926 -24.443 -19.461  1.00  0.00     0.006 C 
BRANCH  12  13
ATOM     13  C   UNL     1       9.870 -24.560 -20.669  1.00  0.00     0.053 C 
BRANCH  13  14
ATOM     14  C   UNL     1       9.408 -23.728 -21.825  1.00  0.00     0.041 C 
ATOM     15  O   UNL     1      10.089 -23.676 -22.883  1.00  0.00    -0.550 OA
ATOM     16  O   UNL     1       8.208 -23.030 -21.743  1.00  0.00    -0.550 OA
ENDBRANCH  13  14
ENDBRANCH  12  13
ENDBRANCH  11  12
ENDBRANCH  10  11
ENDBRANCH   9  10
ENDBRANCH   8   9
ENDBRANCH   7   8
ENDBRANCH   6   7
ENDBRANCH   5   6
ENDBRANCH   4   5
ENDBRANCH   3   4
ENDBRANCH   2   3
ENDBRANCH   1   2
BRANCH   1  17
ATOM     17  C   UNL     1       6.092 -21.051 -13.612  1.00  0.00     0.000 C 
BRANCH  17  18
ATOM     18  C   UNL     1       4.869 -20.160 -13.898  1.00  0.00     0.000 C 
BRANCH  18  19
ATOM     19  C   UNL     1       5.078 -18.657 -13.632  1.00  0.00     0.000 C 
BRANCH  19  20
ATOM     20  C   UNL     1       3.768 -17.918 -13.312  1.00  0.00     0.000 C 
BRANCH  20  21
ATOM     21  C   UNL     1       3.424 -16.841 -14.358  1.00  0.00     0.000 C 
BRANCH  21  22
ATOM     22  C   UNL     1       2.769 -15.566 -13.790  1.00  0.00    -0.000 C 
BRANCH  22  23
ATOM     23  C   UNL     1       2.009 -14.700 -14.815  1.00  0.00    -0.000 C 
BRANCH  23  24
ATOM     24  C   UNL     1       1.618 -15.425 -16.116  1.00  0.00    -0.000 C 
BRANCH  24  25
ATOM     25  C   UNL     1       1.979 -14.623 -17.378  1.00  0.00    -0.000 C 
BRANCH  25  26
ATOM     26  C   UNL     1       3.205 -15.194 -18.109  1.00  0.00    -0.000 C 
BRANCH  26  27
ATOM     27  C   UNL     1       4.093 -14.092 -18.714  1.00  0.00    -0.000 C 
BRANCH  27  28
ATOM     28  C   UNL     1       3.286 -12.875 -19.191  1.00  0.00    -0.000 C 
BRANCH  28  29
ATOM     29  C   UNL     1       3.908 -11.541 -18.750  1.00  0.00    -0.003 C 
ATOM     30  C   UNL     1       5.083 -11.769 -17.803  1.00  0.00     0.004 C 
ENDBRANCH  28  29
ENDBRANCH  27  28
ENDBRANCH  26  27
ENDBRANCH  25  26
ENDBRANCH  24  25
ENDBRANCH  23  24
ENDBRANCH  22  23
ENDBRANCH  21  22
ENDBRANCH  20  21
ENDBRANCH  19  20
ENDBRANCH  18  19
ENDBRANCH  17  18
ENDBRANCH   1  17
TORSDOF 26
ENDMDL
MODEL 3
REMARK VINA RESULT:    16.768      3.200     10.435
REMARK INTER + INTRA:          41.644
REMARK INTER:                  43.340
REMARK INTRA:                  -1.696
REMARK UNBOUND:                -0.610
REMARK SMILES CCCCCCCCCCCCCCCCCCCCCCCCCCCC(=O)[O-]
REMARK SMILES IDX 15 1 16 2 17 3 18 4 19 5 20 6 21 7 22 8 23 9 24 10 25 11
REMARK SMILES IDX 26 12 27 13 28 14 29 15 30 16 14 17 13 18 12 19 11 20 10 21
REMARK SMILES IDX 9 22 8 23 7 24 6 25 5 26 4 27 3 28 2 29 1 30
REMARK H PARENT
REMARK Flexibility Score: inf
ROOT
ATOM      1  C   UNL     1       5.625 -21.354 -14.012  1.00  0.00     0.000 C 
ENDROOT
BRANCH   1   2
ATOM      2  C   UNL     1       6.460 -22.494 -13.408  1.00  0.00     0.000 C 
BRANCH   2   3
ATOM      3  C   UNL     1       5.588 -23.561 -12.723  1.00  0.00     0.000 C 
BRANCH   3   4
ATOM      4  C   UNL     1       4.249 -23.793 -13.446  1.00  0.00     0.000 C 
BRANCH   4   5
ATOM      5  C   UNL     1       3.848 -25.272 -13.599  1.00  0.00     0.000 C 
BRANCH   5   6
ATOM      6  C   UNL     1       4.153 -25.835 -14.999  1.00  0.00     0.000 C 
BRANCH   6   7
ATOM      7  C   UNL     1       5.052 -24.906 -15.828  1.00  0.00     0.000 C 
BRANCH   7   8
ATOM      8  C   UNL     1       6.550 -25.170 -15.590  1.00  0.00     0.000 C 
BRANCH   8   9
ATOM      9  C   UNL     1       7.401 -24.950 -16.854  1.00  0.00     0.000 C 
BRANCH   9  10
ATOM     10  C   UNL     1       7.379 -26.137 -17.844  1.00  0.00     0.000 C 
BRANCH  10  11
ATOM     11  C   UNL     1       7.765 -25.758 -19.288  1.00  0.00     0.000 C 
BRANCH  11  12
ATOM     12  C   UNL     1       8.544 -24.436 -19.431  1.00  0.00     0.006 C 
BRANCH  12  13
ATOM     13  C   UNL     1       9.652 -24.460 -20.497  1.00  0.00     0.053 C 
BRANCH  13  14
ATOM     14  C   UNL     1       9.282 -23.661 -21.709  1.00  0.00     0.041 C 
ATOM     15  O   UNL     1       8.315 -22.856 -21.666  1.00  0.00    -0.550 OA
ATOM     16  O   UNL     1      10.024 -23.787 -22.878  1.00  0.00    -0.550 OA
ENDBRANCH  13  14
ENDBRANCH  12  13
ENDBRANCH  11  12
ENDBRANCH  10  11
ENDBRANCH   9  10
ENDBRANCH   8   9
ENDBRANCH   7   8
ENDBRANCH   6   7
ENDBRANCH   5   6
ENDBRANCH   4   5
ENDBRANCH   3   4
ENDBRANCH   2   3
ENDBRANCH   1   2
BRANCH   1  17
ATOM     17  C   UNL     1       5.729 -20.052 -13.196  1.00  0.00     0.000 C 
BRANCH  17  18
ATOM     18  C   UNL     1       4.988 -18.873 -13.851  1.00  0.00     0.000 C 
BRANCH  18  19
ATOM     19  C   UNL     1       5.499 -18.474 -15.249  1.00  0.00     0.000 C 
BRANCH  19  20
ATOM     20  C   UNL     1       4.767 -17.253 -15.829  1.00  0.00     0.000 C 
BRANCH  20  21
ATOM     21  C   UNL     1       5.360 -16.788 -17.172  1.00  0.00     0.000 C 
BRANCH  21  22
ATOM     22  C   UNL     1       5.118 -15.304 -17.513  1.00  0.00    -0.000 C 
BRANCH  22  23
ATOM     23  C   UNL     1       4.562 -15.032 -18.926  1.00  0.00    -0.000 C 
BRANCH  23  24
ATOM     24  C   UNL     1       3.438 -13.981 -18.991  1.00  0.00    -0.000 C 
BRANCH  24  25
ATOM     25  C   UNL     1       2.763 -13.745 -17.628  1.00  0.00    -0.000 C 
BRANCH  25  26
ATOM     26  C   UNL     1       1.460 -14.542 -17.469  1.00  0.00    -0.000 C 
BRANCH  26  27
ATOM     27  C   UNL     1       1.424 -15.353 -16.161  1.00  0.00    -0.000 C 
BRANCH  27  28
ATOM     28  C   UNL     1       0.417 -16.512 -16.210  1.00  0.00    -0.000 C 
BRANCH  28  29
ATOM     29  C   UNL     1      -0.570 -16.391 -17.382  1.00  0.00    -0.003 C 
ATOM     30  C   UNL     1      -1.716 -17.390 -17.241  1.00  0.00     0.004 C 
ENDBRANCH  28  29
ENDBRANCH  27  28
ENDBRANCH  26  27
ENDBRANCH  25  26
ENDBRANCH  24  25
ENDBRANCH  23  24
ENDBRANCH  22  23
ENDBRANCH  21  22
ENDBRANCH  20  21
ENDBRANCH  19  20
ENDBRANCH  18  19
ENDBRANCH  17  18
ENDBRANCH   1  17
TORSDOF 26
ENDMDL
MODEL 4
REMARK VINA RESULT:    17.165      1.007      2.026
REMARK INTER + INTRA:          42.646
REMARK INTER:                  43.605
REMARK INTRA:                  -0.959
REMARK UNBOUND:                -0.610
REMARK SMILES CCCCCCCCCCCCCCCCCCCCCCCCCCCC(=O)[O-]
REMARK SMILES IDX 15 1 16 2 17 3 18 4 19 5 20 6 21 7 22 8 23 9 24 10 25 11
REMARK SMILES IDX 26 12 27 13 28 14 29 15 30 16 14 17 13 18 12 19 11 20 10 21
REMARK SMILES IDX 9 22 8 23 7 24 6 25 5 26 4 27 3 28 2 29 1 30
REMARK H PARENT
REMARK Flexibility Score: inf
ROOT
ATOM      1  C   UNL     1       6.106 -23.541 -12.688  1.00  0.00     0.000 C 
ENDROOT
BRANCH   1   2
ATOM      2  C   UNL     1       6.137 -22.573 -13.881  1.00  0.00     0.000 C 
BRANCH   2   3
ATOM      3  C   UNL     1       6.154 -21.099 -13.440  1.00  0.00     0.000 C 
BRANCH   3   4
ATOM      4  C   UNL     1       4.891 -20.331 -13.870  1.00  0.00     0.000 C 
BRANCH   4   5
ATOM      5  C   UNL     1       4.945 -18.813 -13.625  1.00  0.00     0.000 C 
BRANCH   5   6
ATOM      6  C   UNL     1       3.557 -18.148 -13.662  1.00  0.00     0.000 C 
BRANCH   6   7
ATOM      7  C   UNL     1       3.597 -16.725 -14.238  1.00  0.00     0.000 C 
BRANCH   7   8
ATOM      8  C   UNL     1       2.308 -16.359 -14.995  1.00  0.00     0.000 C 
BRANCH   8   9
ATOM      9  C   UNL     1       2.072 -14.839 -15.069  1.00  0.00     0.000 C 
BRANCH   9  10
ATOM     10  C   UNL     1       1.715 -14.324 -16.482  1.00  0.00     0.000 C 
BRANCH  10  11
ATOM     11  C   UNL     1       2.024 -15.325 -17.612  1.00  0.00     0.000 C 
BRANCH  11  12
ATOM     12  C   UNL     1       2.829 -14.750 -18.794  1.00  0.00     0.006 C 
BRANCH  12  13
ATOM     13  C   UNL     1       4.046 -13.902 -18.385  1.00  0.00     0.053 C 
BRANCH  13  14
ATOM     14  C   UNL     1       3.855 -12.453 -18.712  1.00  0.00     0.041 C 
ATOM     15  O   UNL     1       4.609 -11.583 -18.202  1.00  0.00    -0.550 OA
ATOM     16  O   UNL     1       2.858 -12.066 -19.601  1.00  0.00    -0.550 OA
ENDBRANCH  13  14
ENDBRANCH  12  13
ENDBRANCH  11  12
ENDBRANCH  10  11
ENDBRANCH   9  10
ENDBRANCH   8   9
ENDBRANCH   7   8
ENDBRANCH   6   7
ENDBRANCH   5   6
ENDBRANCH   4   5
ENDBRANCH   3   4
ENDBRANCH   2   3
ENDBRANCH   1   2
BRANCH   1  17
ATOM     17  C   UNL     1       4.708 -24.142 -12.455  1.00  0.00     0.000 C 
BRANCH  17  18
ATOM     18  C   UNL     1       3.899 -24.300 -13.756  1.00  0.00     0.000 C 
BRANCH  18  19
ATOM     19  C   UNL     1       3.977 -25.692 -14.410  1.00  0.00     0.000 C 
BRANCH  19  20
ATOM     20  C   UNL     1       4.667 -25.671 -15.784  1.00  0.00     0.000 C 
BRANCH  20  21
ATOM     21  C   UNL     1       5.809 -24.641 -15.859  1.00  0.00     0.000 C 
BRANCH  21  22
ATOM     22  C   UNL     1       7.060 -25.110 -16.629  1.00  0.00    -0.000 C 
BRANCH  22  23
ATOM     23  C   UNL     1       6.793 -26.078 -17.800  1.00  0.00    -0.000 C 
BRANCH  23  24
ATOM     24  C   UNL     1       7.765 -25.948 -18.987  1.00  0.00    -0.000 C 
BRANCH  24  25
ATOM     25  C   UNL     1       8.499 -24.596 -19.010  1.00  0.00    -0.000 C 
BRANCH  25  26
ATOM     26  C   UNL     1       9.330 -24.398 -20.287  1.00  0.00    -0.000 C 
BRANCH  26  27
ATOM     27  C   UNL     1       8.591 -23.560 -21.345  1.00  0.00    -0.000 C 
BRANCH  27  28
ATOM     28  C   UNL     1       9.543 -22.925 -22.370  1.00  0.00    -0.000 C 
BRANCH  28  29
ATOM     29  C   UNL     1      10.654 -23.886 -22.822  1.00  0.00    -0.003 C 
ATOM     30  C   UNL     1      11.446 -23.299 -23.988  1.00  0.00     0.004 C 
ENDBRANCH  28  29
ENDBRANCH  27  28
ENDBRANCH  26  27
ENDBRANCH  25  26
ENDBRANCH  24  25
ENDBRANCH  23  24
ENDBRANCH  22  23
ENDBRANCH  21  22
ENDBRANCH  20  21
ENDBRANCH  19  20
ENDBRANCH  18  19
ENDBRANCH  17  18
ENDBRANCH   1  17
TORSDOF 26
ENDMDL
MODEL 5
REMARK VINA RESULT:    17.196      0.947      2.010
REMARK INTER + INTRA:          42.724
REMARK INTER:                  43.797
REMARK INTRA:                  -1.072
REMARK UNBOUND:                -0.610
REMARK SMILES CCCCCCCCCCCCCCCCCCCCCCCCCCCC(=O)[O-]
REMARK SMILES IDX 15 1 16 2 17 3 18 4 19 5 20 6 21 7 22 8 23 9 24 10 25 11
REMARK SMILES IDX 26 12 27 13 28 14 29 15 30 16 14 17 13 18 12 19 11 20 10 21
REMARK SMILES IDX 9 22 8 23 7 24 6 25 5 26 4 27 3 28 2 29 1 30
REMARK H PARENT
REMARK Flexibility Score: inf
ROOT
ATOM      1  C   UNL     1       4.479 -25.243 -14.381  1.00  0.00     0.000 C 
ENDROOT
BRANCH   1   2
ATOM      2  C   UNL     1       4.587 -23.756 -14.007  1.00  0.00     0.000 C 
BRANCH   2   3
ATOM      3  C   UNL     1       5.840 -23.452 -13.167  1.00  0.00     0.000 C 
BRANCH   3   4
ATOM      4  C   UNL     1       6.458 -22.081 -13.489  1.00  0.00     0.000 C 
BRANCH   4   5
ATOM      5  C   UNL     1       5.454 -21.018 -13.971  1.00  0.00     0.000 C 
BRANCH   5   6
ATOM      6  C   UNL     1       5.577 -19.686 -13.209  1.00  0.00     0.000 C 
BRANCH   6   7
ATOM      7  C   UNL     1       5.008 -18.498 -13.999  1.00  0.00     0.000 C 
BRANCH   7   8
ATOM      8  C   UNL     1       3.687 -17.976 -13.406  1.00  0.00     0.000 C 
BRANCH   8   9
ATOM      9  C   UNL     1       3.338 -16.556 -13.890  1.00  0.00     0.000 C 
BRANCH   9  10
ATOM     10  C   UNL     1       2.763 -16.500 -15.324  1.00  0.00     0.000 C 
BRANCH  10  11
ATOM     11  C   UNL     1       1.676 -15.425 -15.523  1.00  0.00     0.000 C 
BRANCH  11  12
ATOM     12  C   UNL     1       2.050 -14.289 -16.495  1.00  0.00     0.006 C 
BRANCH  12  13
ATOM     13  C   UNL     1       2.232 -14.733 -17.956  1.00  0.00     0.053 C 
BRANCH  13  14
ATOM     14  C   UNL     1       3.305 -13.952 -18.650  1.00  0.00     0.041 C 
ATOM     15  O   UNL     1       4.513 -14.286 -18.527  1.00  0.00    -0.550 OA
ATOM     16  O   UNL     1       2.968 -12.870 -19.456  1.00  0.00    -0.550 OA
ENDBRANCH  13  14
ENDBRANCH  12  13
ENDBRANCH  11  12
ENDBRANCH  10  11
ENDBRANCH   9  10
ENDBRANCH   8   9
ENDBRANCH   7   8
ENDBRANCH   6   7
ENDBRANCH   5   6
ENDBRANCH   4   5
ENDBRANCH   3   4
ENDBRANCH   2   3
ENDBRANCH   1   2
BRANCH   1  17
ATOM     17  C   UNL     1       4.855 -25.507 -15.851  1.00  0.00     0.000 C 
BRANCH  17  18
ATOM     18  C   UNL     1       6.312 -25.132 -16.174  1.00  0.00     0.000 C 
BRANCH  18  19
ATOM     19  C   UNL     1       6.954 -25.930 -17.325  1.00  0.00     0.000 C 
BRANCH  19  20
ATOM     20  C   UNL     1       8.082 -25.160 -18.032  1.00  0.00     0.000 C 
BRANCH  20  21
ATOM     21  C   UNL     1       7.686 -24.691 -19.444  1.00  0.00     0.000 C 
BRANCH  21  22
ATOM     22  C   UNL     1       8.838 -24.102 -20.283  1.00  0.00    -0.000 C 
BRANCH  22  23
ATOM     23  C   UNL     1       9.975 -25.087 -20.628  1.00  0.00    -0.000 C 
BRANCH  23  24
ATOM     24  C   UNL     1      11.047 -24.533 -21.583  1.00  0.00    -0.000 C 
BRANCH  24  25
ATOM     25  C   UNL     1      10.460 -23.617 -22.671  1.00  0.00    -0.000 C 
BRANCH  25  26
ATOM     26  C   UNL     1      11.308 -23.605 -23.953  1.00  0.00    -0.000 C 
BRANCH  26  27
ATOM     27  C   UNL     1      12.430 -22.552 -23.904  1.00  0.00    -0.000 C 
BRANCH  27  28
ATOM     28  C   UNL     1      13.585 -22.873 -24.865  1.00  0.00    -0.000 C 
BRANCH  28  29
ATOM     29  C   UNL     1      13.097 -23.403 -26.222  1.00  0.00    -0.003 C 
ATOM     30  C   UNL     1      13.641 -24.804 -26.492  1.00  0.00     0.004 C 
ENDBRANCH  28  29
ENDBRANCH  27  28
ENDBRANCH  26  27
ENDBRANCH  25  26
ENDBRANCH  24  25
ENDBRANCH  23  24
ENDBRANCH  22  23
ENDBRANCH  21  22
ENDBRANCH  20  21
ENDBRANCH  19  20
ENDBRANCH  18  19
ENDBRANCH  17  18
ENDBRANCH   1  17
TORSDOF 26
ENDMDL
MODEL 6
REMARK VINA RESULT:    17.514      3.807     10.808
REMARK INTER + INTRA:          43.526
REMARK INTER:                  44.753
REMARK INTRA:                  -1.228
REMARK UNBOUND:                -0.610
REMARK SMILES CCCCCCCCCCCCCCCCCCCCCCCCCCCC(=O)[O-]
REMARK SMILES IDX 15 1 16 2 17 3 18 4 19 5 20 6 21 7 22 8 23 9 24 10 25 11
REMARK SMILES IDX 26 12 27 13 28 14 29 15 30 16 14 17 13 18 12 19 11 20 10 21
REMARK SMILES IDX 9 22 8 23 7 24 6 25 5 26 4 27 3 28 2 29 1 30
REMARK H PARENT
REMARK Flexibility Score: inf
ROOT
ATOM      1  C   UNL     1       4.625 -23.566 -13.516  1.00  0.00     0.000 C 
ENDROOT
BRANCH   1   2
ATOM      2  C   UNL     1       4.340 -25.075 -13.578  1.00  0.00     0.000 C 
BRANCH   2   3
ATOM      3  C   UNL     1       4.467 -25.637 -15.005  1.00  0.00     0.000 C 
BRANCH   3   4
ATOM      4  C   UNL     1       5.229 -24.696 -15.954  1.00  0.00     0.000 C 
BRANCH   4   5
ATOM      5  C   UNL     1       6.673 -25.126 -16.267  1.00  0.00     0.000 C 
BRANCH   5   6
ATOM      6  C   UNL     1       6.834 -25.706 -17.684  1.00  0.00     0.000 C 
BRANCH   6   7
ATOM      7  C   UNL     1       8.221 -25.431 -18.283  1.00  0.00     0.000 C 
BRANCH   7   8
ATOM      8  C   UNL     1       8.154 -24.556 -19.547  1.00  0.00     0.000 C 
BRANCH   8   9
ATOM      9  C   UNL     1       9.526 -24.384 -20.226  1.00  0.00     0.000 C 
BRANCH   9  10
ATOM     10  C   UNL     1       9.461 -23.725 -21.623  1.00  0.00     0.000 C 
BRANCH  10  11
ATOM     11  C   UNL     1      10.487 -24.285 -22.629  1.00  0.00     0.000 C 
BRANCH  11  12
ATOM     12  C   UNL     1      10.960 -23.288 -23.704  1.00  0.00     0.006 C 
BRANCH  12  13
ATOM     13  C   UNL     1      12.487 -23.121 -23.792  1.00  0.00     0.053 C 
BRANCH  13  14
ATOM     14  C   UNL     1      12.962 -23.042 -25.210  1.00  0.00     0.041 C 
ATOM     15  O   UNL     1      13.219 -21.925 -25.731  1.00  0.00    -0.550 OA
ATOM     16  O   UNL     1      13.145 -24.206 -25.948  1.00  0.00    -0.550 OA
ENDBRANCH  13  14
ENDBRANCH  12  13
ENDBRANCH  11  12
ENDBRANCH  10  11
ENDBRANCH   9  10
ENDBRANCH   8   9
ENDBRANCH   7   8
ENDBRANCH   6   7
ENDBRANCH   5   6
ENDBRANCH   4   5
ENDBRANCH   3   4
ENDBRANCH   2   3
ENDBRANCH   1   2
BRANCH   1  17
ATOM     17  C   UNL     1       6.086 -23.258 -13.140  1.00  0.00     0.000 C 
BRANCH  17  18
ATOM     18  C   UNL     1       6.496 -21.810 -13.462  1.00  0.00     0.000 C 
BRANCH  18  19
ATOM     19  C   UNL     1       5.382 -20.934 -14.068  1.00  0.00     0.000 C 
BRANCH  19  20
ATOM     20  C   UNL     1       5.397 -19.492 -13.534  1.00  0.00     0.000 C 
BRANCH  20  21
ATOM     21  C   UNL     1       3.994 -18.858 -13.500  1.00  0.00     0.000 C 
BRANCH  21  22
ATOM     22  C   UNL     1       3.975 -17.316 -13.512  1.00  0.00    -0.000 C 
BRANCH  22  23
ATOM     23  C   UNL     1       3.423 -16.672 -14.800  1.00  0.00    -0.000 C 
BRANCH  23  24
ATOM     24  C   UNL     1       2.157 -15.815 -14.609  1.00  0.00    -0.000 C 
BRANCH  24  25
ATOM     25  C   UNL     1       2.110 -14.602 -15.553  1.00  0.00    -0.000 C 
BRANCH  25  26
ATOM     26  C   UNL     1       1.276 -14.870 -16.815  1.00  0.00    -0.000 C 
BRANCH  26  27
ATOM     27  C   UNL     1       2.146 -15.274 -18.019  1.00  0.00    -0.000 C 
BRANCH  27  28
ATOM     28  C   UNL     1       3.523 -14.593 -18.010  1.00  0.00    -0.000 C 
BRANCH  28  29
ATOM     29  C   UNL     1       3.742 -13.681 -19.227  1.00  0.00    -0.003 C 
ATOM     30  C   UNL     1       3.537 -12.214 -18.857  1.00  0.00     0.004 C 
ENDBRANCH  28  29
ENDBRANCH  27  28
ENDBRANCH  26  27
ENDBRANCH  25  26
ENDBRANCH  24  25
ENDBRANCH  23  24
ENDBRANCH  22  23
ENDBRANCH  21  22
ENDBRANCH  20  21
ENDBRANCH  19  20
ENDBRANCH  18  19
ENDBRANCH  17  18
ENDBRANCH   1  17
TORSDOF 26
ENDMDL
MODEL 7
REMARK VINA RESULT:    17.740      3.853     10.486
REMARK INTER + INTRA:          44.094
REMARK INTER:                  45.050
REMARK INTRA:                  -0.956
REMARK UNBOUND:                -0.610
REMARK SMILES CCCCCCCCCCCCCCCCCCCCCCCCCCCC(=O)[O-]
REMARK SMILES IDX 15 1 16 2 17 3 18 4 19 5 20 6 21 7 22 8 23 9 24 10 25 11
REMARK SMILES IDX 26 12 27 13 28 14 29 15 30 16 14 17 13 18 12 19 11 20 10 21
REMARK SMILES IDX 9 22 8 23 7 24 6 25 5 26 4 27 3 28 2 29 1 30
REMARK H PARENT
REMARK Flexibility Score: inf
ROOT
ATOM      1  C   UNL     1       7.706 -21.334 -22.227  1.00  0.00     0.000 C 
ENDROOT
BRANCH   1   2
ATOM      2  C   UNL     1       7.794 -22.555 -21.298  1.00  0.00     0.000 C 
BRANCH   2   3
ATOM      3  C   UNL     1       9.021 -23.434 -21.599  1.00  0.00     0.000 C 
BRANCH   3   4
ATOM      4  C   UNL     1       9.358 -24.403 -20.452  1.00  0.00     0.000 C 
BRANCH   4   5
ATOM      5  C   UNL     1       8.415 -24.318 -19.238  1.00  0.00     0.000 C 
BRANCH   5   6
ATOM      6  C   UNL     1       8.037 -25.700 -18.674  1.00  0.00     0.000 C 
BRANCH   6   7
ATOM      7  C   UNL     1       7.612 -25.640 -17.199  1.00  0.00     0.000 C 
BRANCH   7   8
ATOM      8  C   UNL     1       6.100 -25.413 -17.029  1.00  0.00     0.000 C 
BRANCH   8   9
ATOM      9  C   UNL     1       5.729 -24.893 -15.628  1.00  0.00     0.000 C 
BRANCH   9  10
ATOM     10  C   UNL     1       4.389 -25.442 -15.085  1.00  0.00     0.000 C 
BRANCH  10  11
ATOM     11  C   UNL     1       4.135 -25.119 -13.599  1.00  0.00     0.000 C 
BRANCH  11  12
ATOM     12  C   UNL     1       5.059 -24.043 -12.996  1.00  0.00     0.006 C 
BRANCH  12  13
ATOM     13  C   UNL     1       4.833 -22.625 -13.548  1.00  0.00     0.053 C 
BRANCH  13  14
ATOM     14  C   UNL     1       6.068 -21.783 -13.454  1.00  0.00     0.041 C 
ATOM     15  O   UNL     1       7.198 -22.326 -13.332  1.00  0.00    -0.550 OA
ATOM     16  O   UNL     1       5.973 -20.398 -13.528  1.00  0.00    -0.550 OA
ENDBRANCH  13  14
ENDBRANCH  12  13
ENDBRANCH  11  12
ENDBRANCH  10  11
ENDBRANCH   9  10
ENDBRANCH   8   9
ENDBRANCH   7   8
ENDBRANCH   6   7
ENDBRANCH   5   6
ENDBRANCH   4   5
ENDBRANCH   3   4
ENDBRANCH   2   3
ENDBRANCH   1   2
BRANCH   1  17
ATOM     17  C   UNL     1       8.869 -20.348 -22.013  1.00  0.00     0.000 C 
BRANCH  17  18
ATOM     18  C   UNL     1       8.887 -19.208 -23.048  1.00  0.00     0.000 C 
BRANCH  18  19
ATOM     19  C   UNL     1       9.638 -17.937 -22.608  1.00  0.00     0.000 C 
BRANCH  19  20
ATOM     20  C   UNL     1       8.701 -16.839 -22.078  1.00  0.00     0.000 C 
BRANCH  20  21
ATOM     21  C   UNL     1       8.987 -16.473 -20.610  1.00  0.00     0.000 C 
BRANCH  21  22
ATOM     22  C   UNL     1       7.941 -16.977 -19.596  1.00  0.00    -0.000 C 
BRANCH  22  23
ATOM     23  C   UNL     1       7.162 -15.877 -18.846  1.00  0.00    -0.000 C 
BRANCH  23  24
ATOM     24  C   UNL     1       6.193 -16.388 -17.764  1.00  0.00    -0.000 C 
BRANCH  24  25
ATOM     25  C   UNL     1       4.860 -15.621 -17.748  1.00  0.00    -0.000 C 
BRANCH  25  26
ATOM     26  C   UNL     1       4.909 -14.334 -18.585  1.00  0.00    -0.000 C 
BRANCH  26  27
ATOM     27  C   UNL     1       3.535 -13.961 -19.170  1.00  0.00    -0.000 C 
BRANCH  27  28
ATOM     28  C   UNL     1       2.383 -14.744 -18.522  1.00  0.00    -0.000 C 
BRANCH  28  29
ATOM     29  C   UNL     1       2.058 -14.253 -17.102  1.00  0.00    -0.003 C 
ATOM     30  C   UNL     1       1.431 -15.367 -16.267  1.00  0.00     0.004 C 
ENDBRANCH  28  29
ENDBRANCH  27  28
ENDBRANCH  26  27
ENDBRANCH  25  26
ENDBRANCH  24  25
ENDBRANCH  23  24
ENDBRANCH  22  23
ENDBRANCH  21  22
ENDBRANCH  20  21
ENDBRANCH  19  20
ENDBRANCH  18  19
ENDBRANCH  17  18
ENDBRANCH   1  17
TORSDOF 26
ENDMDL
MODEL 8
REMARK VINA RESULT:    17.791      3.167     10.029
REMARK INTER + INTRA:          44.222
REMARK INTER:                  46.245
REMARK INTRA:                  -2.023
REMARK UNBOUND:                -0.610
REMARK SMILES CCCCCCCCCCCCCCCCCCCCCCCCCCCC(=O)[O-]
REMARK SMILES IDX 15 1 16 2 17 3 18 4 19 5 20 6 21 7 22 8 23 9 24 10 25 11
REMARK SMILES IDX 26 12 27 13 28 14 29 15 30 16 14 17 13 18 12 19 11 20 10 21
REMARK SMILES IDX 9 22 8 23 7 24 6 25 5 26 4 27 3 28 2 29 1 30
REMARK H PARENT
REMARK Flexibility Score: inf
ROOT
ATOM      1  C   UNL     1       5.581 -21.376 -13.922  1.00  0.00     0.000 C 
ENDROOT
BRANCH   1   2
ATOM      2  C   UNL     1       6.759 -22.276 -13.519  1.00  0.00     0.000 C 
BRANCH   2   3
ATOM      3  C   UNL     1       6.297 -23.587 -12.857  1.00  0.00     0.000 C 
BRANCH   3   4
ATOM      4  C   UNL     1       4.766 -23.700 -12.761  1.00  0.00     0.000 C 
BRANCH   4   5
ATOM      5  C   UNL     1       4.231 -25.141 -12.672  1.00  0.00     0.000 C 
BRANCH   5   6
ATOM      6  C   UNL     1       3.358 -25.534 -13.878  1.00  0.00     0.000 C 
BRANCH   6   7
ATOM      7  C   UNL     1       4.172 -26.164 -15.018  1.00  0.00     0.000 C 
BRANCH   7   8
ATOM      8  C   UNL     1       4.595 -25.134 -16.080  1.00  0.00     0.000 C 
BRANCH   8   9
ATOM      9  C   UNL     1       6.114 -24.879 -16.090  1.00  0.00     0.000 C 
BRANCH   9  10
ATOM     10  C   UNL     1       6.882 -25.685 -17.162  1.00  0.00     0.000 C 
BRANCH  10  11
ATOM     11  C   UNL     1       8.044 -24.910 -17.816  1.00  0.00     0.000 C 
BRANCH  11  12
ATOM     12  C   UNL     1       8.230 -25.161 -19.325  1.00  0.00     0.006 C 
BRANCH  12  13
ATOM     13  C   UNL     1       9.375 -24.360 -19.969  1.00  0.00     0.053 C 
BRANCH  13  14
ATOM     14  C   UNL     1       8.955 -23.713 -21.252  1.00  0.00     0.041 C 
ATOM     15  O   UNL     1       7.952 -22.951 -21.279  1.00  0.00    -0.550 OA
ATOM     16  O   UNL     1       9.687 -23.930 -22.413  1.00  0.00    -0.550 OA
ENDBRANCH  13  14
ENDBRANCH  12  13
ENDBRANCH  11  12
ENDBRANCH  10  11
ENDBRANCH   9  10
ENDBRANCH   8   9
ENDBRANCH   7   8
ENDBRANCH   6   7
ENDBRANCH   5   6
ENDBRANCH   4   5
ENDBRANCH   3   4
ENDBRANCH   2   3
ENDBRANCH   1   2
BRANCH   1  17
ATOM     17  C   UNL     1       5.638 -19.994 -13.246  1.00  0.00     0.000 C 
BRANCH  17  18
ATOM     18  C   UNL     1       5.033 -18.876 -14.114  1.00  0.00     0.000 C 
BRANCH  18  19
ATOM     19  C   UNL     1       3.918 -18.054 -13.439  1.00  0.00     0.000 C 
BRANCH  19  20
ATOM     20  C   UNL     1       3.780 -16.639 -14.022  1.00  0.00     0.000 C 
BRANCH  20  21
ATOM     21  C   UNL     1       2.314 -16.185 -14.139  1.00  0.00     0.000 C 
BRANCH  21  22
ATOM     22  C   UNL     1       2.070 -15.005 -15.101  1.00  0.00    -0.000 C 
BRANCH  22  23
ATOM     23  C   UNL     1       1.231 -15.335 -16.353  1.00  0.00    -0.000 C 
BRANCH  23  24
ATOM     24  C   UNL     1       1.693 -14.640 -17.647  1.00  0.00    -0.000 C 
BRANCH  24  25
ATOM     25  C   UNL     1       2.159 -13.193 -17.413  1.00  0.00    -0.000 C 
BRANCH  25  26
ATOM     26  C   UNL     1       3.320 -12.789 -18.335  1.00  0.00    -0.000 C 
BRANCH  26  27
ATOM     27  C   UNL     1       3.783 -13.949 -19.235  1.00  0.00    -0.000 C 
BRANCH  27  28
ATOM     28  C   UNL     1       4.976 -14.717 -18.645  1.00  0.00    -0.000 C 
BRANCH  28  29
ATOM     29  C   UNL     1       4.608 -16.148 -18.221  1.00  0.00    -0.003 C 
ATOM     30  C   UNL     1       5.605 -16.692 -17.203  1.00  0.00     0.004 C 
ENDBRANCH  28  29
ENDBRANCH  27  28
ENDBRANCH  26  27
ENDBRANCH  25  26
ENDBRANCH  24  25
ENDBRANCH  23  24
ENDBRANCH  22  23
ENDBRANCH  21  22
ENDBRANCH  20  21
ENDBRANCH  19  20
ENDBRANCH  18  19
ENDBRANCH  17  18
ENDBRANCH   1  17
TORSDOF 26
ENDMDL
MODEL 9
REMARK VINA RESULT:    17.967      4.752     11.811
REMARK INTER + INTRA:          44.666
REMARK INTER:                  46.314
REMARK INTRA:                  -1.649
REMARK UNBOUND:                -0.610
REMARK SMILES CCCCCCCCCCCCCCCCCCCCCCCCCCCC(=O)[O-]
REMARK SMILES IDX 15 1 16 2 17 3 18 4 19 5 20 6 21 7 22 8 23 9 24 10 25 11
REMARK SMILES IDX 26 12 27 13 28 14 29 15 30 16 14 17 13 18 12 19 11 20 10 21
REMARK SMILES IDX 9 22 8 23 7 24 6 25 5 26 4 27 3 28 2 29 1 30
REMARK H PARENT
REMARK Flexibility Score: inf
ROOT
ATOM      1  C   UNL     1       9.658 -22.784 -22.457  1.00  0.00     0.000 C 
ENDROOT
BRANCH   1   2
ATOM      2  C   UNL     1      10.700 -23.702 -23.114  1.00  0.00     0.000 C 
BRANCH   2   3
ATOM      3  C   UNL     1      11.838 -22.912 -23.786  1.00  0.00     0.000 C 
BRANCH   3   4
ATOM      4  C   UNL     1      12.402 -23.618 -25.031  1.00  0.00     0.000 C 
BRANCH   4   5
ATOM      5  C   UNL     1      13.629 -22.933 -25.660  1.00  0.00     0.000 C 
BRANCH   5   6
ATOM      6  C   UNL     1      13.253 -21.888 -26.726  1.00  0.00     0.000 C 
BRANCH   6   7
ATOM      7  C   UNL     1      14.289 -20.760 -26.841  1.00  0.00     0.000 C 
BRANCH   7   8
ATOM      8  C   UNL     1      13.963 -19.774 -27.977  1.00  0.00     0.000 C 
BRANCH   8   9
ATOM      9  C   UNL     1      13.484 -18.405 -27.458  1.00  0.00     0.000 C 
BRANCH   9  10
ATOM     10  C   UNL     1      13.797 -18.151 -25.965  1.00  0.00     0.000 C 
BRANCH  10  11
ATOM     11  C   UNL     1      12.801 -17.204 -25.268  1.00  0.00     0.000 C 
BRANCH  11  12
ATOM     12  C   UNL     1      12.387 -15.968 -26.092  1.00  0.00     0.006 C 
BRANCH  12  13
ATOM     13  C   UNL     1      13.076 -14.660 -25.670  1.00  0.00     0.053 C 
BRANCH  13  14
ATOM     14  C   UNL     1      13.039 -13.631 -26.757  1.00  0.00     0.041 C 
ATOM     15  O   UNL     1      13.916 -12.729 -26.807  1.00  0.00    -0.550 OA
ATOM     16  O   UNL     1      12.048 -13.684 -27.731  1.00  0.00    -0.550 OA
ENDBRANCH  13  14
ENDBRANCH  12  13
ENDBRANCH  11  12
ENDBRANCH  10  11
ENDBRANCH   9  10
ENDBRANCH   8   9
ENDBRANCH   7   8
ENDBRANCH   6   7
ENDBRANCH   5   6
ENDBRANCH   4   5
ENDBRANCH   3   4
ENDBRANCH   2   3
ENDBRANCH   1   2
BRANCH   1  17
ATOM     17  C   UNL     1       8.712 -23.549 -21.513  1.00  0.00     0.000 C 
BRANCH  17  18
ATOM     18  C   UNL     1       9.426 -24.661 -20.722  1.00  0.00     0.000 C 
BRANCH  18  19
ATOM     19  C   UNL     1       9.274 -24.575 -19.191  1.00  0.00     0.000 C 
BRANCH  19  20
ATOM     20  C   UNL     1       7.929 -25.127 -18.690  1.00  0.00     0.000 C 
BRANCH  20  21
ATOM     21  C   UNL     1       7.963 -25.510 -17.199  1.00  0.00     0.000 C 
BRANCH  21  22
ATOM     22  C   UNL     1       6.835 -24.900 -16.343  1.00  0.00    -0.000 C 
BRANCH  22  23
ATOM     23  C   UNL     1       5.563 -25.763 -16.212  1.00  0.00    -0.000 C 
BRANCH  23  24
ATOM     24  C   UNL     1       4.372 -25.067 -15.529  1.00  0.00    -0.000 C 
BRANCH  24  25
ATOM     25  C   UNL     1       3.844 -25.846 -14.312  1.00  0.00    -0.000 C 
BRANCH  25  26
ATOM     26  C   UNL     1       4.335 -25.262 -12.979  1.00  0.00    -0.000 C 
BRANCH  26  27
ATOM     27  C   UNL     1       4.660 -23.761 -13.081  1.00  0.00    -0.000 C 
BRANCH  27  28
ATOM     28  C   UNL     1       6.142 -23.456 -12.813  1.00  0.00    -0.000 C 
BRANCH  28  29
ATOM     29  C   UNL     1       6.613 -22.161 -13.494  1.00  0.00    -0.003 C 
ATOM     30  C   UNL     1       5.444 -21.425 -14.142  1.00  0.00     0.004 C 
ENDBRANCH  28  29
ENDBRANCH  27  28
ENDBRANCH  26  27
ENDBRANCH  25  26
ENDBRANCH  24  25
ENDBRANCH  23  24
ENDBRANCH  22  23
ENDBRANCH  21  22
ENDBRANCH  20  21
ENDBRANCH  19  20
ENDBRANCH  18  19
ENDBRANCH  17  18
ENDBRANCH   1  17
TORSDOF 26
ENDMDL
