MODEL 1
REMARK VINA RESULT:    -4.219      0.000      0.000
REMARK INTER + INTRA:         -11.640
REMARK INTER:                  -9.644
REMARK INTRA:                  -1.996
REMARK UNBOUND:                -1.996
REMARK SMILES CCCCCCCCCCCCCCCCCCCCCCCC(=O)[O-]
REMARK SMILES IDX 13 1 14 2 15 3 16 4 17 5 18 6 19 7 20 8 21 9 22 10 23 11
REMARK SMILES IDX 24 12 25 13 26 14 12 15 11 16 10 17 9 18 8 19 7 20 6 21 5 22
REMARK SMILES IDX 4 23 3 24 2 25 1 26
REMARK H PARENT
REMARK Flexibility Score: inf
ROOT
ATOM      1  C   UNL     1      -7.723  -9.185  -0.065  1.00  0.00     0.000 C 
ENDROOT
BRANCH   1   2
ATOM      2  C   UNL     1      -7.633  -8.124   1.045  1.00  0.00     0.000 C 
BRANCH   2   3
ATOM      3  C   UNL     1      -6.305  -7.347   1.012  1.00  0.00     0.000 C 
BRANCH   3   4
ATOM      4  C   UNL     1      -6.375  -6.101   0.113  1.00  0.00     0.000 C 
BRANCH   4   5
ATOM      5  C   UNL     1      -5.327  -5.043   0.491  1.00  0.00     0.000 C 
BRANCH   5   6
ATOM      6  C   UNL     1      -5.346  -4.709   1.993  1.00  0.00     0.000 C 
BRANCH   6   7
ATOM      7  C   UNL     1      -6.523  -3.801   2.386  1.00  0.00     0.000 C 
BRANCH   7   8
ATOM      8  C   UNL     1      -7.649  -4.562   3.102  1.00  0.00     0.000 C 
BRANCH   8   9
ATOM      9  C   UNL     1      -9.019  -4.204   2.512  1.00  0.00     0.000 C 
BRANCH   9  10
ATOM     10  C   UNL     1      -9.792  -5.467   2.113  1.00  0.00     0.006 C 
BRANCH  10  11
ATOM     11  C   UNL     1     -10.619  -5.233   0.846  1.00  0.00     0.053 C 
BRANCH  11  12
ATOM     12  C   UNL     1     -11.396  -6.464   0.495  1.00  0.00     0.041 C 
ATOM     13  O   UNL     1     -10.851  -7.391  -0.159  1.00  0.00    -0.550 OA
ATOM     14  O   UNL     1     -12.697  -6.620   0.957  1.00  0.00    -0.550 OA
ENDBRANCH  11  12
ENDBRANCH  10  11
ENDBRANCH   9  10
ENDBRANCH   8   9
ENDBRANCH   7   8
ENDBRANCH   6   7
ENDBRANCH   5   6
ENDBRANCH   4   5
ENDBRANCH   3   4
ENDBRANCH   2   3
ENDBRANCH   1   2
BRANCH   1  15
ATOM     15  C   UNL     1      -6.414  -9.990  -0.219  1.00  0.00     0.000 C 
BRANCH  15  16
ATOM     16  C   UNL     1      -6.566 -11.491   0.096  1.00  0.00     0.000 C 
BRANCH  16  17
ATOM     17  C   UNL     1      -6.516 -11.851   1.590  1.00  0.00     0.000 C 
BRANCH  17  18
ATOM     18  C   UNL     1      -6.435 -13.360   1.897  1.00  0.00    -0.000 C 
BRANCH  18  19
ATOM     19  C   UNL     1      -6.345 -14.254   0.640  1.00  0.00    -0.000 C 
BRANCH  19  20
ATOM     20  C   UNL     1      -5.570 -15.572   0.842  1.00  0.00    -0.000 C 
BRANCH  20  21
ATOM     21  C   UNL     1      -6.436 -16.843   0.953  1.00  0.00    -0.000 C 
BRANCH  21  22
ATOM     22  C   UNL     1      -5.807 -17.963   1.807  1.00  0.00    -0.000 C 
BRANCH  22  23
ATOM     23  C   UNL     1      -5.688 -19.287   1.032  1.00  0.00    -0.000 C 
BRANCH  23  24
ATOM     24  C   UNL     1      -5.499 -19.079  -0.481  1.00  0.00    -0.000 C 
BRANCH  24  25
ATOM     25  C   UNL     1      -6.119 -20.177  -1.363  1.00  0.00    -0.003 C 
ATOM     26  C   UNL     1      -7.574 -20.482  -1.004  1.00  0.00     0.004 C 
ENDBRANCH  24  25
ENDBRANCH  23  24
ENDBRANCH  22  23
ENDBRANCH  21  22
ENDBRANCH  20  21
ENDBRANCH  19  20
ENDBRANCH  18  19
ENDBRANCH  17  18
ENDBRANCH  16  17
ENDBRANCH  15  16
ENDBRANCH   1  15
TORSDOF 22
ENDMDL
MODEL 2
REMARK VINA RESULT:    -3.903      4.289     10.844
REMARK INTER + INTRA:         -10.918
REMARK INTER:                  -8.723
REMARK INTRA:                  -2.195
REMARK UNBOUND:                -1.996
REMARK SMILES CCCCCCCCCCCCCCCCCCCCCCCC(=O)[O-]
REMARK SMILES IDX 13 1 14 2 15 3 16 4 17 5 18 6 19 7 20 8 21 9 22 10 23 11
REMARK SMILES IDX 24 12 25 13 26 14 12 15 11 16 10 17 9 18 8 19 7 20 6 21 5 22
REMARK SMILES IDX 4 23 3 24 2 25 1 26
REMARK H PARENT
REMARK Flexibility Score: inf
ROOT
ATOM      1  C   UNL     1      -6.678  -9.944   0.702  1.00  0.00     0.000 C 
ENDROOT
BRANCH   1   2
ATOM      2  C   UNL     1      -6.441 -11.034  -0.358  1.00  0.00     0.000 C 
BRANCH   2   3
ATOM      3  C   UNL     1      -5.050 -11.681  -0.237  1.00  0.00     0.000 C 
BRANCH   3   4
ATOM      4  C   UNL     1      -5.099 -13.211  -0.381  1.00  0.00     0.000 C 
BRANCH   4   5
ATOM      5  C   UNL     1      -6.273 -13.838   0.389  1.00  0.00     0.000 C 
BRANCH   5   6
ATOM      6  C   UNL     1      -5.929 -14.107   1.863  1.00  0.00     0.000 C 
BRANCH   6   7
ATOM      7  C   UNL     1      -6.297 -15.531   2.310  1.00  0.00     0.000 C 
BRANCH   7   8
ATOM      8  C   UNL     1      -5.577 -16.616   1.496  1.00  0.00     0.000 C 
BRANCH   8   9
ATOM      9  C   UNL     1      -6.569 -17.663   0.972  1.00  0.00     0.000 C 
BRANCH   9  10
ATOM     10  C   UNL     1      -5.835 -18.814   0.273  1.00  0.00     0.006 C 
BRANCH  10  11
ATOM     11  C   UNL     1      -6.824 -19.823  -0.317  1.00  0.00     0.053 C 
BRANCH  11  12
ATOM     12  C   UNL     1      -6.375 -20.257  -1.679  1.00  0.00     0.041 C 
ATOM     13  O   UNL     1      -5.255 -19.893  -2.122  1.00  0.00    -0.550 OA
ATOM     14  O   UNL     1      -7.162 -21.125  -2.425  1.00  0.00    -0.550 OA
ENDBRANCH  11  12
ENDBRANCH  10  11
ENDBRANCH   9  10
ENDBRANCH   8   9
ENDBRANCH   7   8
ENDBRANCH   6   7
ENDBRANCH   5   6
ENDBRANCH   4   5
ENDBRANCH   3   4
ENDBRANCH   2   3
ENDBRANCH   1   2
BRANCH   1  15
ATOM     15  C   UNL     1      -6.307 -10.414   2.125  1.00  0.00     0.000 C 
BRANCH  15  16
ATOM     16  C   UNL     1      -5.591  -9.341   2.968  1.00  0.00     0.000 C 
BRANCH  16  17
ATOM     17  C   UNL     1      -5.277  -8.032   2.224  1.00  0.00     0.000 C 
BRANCH  17  18
ATOM     18  C   UNL     1      -5.585  -6.743   3.012  1.00  0.00    -0.000 C 
BRANCH  18  19
ATOM     19  C   UNL     1      -6.290  -5.649   2.180  1.00  0.00    -0.000 C 
BRANCH  19  20
ATOM     20  C   UNL     1      -7.829  -5.747   2.160  1.00  0.00    -0.000 C 
BRANCH  20  21
ATOM     21  C   UNL     1      -8.442  -6.783   3.124  1.00  0.00    -0.000 C 
BRANCH  21  22
ATOM     22  C   UNL     1      -9.687  -7.504   2.567  1.00  0.00    -0.000 C 
BRANCH  22  23
ATOM     23  C   UNL     1      -9.387  -8.253   1.257  1.00  0.00    -0.000 C 
BRANCH  23  24
ATOM     24  C   UNL     1      -9.854  -7.485   0.007  1.00  0.00    -0.000 C 
BRANCH  24  25
ATOM     25  C   UNL     1     -11.283  -6.920   0.098  1.00  0.00    -0.003 C 
ATOM     26  C   UNL     1     -11.334  -5.399  -0.043  1.00  0.00     0.004 C 
ENDBRANCH  24  25
ENDBRANCH  23  24
ENDBRANCH  22  23
ENDBRANCH  21  22
ENDBRANCH  20  21
ENDBRANCH  19  20
ENDBRANCH  18  19
ENDBRANCH  17  18
ENDBRANCH  16  17
ENDBRANCH  15  16
ENDBRANCH   1  15
TORSDOF 22
ENDMDL
MODEL 3
REMARK VINA RESULT:    -3.714      4.084     11.198
REMARK INTER + INTRA:         -10.486
REMARK INTER:                  -8.723
REMARK INTRA:                  -1.763
REMARK UNBOUND:                -1.996
REMARK SMILES CCCCCCCCCCCCCCCCCCCCCCCC(=O)[O-]
REMARK SMILES IDX 13 1 14 2 15 3 16 4 17 5 18 6 19 7 20 8 21 9 22 10 23 11
REMARK SMILES IDX 24 12 25 13 26 14 12 15 11 16 10 17 9 18 8 19 7 20 6 21 5 22
REMARK SMILES IDX 4 23 3 24 2 25 1 26
REMARK H PARENT
REMARK Flexibility Score: inf
ROOT
ATOM      1  C   UNL     1      -7.888  -7.289   0.137  1.00  0.00     0.000 C 
ENDROOT
BRANCH   1   2
ATOM      2  C   UNL     1      -7.269  -8.471  -0.630  1.00  0.00     0.000 C 
BRANCH   2   3
ATOM      3  C   UNL     1      -6.941  -9.661   0.288  1.00  0.00     0.000 C 
BRANCH   3   4
ATOM      4  C   UNL     1      -6.385 -10.867  -0.489  1.00  0.00     0.000 C 
BRANCH   4   5
ATOM      5  C   UNL     1      -5.388 -11.693   0.340  1.00  0.00     0.000 C 
BRANCH   5   6
ATOM      6  C   UNL     1      -5.700 -13.198   0.299  1.00  0.00     0.000 C 
BRANCH   6   7
ATOM      7  C   UNL     1      -6.362 -13.704   1.591  1.00  0.00     0.000 C 
BRANCH   7   8
ATOM      8  C   UNL     1      -6.116 -15.200   1.840  1.00  0.00     0.000 C 
BRANCH   8   9
ATOM      9  C   UNL     1      -6.891 -16.061   0.835  1.00  0.00     0.000 C 
BRANCH   9  10
ATOM     10  C   UNL     1      -6.266 -17.457   0.711  1.00  0.00     0.006 C 
BRANCH  10  11
ATOM     11  C   UNL     1      -6.310 -18.203   2.048  1.00  0.00     0.053 C 
BRANCH  11  12
ATOM     12  C   UNL     1      -6.683 -19.638   1.832  1.00  0.00     0.041 C 
ATOM     13  O   UNL     1      -7.055 -20.031   0.695  1.00  0.00    -0.550 OA
ATOM     14  O   UNL     1      -6.545 -20.554   2.866  1.00  0.00    -0.550 OA
ENDBRANCH  11  12
ENDBRANCH  10  11
ENDBRANCH   9  10
ENDBRANCH   8   9
ENDBRANCH   7   8
ENDBRANCH   6   7
ENDBRANCH   5   6
ENDBRANCH   4   5
ENDBRANCH   3   4
ENDBRANCH   2   3
ENDBRANCH   1   2
BRANCH   1  15
ATOM     15  C   UNL     1      -6.836  -6.490   0.938  1.00  0.00     0.000 C 
BRANCH  15  16
ATOM     16  C   UNL     1      -5.598  -6.090   0.112  1.00  0.00     0.000 C 
BRANCH  16  17
ATOM     17  C   UNL     1      -5.484  -4.590  -0.205  1.00  0.00     0.000 C 
BRANCH  17  18
ATOM     18  C   UNL     1      -4.903  -3.724   0.931  1.00  0.00    -0.000 C 
BRANCH  18  19
ATOM     19  C   UNL     1      -5.843  -2.592   1.404  1.00  0.00    -0.000 C 
BRANCH  19  20
ATOM     20  C   UNL     1      -6.504  -2.836   2.775  1.00  0.00    -0.000 C 
BRANCH  20  21
ATOM     21  C   UNL     1      -8.042  -2.946   2.762  1.00  0.00    -0.000 C 
BRANCH  21  22
ATOM     22  C   UNL     1      -8.574  -4.378   2.983  1.00  0.00    -0.000 C 
BRANCH  22  23
ATOM     23  C   UNL     1      -9.970  -4.580   2.368  1.00  0.00    -0.000 C 
BRANCH  23  24
ATOM     24  C   UNL     1     -10.506  -6.010   2.557  1.00  0.00    -0.000 C 
BRANCH  24  25
ATOM     25  C   UNL     1     -11.202  -6.604   1.319  1.00  0.00    -0.003 C 
ATOM     26  C   UNL     1     -11.209  -5.652   0.123  1.00  0.00     0.004 C 
ENDBRANCH  24  25
ENDBRANCH  23  24
ENDBRANCH  22  23
ENDBRANCH  21  22
ENDBRANCH  20  21
ENDBRANCH  19  20
ENDBRANCH  18  19
ENDBRANCH  17  18
ENDBRANCH  16  17
ENDBRANCH  15  16
ENDBRANCH   1  15
TORSDOF 22
ENDMDL
MODEL 4
REMARK VINA RESULT:    -3.647     19.928     22.773
REMARK INTER + INTRA:         -10.333
REMARK INTER:                  -6.493
REMARK INTRA:                  -3.840
REMARK UNBOUND:                -1.996
REMARK SMILES CCCCCCCCCCCCCCCCCCCCCCCC(=O)[O-]
REMARK SMILES IDX 13 1 14 2 15 3 16 4 17 5 18 6 19 7 20 8 21 9 22 10 23 11
REMARK SMILES IDX 24 12 25 13 26 14 12 15 11 16 10 17 9 18 8 19 7 20 6 21 5 22
REMARK SMILES IDX 4 23 3 24 2 25 1 26
REMARK H PARENT
REMARK Flexibility Score: inf
ROOT
ATOM      1  C   UNL     1     -19.497  -6.001 -15.169  1.00  0.00     0.000 C 
ENDROOT
BRANCH   1   2
ATOM      2  C   UNL     1     -19.957  -4.807 -14.315  1.00  0.00     0.000 C 
BRANCH   2   3
ATOM      3  C   UNL     1     -19.355  -3.474 -14.793  1.00  0.00     0.000 C 
BRANCH   3   4
ATOM      4  C   UNL     1     -20.257  -2.751 -15.808  1.00  0.00     0.000 C 
BRANCH   4   5
ATOM      5  C   UNL     1     -21.031  -1.581 -15.179  1.00  0.00     0.000 C 
BRANCH   5   6
ATOM      6  C   UNL     1     -22.462  -1.463 -15.730  1.00  0.00     0.000 C 
BRANCH   6   7
ATOM      7  C   UNL     1     -22.860  -2.655 -16.616  1.00  0.00     0.000 C 
BRANCH   7   8
ATOM      8  C   UNL     1     -24.342  -3.031 -16.478  1.00  0.00     0.000 C 
BRANCH   8   9
ATOM      9  C   UNL     1     -24.831  -2.831 -15.038  1.00  0.00     0.000 C 
BRANCH   9  10
ATOM     10  C   UNL     1     -24.779  -4.148 -14.253  1.00  0.00     0.006 C 
BRANCH  10  11
ATOM     11  C   UNL     1     -23.506  -4.238 -13.406  1.00  0.00     0.053 C 
BRANCH  11  12
ATOM     12  C   UNL     1     -23.575  -3.281 -12.257  1.00  0.00     0.041 C 
ATOM     13  O   UNL     1     -22.692  -2.395 -12.117  1.00  0.00    -0.550 OA
ATOM     14  O   UNL     1     -24.656  -3.319 -11.385  1.00  0.00    -0.550 OA
ENDBRANCH  11  12
ENDBRANCH  10  11
ENDBRANCH   9  10
ENDBRANCH   8   9
ENDBRANCH   7   8
ENDBRANCH   6   7
ENDBRANCH   5   6
ENDBRANCH   4   5
ENDBRANCH   3   4
ENDBRANCH   2   3
ENDBRANCH   1   2
BRANCH   1  15
ATOM     15  C   UNL     1     -20.496  -6.340 -16.296  1.00  0.00     0.000 C 
BRANCH  15  16
ATOM     16  C   UNL     1     -21.973  -6.259 -15.863  1.00  0.00     0.000 C 
BRANCH  16  17
ATOM     17  C   UNL     1     -22.995  -6.430 -16.999  1.00  0.00     0.000 C 
BRANCH  17  18
ATOM     18  C   UNL     1     -24.425  -6.786 -16.545  1.00  0.00    -0.000 C 
BRANCH  18  19
ATOM     19  C   UNL     1     -24.865  -8.220 -16.914  1.00  0.00    -0.000 C 
BRANCH  19  20
ATOM     20  C   UNL     1     -23.707  -9.223 -17.093  1.00  0.00    -0.000 C 
BRANCH  20  21
ATOM     21  C   UNL     1     -23.881 -10.574 -16.371  1.00  0.00    -0.000 C 
BRANCH  21  22
ATOM     22  C   UNL     1     -22.755 -10.905 -15.369  1.00  0.00    -0.000 C 
BRANCH  22  23
ATOM     23  C   UNL     1     -21.918  -9.666 -15.008  1.00  0.00    -0.000 C 
BRANCH  23  24
ATOM     24  C   UNL     1     -20.899  -9.937 -13.886  1.00  0.00    -0.000 C 
BRANCH  24  25
ATOM     25  C   UNL     1     -20.099  -8.704 -13.433  1.00  0.00    -0.003 C 
ATOM     26  C   UNL     1     -20.750  -7.965 -12.264  1.00  0.00     0.004 C 
ENDBRANCH  24  25
ENDBRANCH  23  24
ENDBRANCH  22  23
ENDBRANCH  21  22
ENDBRANCH  20  21
ENDBRANCH  19  20
ENDBRANCH  18  19
ENDBRANCH  17  18
ENDBRANCH  16  17
ENDBRANCH  15  16
ENDBRANCH   1  15
TORSDOF 22
ENDMDL
MODEL 5
REMARK VINA RESULT:    -3.539      3.517     10.591
REMARK INTER + INTRA:         -10.087
REMARK INTER:                  -8.377
REMARK INTRA:                  -1.710
REMARK UNBOUND:                -1.996
REMARK SMILES CCCCCCCCCCCCCCCCCCCCCCCC(=O)[O-]
REMARK SMILES IDX 13 1 14 2 15 3 16 4 17 5 18 6 19 7 20 8 21 9 22 10 23 11
REMARK SMILES IDX 24 12 25 13 26 14 12 15 11 16 10 17 9 18 8 19 7 20 6 21 5 22
REMARK SMILES IDX 4 23 3 24 2 25 1 26
REMARK H PARENT
REMARK Flexibility Score: inf
ROOT
ATOM      1  C   UNL     1     -10.857  -6.057   0.826  1.00  0.00     0.000 C 
ENDROOT
BRANCH   1   2
ATOM      2  C   UNL     1     -10.299  -7.294   0.099  1.00  0.00     0.000 C 
BRANCH   2   3
ATOM      3  C   UNL     1      -8.803  -7.517   0.379  1.00  0.00     0.000 C 
BRANCH   3   4
ATOM      4  C   UNL     1      -8.551  -8.722   1.302  1.00  0.00     0.000 C 
BRANCH   4   5
ATOM      5  C   UNL     1      -7.229  -8.605   2.076  1.00  0.00     0.000 C 
BRANCH   5   6
ATOM      6  C   UNL     1      -6.200  -9.663   1.643  1.00  0.00     0.000 C 
BRANCH   6   7
ATOM      7  C   UNL     1      -5.900  -9.619   0.136  1.00  0.00     0.000 C 
BRANCH   7   8
ATOM      8  C   UNL     1      -6.203 -10.948  -0.571  1.00  0.00     0.000 C 
BRANCH   8   9
ATOM      9  C   UNL     1      -5.036 -11.932  -0.420  1.00  0.00     0.000 C 
BRANCH   9  10
ATOM     10  C   UNL     1      -5.304 -12.932   0.712  1.00  0.00     0.006 C 
BRANCH  10  11
ATOM     11  C   UNL     1      -6.248 -14.048   0.253  1.00  0.00     0.053 C 
BRANCH  11  12
ATOM     12  C   UNL     1      -6.776 -14.803   1.433  1.00  0.00     0.041 C 
ATOM     13  O   UNL     1      -7.076 -14.193   2.492  1.00  0.00    -0.550 OA
ATOM     14  O   UNL     1      -7.007 -16.169   1.336  1.00  0.00    -0.550 OA
ENDBRANCH  11  12
ENDBRANCH  10  11
ENDBRANCH   9  10
ENDBRANCH   8   9
ENDBRANCH   7   8
ENDBRANCH   6   7
ENDBRANCH   5   6
ENDBRANCH   4   5
ENDBRANCH   3   4
ENDBRANCH   2   3
ENDBRANCH   1   2
BRANCH   1  15
ATOM     15  C   UNL     1     -10.857  -6.227   2.361  1.00  0.00     0.000 C 
BRANCH  15  16
ATOM     16  C   UNL     1      -9.641  -5.586   3.058  1.00  0.00     0.000 C 
BRANCH  16  17
ATOM     17  C   UNL     1      -9.284  -4.171   2.572  1.00  0.00     0.000 C 
BRANCH  17  18
ATOM     18  C   UNL     1     -10.180  -3.044   3.124  1.00  0.00    -0.000 C 
BRANCH  18  19
ATOM     19  C   UNL     1     -10.092  -1.722   2.329  1.00  0.00    -0.000 C 
BRANCH  19  20
ATOM     20  C   UNL     1      -8.799  -0.914   2.565  1.00  0.00    -0.000 C 
BRANCH  20  21
ATOM     21  C   UNL     1      -7.513  -1.749   2.726  1.00  0.00    -0.000 C 
BRANCH  21  22
ATOM     22  C   UNL     1      -6.399  -1.392   1.721  1.00  0.00    -0.000 C 
BRANCH  22  23
ATOM     23  C   UNL     1      -5.491  -2.595   1.409  1.00  0.00    -0.000 C 
BRANCH  23  24
ATOM     24  C   UNL     1      -5.853  -3.847   2.229  1.00  0.00    -0.000 C 
BRANCH  24  25
ATOM     25  C   UNL     1      -6.267  -5.067   1.389  1.00  0.00    -0.003 C 
ATOM     26  C   UNL     1      -5.451  -5.215   0.105  1.00  0.00     0.004 C 
ENDBRANCH  24  25
ENDBRANCH  23  24
ENDBRANCH  22  23
ENDBRANCH  21  22
ENDBRANCH  20  21
ENDBRANCH  19  20
ENDBRANCH  18  19
ENDBRANCH  17  18
ENDBRANCH  16  17
ENDBRANCH  15  16
ENDBRANCH   1  15
TORSDOF 22
ENDMDL
MODEL 6
REMARK VINA RESULT:    -3.522      3.680     10.556
REMARK INTER + INTRA:         -10.047
REMARK INTER:                  -8.898
REMARK INTRA:                  -1.149
REMARK UNBOUND:                -1.996
REMARK SMILES CCCCCCCCCCCCCCCCCCCCCCCC(=O)[O-]
REMARK SMILES IDX 13 1 14 2 15 3 16 4 17 5 18 6 19 7 20 8 21 9 22 10 23 11
REMARK SMILES IDX 24 12 25 13 26 14 12 15 11 16 10 17 9 18 8 19 7 20 6 21 5 22
REMARK SMILES IDX 4 23 3 24 2 25 1 26
REMARK H PARENT
REMARK Flexibility Score: inf
ROOT
ATOM      1  C   UNL     1     -10.773  -6.581   0.320  1.00  0.00     0.000 C 
ENDROOT
BRANCH   1   2
ATOM      2  C   UNL     1      -9.992  -7.892   0.125  1.00  0.00     0.000 C 
BRANCH   2   3
ATOM      3  C   UNL     1      -8.474  -7.704   0.288  1.00  0.00     0.000 C 
BRANCH   3   4
ATOM      4  C   UNL     1      -7.836  -8.797   1.161  1.00  0.00     0.000 C 
BRANCH   4   5
ATOM      5  C   UNL     1      -6.300  -8.745   1.141  1.00  0.00     0.000 C 
BRANCH   5   6
ATOM      6  C   UNL     1      -5.685  -9.918   0.358  1.00  0.00     0.000 C 
BRANCH   6   7
ATOM      7  C   UNL     1      -6.713 -11.005   0.007  1.00  0.00     0.000 C 
BRANCH   7   8
ATOM      8  C   UNL     1      -6.167 -12.427   0.198  1.00  0.00     0.000 C 
BRANCH   8   9
ATOM      9  C   UNL     1      -6.144 -12.815   1.682  1.00  0.00     0.000 C 
BRANCH   9  10
ATOM     10  C   UNL     1      -6.839 -14.164   1.908  1.00  0.00     0.006 C 
BRANCH  10  11
ATOM     11  C   UNL     1      -6.650 -15.092   0.704  1.00  0.00     0.053 C 
BRANCH  11  12
ATOM     12  C   UNL     1      -5.996 -16.370   1.129  1.00  0.00     0.041 C 
ATOM     13  O   UNL     1      -5.141 -16.921   0.387  1.00  0.00    -0.550 OA
ATOM     14  O   UNL     1      -6.276 -16.912   2.377  1.00  0.00    -0.550 OA
ENDBRANCH  11  12
ENDBRANCH  10  11
ENDBRANCH   9  10
ENDBRANCH   8   9
ENDBRANCH   7   8
ENDBRANCH   6   7
ENDBRANCH   5   6
ENDBRANCH   4   5
ENDBRANCH   3   4
ENDBRANCH   2   3
ENDBRANCH   1   2
BRANCH   1  15
ATOM     15  C   UNL     1     -11.399  -6.472   1.728  1.00  0.00     0.000 C 
BRANCH  15  16
ATOM     16  C   UNL     1     -10.385  -6.123   2.834  1.00  0.00     0.000 C 
BRANCH  16  17
ATOM     17  C   UNL     1      -9.399  -4.996   2.482  1.00  0.00     0.000 C 
BRANCH  17  18
ATOM     18  C   UNL     1      -9.711  -3.630   3.125  1.00  0.00    -0.000 C 
BRANCH  18  19
ATOM     19  C   UNL     1      -8.750  -2.498   2.698  1.00  0.00    -0.000 C 
BRANCH  19  20
ATOM     20  C   UNL     1      -7.259  -2.786   2.965  1.00  0.00    -0.000 C 
BRANCH  20  21
ATOM     21  C   UNL     1      -6.748  -4.157   2.479  1.00  0.00    -0.000 C 
BRANCH  21  22
ATOM     22  C   UNL     1      -5.255  -4.173   2.090  1.00  0.00    -0.000 C 
BRANCH  22  23
ATOM     23  C   UNL     1      -4.990  -5.027   0.838  1.00  0.00    -0.000 C 
BRANCH  23  24
ATOM     24  C   UNL     1      -5.275  -4.272  -0.473  1.00  0.00    -0.000 C 
BRANCH  24  25
ATOM     25  C   UNL     1      -5.066  -2.749  -0.395  1.00  0.00    -0.003 C 
ATOM     26  C   UNL     1      -5.117  -2.068  -1.763  1.00  0.00     0.004 C 
ENDBRANCH  24  25
ENDBRANCH  23  24
ENDBRANCH  22  23
ENDBRANCH  21  22
ENDBRANCH  20  21
ENDBRANCH  19  20
ENDBRANCH  18  19
ENDBRANCH  17  18
ENDBRANCH  16  17
ENDBRANCH  15  16
ENDBRANCH   1  15
TORSDOF 22
ENDMDL
MODEL 7
REMARK VINA RESULT:    -3.363      2.078      3.534
REMARK INTER + INTRA:          -9.684
REMARK INTER:                  -8.279
REMARK INTRA:                  -1.404
REMARK UNBOUND:                -1.996
REMARK SMILES CCCCCCCCCCCCCCCCCCCCCCCC(=O)[O-]
REMARK SMILES IDX 13 1 14 2 15 3 16 4 17 5 18 6 19 7 20 8 21 9 22 10 23 11
REMARK SMILES IDX 24 12 25 13 26 14 12 15 11 16 10 17 9 18 8 19 7 20 6 21 5 22
REMARK SMILES IDX 4 23 3 24 2 25 1 26
REMARK H PARENT
REMARK Flexibility Score: inf
ROOT
ATOM      1  C   UNL     1      -8.661  -9.102  -0.084  1.00  0.00     0.000 C 
ENDROOT
BRANCH   1   2
ATOM      2  C   UNL     1      -8.594  -7.587   0.178  1.00  0.00     0.000 C 
BRANCH   2   3
ATOM      3  C   UNL     1      -9.931  -7.016   0.681  1.00  0.00     0.000 C 
BRANCH   3   4
ATOM      4  C   UNL     1     -10.102  -7.173   2.202  1.00  0.00     0.000 C 
BRANCH   4   5
ATOM      5  C   UNL     1     -10.871  -6.002   2.832  1.00  0.00     0.000 C 
BRANCH   5   6
ATOM      6  C   UNL     1     -10.334  -4.635   2.375  1.00  0.00     0.000 C 
BRANCH   6   7
ATOM      7  C   UNL     1      -9.059  -4.215   3.124  1.00  0.00     0.000 C 
BRANCH   7   8
ATOM      8  C   UNL     1      -7.851  -4.038   2.193  1.00  0.00     0.000 C 
BRANCH   8   9
ATOM      9  C   UNL     1      -6.548  -3.923   2.995  1.00  0.00     0.000 C 
BRANCH   9  10
ATOM     10  C   UNL     1      -5.397  -4.637   2.276  1.00  0.00     0.006 C 
BRANCH  10  11
ATOM     11  C   UNL     1      -5.162  -4.046   0.883  1.00  0.00     0.053 C 
BRANCH  11  12
ATOM     12  C   UNL     1      -5.327  -5.101  -0.166  1.00  0.00     0.041 C 
ATOM     13  O   UNL     1      -5.137  -4.824  -1.378  1.00  0.00    -0.550 OA
ATOM     14  O   UNL     1      -5.617  -6.409   0.204  1.00  0.00    -0.550 OA
ENDBRANCH  11  12
ENDBRANCH  10  11
ENDBRANCH   9  10
ENDBRANCH   8   9
ENDBRANCH   7   8
ENDBRANCH   6   7
ENDBRANCH   5   6
ENDBRANCH   4   5
ENDBRANCH   3   4
ENDBRANCH   2   3
ENDBRANCH   1   2
BRANCH   1  15
ATOM     15  C   UNL     1      -7.295  -9.795   0.109  1.00  0.00     0.000 C 
BRANCH  15  16
ATOM     16  C   UNL     1      -7.089 -10.383   1.519  1.00  0.00     0.000 C 
BRANCH  16  17
ATOM     17  C   UNL     1      -5.629 -10.698   1.886  1.00  0.00     0.000 C 
BRANCH  17  18
ATOM     18  C   UNL     1      -5.216 -12.174   1.717  1.00  0.00    -0.000 C 
BRANCH  18  19
ATOM     19  C   UNL     1      -6.393 -13.127   1.410  1.00  0.00    -0.000 C 
BRANCH  19  20
ATOM     20  C   UNL     1      -6.124 -14.138   0.278  1.00  0.00    -0.000 C 
BRANCH  20  21
ATOM     21  C   UNL     1      -5.313 -15.386   0.680  1.00  0.00    -0.000 C 
BRANCH  21  22
ATOM     22  C   UNL     1      -6.175 -16.574   1.155  1.00  0.00    -0.000 C 
BRANCH  22  23
ATOM     23  C   UNL     1      -5.948 -17.834   0.302  1.00  0.00    -0.000 C 
BRANCH  23  24
ATOM     24  C   UNL     1      -6.710 -19.062   0.832  1.00  0.00    -0.000 C 
BRANCH  24  25
ATOM     25  C   UNL     1      -7.367 -19.929  -0.255  1.00  0.00    -0.003 C 
ATOM     26  C   UNL     1      -6.387 -20.373  -1.341  1.00  0.00     0.004 C 
ENDBRANCH  24  25
ENDBRANCH  23  24
ENDBRANCH  22  23
ENDBRANCH  21  22
ENDBRANCH  20  21
ENDBRANCH  19  20
ENDBRANCH  18  19
ENDBRANCH  17  18
ENDBRANCH  16  17
ENDBRANCH  15  16
ENDBRANCH   1  15
TORSDOF 22
ENDMDL
MODEL 8
REMARK VINA RESULT:    -3.327     19.903     23.936
REMARK INTER + INTRA:          -9.601
REMARK INTER:                  -5.828
REMARK INTRA:                  -3.772
REMARK UNBOUND:                -1.996
REMARK SMILES CCCCCCCCCCCCCCCCCCCCCCCC(=O)[O-]
REMARK SMILES IDX 13 1 14 2 15 3 16 4 17 5 18 6 19 7 20 8 21 9 22 10 23 11
REMARK SMILES IDX 24 12 25 13 26 14 12 15 11 16 10 17 9 18 8 19 7 20 6 21 5 22
REMARK SMILES IDX 4 23 3 24 2 25 1 26
REMARK H PARENT
REMARK Flexibility Score: inf
ROOT
ATOM      1  C   UNL     1     -20.452  -5.442 -13.102  1.00  0.00     0.000 C 
ENDROOT
BRANCH   1   2
ATOM      2  C   UNL     1     -21.430  -5.981 -14.160  1.00  0.00     0.000 C 
BRANCH   2   3
ATOM      3  C   UNL     1     -20.859  -5.899 -15.586  1.00  0.00     0.000 C 
BRANCH   3   4
ATOM      4  C   UNL     1     -21.894  -6.283 -16.657  1.00  0.00     0.000 C 
BRANCH   4   5
ATOM      5  C   UNL     1     -23.227  -6.745 -16.049  1.00  0.00     0.000 C 
BRANCH   5   6
ATOM      6  C   UNL     1     -24.110  -7.486 -17.068  1.00  0.00     0.000 C 
BRANCH   6   7
ATOM      7  C   UNL     1     -24.309  -8.969 -16.717  1.00  0.00     0.000 C 
BRANCH   7   8
ATOM      8  C   UNL     1     -22.989  -9.754 -16.679  1.00  0.00     0.000 C 
BRANCH   8   9
ATOM      9  C   UNL     1     -23.039 -10.866 -15.623  1.00  0.00     0.000 C 
BRANCH   9  10
ATOM     10  C   UNL     1     -21.822 -10.794 -14.692  1.00  0.00     0.006 C 
BRANCH  10  11
ATOM     11  C   UNL     1     -21.409  -9.342 -14.433  1.00  0.00     0.053 C 
BRANCH  11  12
ATOM     12  C   UNL     1     -20.292  -9.288 -13.437  1.00  0.00     0.041 C 
ATOM     13  O   UNL     1     -19.111  -9.537 -13.795  1.00  0.00    -0.550 OA
ATOM     14  O   UNL     1     -20.545  -8.889 -12.131  1.00  0.00    -0.550 OA
ENDBRANCH  11  12
ENDBRANCH  10  11
ENDBRANCH   9  10
ENDBRANCH   8   9
ENDBRANCH   7   8
ENDBRANCH   6   7
ENDBRANCH   5   6
ENDBRANCH   4   5
ENDBRANCH   3   4
ENDBRANCH   2   3
ENDBRANCH   1   2
BRANCH   1  15
ATOM     15  C   UNL     1     -20.234  -3.918 -13.223  1.00  0.00     0.000 C 
BRANCH  15  16
ATOM     16  C   UNL     1     -21.080  -3.088 -12.237  1.00  0.00     0.000 C 
BRANCH  16  17
ATOM     17  C   UNL     1     -21.059  -1.570 -12.480  1.00  0.00     0.000 C 
BRANCH  17  18
ATOM     18  C   UNL     1     -22.298  -1.007 -13.205  1.00  0.00    -0.000 C 
BRANCH  18  19
ATOM     19  C   UNL     1     -23.634  -1.636 -12.751  1.00  0.00    -0.000 C 
BRANCH  19  20
ATOM     20  C   UNL     1     -24.518  -2.168 -13.896  1.00  0.00    -0.000 C 
BRANCH  20  21
ATOM     21  C   UNL     1     -23.951  -3.377 -14.667  1.00  0.00    -0.000 C 
BRANCH  21  22
ATOM     22  C   UNL     1     -23.697  -3.108 -16.165  1.00  0.00    -0.000 C 
BRANCH  22  23
ATOM     23  C   UNL     1     -23.479  -1.613 -16.457  1.00  0.00    -0.000 C 
BRANCH  23  24
ATOM     24  C   UNL     1     -22.050  -1.299 -16.936  1.00  0.00    -0.000 C 
BRANCH  24  25
ATOM     25  C   UNL     1     -20.986  -2.321 -16.497  1.00  0.00    -0.003 C 
ATOM     26  C   UNL     1     -19.638  -1.679 -16.171  1.00  0.00     0.004 C 
ENDBRANCH  24  25
ENDBRANCH  23  24
ENDBRANCH  22  23
ENDBRANCH  21  22
ENDBRANCH  20  21
ENDBRANCH  19  20
ENDBRANCH  18  19
ENDBRANCH  17  18
ENDBRANCH  16  17
ENDBRANCH  15  16
ENDBRANCH   1  15
TORSDOF 22
ENDMDL
MODEL 9
REMARK VINA RESULT:    -3.314     20.227     23.155
REMARK INTER + INTRA:          -9.571
REMARK INTER:                  -6.018
REMARK INTRA:                  -3.554
REMARK UNBOUND:                -1.996
REMARK SMILES CCCCCCCCCCCCCCCCCCCCCCCC(=O)[O-]
REMARK SMILES IDX 13 1 14 2 15 3 16 4 17 5 18 6 19 7 20 8 21 9 22 10 23 11
REMARK SMILES IDX 24 12 25 13 26 14 12 15 11 16 10 17 9 18 8 19 7 20 6 21 5 22
REMARK SMILES IDX 4 23 3 24 2 25 1 26
REMARK H PARENT
REMARK Flexibility Score: inf
ROOT
ATOM      1  C   UNL     1     -20.579  -6.392 -12.574  1.00  0.00     0.000 C 
ENDROOT
BRANCH   1   2
ATOM      2  C   UNL     1     -22.028  -5.887 -12.682  1.00  0.00     0.000 C 
BRANCH   2   3
ATOM      3  C   UNL     1     -22.113  -4.456 -13.240  1.00  0.00     0.000 C 
BRANCH   3   4
ATOM      4  C   UNL     1     -22.444  -3.420 -12.153  1.00  0.00     0.000 C 
BRANCH   4   5
ATOM      5  C   UNL     1     -22.785  -2.040 -12.738  1.00  0.00     0.000 C 
BRANCH   5   6
ATOM      6  C   UNL     1     -24.284  -1.714 -12.634  1.00  0.00     0.000 C 
BRANCH   6   7
ATOM      7  C   UNL     1     -24.954  -1.543 -14.007  1.00  0.00     0.000 C 
BRANCH   7   8
ATOM      8  C   UNL     1     -24.024  -0.901 -15.047  1.00  0.00     0.000 C 
BRANCH   8   9
ATOM      9  C   UNL     1     -23.959  -1.745 -16.326  1.00  0.00     0.000 C 
BRANCH   9  10
ATOM     10  C   UNL     1     -22.525  -1.814 -16.867  1.00  0.00     0.006 C 
BRANCH  10  11
ATOM     11  C   UNL     1     -21.571  -0.975 -16.012  1.00  0.00     0.053 C 
BRANCH  11  12
ATOM     12  C   UNL     1     -20.226  -1.629 -15.938  1.00  0.00     0.041 C 
ATOM     13  O   UNL     1     -19.821  -2.121 -14.852  1.00  0.00    -0.550 OA
ATOM     14  O   UNL     1     -19.454  -1.761 -17.085  1.00  0.00    -0.550 OA
ENDBRANCH  11  12
ENDBRANCH  10  11
ENDBRANCH   9  10
ENDBRANCH   8   9
ENDBRANCH   7   8
ENDBRANCH   6   7
ENDBRANCH   5   6
ENDBRANCH   4   5
ENDBRANCH   3   4
ENDBRANCH   2   3
ENDBRANCH   1   2
BRANCH   1  15
ATOM     15  C   UNL     1     -20.363  -7.728 -13.318  1.00  0.00     0.000 C 
BRANCH  15  16
ATOM     16  C   UNL     1     -20.375  -7.593 -14.853  1.00  0.00     0.000 C 
BRANCH  16  17
ATOM     17  C   UNL     1     -19.515  -6.448 -15.413  1.00  0.00     0.000 C 
BRANCH  17  18
ATOM     18  C   UNL     1     -20.300  -5.330 -16.128  1.00  0.00    -0.000 C 
BRANCH  18  19
ATOM     19  C   UNL     1     -21.362  -5.845 -17.125  1.00  0.00    -0.000 C 
BRANCH  19  20
ATOM     20  C   UNL     1     -22.799  -5.366 -16.838  1.00  0.00    -0.000 C 
BRANCH  20  21
ATOM     21  C   UNL     1     -23.654  -6.309 -15.968  1.00  0.00    -0.000 C 
BRANCH  21  22
ATOM     22  C   UNL     1     -24.877  -6.905 -16.697  1.00  0.00    -0.000 C 
BRANCH  22  23
ATOM     23  C   UNL     1     -24.774  -8.433 -16.849  1.00  0.00    -0.000 C 
BRANCH  23  24
ATOM     24  C   UNL     1     -23.341  -8.959 -16.657  1.00  0.00    -0.000 C 
BRANCH  24  25
ATOM     25  C   UNL     1     -23.248 -10.333 -15.970  1.00  0.00    -0.003 C 
ATOM     26  C   UNL     1     -24.589 -11.062 -15.907  1.00  0.00     0.004 C 
ENDBRANCH  24  25
ENDBRANCH  23  24
ENDBRANCH  22  23
ENDBRANCH  21  22
ENDBRANCH  20  21
ENDBRANCH  19  20
ENDBRANCH  18  19
ENDBRANCH  17  18
ENDBRANCH  16  17
ENDBRANCH  15  16
ENDBRANCH   1  15
TORSDOF 22
ENDMDL
