MODEL 1
REMARK VINA RESULT:    -3.519      0.000      0.000
REMARK INTER + INTRA:          -7.670
REMARK INTER:                  -6.400
REMARK INTRA:                  -1.270
REMARK UNBOUND:                -1.270
REMARK SMILES CCCCCCCCCCCCCCCC(=O)[O-]
REMARK SMILES IDX 9 1 10 2 11 3 12 4 13 5 14 6 15 7 16 8 17 9 18 10 8 11 7 12
REMARK SMILES IDX 6 13 5 14 4 15 3 16 2 17 1 18
REMARK H PARENT
REMARK Flexibility Score: inf
ROOT
ATOM      1  C   UNL     1      26.938  20.679  58.745  1.00  0.00     0.000 C 
ENDROOT
BRANCH   1   2
ATOM      2  C   UNL     1      26.989  21.600  57.519  1.00  0.00     0.000 C 
BRANCH   2   3
ATOM      3  C   UNL     1      26.945  20.785  56.218  1.00  0.00     0.000 C 
BRANCH   3   4
ATOM      4  C   UNL     1      26.178  21.497  55.088  1.00  0.00     0.000 C 
BRANCH   4   5
ATOM      5  C   UNL     1      24.660  21.242  55.070  1.00  0.00     0.000 C 
BRANCH   5   6
ATOM      6  C   UNL     1      24.291  19.857  54.510  1.00  0.00     0.006 C 
BRANCH   6   7
ATOM      7  C   UNL     1      23.130  19.212  55.279  1.00  0.00     0.053 C 
BRANCH   7   8
ATOM      8  C   UNL     1      23.568  18.680  56.609  1.00  0.00     0.041 C 
ATOM      9  O   UNL     1      24.427  17.762  56.671  1.00  0.00    -0.550 OA
ATOM     10  O   UNL     1      23.009  19.178  57.778  1.00  0.00    -0.550 OA
ENDBRANCH   7   8
ENDBRANCH   6   7
ENDBRANCH   5   6
ENDBRANCH   4   5
ENDBRANCH   3   4
ENDBRANCH   2   3
ENDBRANCH   1   2
BRANCH   1  11
ATOM     11  C   UNL     1      26.592  21.469  60.013  1.00  0.00     0.000 C 
BRANCH  11  12
ATOM     12  C   UNL     1      25.198  22.102  59.904  1.00  0.00    -0.000 C 
BRANCH  12  13
ATOM     13  C   UNL     1      24.128  21.333  60.698  1.00  0.00    -0.000 C 
BRANCH  13  14
ATOM     14  C   UNL     1      23.657  22.023  61.994  1.00  0.00    -0.000 C 
BRANCH  14  15
ATOM     15  C   UNL     1      24.168  21.385  63.300  1.00  0.00    -0.000 C 
BRANCH  15  16
ATOM     16  C   UNL     1      25.655  21.638  63.609  1.00  0.00    -0.000 C 
BRANCH  16  17
ATOM     17  C   UNL     1      26.512  20.371  63.488  1.00  0.00    -0.003 C 
ATOM     18  C   UNL     1      25.787  19.158  64.064  1.00  0.00     0.004 C 
ENDBRANCH  16  17
ENDBRANCH  15  16
ENDBRANCH  14  15
ENDBRANCH  13  14
ENDBRANCH  12  13
ENDBRANCH  11  12
ENDBRANCH   1  11
TORSDOF 14
ENDMDL
MODEL 2
REMARK VINA RESULT:    -3.516      2.504      6.687
REMARK INTER + INTRA:          -7.664
REMARK INTER:                  -6.016
REMARK INTRA:                  -1.648
REMARK UNBOUND:                -1.270
REMARK SMILES CCCCCCCCCCCCCCCC(=O)[O-]
REMARK SMILES IDX 9 1 10 2 11 3 12 4 13 5 14 6 15 7 16 8 17 9 18 10 8 11 7 12
REMARK SMILES IDX 6 13 5 14 4 15 3 16 2 17 1 18
REMARK H PARENT
REMARK Flexibility Score: inf
ROOT
ATOM      1  C   UNL     1      26.591  19.904  56.719  1.00  0.00     0.000 C 
ENDROOT
BRANCH   1   2
ATOM      2  C   UNL     1      26.644  20.475  58.142  1.00  0.00     0.000 C 
BRANCH   2   3
ATOM      3  C   UNL     1      25.254  20.940  58.600  1.00  0.00     0.000 C 
BRANCH   3   4
ATOM      4  C   UNL     1      25.308  22.125  59.582  1.00  0.00     0.000 C 
BRANCH   4   5
ATOM      5  C   UNL     1      25.258  21.740  61.072  1.00  0.00     0.000 C 
BRANCH   5   6
ATOM      6  C   UNL     1      26.654  21.562  61.693  1.00  0.00     0.006 C 
BRANCH   6   7
ATOM      7  C   UNL     1      26.597  21.438  63.221  1.00  0.00     0.053 C 
BRANCH   7   8
ATOM      8  C   UNL     1      25.490  20.533  63.667  1.00  0.00     0.041 C 
ATOM      9  O   UNL     1      24.419  21.019  64.118  1.00  0.00    -0.550 OA
ATOM     10  O   UNL     1      25.650  19.155  63.612  1.00  0.00    -0.550 OA
ENDBRANCH   7   8
ENDBRANCH   6   7
ENDBRANCH   5   6
ENDBRANCH   4   5
ENDBRANCH   3   4
ENDBRANCH   2   3
ENDBRANCH   1   2
BRANCH   1  11
ATOM     11  C   UNL     1      27.316  20.824  55.729  1.00  0.00     0.000 C 
BRANCH  11  12
ATOM     12  C   UNL     1      26.463  22.055  55.395  1.00  0.00    -0.000 C 
BRANCH  12  13
ATOM     13  C   UNL     1      25.260  21.723  54.494  1.00  0.00    -0.000 C 
BRANCH  13  14
ATOM     14  C   UNL     1      23.883  21.839  55.178  1.00  0.00    -0.000 C 
BRANCH  14  15
ATOM     15  C   UNL     1      23.050  20.542  55.201  1.00  0.00    -0.000 C 
BRANCH  15  16
ATOM     16  C   UNL     1      23.701  19.340  54.495  1.00  0.00    -0.000 C 
BRANCH  16  17
ATOM     17  C   UNL     1      23.691  18.068  55.353  1.00  0.00    -0.003 C 
ATOM     18  C   UNL     1      23.188  18.360  56.764  1.00  0.00     0.004 C 
ENDBRANCH  16  17
ENDBRANCH  15  16
ENDBRANCH  14  15
ENDBRANCH  13  14
ENDBRANCH  12  13
ENDBRANCH  11  12
ENDBRANCH   1  11
TORSDOF 14
ENDMDL
MODEL 3
REMARK VINA RESULT:    -3.484      1.922      3.017
REMARK INTER + INTRA:          -7.606
REMARK INTER:                  -5.996
REMARK INTRA:                  -1.611
REMARK UNBOUND:                -1.270
REMARK SMILES CCCCCCCCCCCCCCCC(=O)[O-]
REMARK SMILES IDX 9 1 10 2 11 3 12 4 13 5 14 6 15 7 16 8 17 9 18 10 8 11 7 12
REMARK SMILES IDX 6 13 5 14 4 15 3 16 2 17 1 18
REMARK H PARENT
REMARK Flexibility Score: inf
ROOT
ATOM      1  C   UNL     1      26.551  20.802  58.954  1.00  0.00     0.000 C 
ENDROOT
BRANCH   1   2
ATOM      2  C   UNL     1      25.804  22.118  58.700  1.00  0.00     0.000 C 
BRANCH   2   3
ATOM      3  C   UNL     1      24.514  21.873  57.904  1.00  0.00     0.000 C 
BRANCH   3   4
ATOM      4  C   UNL     1      23.801  20.566  58.301  1.00  0.00     0.000 C 
BRANCH   4   5
ATOM      5  C   UNL     1      23.463  19.626  57.130  1.00  0.00     0.000 C 
BRANCH   5   6
ATOM      6  C   UNL     1      23.890  20.193  55.764  1.00  0.00     0.006 C 
BRANCH   6   7
ATOM      7  C   UNL     1      25.193  19.561  55.257  1.00  0.00     0.053 C 
BRANCH   7   8
ATOM      8  C   UNL     1      26.322  20.545  55.245  1.00  0.00     0.041 C 
ATOM      9  O   UNL     1      27.500  20.160  55.469  1.00  0.00    -0.550 OA
ATOM     10  O   UNL     1      26.072  21.892  55.014  1.00  0.00    -0.550 OA
ENDBRANCH   7   8
ENDBRANCH   6   7
ENDBRANCH   5   6
ENDBRANCH   4   5
ENDBRANCH   3   4
ENDBRANCH   2   3
ENDBRANCH   1   2
BRANCH   1  11
ATOM     11  C   UNL     1      27.469  20.917  60.176  1.00  0.00     0.000 C 
BRANCH  11  12
ATOM     12  C   UNL     1      27.072  22.112  61.053  1.00  0.00    -0.000 C 
BRANCH  12  13
ATOM     13  C   UNL     1      26.952  21.748  62.543  1.00  0.00    -0.000 C 
BRANCH  13  14
ATOM     14  C   UNL     1      26.542  20.288  62.825  1.00  0.00    -0.000 C 
BRANCH  14  15
ATOM     15  C   UNL     1      25.308  20.117  63.732  1.00  0.00    -0.000 C 
BRANCH  15  16
ATOM     16  C   UNL     1      24.426  21.371  63.873  1.00  0.00    -0.000 C 
BRANCH  16  17
ATOM     17  C   UNL     1      23.200  21.342  62.950  1.00  0.00    -0.003 C 
ATOM     18  C   UNL     1      23.530  21.922  61.578  1.00  0.00     0.004 C 
ENDBRANCH  16  17
ENDBRANCH  15  16
ENDBRANCH  14  15
ENDBRANCH  13  14
ENDBRANCH  12  13
ENDBRANCH  11  12
ENDBRANCH   1  11
TORSDOF 14
ENDMDL
MODEL 4
REMARK VINA RESULT:    -3.458      2.390      6.801
REMARK INTER + INTRA:          -7.558
REMARK INTER:                  -6.005
REMARK INTRA:                  -1.553
REMARK UNBOUND:                -1.270
REMARK SMILES CCCCCCCCCCCCCCCC(=O)[O-]
REMARK SMILES IDX 9 1 10 2 11 3 12 4 13 5 14 6 15 7 16 8 17 9 18 10 8 11 7 12
REMARK SMILES IDX 6 13 5 14 4 15 3 16 2 17 1 18
REMARK H PARENT
REMARK Flexibility Score: inf
ROOT
ATOM      1  C   UNL     1      26.319  21.153  58.916  1.00  0.00     0.000 C 
ENDROOT
BRANCH   1   2
ATOM      2  C   UNL     1      24.910  21.753  58.826  1.00  0.00     0.000 C 
BRANCH   2   3
ATOM      3  C   UNL     1      23.929  20.989  59.728  1.00  0.00     0.000 C 
BRANCH   3   4
ATOM      4  C   UNL     1      22.969  21.917  60.496  1.00  0.00     0.000 C 
BRANCH   4   5
ATOM      5  C   UNL     1      22.959  21.725  62.023  1.00  0.00     0.000 C 
BRANCH   5   6
ATOM      6  C   UNL     1      24.342  21.936  62.663  1.00  0.00     0.006 C 
BRANCH   6   7
ATOM      7  C   UNL     1      24.696  20.823  63.658  1.00  0.00     0.053 C 
BRANCH   7   8
ATOM      8  C   UNL     1      26.039  20.224  63.371  1.00  0.00     0.041 C 
ATOM      9  O   UNL     1      26.600  19.490  64.227  1.00  0.00    -0.550 OA
ATOM     10  O   UNL     1      26.683  20.499  62.173  1.00  0.00    -0.550 OA
ENDBRANCH   7   8
ENDBRANCH   6   7
ENDBRANCH   5   6
ENDBRANCH   4   5
ENDBRANCH   3   4
ENDBRANCH   2   3
ENDBRANCH   1   2
BRANCH   1  11
ATOM     11  C   UNL     1      26.573  20.172  57.766  1.00  0.00     0.000 C 
BRANCH  11  12
ATOM     12  C   UNL     1      27.099  20.904  56.523  1.00  0.00    -0.000 C 
BRANCH  12  13
ATOM     13  C   UNL     1      26.441  20.419  55.220  1.00  0.00    -0.000 C 
BRANCH  13  14
ATOM     14  C   UNL     1      25.090  21.084  54.887  1.00  0.00    -0.000 C 
BRANCH  14  15
ATOM     15  C   UNL     1      23.913  20.110  54.678  1.00  0.00    -0.000 C 
BRANCH  15  16
ATOM     16  C   UNL     1      24.299  18.621  54.657  1.00  0.00    -0.000 C 
BRANCH  16  17
ATOM     17  C   UNL     1      23.558  17.798  55.721  1.00  0.00    -0.003 C 
ATOM     18  C   UNL     1      23.192  18.660  56.926  1.00  0.00     0.004 C 
ENDBRANCH  16  17
ENDBRANCH  15  16
ENDBRANCH  14  15
ENDBRANCH  13  14
ENDBRANCH  12  13
ENDBRANCH  11  12
ENDBRANCH   1  11
TORSDOF 14
ENDMDL
MODEL 5
REMARK VINA RESULT:    -3.166      0.970      2.099
REMARK INTER + INTRA:          -7.027
REMARK INTER:                  -5.756
REMARK INTRA:                  -1.272
REMARK UNBOUND:                -1.270
REMARK SMILES CCCCCCCCCCCCCCCC(=O)[O-]
REMARK SMILES IDX 9 1 10 2 11 3 12 4 13 5 14 6 15 7 16 8 17 9 18 10 8 11 7 12
REMARK SMILES IDX 6 13 5 14 4 15 3 16 2 17 1 18
REMARK H PARENT
REMARK Flexibility Score: inf
ROOT
ATOM      1  C   UNL     1      26.441  20.911  58.861  1.00  0.00     0.000 C 
ENDROOT
BRANCH   1   2
ATOM      2  C   UNL     1      26.814  21.930  57.777  1.00  0.00     0.000 C 
BRANCH   2   3
ATOM      3  C   UNL     1      27.116  21.229  56.445  1.00  0.00     0.000 C 
BRANCH   3   4
ATOM      4  C   UNL     1      26.646  22.036  55.220  1.00  0.00     0.000 C 
BRANCH   4   5
ATOM      5  C   UNL     1      25.305  21.582  54.616  1.00  0.00     0.000 C 
BRANCH   5   6
ATOM      6  C   UNL     1      24.886  20.175  55.076  1.00  0.00     0.006 C 
BRANCH   6   7
ATOM      7  C   UNL     1      23.617  20.201  55.938  1.00  0.00     0.053 C 
BRANCH   7   8
ATOM      8  C   UNL     1      23.637  19.138  56.993  1.00  0.00     0.041 C 
ATOM      9  O   UNL     1      23.306  19.414  58.176  1.00  0.00    -0.550 OA
ATOM     10  O   UNL     1      24.047  17.849  56.677  1.00  0.00    -0.550 OA
ENDBRANCH   7   8
ENDBRANCH   6   7
ENDBRANCH   5   6
ENDBRANCH   4   5
ENDBRANCH   3   4
ENDBRANCH   2   3
ENDBRANCH   1   2
BRANCH   1  11
ATOM     11  C   UNL     1      27.522  20.839  59.946  1.00  0.00     0.000 C 
BRANCH  11  12
ATOM     12  C   UNL     1      27.547  22.125  60.784  1.00  0.00    -0.000 C 
BRANCH  12  13
ATOM     13  C   UNL     1      26.627  22.055  62.015  1.00  0.00    -0.000 C 
BRANCH  13  14
ATOM     14  C   UNL     1      26.617  20.696  62.744  1.00  0.00    -0.000 C 
BRANCH  14  15
ATOM     15  C   UNL     1      25.300  20.347  63.464  1.00  0.00    -0.000 C 
BRANCH  15  16
ATOM     16  C   UNL     1      24.312  21.517  63.612  1.00  0.00    -0.000 C 
BRANCH  16  17
ATOM     17  C   UNL     1      23.069  21.363  62.724  1.00  0.00    -0.003 C 
ATOM     18  C   UNL     1      23.413  21.577  61.253  1.00  0.00     0.004 C 
ENDBRANCH  16  17
ENDBRANCH  15  16
ENDBRANCH  14  15
ENDBRANCH  13  14
ENDBRANCH  12  13
ENDBRANCH  11  12
ENDBRANCH   1  11
TORSDOF 14
ENDMDL
MODEL 6
REMARK VINA RESULT:    -2.948      1.571      2.605
REMARK INTER + INTRA:          -6.632
REMARK INTER:                  -5.378
REMARK INTRA:                  -1.254
REMARK UNBOUND:                -1.270
REMARK SMILES CCCCCCCCCCCCCCCC(=O)[O-]
REMARK SMILES IDX 9 1 10 2 11 3 12 4 13 5 14 6 15 7 16 8 17 9 18 10 8 11 7 12
REMARK SMILES IDX 6 13 5 14 4 15 3 16 2 17 1 18
REMARK H PARENT
REMARK Flexibility Score: inf
ROOT
ATOM      1  C   UNL     1      26.979  20.172  59.226  1.00  0.00     0.000 C 
ENDROOT
BRANCH   1   2
ATOM      2  C   UNL     1      26.896  20.647  57.770  1.00  0.00     0.000 C 
BRANCH   2   3
ATOM      3  C   UNL     1      25.635  21.491  57.538  1.00  0.00     0.000 C 
BRANCH   3   4
ATOM      4  C   UNL     1      24.356  20.822  58.075  1.00  0.00     0.000 C 
BRANCH   4   5
ATOM      5  C   UNL     1      23.381  20.319  56.994  1.00  0.00     0.000 C 
BRANCH   5   6
ATOM      6  C   UNL     1      23.800  20.729  55.571  1.00  0.00     0.006 C 
BRANCH   6   7
ATOM      7  C   UNL     1      24.419  19.561  54.791  1.00  0.00     0.053 C 
BRANCH   7   8
ATOM      8  C   UNL     1      23.378  18.601  54.304  1.00  0.00     0.041 C 
ATOM      9  O   UNL     1      22.910  18.712  53.140  1.00  0.00    -0.550 OA
ATOM     10  O   UNL     1      22.904  17.601  55.144  1.00  0.00    -0.550 OA
ENDBRANCH   7   8
ENDBRANCH   6   7
ENDBRANCH   5   6
ENDBRANCH   4   5
ENDBRANCH   3   4
ENDBRANCH   2   3
ENDBRANCH   1   2
BRANCH   1  11
ATOM     11  C   UNL     1      27.703  21.202  60.101  1.00  0.00     0.000 C 
BRANCH  11  12
ATOM     12  C   UNL     1      26.701  22.038  60.910  1.00  0.00    -0.000 C 
BRANCH  12  13
ATOM     13  C   UNL     1      26.841  21.834  62.429  1.00  0.00    -0.000 C 
BRANCH  13  14
ATOM     14  C   UNL     1      26.551  20.402  62.923  1.00  0.00    -0.000 C 
BRANCH  14  15
ATOM     15  C   UNL     1      25.230  20.229  63.698  1.00  0.00    -0.000 C 
BRANCH  15  16
ATOM     16  C   UNL     1      24.381  21.506  63.826  1.00  0.00    -0.000 C 
BRANCH  16  17
ATOM     17  C   UNL     1      23.043  21.409  63.080  1.00  0.00    -0.003 C 
ATOM     18  C   UNL     1      23.236  21.592  61.577  1.00  0.00     0.004 C 
ENDBRANCH  16  17
ENDBRANCH  15  16
ENDBRANCH  14  15
ENDBRANCH  13  14
ENDBRANCH  12  13
ENDBRANCH  11  12
ENDBRANCH   1  11
TORSDOF 14
ENDMDL
MODEL 7
REMARK VINA RESULT:    -2.782      1.013      1.728
REMARK INTER + INTRA:          -6.330
REMARK INTER:                  -5.348
REMARK INTRA:                  -0.981
REMARK UNBOUND:                -1.270
REMARK SMILES CCCCCCCCCCCCCCCC(=O)[O-]
REMARK SMILES IDX 9 1 10 2 11 3 12 4 13 5 14 6 15 7 16 8 17 9 18 10 8 11 7 12
REMARK SMILES IDX 6 13 5 14 4 15 3 16 2 17 1 18
REMARK H PARENT
REMARK Flexibility Score: inf
ROOT
ATOM      1  C   UNL     1      26.670  21.536  56.612  1.00  0.00     0.000 C 
ENDROOT
BRANCH   1   2
ATOM      2  C   UNL     1      25.355  21.898  55.911  1.00  0.00     0.000 C 
BRANCH   2   3
ATOM      3  C   UNL     1      25.431  21.594  54.408  1.00  0.00     0.000 C 
BRANCH   3   4
ATOM      4  C   UNL     1      24.053  21.601  53.721  1.00  0.00     0.000 C 
BRANCH   4   5
ATOM      5  C   UNL     1      23.222  20.319  53.915  1.00  0.00     0.000 C 
BRANCH   5   6
ATOM      6  C   UNL     1      24.091  19.067  54.128  1.00  0.00     0.006 C 
BRANCH   6   7
ATOM      7  C   UNL     1      23.462  18.089  55.129  1.00  0.00     0.053 C 
BRANCH   7   8
ATOM      8  C   UNL     1      23.930  18.344  56.529  1.00  0.00     0.041 C 
ATOM      9  O   UNL     1      25.162  18.375  56.788  1.00  0.00    -0.550 OA
ATOM     10  O   UNL     1      23.007  18.519  57.551  1.00  0.00    -0.550 OA
ENDBRANCH   7   8
ENDBRANCH   6   7
ENDBRANCH   5   6
ENDBRANCH   4   5
ENDBRANCH   3   4
ENDBRANCH   2   3
ENDBRANCH   1   2
BRANCH   1  11
ATOM     11  C   UNL     1      26.662  22.001  58.073  1.00  0.00     0.000 C 
BRANCH  11  12
ATOM     12  C   UNL     1      25.815  21.063  58.944  1.00  0.00    -0.000 C 
BRANCH  12  13
ATOM     13  C   UNL     1      24.353  21.525  59.075  1.00  0.00    -0.000 C 
BRANCH  13  14
ATOM     14  C   UNL     1      23.771  21.445  60.500  1.00  0.00    -0.000 C 
BRANCH  14  15
ATOM     15  C   UNL     1      24.784  21.681  61.638  1.00  0.00    -0.000 C 
BRANCH  15  16
ATOM     16  C   UNL     1      24.402  21.050  62.988  1.00  0.00    -0.000 C 
BRANCH  16  17
ATOM     17  C   UNL     1      25.486  20.110  63.535  1.00  0.00    -0.003 C 
ATOM     18  C   UNL     1      26.753  20.881  63.892  1.00  0.00     0.004 C 
ENDBRANCH  16  17
ENDBRANCH  15  16
ENDBRANCH  14  15
ENDBRANCH  13  14
ENDBRANCH  12  13
ENDBRANCH  11  12
ENDBRANCH   1  11
TORSDOF 14
ENDMDL
MODEL 8
REMARK VINA RESULT:    -2.614      2.712      7.010
REMARK INTER + INTRA:          -6.024
REMARK INTER:                  -5.040
REMARK INTRA:                  -0.985
REMARK UNBOUND:                -1.270
REMARK SMILES CCCCCCCCCCCCCCCC(=O)[O-]
REMARK SMILES IDX 9 1 10 2 11 3 12 4 13 5 14 6 15 7 16 8 17 9 18 10 8 11 7 12
REMARK SMILES IDX 6 13 5 14 4 15 3 16 2 17 1 18
REMARK H PARENT
REMARK Flexibility Score: inf
ROOT
ATOM      1  C   UNL     1      25.804  19.758  57.377  1.00  0.00     0.000 C 
ENDROOT
BRANCH   1   2
ATOM      2  C   UNL     1      25.929  20.804  58.492  1.00  0.00     0.000 C 
BRANCH   2   3
ATOM      3  C   UNL     1      27.297  20.711  59.182  1.00  0.00     0.000 C 
BRANCH   3   4
ATOM      4  C   UNL     1      27.462  21.724  60.330  1.00  0.00     0.000 C 
BRANCH   4   5
ATOM      5  C   UNL     1      26.182  22.010  61.135  1.00  0.00     0.000 C 
BRANCH   5   6
ATOM      6  C   UNL     1      26.436  22.112  62.650  1.00  0.00     0.006 C 
BRANCH   6   7
ATOM      7  C   UNL     1      26.712  20.742  63.284  1.00  0.00     0.053 C 
BRANCH   7   8
ATOM      8  C   UNL     1      25.472  20.139  63.871  1.00  0.00     0.041 C 
ATOM      9  O   UNL     1      25.361  18.888  63.963  1.00  0.00    -0.550 OA
ATOM     10  O   UNL     1      24.430  20.955  64.289  1.00  0.00    -0.550 OA
ENDBRANCH   7   8
ENDBRANCH   6   7
ENDBRANCH   5   6
ENDBRANCH   4   5
ENDBRANCH   3   4
ENDBRANCH   2   3
ENDBRANCH   1   2
BRANCH   1  11
ATOM     11  C   UNL     1      24.435  19.069  57.418  1.00  0.00     0.000 C 
BRANCH  11  12
ATOM     12  C   UNL     1      24.121  18.388  56.079  1.00  0.00    -0.000 C 
BRANCH  12  13
ATOM     13  C   UNL     1      22.920  19.021  55.352  1.00  0.00    -0.000 C 
BRANCH  13  14
ATOM     14  C   UNL     1      23.098  20.504  54.972  1.00  0.00    -0.000 C 
BRANCH  14  15
ATOM     15  C   UNL     1      24.141  20.779  53.871  1.00  0.00    -0.000 C 
BRANCH  15  16
ATOM     16  C   UNL     1      24.910  22.103  54.021  1.00  0.00    -0.000 C 
BRANCH  16  17
ATOM     17  C   UNL     1      25.827  22.123  55.252  1.00  0.00    -0.003 C 
ATOM     18  C   UNL     1      27.297  22.123  54.844  1.00  0.00     0.004 C 
ENDBRANCH  16  17
ENDBRANCH  15  16
ENDBRANCH  14  15
ENDBRANCH  13  14
ENDBRANCH  12  13
ENDBRANCH  11  12
ENDBRANCH   1  11
TORSDOF 14
ENDMDL
