MODEL 1
REMARK VINA RESULT:    -4.658      0.000      0.000
REMARK INTER + INTRA:          -5.215
REMARK INTER:                  -5.611
REMARK INTRA:                   0.396
REMARK UNBOUND:                 0.396
REMARK SMILES O=c1c(O)c(-c2ccc(O)c(O)c2)oc2cc(O)cc(O)c12
REMARK SMILES IDX 5 1 3 2 2 3 1 4 22 5 20 6 19 7 17 8 16 9 15 10 14 11 6 12
REMARK SMILES IDX 7 13 8 14 9 15 13 16 11 17 10 18 12 20 4 22 21 24 18 26
REMARK H PARENT 10 19 12 21 4 23 21 25 18 27
REMARK Flexibility Score: inf
ROOT
ATOM      1  C   UNL     1      56.252   9.192   4.945  1.00  0.00     0.180 A 
ATOM      2  C   UNL     1      55.414   9.088   6.067  1.00  0.00     0.208 A 
ATOM      3  C   UNL     1      54.024   9.025   5.877  1.00  0.00     0.238 A 
ATOM      4  O   UNL     1      53.281   8.878   6.883  1.00  0.00    -0.285 OA
ATOM      5  C   UNL     1      53.489   9.082   4.567  1.00  0.00     0.111 A 
ATOM      6  C   UNL     1      52.096   9.066   4.259  1.00  0.00     0.134 A 
ATOM      7  C   UNL     1      51.685   8.995   2.922  1.00  0.00     0.093 A 
ATOM      8  C   UNL     1      52.615   9.005   1.881  1.00  0.00     0.123 A 
ATOM      9  C   UNL     1      53.976   9.080   2.171  1.00  0.00     0.094 A 
ATOM     10  C   UNL     1      54.418   9.116   3.495  1.00  0.00     0.146 A 
ATOM     11  O   UNL     1      55.724   9.176   3.726  1.00  0.00    -0.452 OA
ENDROOT
BRANCH   1  12
ATOM     12  C   UNL     1      57.724   9.289   5.067  1.00  0.00     0.025 A 
ATOM     13  C   UNL     1      58.574   8.875   4.026  1.00  0.00     0.016 A 
ATOM     14  C   UNL     1      59.961   8.954   4.172  1.00  0.00     0.051 A 
ATOM     15  C   UNL     1      60.520   9.433   5.364  1.00  0.00     0.157 A 
ATOM     16  C   UNL     1      58.290   9.748   6.268  1.00  0.00     0.062 A 
ATOM     17  C   UNL     1      59.683   9.829   6.415  1.00  0.00     0.158 A 
BRANCH  15  18
ATOM     18  O   UNL     1      61.903   9.515   5.513  1.00  0.00    -0.504 OA
ATOM     19  H   UNL     1      62.393  10.398   5.435  1.00  0.00     0.293 HD
ENDBRANCH  15  18
BRANCH  17  20
ATOM     20  O   UNL     1      60.241  10.299   7.603  1.00  0.00    -0.504 OA
ATOM     21  H   UNL     1      61.244  10.388   7.719  1.00  0.00     0.293 HD
ENDBRANCH  17  20
ENDBRANCH   1  12
BRANCH   2  22
ATOM     22  O   UNL     1      55.963   9.012   7.351  1.00  0.00    -0.502 OA
ATOM     23  H   UNL     1      55.586   8.406   8.069  1.00  0.00     0.293 HD
ENDBRANCH   2  22
BRANCH   6  24
ATOM     24  O   UNL     1      51.083   9.147   5.220  1.00  0.00    -0.507 OA
ATOM     25  H   UNL     1      51.237   9.173   6.216  1.00  0.00     0.293 HD
ENDBRANCH   6  24
BRANCH   8  26
ATOM     26  O   UNL     1      52.197   8.949   0.554  1.00  0.00    -0.508 OA
ATOM     27  H   UNL     1      52.510   9.629  -0.130  1.00  0.00     0.293 HD
ENDBRANCH   8  26
TORSDOF 6
ENDMDL
MODEL 2
REMARK VINA RESULT:    -2.321      1.492      3.122
REMARK INTER + INTRA:          -2.400
REMARK INTER:                  -2.683
REMARK INTRA:                   0.283
REMARK UNBOUND:                 0.396
REMARK SMILES O=c1c(O)c(-c2ccc(O)c(O)c2)oc2cc(O)cc(O)c12
REMARK SMILES IDX 5 1 3 2 2 3 1 4 22 5 20 6 19 7 17 8 16 9 15 10 14 11 6 12
REMARK SMILES IDX 7 13 8 14 9 15 13 16 11 17 10 18 12 20 4 22 21 24 18 26
REMARK H PARENT 10 19 12 21 4 23 21 25 18 27
REMARK Flexibility Score: inf
ROOT
ATOM      1  C   UNL     1      55.430   9.261   4.959  1.00  0.00     0.180 A 
ATOM      2  C   UNL     1      54.815   9.361   3.700  1.00  0.00     0.208 A 
ATOM      3  C   UNL     1      53.415   9.294   3.617  1.00  0.00     0.238 A 
ATOM      4  O   UNL     1      52.868   9.439   2.493  1.00  0.00    -0.285 OA
ATOM      5  C   UNL     1      52.648   9.112   4.794  1.00  0.00     0.111 A 
ATOM      6  C   UNL     1      51.227   8.990   4.824  1.00  0.00     0.134 A 
ATOM      7  C   UNL     1      50.564   8.944   6.056  1.00  0.00     0.093 A 
ATOM      8  C   UNL     1      51.275   8.949   7.258  1.00  0.00     0.123 A 
ATOM      9  C   UNL     1      52.667   9.008   7.237  1.00  0.00     0.094 A 
ATOM     10  C   UNL     1      53.354   9.092   6.024  1.00  0.00     0.146 A 
ATOM     11  O   UNL     1      54.681   9.157   6.050  1.00  0.00    -0.452 OA
ENDROOT
BRANCH   1  12
ATOM     12  C   UNL     1      56.901   9.297   5.123  1.00  0.00     0.025 A 
ATOM     13  C   UNL     1      57.763   8.890   4.090  1.00  0.00     0.016 A 
ATOM     14  C   UNL     1      59.148   8.911   4.275  1.00  0.00     0.051 A 
ATOM     15  C   UNL     1      59.691   9.324   5.499  1.00  0.00     0.157 A 
ATOM     16  C   UNL     1      57.450   9.690   6.355  1.00  0.00     0.062 A 
ATOM     17  C   UNL     1      58.840   9.712   6.541  1.00  0.00     0.158 A 
BRANCH  15  18
ATOM     18  O   UNL     1      61.071   9.348   5.688  1.00  0.00    -0.504 OA
ATOM     19  H   UNL     1      61.689   9.798   5.023  1.00  0.00     0.293 HD
ENDBRANCH  15  18
BRANCH  17  20
ATOM     20  O   UNL     1      59.382  10.116   7.761  1.00  0.00    -0.504 OA
ATOM     21  H   UNL     1      58.796  10.299   8.568  1.00  0.00     0.293 HD
ENDBRANCH  17  20
ENDBRANCH   1  12
BRANCH   2  22
ATOM     22  O   UNL     1      55.589   9.563   2.553  1.00  0.00    -0.502 OA
ATOM     23  H   UNL     1      55.744   8.836   1.866  1.00  0.00     0.293 HD
ENDBRANCH   2  22
BRANCH   6  24
ATOM     24  O   UNL     1      50.429   8.883   3.681  1.00  0.00    -0.507 OA
ATOM     25  H   UNL     1      49.462   9.167   3.626  1.00  0.00     0.293 HD
ENDBRANCH   6  24
BRANCH   8  26
ATOM     26  O   UNL     1      50.608   8.888   8.479  1.00  0.00    -0.508 OA
ATOM     27  H   UNL     1      50.635   9.659   9.137  1.00  0.00     0.293 HD
ENDBRANCH   8  26
TORSDOF 6
ENDMDL
MODEL 3
REMARK VINA RESULT:    -2.299      5.386      9.733
REMARK INTER + INTRA:          -2.374
REMARK INTER:                  -2.716
REMARK INTRA:                   0.342
REMARK UNBOUND:                 0.396
REMARK SMILES O=c1c(O)c(-c2ccc(O)c(O)c2)oc2cc(O)cc(O)c12
REMARK SMILES IDX 5 1 3 2 2 3 1 4 22 5 20 6 19 7 17 8 16 9 15 10 14 11 6 12
REMARK SMILES IDX 7 13 8 14 9 15 13 16 11 17 10 18 12 20 4 22 21 24 18 26
REMARK H PARENT 10 19 12 21 4 23 21 25 18 27
REMARK Flexibility Score: inf
ROOT
ATOM      1  C   UNL     1      49.556  12.890   1.958  1.00  0.00     0.180 A 
ATOM      2  C   UNL     1      49.508  12.001   0.872  1.00  0.00     0.208 A 
ATOM      3  C   UNL     1      50.418  10.933   0.823  1.00  0.00     0.238 A 
ATOM      4  O   UNL     1      50.335  10.109  -0.125  1.00  0.00    -0.285 OA
ATOM      5  C   UNL     1      51.376  10.777   1.855  1.00  0.00     0.111 A 
ATOM      6  C   UNL     1      52.372   9.756   1.888  1.00  0.00     0.134 A 
ATOM      7  C   UNL     1      53.183   9.619   3.022  1.00  0.00     0.093 A 
ATOM      8  C   UNL     1      53.077  10.506   4.095  1.00  0.00     0.123 A 
ATOM      9  C   UNL     1      52.148  11.543   4.045  1.00  0.00     0.094 A 
ATOM     10  C   UNL     1      51.301  11.683   2.944  1.00  0.00     0.146 A 
ATOM     11  O   UNL     1      50.422  12.679   2.943  1.00  0.00    -0.452 OA
ENDROOT
BRANCH   1  12
ATOM     12  C   UNL     1      48.646  14.053   2.066  1.00  0.00     0.025 A 
ATOM     13  C   UNL     1      47.398  14.068   1.420  1.00  0.00     0.016 A 
ATOM     14  C   UNL     1      46.565  15.187   1.516  1.00  0.00     0.051 A 
ATOM     15  C   UNL     1      46.973  16.310   2.246  1.00  0.00     0.157 A 
ATOM     16  C   UNL     1      49.059  15.191   2.779  1.00  0.00     0.062 A 
ATOM     17  C   UNL     1      48.224  16.313   2.877  1.00  0.00     0.158 A 
BRANCH  15  18
ATOM     18  O   UNL     1      46.146  17.427   2.347  1.00  0.00    -0.504 OA
ATOM     19  H   UNL     1      45.639  17.636   3.198  1.00  0.00     0.293 HD
ENDBRANCH  15  18
BRANCH  17  20
ATOM     20  O   UNL     1      48.631  17.435   3.598  1.00  0.00    -0.504 OA
ATOM     21  H   UNL     1      48.683  17.426   4.610  1.00  0.00     0.293 HD
ENDBRANCH  17  20
ENDBRANCH   1  12
BRANCH   2  22
ATOM     22  O   UNL     1      48.540  12.160  -0.125  1.00  0.00    -0.502 OA
ATOM     23  H   UNL     1      47.810  12.859  -0.068  1.00  0.00     0.293 HD
ENDBRANCH   2  22
BRANCH   6  24
ATOM     24  O   UNL     1      52.623   8.876   0.831  1.00  0.00    -0.507 OA
ATOM     25  H   UNL     1      53.092   9.126  -0.026  1.00  0.00     0.293 HD
ENDBRANCH   6  24
BRANCH   8  26
ATOM     26  O   UNL     1      53.898  10.372   5.212  1.00  0.00    -0.508 OA
ATOM     27  H   UNL     1      53.935  11.085   5.932  1.00  0.00     0.293 HD
ENDBRANCH   8  26
TORSDOF 6
ENDMDL
MODEL 4
REMARK VINA RESULT:    -2.221      1.509      2.243
REMARK INTER + INTRA:          -2.279
REMARK INTER:                  -2.592
REMARK INTRA:                   0.313
REMARK UNBOUND:                 0.396
REMARK SMILES O=c1c(O)c(-c2ccc(O)c(O)c2)oc2cc(O)cc(O)c12
REMARK SMILES IDX 5 1 3 2 2 3 1 4 22 5 20 6 19 7 17 8 16 9 15 10 14 11 6 12
REMARK SMILES IDX 7 13 8 14 9 15 13 16 11 17 10 18 12 20 4 22 21 24 18 26
REMARK H PARENT 10 19 12 21 4 23 21 25 18 27
REMARK Flexibility Score: inf
ROOT
ATOM      1  C   UNL     1      54.096   9.354   4.464  1.00  0.00     0.180 A 
ATOM      2  C   UNL     1      53.190   9.153   5.518  1.00  0.00     0.208 A 
ATOM      3  C   UNL     1      51.812   9.194   5.249  1.00  0.00     0.238 A 
ATOM      4  O   UNL     1      51.005   8.959   6.187  1.00  0.00    -0.285 OA
ATOM      5  C   UNL     1      51.359   9.452   3.933  1.00  0.00     0.111 A 
ATOM      6  C   UNL     1      49.987   9.556   3.553  1.00  0.00     0.134 A 
ATOM      7  C   UNL     1      49.652   9.684   2.200  1.00  0.00     0.093 A 
ATOM      8  C   UNL     1      50.642   9.776   1.219  1.00  0.00     0.123 A 
ATOM      9  C   UNL     1      51.985   9.736   1.586  1.00  0.00     0.094 A 
ATOM     10  C   UNL     1      52.349   9.572   2.924  1.00  0.00     0.146 A 
ATOM     11  O   UNL     1      53.641   9.528   3.229  1.00  0.00    -0.452 OA
ENDROOT
BRANCH   1  12
ATOM     12  C   UNL     1      55.562   9.350   4.674  1.00  0.00     0.025 A 
ATOM     13  C   UNL     1      56.443   8.893   3.678  1.00  0.00     0.016 A 
ATOM     14  C   UNL     1      57.822   8.877   3.907  1.00  0.00     0.051 A 
ATOM     15  C   UNL     1      58.338   9.302   5.137  1.00  0.00     0.157 A 
ATOM     16  C   UNL     1      56.085   9.755   5.914  1.00  0.00     0.062 A 
ATOM     17  C   UNL     1      57.468   9.740   6.143  1.00  0.00     0.158 A 
BRANCH  15  18
ATOM     18  O   UNL     1      59.713   9.289   5.369  1.00  0.00    -0.504 OA
ATOM     19  H   UNL     1      60.378   9.225   4.608  1.00  0.00     0.293 HD
ENDBRANCH  15  18
BRANCH  17  20
ATOM     20  O   UNL     1      57.984  10.156   7.370  1.00  0.00    -0.504 OA
ATOM     21  H   UNL     1      58.753   9.669   7.815  1.00  0.00     0.293 HD
ENDBRANCH  17  20
ENDBRANCH   1  12
BRANCH   2  22
ATOM     22  O   UNL     1      53.658   8.878   6.806  1.00  0.00    -0.502 OA
ATOM     23  H   UNL     1      53.517   7.982   7.257  1.00  0.00     0.293 HD
ENDBRANCH   2  22
BRANCH   6  24
ATOM     24  O   UNL     1      48.925   9.568   4.463  1.00  0.00    -0.507 OA
ATOM     25  H   UNL     1      48.005   9.933   4.268  1.00  0.00     0.293 HD
ENDBRANCH   6  24
BRANCH   8  26
ATOM     26  O   UNL     1      50.300   9.918  -0.124  1.00  0.00    -0.508 OA
ATOM     27  H   UNL     1      51.002  10.101  -0.833  1.00  0.00     0.293 HD
ENDBRANCH   8  26
TORSDOF 6
ENDMDL
