MODEL 1
REMARK VINA RESULT:    -7.441      0.000      0.000
REMARK INTER + INTRA:          -9.198
REMARK INTER:                  -8.964
REMARK INTRA:                  -0.234
REMARK UNBOUND:                -0.234
REMARK SMILES O=c1c(O)c(-c2ccc(O)c(O)c2)oc2cc(O)cc(O)c12
REMARK SMILES IDX 5 1 3 2 2 3 1 4 22 5 20 6 19 7 17 8 16 9 15 10 14 11 6 12
REMARK SMILES IDX 7 13 8 14 9 15 13 16 11 17 10 18 12 20 4 22 21 24 18 26
REMARK H PARENT 10 19 12 21 4 23 21 25 18 27
REMARK Flexibility Score: inf
ROOT
ATOM      1  C   UNL     1     -44.088  34.494  -5.549  1.00  0.00     0.180 A 
ATOM      2  C   UNL     1     -45.338  34.899  -5.050  1.00  0.00     0.208 A 
ATOM      3  C   UNL     1     -46.462  34.828  -5.889  1.00  0.00     0.238 A 
ATOM      4  O   UNL     1     -47.563  35.262  -5.461  1.00  0.00    -0.285 OA
ATOM      5  C   UNL     1     -46.333  34.303  -7.198  1.00  0.00     0.111 A 
ATOM      6  C   UNL     1     -47.411  34.143  -8.120  1.00  0.00     0.134 A 
ATOM      7  C   UNL     1     -47.146  33.711  -9.425  1.00  0.00     0.093 A 
ATOM      8  C   UNL     1     -45.854  33.372  -9.823  1.00  0.00     0.123 A 
ATOM      9  C   UNL     1     -44.800  33.471  -8.915  1.00  0.00     0.094 A 
ATOM     10  C   UNL     1     -45.027  33.936  -7.617  1.00  0.00     0.146 A 
ATOM     11  O   UNL     1     -43.992  34.036  -6.791  1.00  0.00    -0.452 OA
ENDROOT
BRANCH   1  12
ATOM     12  C   UNL     1     -42.856  34.553  -4.730  1.00  0.00     0.025 A 
ATOM     13  C   UNL     1     -42.287  35.800  -4.429  1.00  0.00     0.016 A 
ATOM     14  C   UNL     1     -41.137  35.882  -3.641  1.00  0.00     0.051 A 
ATOM     15  C   UNL     1     -40.547  34.723  -3.128  1.00  0.00     0.157 A 
ATOM     16  C   UNL     1     -42.274  33.389  -4.196  1.00  0.00     0.062 A 
ATOM     17  C   UNL     1     -41.121  33.469  -3.401  1.00  0.00     0.158 A 
BRANCH  15  18
ATOM     18  O   UNL     1     -39.398  34.835  -2.345  1.00  0.00    -0.504 OA
ATOM     19  H   UNL     1     -39.213  35.653  -1.777  1.00  0.00     0.293 HD
ENDBRANCH  15  18
BRANCH  17  20
ATOM     20  O   UNL     1     -40.546  32.311  -2.880  1.00  0.00    -0.504 OA
ATOM     21  H   UNL     1     -39.582  32.291  -2.568  1.00  0.00     0.293 HD
ENDBRANCH  17  20
ENDBRANCH   1  12
BRANCH   2  22
ATOM     22  O   UNL     1     -45.459  35.343  -3.730  1.00  0.00    -0.502 OA
ATOM     23  H   UNL     1     -46.244  35.091  -3.141  1.00  0.00     0.293 HD
ENDBRANCH   2  22
BRANCH   6  24
ATOM     24  O   UNL     1     -48.754  34.368  -7.800  1.00  0.00    -0.507 OA
ATOM     25  H   UNL     1     -49.121  35.226  -7.420  1.00  0.00     0.293 HD
ENDBRANCH   6  24
BRANCH   8  26
ATOM     26  O   UNL     1     -45.630  32.928 -11.125  1.00  0.00    -0.508 OA
ATOM     27  H   UNL     1     -45.213  32.024 -11.313  1.00  0.00     0.293 HD
ENDBRANCH   8  26
TORSDOF 6
ENDMDL
MODEL 2
REMARK VINA RESULT:    -7.299      1.373      2.677
REMARK INTER + INTRA:          -9.026
REMARK INTER:                  -8.801
REMARK INTRA:                  -0.226
REMARK UNBOUND:                -0.234
REMARK SMILES O=c1c(O)c(-c2ccc(O)c(O)c2)oc2cc(O)cc(O)c12
REMARK SMILES IDX 5 1 3 2 2 3 1 4 22 5 20 6 19 7 17 8 16 9 15 10 14 11 6 12
REMARK SMILES IDX 7 13 8 14 9 15 13 16 11 17 10 18 12 20 4 22 21 24 18 26
REMARK H PARENT 10 19 12 21 4 23 21 25 18 27
REMARK Flexibility Score: inf
ROOT
ATOM      1  C   UNL     1     -43.769  34.502  -6.033  1.00  0.00     0.180 A 
ATOM      2  C   UNL     1     -43.568  34.843  -7.382  1.00  0.00     0.208 A 
ATOM      3  C   UNL     1     -44.644  34.737  -8.279  1.00  0.00     0.238 A 
ATOM      4  O   UNL     1     -44.439  34.972  -9.498  1.00  0.00    -0.285 OA
ATOM      5  C   UNL     1     -45.920  34.346  -7.806  1.00  0.00     0.111 A 
ATOM      6  C   UNL     1     -47.092  34.248  -8.615  1.00  0.00     0.134 A 
ATOM      7  C   UNL     1     -48.276  33.747  -8.059  1.00  0.00     0.093 A 
ATOM      8  C   UNL     1     -48.349  33.402  -6.711  1.00  0.00     0.123 A 
ATOM      9  C   UNL     1     -47.225  33.545  -5.897  1.00  0.00     0.094 A 
ATOM     10  C   UNL     1     -46.019  34.006  -6.431  1.00  0.00     0.146 A 
ATOM     11  O   UNL     1     -44.968  34.107  -5.626  1.00  0.00    -0.452 OA
ENDROOT
BRANCH   1  12
ATOM     12  C   UNL     1     -42.680  34.573  -5.033  1.00  0.00     0.025 A 
ATOM     13  C   UNL     1     -42.233  35.827  -4.588  1.00  0.00     0.016 A 
ATOM     14  C   UNL     1     -41.222  35.919  -3.629  1.00  0.00     0.051 A 
ATOM     15  C   UNL     1     -40.652  34.762  -3.088  1.00  0.00     0.157 A 
ATOM     16  C   UNL     1     -42.121  33.410  -4.473  1.00  0.00     0.062 A 
ATOM     17  C   UNL     1     -41.107  33.500  -3.508  1.00  0.00     0.158 A 
BRANCH  15  18
ATOM     18  O   UNL     1     -39.643  34.884  -2.134  1.00  0.00    -0.504 OA
ATOM     19  H   UNL     1     -38.682  35.082  -2.389  1.00  0.00     0.293 HD
ENDBRANCH  15  18
BRANCH  17  20
ATOM     20  O   UNL     1     -40.554  32.342  -2.962  1.00  0.00    -0.504 OA
ATOM     21  H   UNL     1     -40.564  31.462  -3.464  1.00  0.00     0.293 HD
ENDBRANCH  17  20
ENDBRANCH   1  12
BRANCH   2  22
ATOM     22  O   UNL     1     -42.321  35.301  -7.814  1.00  0.00    -0.502 OA
ATOM     23  H   UNL     1     -41.813  36.033  -7.332  1.00  0.00     0.293 HD
ENDBRANCH   2  22
BRANCH   6  24
ATOM     24  O   UNL     1     -47.155  34.649  -9.953  1.00  0.00    -0.507 OA
ATOM     25  H   UNL     1     -47.903  34.422 -10.590  1.00  0.00     0.293 HD
ENDBRANCH   6  24
BRANCH   8  26
ATOM     26  O   UNL     1     -49.549  32.924  -6.188  1.00  0.00    -0.508 OA
ATOM     27  H   UNL     1     -49.588  32.067  -5.649  1.00  0.00     0.293 HD
ENDBRANCH   8  26
TORSDOF 6
ENDMDL
MODEL 3
REMARK VINA RESULT:    -6.942      2.051      6.700
REMARK INTER + INTRA:          -8.596
REMARK INTER:                  -8.276
REMARK INTRA:                  -0.321
REMARK UNBOUND:                -0.234
REMARK SMILES O=c1c(O)c(-c2ccc(O)c(O)c2)oc2cc(O)cc(O)c12
REMARK SMILES IDX 5 1 3 2 2 3 1 4 22 5 20 6 19 7 17 8 16 9 15 10 14 11 6 12
REMARK SMILES IDX 7 13 8 14 9 15 13 16 11 17 10 18 12 20 4 22 21 24 18 26
REMARK H PARENT 10 19 12 21 4 23 21 25 18 27
REMARK Flexibility Score: inf
ROOT
ATOM      1  C   UNL     1     -43.906  34.732  -5.678  1.00  0.00     0.180 A 
ATOM      2  C   UNL     1     -44.193  35.997  -5.135  1.00  0.00     0.208 A 
ATOM      3  C   UNL     1     -43.828  36.267  -3.806  1.00  0.00     0.238 A 
ATOM      4  O   UNL     1     -44.154  37.374  -3.304  1.00  0.00    -0.285 OA
ATOM      5  C   UNL     1     -43.130  35.291  -3.055  1.00  0.00     0.111 A 
ATOM      6  C   UNL     1     -42.671  35.472  -1.715  1.00  0.00     0.134 A 
ATOM      7  C   UNL     1     -42.086  34.397  -1.034  1.00  0.00     0.093 A 
ATOM      8  C   UNL     1     -41.884  33.170  -1.663  1.00  0.00     0.123 A 
ATOM      9  C   UNL     1     -42.279  32.998  -2.990  1.00  0.00     0.094 A 
ATOM     10  C   UNL     1     -42.900  34.039  -3.684  1.00  0.00     0.146 A 
ATOM     11  O   UNL     1     -43.280  33.826  -4.938  1.00  0.00    -0.452 OA
ENDROOT
BRANCH   1  12
ATOM     12  C   UNL     1     -44.273  34.368  -7.065  1.00  0.00     0.025 A 
ATOM     13  C   UNL     1     -45.517  33.768  -7.314  1.00  0.00     0.016 A 
ATOM     14  C   UNL     1     -45.895  33.434  -8.617  1.00  0.00     0.051 A 
ATOM     15  C   UNL     1     -45.044  33.709  -9.692  1.00  0.00     0.157 A 
ATOM     16  C   UNL     1     -43.427  34.663  -8.149  1.00  0.00     0.062 A 
ATOM     17  C   UNL     1     -43.806  34.332  -9.459  1.00  0.00     0.158 A 
BRANCH  15  18
ATOM     18  O   UNL     1     -45.446  33.363 -10.981  1.00  0.00    -0.504 OA
ATOM     19  H   UNL     1     -45.502  34.045 -11.728  1.00  0.00     0.293 HD
ENDBRANCH  15  18
BRANCH  17  20
ATOM     20  O   UNL     1     -42.959  34.622 -10.528  1.00  0.00    -0.504 OA
ATOM     21  H   UNL     1     -41.971  34.800 -10.388  1.00  0.00     0.293 HD
ENDBRANCH  17  20
ENDBRANCH   1  12
BRANCH   2  22
ATOM     22  O   UNL     1     -44.814  36.974  -5.918  1.00  0.00    -0.502 OA
ATOM     23  H   UNL     1     -45.402  36.743  -6.711  1.00  0.00     0.293 HD
ENDBRANCH   2  22
BRANCH   6  24
ATOM     24  O   UNL     1     -42.741  36.683  -1.020  1.00  0.00    -0.507 OA
ATOM     25  H   UNL     1     -42.580  37.592  -1.426  1.00  0.00     0.293 HD
ENDBRANCH   6  24
BRANCH   8  26
ATOM     26  O   UNL     1     -41.282  32.128  -0.960  1.00  0.00    -0.508 OA
ATOM     27  H   UNL     1     -41.195  31.200  -1.359  1.00  0.00     0.293 HD
ENDBRANCH   8  26
TORSDOF 6
ENDMDL
MODEL 4
REMARK VINA RESULT:    -6.938      2.330      3.094
REMARK INTER + INTRA:          -8.591
REMARK INTER:                  -8.274
REMARK INTRA:                  -0.318
REMARK UNBOUND:                -0.234
REMARK SMILES O=c1c(O)c(-c2ccc(O)c(O)c2)oc2cc(O)cc(O)c12
REMARK SMILES IDX 5 1 3 2 2 3 1 4 22 5 20 6 19 7 17 8 16 9 15 10 14 11 6 12
REMARK SMILES IDX 7 13 8 14 9 15 13 16 11 17 10 18 12 20 4 22 21 24 18 26
REMARK H PARENT 10 19 12 21 4 23 21 25 18 27
REMARK Flexibility Score: inf
ROOT
ATOM      1  C   UNL     1     -43.795  34.484  -4.328  1.00  0.00     0.180 A 
ATOM      2  C   UNL     1     -43.009  35.195  -5.251  1.00  0.00     0.208 A 
ATOM      3  C   UNL     1     -43.461  35.323  -6.574  1.00  0.00     0.238 A 
ATOM      4  O   UNL     1     -42.717  35.896  -7.412  1.00  0.00    -0.285 OA
ATOM      5  C   UNL     1     -44.718  34.787  -6.945  1.00  0.00     0.111 A 
ATOM      6  C   UNL     1     -45.296  34.895  -8.246  1.00  0.00     0.134 A 
ATOM      7  C   UNL     1     -46.497  34.233  -8.526  1.00  0.00     0.093 A 
ATOM      8  C   UNL     1     -47.175  33.521  -7.538  1.00  0.00     0.123 A 
ATOM      9  C   UNL     1     -46.648  33.454  -6.248  1.00  0.00     0.094 A 
ATOM     10  C   UNL     1     -45.431  34.072  -5.947  1.00  0.00     0.146 A 
ATOM     11  O   UNL     1     -44.954  33.965  -4.713  1.00  0.00    -0.452 OA
ENDROOT
BRANCH   1  12
ATOM     12  C   UNL     1     -43.379  34.294  -2.920  1.00  0.00     0.025 A 
ATOM     13  C   UNL     1     -43.935  35.108  -1.920  1.00  0.00     0.016 A 
ATOM     14  C   UNL     1     -43.574  34.933  -0.582  1.00  0.00     0.051 A 
ATOM     15  C   UNL     1     -42.664  33.935  -0.220  1.00  0.00     0.157 A 
ATOM     16  C   UNL     1     -42.480  33.277  -2.551  1.00  0.00     0.062 A 
ATOM     17  C   UNL     1     -42.118  33.098  -1.208  1.00  0.00     0.158 A 
BRANCH  15  18
ATOM     18  O   UNL     1     -42.320  33.786   1.124  1.00  0.00    -0.504 OA
ATOM     19  H   UNL     1     -41.627  34.374   1.570  1.00  0.00     0.293 HD
ENDBRANCH  15  18
BRANCH  17  20
ATOM     20  O   UNL     1     -41.222  32.091  -0.851  1.00  0.00    -0.504 OA
ATOM     21  H   UNL     1     -40.670  31.602  -1.547  1.00  0.00     0.293 HD
ENDBRANCH  17  20
ENDBRANCH   1  12
BRANCH   2  22
ATOM     22  O   UNL     1     -41.807  35.782  -4.846  1.00  0.00    -0.502 OA
ATOM     23  H   UNL     1     -40.986  35.806  -5.439  1.00  0.00     0.293 HD
ENDBRANCH   2  22
BRANCH   6  24
ATOM     24  O   UNL     1     -44.749  35.656  -9.285  1.00  0.00    -0.507 OA
ATOM     25  H   UNL     1     -43.763  35.745  -9.478  1.00  0.00     0.293 HD
ENDBRANCH   6  24
BRANCH   8  26
ATOM     26  O   UNL     1     -48.377  32.890  -7.847  1.00  0.00    -0.508 OA
ATOM     27  H   UNL     1     -48.696  32.795  -8.805  1.00  0.00     0.293 HD
ENDBRANCH   8  26
TORSDOF 6
ENDMDL
MODEL 5
REMARK VINA RESULT:    -6.858      2.207      6.871
REMARK INTER + INTRA:          -8.495
REMARK INTER:                  -8.187
REMARK INTRA:                  -0.308
REMARK UNBOUND:                -0.234
REMARK SMILES O=c1c(O)c(-c2ccc(O)c(O)c2)oc2cc(O)cc(O)c12
REMARK SMILES IDX 5 1 3 2 2 3 1 4 22 5 20 6 19 7 17 8 16 9 15 10 14 11 6 12
REMARK SMILES IDX 7 13 8 14 9 15 13 16 11 17 10 18 12 20 4 22 21 24 18 26
REMARK H PARENT 10 19 12 21 4 23 21 25 18 27
REMARK Flexibility Score: inf
ROOT
ATOM      1  C   UNL     1     -44.590  34.932  -4.861  1.00  0.00     0.180 A 
ATOM      2  C   UNL     1     -44.848  36.097  -4.117  1.00  0.00     0.208 A 
ATOM      3  C   UNL     1     -44.299  36.219  -2.830  1.00  0.00     0.238 A 
ATOM      4  O   UNL     1     -44.595  37.230  -2.142  1.00  0.00    -0.285 OA
ATOM      5  C   UNL     1     -43.456  35.201  -2.324  1.00  0.00     0.111 A 
ATOM      6  C   UNL     1     -42.810  35.238  -1.051  1.00  0.00     0.134 A 
ATOM      7  C   UNL     1     -42.084  34.125  -0.611  1.00  0.00     0.093 A 
ATOM      8  C   UNL     1     -41.925  33.002  -1.422  1.00  0.00     0.123 A 
ATOM      9  C   UNL     1     -42.506  32.975  -2.690  1.00  0.00     0.094 A 
ATOM     10  C   UNL     1     -43.269  34.055  -3.142  1.00  0.00     0.146 A 
ATOM     11  O   UNL     1     -43.822  33.980  -4.346  1.00  0.00    -0.452 OA
ENDROOT
BRANCH   1  12
ATOM     12  C   UNL     1     -45.144  34.725  -6.217  1.00  0.00     0.025 A 
ATOM     13  C   UNL     1     -46.336  33.999  -6.372  1.00  0.00     0.016 A 
ATOM     14  C   UNL     1     -46.889  33.809  -7.640  1.00  0.00     0.051 A 
ATOM     15  C   UNL     1     -46.271  34.351  -8.771  1.00  0.00     0.157 A 
ATOM     16  C   UNL     1     -44.534  35.287  -7.353  1.00  0.00     0.062 A 
ATOM     17  C   UNL     1     -45.090  35.100  -8.627  1.00  0.00     0.158 A 
BRANCH  15  18
ATOM     18  O   UNL     1     -46.845  34.143 -10.025  1.00  0.00    -0.504 OA
ATOM     19  H   UNL     1     -46.740  33.269 -10.526  1.00  0.00     0.293 HD
ENDBRANCH  15  18
BRANCH  17  20
ATOM     20  O   UNL     1     -44.476  35.656  -9.749  1.00  0.00    -0.504 OA
ATOM     21  H   UNL     1     -43.993  36.545  -9.702  1.00  0.00     0.293 HD
ENDBRANCH  17  20
ENDBRANCH   1  12
BRANCH   2  22
ATOM     22  O   UNL     1     -45.620  37.125  -4.665  1.00  0.00    -0.502 OA
ATOM     23  H   UNL     1     -46.112  37.026  -5.545  1.00  0.00     0.293 HD
ENDBRANCH   2  22
BRANCH   6  24
ATOM     24  O   UNL     1     -42.828  36.345  -0.196  1.00  0.00    -0.507 OA
ATOM     25  H   UNL     1     -42.441  37.250  -0.415  1.00  0.00     0.293 HD
ENDBRANCH   6  24
BRANCH   8  26
ATOM     26  O   UNL     1     -41.181  31.919  -0.959  1.00  0.00    -0.508 OA
ATOM     27  H   UNL     1     -41.622  31.045  -0.697  1.00  0.00     0.293 HD
ENDBRANCH   8  26
TORSDOF 6
ENDMDL
MODEL 6
REMARK VINA RESULT:    -6.845      1.941      6.675
REMARK INTER + INTRA:          -8.479
REMARK INTER:                  -8.169
REMARK INTRA:                  -0.310
REMARK UNBOUND:                -0.234
REMARK SMILES O=c1c(O)c(-c2ccc(O)c(O)c2)oc2cc(O)cc(O)c12
REMARK SMILES IDX 5 1 3 2 2 3 1 4 22 5 20 6 19 7 17 8 16 9 15 10 14 11 6 12
REMARK SMILES IDX 7 13 8 14 9 15 13 16 11 17 10 18 12 20 4 22 21 24 18 26
REMARK H PARENT 10 19 12 21 4 23 21 25 18 27
REMARK Flexibility Score: inf
ROOT
ATOM      1  C   UNL     1     -43.891  34.773  -5.600  1.00  0.00     0.180 A 
ATOM      2  C   UNL     1     -44.221  36.012  -5.022  1.00  0.00     0.208 A 
ATOM      3  C   UNL     1     -43.856  36.260  -3.688  1.00  0.00     0.238 A 
ATOM      4  O   UNL     1     -44.220  37.340  -3.155  1.00  0.00    -0.285 OA
ATOM      5  C   UNL     1     -43.119  35.290  -2.967  1.00  0.00     0.111 A 
ATOM      6  C   UNL     1     -42.657  35.452  -1.626  1.00  0.00     0.134 A 
ATOM      7  C   UNL     1     -42.028  34.382  -0.977  1.00  0.00     0.093 A 
ATOM      8  C   UNL     1     -41.786  33.180  -1.639  1.00  0.00     0.123 A 
ATOM      9  C   UNL     1     -42.183  33.029  -2.968  1.00  0.00     0.094 A 
ATOM     10  C   UNL     1     -42.847  34.064  -3.630  1.00  0.00     0.146 A 
ATOM     11  O   UNL     1     -43.227  33.871  -4.887  1.00  0.00    -0.452 OA
ENDROOT
BRANCH   1  12
ATOM     12  C   UNL     1     -44.254  34.433  -6.994  1.00  0.00     0.025 A 
ATOM     13  C   UNL     1     -43.423  34.851  -8.045  1.00  0.00     0.016 A 
ATOM     14  C   UNL     1     -43.734  34.524  -9.367  1.00  0.00     0.051 A 
ATOM     15  C   UNL     1     -44.870  33.762  -9.658  1.00  0.00     0.157 A 
ATOM     16  C   UNL     1     -45.384  33.649  -7.287  1.00  0.00     0.062 A 
ATOM     17  C   UNL     1     -45.697  33.317  -8.613  1.00  0.00     0.158 A 
BRANCH  15  18
ATOM     18  O   UNL     1     -45.156  33.453 -10.988  1.00  0.00    -0.504 OA
ATOM     19  H   UNL     1     -44.652  32.734 -11.493  1.00  0.00     0.293 HD
ENDBRANCH  15  18
BRANCH  17  20
ATOM     20  O   UNL     1     -46.822  32.544  -8.896  1.00  0.00    -0.504 OA
ATOM     21  H   UNL     1     -46.834  31.885  -9.666  1.00  0.00     0.293 HD
ENDBRANCH  17  20
ENDBRANCH   1  12
BRANCH   2  22
ATOM     22  O   UNL     1     -44.883  36.985  -5.775  1.00  0.00    -0.502 OA
ATOM     23  H   UNL     1     -45.877  37.159  -5.686  1.00  0.00     0.293 HD
ENDBRANCH   2  22
BRANCH   6  24
ATOM     24  O   UNL     1     -42.767  36.642  -0.898  1.00  0.00    -0.507 OA
ATOM     25  H   UNL     1     -42.022  37.066  -0.368  1.00  0.00     0.293 HD
ENDBRANCH   6  24
BRANCH   8  26
ATOM     26  O   UNL     1     -41.141  32.144  -0.968  1.00  0.00    -0.508 OA
ATOM     27  H   UNL     1     -40.595  31.449  -1.465  1.00  0.00     0.293 HD
ENDBRANCH   8  26
TORSDOF 6
ENDMDL
MODEL 7
REMARK VINA RESULT:    -6.638      2.386      7.414
REMARK INTER + INTRA:          -8.231
REMARK INTER:                  -7.992
REMARK INTRA:                  -0.238
REMARK UNBOUND:                -0.234
REMARK SMILES O=c1c(O)c(-c2ccc(O)c(O)c2)oc2cc(O)cc(O)c12
REMARK SMILES IDX 5 1 3 2 2 3 1 4 22 5 20 6 19 7 17 8 16 9 15 10 14 11 6 12
REMARK SMILES IDX 7 13 8 14 9 15 13 16 11 17 10 18 12 20 4 22 21 24 18 26
REMARK H PARENT 10 19 12 21 4 23 21 25 18 27
REMARK Flexibility Score: inf
ROOT
ATOM      1  C   UNL     1     -43.820  34.375  -4.527  1.00  0.00     0.180 A 
ATOM      2  C   UNL     1     -42.662  33.585  -4.415  1.00  0.00     0.208 A 
ATOM      3  C   UNL     1     -41.932  33.612  -3.215  1.00  0.00     0.238 A 
ATOM      4  O   UNL     1     -40.858  32.961  -3.149  1.00  0.00    -0.285 OA
ATOM      5  C   UNL     1     -42.398  34.385  -2.124  1.00  0.00     0.111 A 
ATOM      6  C   UNL     1     -41.764  34.453  -0.847  1.00  0.00     0.134 A 
ATOM      7  C   UNL     1     -42.256  35.334   0.123  1.00  0.00     0.093 A 
ATOM      8  C   UNL     1     -43.395  36.102  -0.112  1.00  0.00     0.123 A 
ATOM      9  C   UNL     1     -44.056  36.003  -1.337  1.00  0.00     0.094 A 
ATOM     10  C   UNL     1     -43.567  35.162  -2.339  1.00  0.00     0.146 A 
ATOM     11  O   UNL     1     -44.213  35.114  -3.498  1.00  0.00    -0.452 OA
ENDROOT
BRANCH   1  12
ATOM     12  C   UNL     1     -44.633  34.410  -5.763  1.00  0.00     0.025 A 
ATOM     13  C   UNL     1     -45.930  33.873  -5.752  1.00  0.00     0.016 A 
ATOM     14  C   UNL     1     -46.723  33.914  -6.901  1.00  0.00     0.051 A 
ATOM     15  C   UNL     1     -46.241  34.504  -8.073  1.00  0.00     0.157 A 
ATOM     16  C   UNL     1     -44.157  35.022  -6.937  1.00  0.00     0.062 A 
ATOM     17  C   UNL     1     -44.953  35.066  -8.091  1.00  0.00     0.158 A 
BRANCH  15  18
ATOM     18  O   UNL     1     -47.055  34.528  -9.205  1.00  0.00    -0.504 OA
ATOM     19  H   UNL     1     -47.530  33.700  -9.543  1.00  0.00     0.293 HD
ENDBRANCH  15  18
BRANCH  17  20
ATOM     20  O   UNL     1     -44.472  35.669  -9.252  1.00  0.00    -0.504 OA
ATOM     21  H   UNL     1     -44.110  35.121 -10.024  1.00  0.00     0.293 HD
ENDBRANCH  17  20
ENDBRANCH   1  12
BRANCH   2  22
ATOM     22  O   UNL     1     -42.261  32.770  -5.477  1.00  0.00    -0.502 OA
ATOM     23  H   UNL     1     -41.935  31.820  -5.341  1.00  0.00     0.293 HD
ENDBRANCH   2  22
BRANCH   6  24
ATOM     24  O   UNL     1     -40.671  33.664  -0.473  1.00  0.00    -0.507 OA
ATOM     25  H   UNL     1     -40.545  32.695  -0.722  1.00  0.00     0.293 HD
ENDBRANCH   6  24
BRANCH   8  26
ATOM     26  O   UNL     1     -43.867  36.955   0.882  1.00  0.00    -0.508 OA
ATOM     27  H   UNL     1     -43.999  37.945   0.713  1.00  0.00     0.293 HD
ENDBRANCH   8  26
TORSDOF 6
ENDMDL
MODEL 8
REMARK VINA RESULT:    -6.527      1.514      6.689
REMARK INTER + INTRA:          -8.096
REMARK INTER:                  -7.802
REMARK INTRA:                  -0.294
REMARK UNBOUND:                -0.234
REMARK SMILES O=c1c(O)c(-c2ccc(O)c(O)c2)oc2cc(O)cc(O)c12
REMARK SMILES IDX 5 1 3 2 2 3 1 4 22 5 20 6 19 7 17 8 16 9 15 10 14 11 6 12
REMARK SMILES IDX 7 13 8 14 9 15 13 16 11 17 10 18 12 20 4 22 21 24 18 26
REMARK H PARENT 10 19 12 21 4 23 21 25 18 27
REMARK Flexibility Score: inf
ROOT
ATOM      1  C   UNL     1     -45.327  34.214  -5.830  1.00  0.00     0.180 A 
ATOM      2  C   UNL     1     -45.908  34.911  -4.756  1.00  0.00     0.208 A 
ATOM      3  C   UNL     1     -45.163  35.095  -3.580  1.00  0.00     0.238 A 
ATOM      4  O   UNL     1     -45.715  35.654  -2.597  1.00  0.00    -0.285 OA
ATOM      5  C   UNL     1     -43.828  34.629  -3.511  1.00  0.00     0.111 A 
ATOM      6  C   UNL     1     -42.964  34.799  -2.387  1.00  0.00     0.134 A 
ATOM      7  C   UNL     1     -41.698  34.202  -2.392  1.00  0.00     0.093 A 
ATOM      8  C   UNL     1     -41.238  33.497  -3.503  1.00  0.00     0.123 A 
ATOM      9  C   UNL     1     -42.051  33.371  -4.629  1.00  0.00     0.094 A 
ATOM     10  C   UNL     1     -43.335  33.922  -4.640  1.00  0.00     0.146 A 
ATOM     11  O   UNL     1     -44.085  33.760  -5.724  1.00  0.00    -0.452 OA
ENDROOT
BRANCH   1  12
ATOM     12  C   UNL     1     -46.055  33.968  -7.095  1.00  0.00     0.025 A 
ATOM     13  C   UNL     1     -45.724  34.713  -8.237  1.00  0.00     0.016 A 
ATOM     14  C   UNL     1     -46.382  34.484  -9.448  1.00  0.00     0.051 A 
ATOM     15  C   UNL     1     -47.369  33.498  -9.541  1.00  0.00     0.157 A 
ATOM     16  C   UNL     1     -47.033  32.962  -7.195  1.00  0.00     0.062 A 
ATOM     17  C   UNL     1     -47.693  32.728  -8.410  1.00  0.00     0.158 A 
BRANCH  15  18
ATOM     18  O   UNL     1     -48.011  33.293 -10.762  1.00  0.00    -0.504 OA
ATOM     19  H   UNL     1     -47.821  32.483 -11.340  1.00  0.00     0.293 HD
ENDBRANCH  15  18
BRANCH  17  20
ATOM     20  O   UNL     1     -48.666  31.734  -8.499  1.00  0.00    -0.504 OA
ATOM     21  H   UNL     1     -49.545  31.804  -7.998  1.00  0.00     0.293 HD
ENDBRANCH  17  20
ENDBRANCH   1  12
BRANCH   2  22
ATOM     22  O   UNL     1     -47.201  35.430  -4.871  1.00  0.00    -0.502 OA
ATOM     23  H   UNL     1     -48.024  34.840  -4.898  1.00  0.00     0.293 HD
ENDBRANCH   2  22
BRANCH   6  24
ATOM     24  O   UNL     1     -43.288  35.560  -1.259  1.00  0.00    -0.507 OA
ATOM     25  H   UNL     1     -43.627  36.509  -1.281  1.00  0.00     0.293 HD
ENDBRANCH   6  24
BRANCH   8  26
ATOM     26  O   UNL     1     -39.965  32.932  -3.480  1.00  0.00    -0.508 OA
ATOM     27  H   UNL     1     -39.219  33.279  -4.072  1.00  0.00     0.293 HD
ENDBRANCH   8  26
TORSDOF 6
ENDMDL
MODEL 9
REMARK VINA RESULT:    -6.417      4.453      5.929
REMARK INTER + INTRA:          -7.964
REMARK INTER:                  -7.657
REMARK INTRA:                  -0.306
REMARK UNBOUND:                -0.234
REMARK SMILES O=c1c(O)c(-c2ccc(O)c(O)c2)oc2cc(O)cc(O)c12
REMARK SMILES IDX 5 1 3 2 2 3 1 4 22 5 20 6 19 7 17 8 16 9 15 10 14 11 6 12
REMARK SMILES IDX 7 13 8 14 9 15 13 16 11 17 10 18 12 20 4 22 21 24 18 26
REMARK H PARENT 10 19 12 21 4 23 21 25 18 27
REMARK Flexibility Score: inf
ROOT
ATOM      1  C   UNL     1     -44.398  36.419  -1.991  1.00  0.00     0.180 A 
ATOM      2  C   UNL     1     -44.211  37.386  -0.987  1.00  0.00     0.208 A 
ATOM      3  C   UNL     1     -45.226  38.327  -0.752  1.00  0.00     0.238 A 
ATOM      4  O   UNL     1     -45.022  39.234   0.096  1.00  0.00    -0.285 OA
ATOM      5  C   UNL     1     -46.437  38.257  -1.482  1.00  0.00     0.111 A 
ATOM      6  C   UNL     1     -47.551  39.130  -1.296  1.00  0.00     0.134 A 
ATOM      7  C   UNL     1     -48.656  39.033  -2.151  1.00  0.00     0.093 A 
ATOM      8  C   UNL     1     -48.716  38.055  -3.142  1.00  0.00     0.123 A 
ATOM      9  C   UNL     1     -47.657  37.160  -3.298  1.00  0.00     0.094 A 
ATOM     10  C   UNL     1     -46.525  37.256  -2.486  1.00  0.00     0.146 A 
ATOM     11  O   UNL     1     -45.530  36.399  -2.682  1.00  0.00    -0.452 OA
ENDROOT
BRANCH   1  12
ATOM     12  C   UNL     1     -43.368  35.404  -2.308  1.00  0.00     0.025 A 
ATOM     13  C   UNL     1     -42.469  35.638  -3.360  1.00  0.00     0.016 A 
ATOM     14  C   UNL     1     -41.476  34.704  -3.664  1.00  0.00     0.051 A 
ATOM     15  C   UNL     1     -41.355  33.530  -2.914  1.00  0.00     0.157 A 
ATOM     16  C   UNL     1     -43.232  34.233  -1.541  1.00  0.00     0.062 A 
ATOM     17  C   UNL     1     -42.234  33.295  -1.842  1.00  0.00     0.158 A 
BRANCH  15  18
ATOM     18  O   UNL     1     -40.355  32.615  -3.242  1.00  0.00    -0.504 OA
ATOM     19  H   UNL     1     -39.569  32.435  -2.629  1.00  0.00     0.293 HD
ENDBRANCH  15  18
BRANCH  17  20
ATOM     20  O   UNL     1     -42.109  32.134  -1.081  1.00  0.00    -0.504 OA
ATOM     21  H   UNL     1     -42.417  32.097  -0.116  1.00  0.00     0.293 HD
ENDBRANCH  17  20
ENDBRANCH   1  12
BRANCH   2  22
ATOM     22  O   UNL     1     -43.041  37.391  -0.224  1.00  0.00    -0.502 OA
ATOM     23  H   UNL     1     -42.270  38.021  -0.415  1.00  0.00     0.293 HD
ENDBRANCH   2  22
BRANCH   6  24
ATOM     24  O   UNL     1     -47.634  40.086  -0.279  1.00  0.00    -0.507 OA
ATOM     25  H   UNL     1     -47.337  39.944   0.674  1.00  0.00     0.293 HD
ENDBRANCH   6  24
BRANCH   8  26
ATOM     26  O   UNL     1     -49.839  37.976  -3.963  1.00  0.00    -0.508 OA
ATOM     27  H   UNL     1     -49.824  37.460  -4.834  1.00  0.00     0.293 HD
ENDBRANCH   8  26
TORSDOF 6
ENDMDL
