MODEL 1
REMARK VINA RESULT:    -3.160      0.000      0.000
REMARK INTER + INTRA:         -14.643
REMARK INTER:                  -8.333
REMARK INTRA:                  -6.310
REMARK UNBOUND:                -6.310
REMARK SMILES CCCCCCCCCCCCCCCCCCCCCCCCCCCCCC(=O)[O-]
REMARK SMILES IDX 16 1 17 2 18 3 19 4 20 5 21 6 22 7 23 8 24 9 25 10 26 11
REMARK SMILES IDX 27 12 28 13 29 14 30 15 31 16 32 17 15 18 14 19 13 20 12 21
REMARK SMILES IDX 11 22 10 23 9 24 8 25 7 26 6 27 5 28 4 29 3 30 2 31 1 32
REMARK H PARENT
REMARK Flexibility Score: inf
ROOT
ATOM      1  C   UNL     1      20.980   5.663  30.766  1.00  0.00     0.000 C 
ENDROOT
BRANCH   1   2
ATOM      2  C   UNL     1      21.858   6.612  31.601  1.00  0.00     0.000 C 
BRANCH   2   3
ATOM      3  C   UNL     1      23.271   6.060  31.853  1.00  0.00     0.000 C 
BRANCH   3   4
ATOM      4  C   UNL     1      23.897   6.565  33.170  1.00  0.00     0.000 C 
BRANCH   4   5
ATOM      5  C   UNL     1      24.735   5.512  33.922  1.00  0.00     0.000 C 
BRANCH   5   6
ATOM      6  C   UNL     1      26.253   5.570  33.677  1.00  0.00     0.000 C 
BRANCH   6   7
ATOM      7  C   UNL     1      26.778   4.655  32.551  1.00  0.00     0.000 C 
BRANCH   7   8
ATOM      8  C   UNL     1      27.510   5.380  31.406  1.00  0.00     0.000 C 
BRANCH   8   9
ATOM      9  C   UNL     1      26.550   6.077  30.427  1.00  0.00     0.000 C 
BRANCH   9  10
ATOM     10  C   UNL     1      26.984   7.515  30.097  1.00  0.00     0.000 C 
BRANCH  10  11
ATOM     11  C   UNL     1      25.788   8.453  29.854  1.00  0.00     0.000 C 
BRANCH  11  12
ATOM     12  C   UNL     1      25.340   9.187  31.127  1.00  0.00     0.000 C 
BRANCH  12  13
ATOM     13  C   UNL     1      23.912   9.750  31.017  1.00  0.00     0.006 C 
BRANCH  13  14
ATOM     14  C   UNL     1      23.289   9.478  29.642  1.00  0.00     0.053 C 
BRANCH  14  15
ATOM     15  C   UNL     1      22.812  10.739  28.988  1.00  0.00     0.041 C 
ATOM     16  O   UNL     1      22.578  11.765  29.680  1.00  0.00    -0.550 OA
ATOM     17  O   UNL     1      22.594  10.771  27.616  1.00  0.00    -0.550 OA
ENDBRANCH  14  15
ENDBRANCH  13  14
ENDBRANCH  12  13
ENDBRANCH  11  12
ENDBRANCH  10  11
ENDBRANCH   9  10
ENDBRANCH   8   9
ENDBRANCH   7   8
ENDBRANCH   6   7
ENDBRANCH   5   6
ENDBRANCH   4   5
ENDBRANCH   3   4
ENDBRANCH   2   3
ENDBRANCH   1   2
BRANCH   1  18
ATOM     18  C   UNL     1      20.248   4.586  31.594  1.00  0.00     0.000 C 
BRANCH  18  19
ATOM     19  C   UNL     1      20.048   5.012  33.060  1.00  0.00     0.000 C 
BRANCH  19  20
ATOM     20  C   UNL     1      20.836   4.134  34.046  1.00  0.00     0.000 C 
BRANCH  20  21
ATOM     21  C   UNL     1      21.451   2.900  33.368  1.00  0.00     0.000 C 
BRANCH  21  22
ATOM     22  C   UNL     1      22.689   2.409  34.125  1.00  0.00     0.000 C 
BRANCH  22  23
ATOM     23  C   UNL     1      23.721   1.821  33.151  1.00  0.00     0.000 C 
BRANCH  23  24
ATOM     24  C   UNL     1      23.712   2.506  31.773  1.00  0.00    -0.000 C 
BRANCH  24  25
ATOM     25  C   UNL     1      24.610   1.849  30.703  1.00  0.00    -0.000 C 
BRANCH  25  26
ATOM     26  C   UNL     1      25.355   2.830  29.780  1.00  0.00    -0.000 C 
BRANCH  26  27
ATOM     27  C   UNL     1      25.278   2.433  28.296  1.00  0.00    -0.000 C 
BRANCH  27  28
ATOM     28  C   UNL     1      24.368   3.364  27.475  1.00  0.00    -0.000 C 
BRANCH  28  29
ATOM     29  C   UNL     1      23.361   4.191  28.299  1.00  0.00    -0.000 C 
BRANCH  29  30
ATOM     30  C   UNL     1      23.561   5.716  28.234  1.00  0.00    -0.000 C 
BRANCH  30  31
ATOM     31  C   UNL     1      23.036   6.334  26.930  1.00  0.00    -0.003 C 
ATOM     32  C   UNL     1      23.965   7.440  26.438  1.00  0.00     0.004 C 
ENDBRANCH  30  31
ENDBRANCH  29  30
ENDBRANCH  28  29
ENDBRANCH  27  28
ENDBRANCH  26  27
ENDBRANCH  25  26
ENDBRANCH  24  25
ENDBRANCH  23  24
ENDBRANCH  22  23
ENDBRANCH  21  22
ENDBRANCH  20  21
ENDBRANCH  19  20
ENDBRANCH  18  19
ENDBRANCH   1  18
TORSDOF 28
ENDMDL
MODEL 2
REMARK VINA RESULT:    -3.127      2.535      6.534
REMARK INTER + INTRA:         -14.556
REMARK INTER:                  -8.537
REMARK INTRA:                  -6.018
REMARK UNBOUND:                -6.310
REMARK SMILES CCCCCCCCCCCCCCCCCCCCCCCCCCCCCC(=O)[O-]
REMARK SMILES IDX 16 1 17 2 18 3 19 4 20 5 21 6 22 7 23 8 24 9 25 10 26 11
REMARK SMILES IDX 27 12 28 13 29 14 30 15 31 16 32 17 15 18 14 19 13 20 12 21
REMARK SMILES IDX 11 22 10 23 9 24 8 25 7 26 6 27 5 28 4 29 3 30 2 31 1 32
REMARK H PARENT
REMARK Flexibility Score: inf
ROOT
ATOM      1  C   UNL     1      22.932   6.080  27.000  1.00  0.00     0.000 C 
ENDROOT
BRANCH   1   2
ATOM      2  C   UNL     1      23.888   4.996  27.529  1.00  0.00     0.000 C 
BRANCH   2   3
ATOM      3  C   UNL     1      23.267   4.136  28.643  1.00  0.00     0.000 C 
BRANCH   3   4
ATOM      4  C   UNL     1      23.627   2.640  28.533  1.00  0.00     0.000 C 
BRANCH   4   5
ATOM      5  C   UNL     1      24.555   2.294  27.352  1.00  0.00     0.000 C 
BRANCH   5   6
ATOM      6  C   UNL     1      25.959   1.792  27.733  1.00  0.00     0.000 C 
BRANCH   6   7
ATOM      7  C   UNL     1      26.444   2.189  29.144  1.00  0.00     0.000 C 
BRANCH   7   8
ATOM      8  C   UNL     1      26.900   3.652  29.291  1.00  0.00     0.000 C 
BRANCH   8   9
ATOM      9  C   UNL     1      26.536   4.258  30.658  1.00  0.00     0.000 C 
BRANCH   9  10
ATOM     10  C   UNL     1      25.592   3.355  31.471  1.00  0.00     0.000 C 
BRANCH  10  11
ATOM     11  C   UNL     1      24.618   4.158  32.353  1.00  0.00     0.000 C 
BRANCH  11  12
ATOM     12  C   UNL     1      23.538   3.277  32.999  1.00  0.00     0.000 C 
BRANCH  12  13
ATOM     13  C   UNL     1      22.173   3.982  33.092  1.00  0.00     0.006 C 
BRANCH  13  14
ATOM     14  C   UNL     1      21.440   3.999  31.745  1.00  0.00     0.053 C 
BRANCH  14  15
ATOM     15  C   UNL     1      20.051   4.546  31.875  1.00  0.00     0.041 C 
ATOM     16  O   UNL     1      19.638   4.976  32.984  1.00  0.00    -0.550 OA
ATOM     17  O   UNL     1      19.200   4.549  30.777  1.00  0.00    -0.550 OA
ENDBRANCH  14  15
ENDBRANCH  13  14
ENDBRANCH  12  13
ENDBRANCH  11  12
ENDBRANCH  10  11
ENDBRANCH   9  10
ENDBRANCH   8   9
ENDBRANCH   7   8
ENDBRANCH   6   7
ENDBRANCH   5   6
ENDBRANCH   4   5
ENDBRANCH   3   4
ENDBRANCH   2   3
ENDBRANCH   1   2
BRANCH   1  18
ATOM     18  C   UNL     1      23.625   7.407  26.627  1.00  0.00     0.000 C 
BRANCH  18  19
ATOM     19  C   UNL     1      24.995   7.564  27.311  1.00  0.00     0.000 C 
BRANCH  19  20
ATOM     20  C   UNL     1      24.926   8.411  28.592  1.00  0.00     0.000 C 
BRANCH  20  21
ATOM     21  C   UNL     1      25.549   7.697  29.801  1.00  0.00     0.000 C 
BRANCH  21  22
ATOM     22  C   UNL     1      24.483   7.329  30.838  1.00  0.00     0.000 C 
BRANCH  22  23
ATOM     23  C   UNL     1      23.079   7.675  30.319  1.00  0.00     0.000 C 
BRANCH  23  24
ATOM     24  C   UNL     1      21.998   7.618  31.413  1.00  0.00    -0.000 C 
BRANCH  24  25
ATOM     25  C   UNL     1      22.520   7.707  32.862  1.00  0.00    -0.000 C 
BRANCH  25  26
ATOM     26  C   UNL     1      22.191   9.019  33.598  1.00  0.00    -0.000 C 
BRANCH  26  27
ATOM     27  C   UNL     1      21.372   9.998  32.740  1.00  0.00    -0.000 C 
BRANCH  27  28
ATOM     28  C   UNL     1      22.102  11.332  32.497  1.00  0.00    -0.000 C 
BRANCH  28  29
ATOM     29  C   UNL     1      23.640  11.236  32.430  1.00  0.00    -0.000 C 
BRANCH  29  30
ATOM     30  C   UNL     1      24.225  11.113  31.012  1.00  0.00    -0.000 C 
BRANCH  30  31
ATOM     31  C   UNL     1      23.491  11.983  29.982  1.00  0.00    -0.003 C 
ATOM     32  C   UNL     1      22.877  11.124  28.881  1.00  0.00     0.004 C 
ENDBRANCH  30  31
ENDBRANCH  29  30
ENDBRANCH  28  29
ENDBRANCH  27  28
ENDBRANCH  26  27
ENDBRANCH  25  26
ENDBRANCH  24  25
ENDBRANCH  23  24
ENDBRANCH  22  23
ENDBRANCH  21  22
ENDBRANCH  20  21
ENDBRANCH  19  20
ENDBRANCH  18  19
ENDBRANCH   1  18
TORSDOF 28
ENDMDL
MODEL 3
REMARK VINA RESULT:    -3.085      1.707      4.853
REMARK INTER + INTRA:         -14.446
REMARK INTER:                  -8.951
REMARK INTRA:                  -5.495
REMARK UNBOUND:                -6.310
REMARK SMILES CCCCCCCCCCCCCCCCCCCCCCCCCCCCCC(=O)[O-]
REMARK SMILES IDX 16 1 17 2 18 3 19 4 20 5 21 6 22 7 23 8 24 9 25 10 26 11
REMARK SMILES IDX 27 12 28 13 29 14 30 15 31 16 32 17 15 18 14 19 13 20 12 21
REMARK SMILES IDX 11 22 10 23 9 24 8 25 7 26 6 27 5 28 4 29 3 30 2 31 1 32
REMARK H PARENT
REMARK Flexibility Score: inf
ROOT
ATOM      1  C   UNL     1      23.372   6.353  26.609  1.00  0.00     0.000 C 
ENDROOT
BRANCH   1   2
ATOM      2  C   UNL     1      24.396   7.450  26.951  1.00  0.00     0.000 C 
BRANCH   2   3
ATOM      3  C   UNL     1      24.238   7.996  28.380  1.00  0.00     0.000 C 
BRANCH   3   4
ATOM      4  C   UNL     1      25.532   7.903  29.216  1.00  0.00     0.000 C 
BRANCH   4   5
ATOM      5  C   UNL     1      25.705   6.575  29.978  1.00  0.00     0.000 C 
BRANCH   5   6
ATOM      6  C   UNL     1      24.967   6.479  31.325  1.00  0.00     0.000 C 
BRANCH   6   7
ATOM      7  C   UNL     1      23.932   5.340  31.433  1.00  0.00     0.000 C 
BRANCH   7   8
ATOM      8  C   UNL     1      22.483   5.794  31.695  1.00  0.00     0.000 C 
BRANCH   8   9
ATOM      9  C   UNL     1      22.148   7.139  31.029  1.00  0.00     0.000 C 
BRANCH   9  10
ATOM     10  C   UNL     1      21.779   8.228  32.051  1.00  0.00     0.000 C 
BRANCH  10  11
ATOM     11  C   UNL     1      22.793   9.386  32.076  1.00  0.00     0.000 C 
BRANCH  11  12
ATOM     12  C   UNL     1      22.137  10.754  31.833  1.00  0.00     0.000 C 
BRANCH  12  13
ATOM     13  C   UNL     1      22.940  11.634  30.858  1.00  0.00     0.006 C 
BRANCH  13  14
ATOM     14  C   UNL     1      23.193  10.928  29.519  1.00  0.00     0.053 C 
BRANCH  14  15
ATOM     15  C   UNL     1      22.982  11.849  28.357  1.00  0.00     0.041 C 
ATOM     16  O   UNL     1      23.606  12.942  28.290  1.00  0.00    -0.550 OA
ATOM     17  O   UNL     1      22.070  11.517  27.362  1.00  0.00    -0.550 OA
ENDBRANCH  14  15
ENDBRANCH  13  14
ENDBRANCH  12  13
ENDBRANCH  11  12
ENDBRANCH  10  11
ENDBRANCH   9  10
ENDBRANCH   8   9
ENDBRANCH   7   8
ENDBRANCH   6   7
ENDBRANCH   5   6
ENDBRANCH   4   5
ENDBRANCH   3   4
ENDBRANCH   2   3
ENDBRANCH   1   2
BRANCH   1  18
ATOM     18  C   UNL     1      23.080   5.377  27.768  1.00  0.00     0.000 C 
BRANCH  18  19
ATOM     19  C   UNL     1      24.026   4.162  27.761  1.00  0.00     0.000 C 
BRANCH  19  20
ATOM     20  C   UNL     1      23.556   3.040  28.702  1.00  0.00     0.000 C 
BRANCH  20  21
ATOM     21  C   UNL     1      23.941   1.645  28.185  1.00  0.00     0.000 C 
BRANCH  21  22
ATOM     22  C   UNL     1      24.764   1.737  26.896  1.00  0.00     0.000 C 
BRANCH  22  23
ATOM     23  C   UNL     1      26.046   0.899  27.011  1.00  0.00     0.000 C 
BRANCH  23  24
ATOM     24  C   UNL     1      27.308   1.751  27.235  1.00  0.00    -0.000 C 
BRANCH  24  25
ATOM     25  C   UNL     1      27.721   1.946  28.709  1.00  0.00    -0.000 C 
BRANCH  25  26
ATOM     26  C   UNL     1      27.177   3.221  29.379  1.00  0.00    -0.000 C 
BRANCH  26  27
ATOM     27  C   UNL     1      27.018   3.077  30.902  1.00  0.00    -0.000 C 
BRANCH  27  28
ATOM     28  C   UNL     1      26.287   1.783  31.306  1.00  0.00    -0.000 C 
BRANCH  28  29
ATOM     29  C   UNL     1      25.101   1.973  32.272  1.00  0.00    -0.000 C 
BRANCH  29  30
ATOM     30  C   UNL     1      23.812   1.231  31.878  1.00  0.00    -0.000 C 
BRANCH  30  31
ATOM     31  C   UNL     1      22.539   1.946  32.355  1.00  0.00    -0.003 C 
ATOM     32  C   UNL     1      22.704   2.459  33.782  1.00  0.00     0.004 C 
ENDBRANCH  30  31
ENDBRANCH  29  30
ENDBRANCH  28  29
ENDBRANCH  27  28
ENDBRANCH  26  27
ENDBRANCH  25  26
ENDBRANCH  24  25
ENDBRANCH  23  24
ENDBRANCH  22  23
ENDBRANCH  21  22
ENDBRANCH  20  21
ENDBRANCH  19  20
ENDBRANCH  18  19
ENDBRANCH   1  18
TORSDOF 28
ENDMDL
MODEL 4
REMARK VINA RESULT:    -3.055      8.979     14.661
REMARK INTER + INTRA:         -14.365
REMARK INTER:                  -8.864
REMARK INTRA:                  -5.501
REMARK UNBOUND:                -6.310
REMARK SMILES CCCCCCCCCCCCCCCCCCCCCCCCCCCCCC(=O)[O-]
REMARK SMILES IDX 16 1 17 2 18 3 19 4 20 5 21 6 22 7 23 8 24 9 25 10 26 11
REMARK SMILES IDX 27 12 28 13 29 14 30 15 31 16 32 17 15 18 14 19 13 20 12 21
REMARK SMILES IDX 11 22 10 23 9 24 8 25 7 26 6 27 5 28 4 29 3 30 2 31 1 32
REMARK H PARENT
REMARK Flexibility Score: inf
ROOT
ATOM      1  C   UNL     1      22.814  20.062  24.707  1.00  0.00     0.000 C 
ENDROOT
BRANCH   1   2
ATOM      2  C   UNL     1      22.320  19.856  26.150  1.00  0.00     0.000 C 
BRANCH   2   3
ATOM      3  C   UNL     1      20.924  19.214  26.223  1.00  0.00     0.000 C 
BRANCH   3   4
ATOM      4  C   UNL     1      20.928  17.817  26.879  1.00  0.00     0.000 C 
BRANCH   4   5
ATOM      5  C   UNL     1      22.192  17.503  27.702  1.00  0.00     0.000 C 
BRANCH   5   6
ATOM      6  C   UNL     1      22.008  17.505  29.231  1.00  0.00     0.000 C 
BRANCH   6   7
ATOM      7  C   UNL     1      22.866  18.533  29.999  1.00  0.00     0.000 C 
BRANCH   7   8
ATOM      8  C   UNL     1      22.368  19.988  29.923  1.00  0.00     0.000 C 
BRANCH   8   9
ATOM      9  C   UNL     1      20.916  20.150  30.404  1.00  0.00     0.000 C 
BRANCH   9  10
ATOM     10  C   UNL     1      19.980  20.656  29.293  1.00  0.00     0.000 C 
BRANCH  10  11
ATOM     11  C   UNL     1      18.612  19.949  29.302  1.00  0.00     0.000 C 
BRANCH  11  12
ATOM     12  C   UNL     1      18.621  18.650  30.124  1.00  0.00     0.000 C 
BRANCH  12  13
ATOM     13  C   UNL     1      17.973  17.471  29.378  1.00  0.00     0.006 C 
BRANCH  13  14
ATOM     14  C   UNL     1      17.014  17.941  28.277  1.00  0.00     0.053 C 
BRANCH  14  15
ATOM     15  C   UNL     1      15.995  16.895  27.942  1.00  0.00     0.041 C 
ATOM     16  O   UNL     1      15.422  16.250  28.859  1.00  0.00    -0.550 OA
ATOM     17  O   UNL     1      15.703  16.609  26.614  1.00  0.00    -0.550 OA
ENDBRANCH  14  15
ENDBRANCH  13  14
ENDBRANCH  12  13
ENDBRANCH  11  12
ENDBRANCH  10  11
ENDBRANCH   9  10
ENDBRANCH   8   9
ENDBRANCH   7   8
ENDBRANCH   6   7
ENDBRANCH   5   6
ENDBRANCH   4   5
ENDBRANCH   3   4
ENDBRANCH   2   3
ENDBRANCH   1   2
BRANCH   1  18
ATOM     18  C   UNL     1      23.238  18.762  23.992  1.00  0.00     0.000 C 
BRANCH  18  19
ATOM     19  C   UNL     1      24.365  18.997  22.970  1.00  0.00     0.000 C 
BRANCH  19  20
ATOM     20  C   UNL     1      24.589  20.487  22.666  1.00  0.00     0.000 C 
BRANCH  20  21
ATOM     21  C   UNL     1      26.022  20.941  22.986  1.00  0.00     0.000 C 
BRANCH  21  22
ATOM     22  C   UNL     1      26.874  19.772  23.494  1.00  0.00     0.000 C 
BRANCH  22  23
ATOM     23  C   UNL     1      27.455  20.089  24.880  1.00  0.00     0.000 C 
BRANCH  23  24
ATOM     24  C   UNL     1      26.398  20.592  25.879  1.00  0.00    -0.000 C 
BRANCH  24  25
ATOM     25  C   UNL     1      26.100  19.642  27.059  1.00  0.00    -0.000 C 
BRANCH  25  26
ATOM     26  C   UNL     1      25.836  18.176  26.669  1.00  0.00    -0.000 C 
BRANCH  26  27
ATOM     27  C   UNL     1      27.062  17.270  26.879  1.00  0.00    -0.000 C 
BRANCH  27  28
ATOM     28  C   UNL     1      26.890  16.298  28.060  1.00  0.00    -0.000 C 
BRANCH  28  29
ATOM     29  C   UNL     1      25.578  16.457  28.855  1.00  0.00    -0.000 C 
BRANCH  29  30
ATOM     30  C   UNL     1      24.938  15.140  29.328  1.00  0.00    -0.000 C 
BRANCH  30  31
ATOM     31  C   UNL     1      24.280  14.349  28.189  1.00  0.00    -0.003 C 
ATOM     32  C   UNL     1      24.093  12.885  28.577  1.00  0.00     0.004 C 
ENDBRANCH  30  31
ENDBRANCH  29  30
ENDBRANCH  28  29
ENDBRANCH  27  28
ENDBRANCH  26  27
ENDBRANCH  25  26
ENDBRANCH  24  25
ENDBRANCH  23  24
ENDBRANCH  22  23
ENDBRANCH  21  22
ENDBRANCH  20  21
ENDBRANCH  19  20
ENDBRANCH  18  19
ENDBRANCH   1  18
TORSDOF 28
ENDMDL
MODEL 5
REMARK VINA RESULT:    -3.031      1.783      5.102
REMARK INTER + INTRA:         -14.303
REMARK INTER:                  -8.494
REMARK INTRA:                  -5.809
REMARK UNBOUND:                -6.310
REMARK SMILES CCCCCCCCCCCCCCCCCCCCCCCCCCCCCC(=O)[O-]
REMARK SMILES IDX 16 1 17 2 18 3 19 4 20 5 21 6 22 7 23 8 24 9 25 10 26 11
REMARK SMILES IDX 27 12 28 13 29 14 30 15 31 16 32 17 15 18 14 19 13 20 12 21
REMARK SMILES IDX 11 22 10 23 9 24 8 25 7 26 6 27 5 28 4 29 3 30 2 31 1 32
REMARK H PARENT
REMARK Flexibility Score: inf
ROOT
ATOM      1  C   UNL     1      23.262   5.347  27.951  1.00  0.00     0.000 C 
ENDROOT
BRANCH   1   2
ATOM      2  C   UNL     1      23.084   6.171  26.663  1.00  0.00     0.000 C 
BRANCH   2   3
ATOM      3  C   UNL     1      23.645   7.599  26.779  1.00  0.00     0.000 C 
BRANCH   3   4
ATOM      4  C   UNL     1      24.928   7.684  27.632  1.00  0.00     0.000 C 
BRANCH   4   5
ATOM      5  C   UNL     1      24.810   8.591  28.873  1.00  0.00     0.000 C 
BRANCH   5   6
ATOM      6  C   UNL     1      23.404   8.692  29.491  1.00  0.00     0.000 C 
BRANCH   6   7
ATOM      7  C   UNL     1      23.223   7.974  30.845  1.00  0.00     0.000 C 
BRANCH   7   8
ATOM      8  C   UNL     1      21.854   8.183  31.519  1.00  0.00     0.000 C 
BRANCH   8   9
ATOM      9  C   UNL     1      21.945   8.998  32.820  1.00  0.00     0.000 C 
BRANCH   9  10
ATOM     10  C   UNL     1      21.306  10.392  32.690  1.00  0.00     0.000 C 
BRANCH  10  11
ATOM     11  C   UNL     1      22.331  11.530  32.847  1.00  0.00     0.000 C 
BRANCH  11  12
ATOM     12  C   UNL     1      23.777  11.061  32.628  1.00  0.00     0.000 C 
BRANCH  12  13
ATOM     13  C   UNL     1      24.511  11.879  31.551  1.00  0.00     0.006 C 
BRANCH  13  14
ATOM     14  C   UNL     1      23.539  12.526  30.556  1.00  0.00     0.053 C 
BRANCH  14  15
ATOM     15  C   UNL     1      23.987  12.338  29.139  1.00  0.00     0.041 C 
ATOM     16  O   UNL     1      23.140  12.259  28.210  1.00  0.00    -0.550 OA
ATOM     17  O   UNL     1      25.340  12.217  28.847  1.00  0.00    -0.550 OA
ENDBRANCH  14  15
ENDBRANCH  13  14
ENDBRANCH  12  13
ENDBRANCH  11  12
ENDBRANCH  10  11
ENDBRANCH   9  10
ENDBRANCH   8   9
ENDBRANCH   7   8
ENDBRANCH   6   7
ENDBRANCH   5   6
ENDBRANCH   4   5
ENDBRANCH   3   4
ENDBRANCH   2   3
ENDBRANCH   1   2
BRANCH   1  18
ATOM     18  C   UNL     1      23.998   4.006  27.747  1.00  0.00     0.000 C 
BRANCH  18  19
ATOM     19  C   UNL     1      23.482   2.906  28.693  1.00  0.00     0.000 C 
BRANCH  19  20
ATOM     20  C   UNL     1      24.459   1.725  28.818  1.00  0.00     0.000 C 
BRANCH  20  21
ATOM     21  C   UNL     1      25.754   1.951  28.023  1.00  0.00     0.000 C 
BRANCH  21  22
ATOM     22  C   UNL     1      26.970   2.028  28.953  1.00  0.00     0.000 C 
BRANCH  22  23
ATOM     23  C   UNL     1      27.702   3.367  28.778  1.00  0.00     0.000 C 
BRANCH  23  24
ATOM     24  C   UNL     1      27.673   4.243  30.043  1.00  0.00    -0.000 C 
BRANCH  24  25
ATOM     25  C   UNL     1      26.667   5.414  30.013  1.00  0.00    -0.000 C 
BRANCH  25  26
ATOM     26  C   UNL     1      25.426   5.235  30.906  1.00  0.00    -0.000 C 
BRANCH  26  27
ATOM     27  C   UNL     1      25.494   3.970  31.779  1.00  0.00    -0.000 C 
BRANCH  27  28
ATOM     28  C   UNL     1      24.116   3.540  32.314  1.00  0.00    -0.000 C 
BRANCH  28  29
ATOM     29  C   UNL     1      23.276   4.668  32.947  1.00  0.00    -0.000 C 
BRANCH  29  30
ATOM     30  C   UNL     1      21.761   4.573  32.697  1.00  0.00    -0.000 C 
BRANCH  30  31
ATOM     31  C   UNL     1      21.393   4.636  31.207  1.00  0.00    -0.003 C 
ATOM     32  C   UNL     1      19.880   4.674  31.019  1.00  0.00     0.004 C 
ENDBRANCH  30  31
ENDBRANCH  29  30
ENDBRANCH  28  29
ENDBRANCH  27  28
ENDBRANCH  26  27
ENDBRANCH  25  26
ENDBRANCH  24  25
ENDBRANCH  23  24
ENDBRANCH  22  23
ENDBRANCH  21  22
ENDBRANCH  20  21
ENDBRANCH  19  20
ENDBRANCH  18  19
ENDBRANCH   1  18
TORSDOF 28
ENDMDL
MODEL 6
REMARK VINA RESULT:    -3.027      2.034      5.979
REMARK INTER + INTRA:         -14.291
REMARK INTER:                  -7.425
REMARK INTRA:                  -6.866
REMARK UNBOUND:                -6.310
REMARK SMILES CCCCCCCCCCCCCCCCCCCCCCCCCCCCCC(=O)[O-]
REMARK SMILES IDX 16 1 17 2 18 3 19 4 20 5 21 6 22 7 23 8 24 9 25 10 26 11
REMARK SMILES IDX 27 12 28 13 29 14 30 15 31 16 32 17 15 18 14 19 13 20 12 21
REMARK SMILES IDX 11 22 10 23 9 24 8 25 7 26 6 27 5 28 4 29 3 30 2 31 1 32
REMARK H PARENT
REMARK Flexibility Score: inf
ROOT
ATOM      1  C   UNL     1      21.452   6.394  31.018  1.00  0.00     0.000 C 
ENDROOT
BRANCH   1   2
ATOM      2  C   UNL     1      21.142   4.886  31.019  1.00  0.00     0.000 C 
BRANCH   2   3
ATOM      3  C   UNL     1      22.185   4.057  31.787  1.00  0.00     0.000 C 
BRANCH   3   4
ATOM      4  C   UNL     1      22.451   2.674  31.157  1.00  0.00     0.000 C 
BRANCH   4   5
ATOM      5  C   UNL     1      22.535   2.680  29.618  1.00  0.00     0.000 C 
BRANCH   5   6
ATOM      6  C   UNL     1      23.567   1.717  29.005  1.00  0.00     0.000 C 
BRANCH   6   7
ATOM      7  C   UNL     1      24.190   2.176  27.670  1.00  0.00     0.000 C 
BRANCH   7   8
ATOM      8  C   UNL     1      25.727   2.101  27.605  1.00  0.00     0.000 C 
BRANCH   8   9
ATOM      9  C   UNL     1      26.399   2.402  28.956  1.00  0.00     0.000 C 
BRANCH   9  10
ATOM     10  C   UNL     1      26.636   3.906  29.174  1.00  0.00     0.000 C 
BRANCH  10  11
ATOM     11  C   UNL     1      25.741   4.492  30.281  1.00  0.00     0.000 C 
BRANCH  11  12
ATOM     12  C   UNL     1      24.817   5.607  29.769  1.00  0.00     0.000 C 
BRANCH  12  13
ATOM     13  C   UNL     1      24.878   5.776  28.241  1.00  0.00     0.006 C 
BRANCH  13  14
ATOM     14  C   UNL     1      23.484   5.937  27.621  1.00  0.00     0.053 C 
BRANCH  14  15
ATOM     15  C   UNL     1      23.506   6.848  26.431  1.00  0.00     0.041 C 
ATOM     16  O   UNL     1      23.158   8.053  26.546  1.00  0.00    -0.550 OA
ATOM     17  O   UNL     1      23.879   6.356  25.187  1.00  0.00    -0.550 OA
ENDBRANCH  14  15
ENDBRANCH  13  14
ENDBRANCH  12  13
ENDBRANCH  11  12
ENDBRANCH  10  11
ENDBRANCH   9  10
ENDBRANCH   8   9
ENDBRANCH   7   8
ENDBRANCH   6   7
ENDBRANCH   5   6
ENDBRANCH   4   5
ENDBRANCH   3   4
ENDBRANCH   2   3
ENDBRANCH   1   2
BRANCH   1  18
ATOM     18  C   UNL     1      22.313   6.863  32.210  1.00  0.00     0.000 C 
BRANCH  18  19
ATOM     19  C   UNL     1      23.210   8.061  31.847  1.00  0.00     0.000 C 
BRANCH  19  20
ATOM     20  C   UNL     1      22.446   9.171  31.107  1.00  0.00     0.000 C 
BRANCH  20  21
ATOM     21  C   UNL     1      23.279   9.803  29.981  1.00  0.00     0.000 C 
BRANCH  21  22
ATOM     22  C   UNL     1      24.661   9.149  29.878  1.00  0.00     0.000 C 
BRANCH  22  23
ATOM     23  C   UNL     1      25.702  10.161  29.377  1.00  0.00     0.000 C 
BRANCH  23  24
ATOM     24  C   UNL     1      27.142   9.617  29.416  1.00  0.00    -0.000 C 
BRANCH  24  25
ATOM     25  C   UNL     1      27.293   8.191  29.985  1.00  0.00    -0.000 C 
BRANCH  25  26
ATOM     26  C   UNL     1      27.831   8.113  31.425  1.00  0.00    -0.000 C 
BRANCH  26  27
ATOM     27  C   UNL     1      26.868   7.396  32.387  1.00  0.00    -0.000 C 
BRANCH  27  28
ATOM     28  C   UNL     1      26.406   8.295  33.548  1.00  0.00    -0.000 C 
BRANCH  28  29
ATOM     29  C   UNL     1      26.515   9.811  33.288  1.00  0.00    -0.000 C 
BRANCH  29  30
ATOM     30  C   UNL     1      25.237  10.617  33.580  1.00  0.00    -0.000 C 
BRANCH  30  31
ATOM     31  C   UNL     1      25.054  11.813  32.635  1.00  0.00    -0.003 C 
ATOM     32  C   UNL     1      23.612  12.313  32.660  1.00  0.00     0.004 C 
ENDBRANCH  30  31
ENDBRANCH  29  30
ENDBRANCH  28  29
ENDBRANCH  27  28
ENDBRANCH  26  27
ENDBRANCH  25  26
ENDBRANCH  24  25
ENDBRANCH  23  24
ENDBRANCH  22  23
ENDBRANCH  21  22
ENDBRANCH  20  21
ENDBRANCH  19  20
ENDBRANCH  18  19
ENDBRANCH   1  18
TORSDOF 28
ENDMDL
MODEL 7
REMARK VINA RESULT:    -2.989      2.527      6.379
REMARK INTER + INTRA:         -14.192
REMARK INTER:                  -8.190
REMARK INTRA:                  -6.002
REMARK UNBOUND:                -6.310
REMARK SMILES CCCCCCCCCCCCCCCCCCCCCCCCCCCCCC(=O)[O-]
REMARK SMILES IDX 16 1 17 2 18 3 19 4 20 5 21 6 22 7 23 8 24 9 25 10 26 11
REMARK SMILES IDX 27 12 28 13 29 14 30 15 31 16 32 17 15 18 14 19 13 20 12 21
REMARK SMILES IDX 11 22 10 23 9 24 8 25 7 26 6 27 5 28 4 29 3 30 2 31 1 32
REMARK H PARENT
REMARK Flexibility Score: inf
ROOT
ATOM      1  C   UNL     1      23.264   5.332  27.879  1.00  0.00     0.000 C 
ENDROOT
BRANCH   1   2
ATOM      2  C   UNL     1      23.977   3.998  27.597  1.00  0.00     0.000 C 
BRANCH   2   3
ATOM      3  C   UNL     1      25.156   3.731  28.548  1.00  0.00     0.000 C 
BRANCH   3   4
ATOM      4  C   UNL     1      25.493   4.933  29.455  1.00  0.00     0.000 C 
BRANCH   4   5
ATOM      5  C   UNL     1      26.870   4.848  30.141  1.00  0.00     0.000 C 
BRANCH   5   6
ATOM      6  C   UNL     1      27.650   3.541  29.908  1.00  0.00     0.000 C 
BRANCH   6   7
ATOM      7  C   UNL     1      27.604   2.527  31.071  1.00  0.00     0.000 C 
BRANCH   7   8
ATOM      8  C   UNL     1      26.722   1.289  30.825  1.00  0.00     0.000 C 
BRANCH   8   9
ATOM      9  C   UNL     1      25.308   1.435  31.413  1.00  0.00     0.000 C 
BRANCH   9  10
ATOM     10  C   UNL     1      25.223   2.543  32.477  1.00  0.00     0.000 C 
BRANCH  10  11
ATOM     11  C   UNL     1      23.899   3.326  32.412  1.00  0.00     0.000 C 
BRANCH  11  12
ATOM     12  C   UNL     1      22.746   2.495  31.829  1.00  0.00     0.000 C 
BRANCH  12  13
ATOM     13  C   UNL     1      22.022   3.211  30.675  1.00  0.00     0.006 C 
BRANCH  13  14
ATOM     14  C   UNL     1      21.551   4.616  31.072  1.00  0.00     0.053 C 
BRANCH  14  15
ATOM     15  C   UNL     1      20.134   4.611  31.559  1.00  0.00     0.041 C 
ATOM     16  O   UNL     1      19.886   4.614  32.794  1.00  0.00    -0.550 OA
ATOM     17  O   UNL     1      19.086   4.570  30.648  1.00  0.00    -0.550 OA
ENDBRANCH  14  15
ENDBRANCH  13  14
ENDBRANCH  12  13
ENDBRANCH  11  12
ENDBRANCH  10  11
ENDBRANCH   9  10
ENDBRANCH   8   9
ENDBRANCH   7   8
ENDBRANCH   6   7
ENDBRANCH   5   6
ENDBRANCH   4   5
ENDBRANCH   3   4
ENDBRANCH   2   3
ENDBRANCH   1   2
BRANCH   1  18
ATOM     18  C   UNL     1      22.922   6.147  26.614  1.00  0.00     0.000 C 
BRANCH  18  19
ATOM     19  C   UNL     1      23.502   7.572  26.662  1.00  0.00     0.000 C 
BRANCH  19  20
ATOM     20  C   UNL     1      24.864   7.635  27.373  1.00  0.00     0.000 C 
BRANCH  20  21
ATOM     21  C   UNL     1      24.815   8.474  28.658  1.00  0.00     0.000 C 
BRANCH  21  22
ATOM     22  C   UNL     1      26.208   8.623  29.278  1.00  0.00     0.000 C 
BRANCH  22  23
ATOM     23  C   UNL     1      26.109   9.188  30.704  1.00  0.00     0.000 C 
BRANCH  23  24
ATOM     24  C   UNL     1      26.592   8.201  31.781  1.00  0.00    -0.000 C 
BRANCH  24  25
ATOM     25  C   UNL     1      25.509   7.720  32.769  1.00  0.00    -0.000 C 
BRANCH  25  26
ATOM     26  C   UNL     1      24.304   7.009  32.126  1.00  0.00    -0.000 C 
BRANCH  26  27
ATOM     27  C   UNL     1      22.955   7.613  32.551  1.00  0.00    -0.000 C 
BRANCH  27  28
ATOM     28  C   UNL     1      22.339   8.520  31.470  1.00  0.00    -0.000 C 
BRANCH  28  29
ATOM     29  C   UNL     1      22.474  10.034  31.729  1.00  0.00    -0.000 C 
BRANCH  29  30
ATOM     30  C   UNL     1      22.895  10.870  30.507  1.00  0.00    -0.000 C 
BRANCH  30  31
ATOM     31  C   UNL     1      23.397  12.272  30.884  1.00  0.00    -0.003 C 
ATOM     32  C   UNL     1      24.402  12.202  32.029  1.00  0.00     0.004 C 
ENDBRANCH  30  31
ENDBRANCH  29  30
ENDBRANCH  28  29
ENDBRANCH  27  28
ENDBRANCH  26  27
ENDBRANCH  25  26
ENDBRANCH  24  25
ENDBRANCH  23  24
ENDBRANCH  22  23
ENDBRANCH  21  22
ENDBRANCH  20  21
ENDBRANCH  19  20
ENDBRANCH  18  19
ENDBRANCH   1  18
TORSDOF 28
ENDMDL
MODEL 8
REMARK VINA RESULT:    -2.974      2.042      5.065
REMARK INTER + INTRA:         -14.153
REMARK INTER:                  -8.815
REMARK INTRA:                  -5.338
REMARK UNBOUND:                -6.310
REMARK SMILES CCCCCCCCCCCCCCCCCCCCCCCCCCCCCC(=O)[O-]
REMARK SMILES IDX 16 1 17 2 18 3 19 4 20 5 21 6 22 7 23 8 24 9 25 10 26 11
REMARK SMILES IDX 27 12 28 13 29 14 30 15 31 16 32 17 15 18 14 19 13 20 12 21
REMARK SMILES IDX 11 22 10 23 9 24 8 25 7 26 6 27 5 28 4 29 3 30 2 31 1 32
REMARK H PARENT
REMARK Flexibility Score: inf
ROOT
ATOM      1  C   UNL     1      24.012   6.879  26.630  1.00  0.00     0.000 C 
ENDROOT
BRANCH   1   2
ATOM      2  C   UNL     1      24.016   8.046  27.633  1.00  0.00     0.000 C 
BRANCH   2   3
ATOM      3  C   UNL     1      25.131   7.931  28.687  1.00  0.00     0.000 C 
BRANCH   3   4
ATOM      4  C   UNL     1      24.598   7.836  30.132  1.00  0.00     0.000 C 
BRANCH   4   5
ATOM      5  C   UNL     1      23.065   7.722  30.240  1.00  0.00     0.000 C 
BRANCH   5   6
ATOM      6  C   UNL     1      22.487   7.840  31.662  1.00  0.00     0.000 C 
BRANCH   6   7
ATOM      7  C   UNL     1      21.993   9.246  32.061  1.00  0.00     0.000 C 
BRANCH   7   8
ATOM      8  C   UNL     1      23.052  10.149  32.722  1.00  0.00     0.000 C 
BRANCH   8   9
ATOM      9  C   UNL     1      23.638  11.191  31.755  1.00  0.00     0.000 C 
BRANCH   9  10
ATOM     10  C   UNL     1      22.724  11.456  30.547  1.00  0.00     0.000 C 
BRANCH  10  11
ATOM     11  C   UNL     1      23.460  11.308  29.203  1.00  0.00     0.000 C 
BRANCH  11  12
ATOM     12  C   UNL     1      24.964  11.602  29.315  1.00  0.00     0.000 C 
BRANCH  12  13
ATOM     13  C   UNL     1      25.370  12.904  28.602  1.00  0.00     0.006 C 
BRANCH  13  14
ATOM     14  C   UNL     1      24.152  13.747  28.202  1.00  0.00     0.053 C 
BRANCH  14  15
ATOM     15  C   UNL     1      24.110  15.050  28.940  1.00  0.00     0.041 C 
ATOM     16  O   UNL     1      25.047  15.882  28.814  1.00  0.00    -0.550 OA
ATOM     17  O   UNL     1      23.051  15.330  29.795  1.00  0.00    -0.550 OA
ENDBRANCH  14  15
ENDBRANCH  13  14
ENDBRANCH  12  13
ENDBRANCH  11  12
ENDBRANCH  10  11
ENDBRANCH   9  10
ENDBRANCH   8   9
ENDBRANCH   7   8
ENDBRANCH   6   7
ENDBRANCH   5   6
ENDBRANCH   4   5
ENDBRANCH   3   4
ENDBRANCH   2   3
ENDBRANCH   1   2
BRANCH   1  18
ATOM     18  C   UNL     1      23.049   5.731  26.999  1.00  0.00     0.000 C 
BRANCH  18  19
ATOM     19  C   UNL     1      23.742   4.627  27.820  1.00  0.00     0.000 C 
BRANCH  19  20
ATOM     20  C   UNL     1      23.083   4.406  29.191  1.00  0.00     0.000 C 
BRANCH  20  21
ATOM     21  C   UNL     1      23.743   3.263  29.979  1.00  0.00     0.000 C 
BRANCH  21  22
ATOM     22  C   UNL     1      25.147   3.654  30.452  1.00  0.00     0.000 C 
BRANCH  22  23
ATOM     23  C   UNL     1      25.067   4.634  31.633  1.00  0.00     0.000 C 
BRANCH  23  24
ATOM     24  C   UNL     1      25.463   3.998  32.976  1.00  0.00    -0.000 C 
BRANCH  24  25
ATOM     25  C   UNL     1      25.429   2.455  33.012  1.00  0.00    -0.000 C 
BRANCH  25  26
ATOM     26  C   UNL     1      24.324   1.844  33.893  1.00  0.00    -0.000 C 
BRANCH  26  27
ATOM     27  C   UNL     1      23.159   1.261  33.075  1.00  0.00    -0.000 C 
BRANCH  27  28
ATOM     28  C   UNL     1      21.809   1.924  33.404  1.00  0.00    -0.000 C 
BRANCH  28  29
ATOM     29  C   UNL     1      21.901   3.359  33.960  1.00  0.00    -0.000 C 
BRANCH  29  30
ATOM     30  C   UNL     1      21.685   4.476  32.925  1.00  0.00    -0.000 C 
BRANCH  30  31
ATOM     31  C   UNL     1      20.201   4.764  32.653  1.00  0.00    -0.003 C 
ATOM     32  C   UNL     1      19.879   4.615  31.169  1.00  0.00     0.004 C 
ENDBRANCH  30  31
ENDBRANCH  29  30
ENDBRANCH  28  29
ENDBRANCH  27  28
ENDBRANCH  26  27
ENDBRANCH  25  26
ENDBRANCH  24  25
ENDBRANCH  23  24
ENDBRANCH  22  23
ENDBRANCH  21  22
ENDBRANCH  20  21
ENDBRANCH  19  20
ENDBRANCH  18  19
ENDBRANCH   1  18
TORSDOF 28
ENDMDL
MODEL 9
REMARK VINA RESULT:    -2.969      2.408      6.407
REMARK INTER + INTRA:         -14.139
REMARK INTER:                  -7.966
REMARK INTRA:                  -6.173
REMARK UNBOUND:                -6.310
REMARK SMILES CCCCCCCCCCCCCCCCCCCCCCCCCCCCCC(=O)[O-]
REMARK SMILES IDX 16 1 17 2 18 3 19 4 20 5 21 6 22 7 23 8 24 9 25 10 26 11
REMARK SMILES IDX 27 12 28 13 29 14 30 15 31 16 32 17 15 18 14 19 13 20 12 21
REMARK SMILES IDX 11 22 10 23 9 24 8 25 7 26 6 27 5 28 4 29 3 30 2 31 1 32
REMARK H PARENT
REMARK Flexibility Score: inf
ROOT
ATOM      1  C   UNL     1      23.031   6.125  26.785  1.00  0.00     0.000 C 
ENDROOT
BRANCH   1   2
ATOM      2  C   UNL     1      23.715   4.797  27.154  1.00  0.00     0.000 C 
BRANCH   2   3
ATOM      3  C   UNL     1      23.262   4.243  28.515  1.00  0.00     0.000 C 
BRANCH   3   4
ATOM      4  C   UNL     1      24.393   3.539  29.295  1.00  0.00     0.000 C 
BRANCH   4   5
ATOM      5  C   UNL     1      25.799   4.114  29.037  1.00  0.00     0.000 C 
BRANCH   5   6
ATOM      6  C   UNL     1      26.597   4.510  30.292  1.00  0.00     0.000 C 
BRANCH   6   7
ATOM      7  C   UNL     1      25.894   4.236  31.638  1.00  0.00     0.000 C 
BRANCH   7   8
ATOM      8  C   UNL     1      26.587   3.197  32.539  1.00  0.00     0.000 C 
BRANCH   8   9
ATOM      9  C   UNL     1      25.597   2.400  33.406  1.00  0.00     0.000 C 
BRANCH   9  10
ATOM     10  C   UNL     1      24.636   1.542  32.565  1.00  0.00     0.000 C 
BRANCH  10  11
ATOM     11  C   UNL     1      23.440   1.020  33.382  1.00  0.00     0.000 C 
BRANCH  11  12
ATOM     12  C   UNL     1      22.241   1.981  33.359  1.00  0.00     0.000 C 
BRANCH  12  13
ATOM     13  C   UNL     1      22.152   2.789  32.052  1.00  0.00     0.006 C 
BRANCH  13  14
ATOM     14  C   UNL     1      22.124   4.302  32.311  1.00  0.00     0.053 C 
BRANCH  14  15
ATOM     15  C   UNL     1      20.845   4.923  31.838  1.00  0.00     0.041 C 
ATOM     16  O   UNL     1      20.817   5.581  30.765  1.00  0.00    -0.550 OA
ATOM     17  O   UNL     1      19.690   4.803  32.602  1.00  0.00    -0.550 OA
ENDBRANCH  14  15
ENDBRANCH  13  14
ENDBRANCH  12  13
ENDBRANCH  11  12
ENDBRANCH  10  11
ENDBRANCH   9  10
ENDBRANCH   8   9
ENDBRANCH   7   8
ENDBRANCH   6   7
ENDBRANCH   5   6
ENDBRANCH   4   5
ENDBRANCH   3   4
ENDBRANCH   2   3
ENDBRANCH   1   2
BRANCH   1  18
ATOM     18  C   UNL     1      23.995   7.326  26.685  1.00  0.00     0.000 C 
BRANCH  18  19
ATOM     19  C   UNL     1      24.666   7.652  28.032  1.00  0.00     0.000 C 
BRANCH  19  20
ATOM     20  C   UNL     1      23.648   7.899  29.157  1.00  0.00     0.000 C 
BRANCH  20  21
ATOM     21  C   UNL     1      24.084   7.270  30.489  1.00  0.00     0.000 C 
BRANCH  21  22
ATOM     22  C   UNL     1      25.391   7.891  30.995  1.00  0.00     0.000 C 
BRANCH  22  23
ATOM     23  C   UNL     1      25.405   7.946  32.530  1.00  0.00     0.000 C 
BRANCH  23  24
ATOM     24  C   UNL     1      24.206   7.226  33.173  1.00  0.00    -0.000 C 
BRANCH  24  25
ATOM     25  C   UNL     1      23.299   8.111  34.053  1.00  0.00    -0.000 C 
BRANCH  25  26
ATOM     26  C   UNL     1      21.799   8.061  33.708  1.00  0.00    -0.000 C 
BRANCH  26  27
ATOM     27  C   UNL     1      21.439   8.909  32.477  1.00  0.00    -0.000 C 
BRANCH  27  28
ATOM     28  C   UNL     1      21.377  10.415  32.788  1.00  0.00    -0.000 C 
BRANCH  28  29
ATOM     29  C   UNL     1      22.037  11.330  31.737  1.00  0.00    -0.000 C 
BRANCH  29  30
ATOM     30  C   UNL     1      23.457  10.917  31.311  1.00  0.00    -0.000 C 
BRANCH  30  31
ATOM     31  C   UNL     1      23.991  11.737  30.128  1.00  0.00    -0.003 C 
ATOM     32  C   UNL     1      23.210  11.429  28.854  1.00  0.00     0.004 C 
ENDBRANCH  30  31
ENDBRANCH  29  30
ENDBRANCH  28  29
ENDBRANCH  27  28
ENDBRANCH  26  27
ENDBRANCH  25  26
ENDBRANCH  24  25
ENDBRANCH  23  24
ENDBRANCH  22  23
ENDBRANCH  21  22
ENDBRANCH  20  21
ENDBRANCH  19  20
ENDBRANCH  18  19
ENDBRANCH   1  18
TORSDOF 28
ENDMDL
