MODEL 1
REMARK VINA RESULT:    -4.659      0.000      0.000
REMARK INTER + INTRA:          -4.932
REMARK INTER:                  -4.932
REMARK INTRA:                   0.000
REMARK UNBOUND:                 0.000
REMARK SMILES O=c1ccc2cc(O)c(O)cc2o1
REMARK SMILES IDX 4 1 3 2 2 3 1 4 13 5 12 6 11 7 9 8 7 9 6 10 5 11 8 12 10 14
REMARK H PARENT 8 13 10 15
REMARK Flexibility Score: inf
ROOT
ATOM      1  C   UNL     1      43.408  20.871  -4.777  1.00  0.00     0.019 A 
ATOM      2  C   UNL     1      44.155  20.092  -5.659  1.00  0.00     0.094 A 
ATOM      3  C   UNL     1      44.403  18.753  -5.338  1.00  0.00     0.336 A 
ATOM      4  O   UNL     1      45.076  18.032  -6.122  1.00  0.00    -0.246 OA
ATOM      5  O   UNL     1      43.931  18.233  -4.209  1.00  0.00    -0.423 OA
ATOM      6  C   UNL     1      43.213  18.940  -3.340  1.00  0.00     0.142 A 
ATOM      7  C   UNL     1      42.743  18.340  -2.168  1.00  0.00     0.098 A 
ATOM      8  C   UNL     1      41.986  19.081  -1.249  1.00  0.00     0.161 A 
ATOM      9  C   UNL     1      41.697  20.435  -1.505  1.00  0.00     0.158 A 
ATOM     10  C   UNL     1      42.167  21.038  -2.678  1.00  0.00     0.062 A 
ATOM     11  C   UNL     1      42.924  20.298  -3.597  1.00  0.00     0.022 A 
ENDROOT
BRANCH   9  12
ATOM     12  O   UNL     1      40.947  21.194  -0.608  1.00  0.00    -0.504 OA
ATOM     13  H   UNL     1      40.945  22.207  -0.631  1.00  0.00     0.293 HD
ENDBRANCH   9  12
BRANCH   8  14
ATOM     14  O   UNL     1      41.519  18.479  -0.081  1.00  0.00    -0.504 OA
ATOM     15  H   UNL     1      41.753  18.845   0.835  1.00  0.00     0.293 HD
ENDBRANCH   8  14
TORSDOF 2
ENDMDL
MODEL 2
REMARK VINA RESULT:    -4.606      1.594      2.495
REMARK INTER + INTRA:          -4.876
REMARK INTER:                  -4.876
REMARK INTRA:                   0.000
REMARK UNBOUND:                 0.000
REMARK SMILES O=c1ccc2cc(O)c(O)cc2o1
REMARK SMILES IDX 4 1 3 2 2 3 1 4 13 5 12 6 11 7 9 8 7 9 6 10 5 11 8 12 10 14
REMARK H PARENT 8 13 10 15
REMARK Flexibility Score: inf
ROOT
ATOM      1  C   UNL     1      43.736  18.440  -4.797  1.00  0.00     0.019 A 
ATOM      2  C   UNL     1      44.223  19.513  -5.542  1.00  0.00     0.094 A 
ATOM      3  C   UNL     1      43.970  20.815  -5.099  1.00  0.00     0.336 A 
ATOM      4  O   UNL     1      44.401  21.798  -5.758  1.00  0.00    -0.246 OA
ATOM      5  O   UNL     1      43.278  21.025  -3.983  1.00  0.00    -0.423 OA
ATOM      6  C   UNL     1      42.796  20.030  -3.242  1.00  0.00     0.142 A 
ATOM      7  C   UNL     1      42.074  20.311  -2.078  1.00  0.00     0.098 A 
ATOM      8  C   UNL     1      41.564  19.266  -1.293  1.00  0.00     0.161 A 
ATOM      9  C   UNL     1      41.778  17.929  -1.677  1.00  0.00     0.158 A 
ATOM     10  C   UNL     1      42.500  17.645  -2.843  1.00  0.00     0.062 A 
ATOM     11  C   UNL     1      43.010  18.689  -3.627  1.00  0.00     0.022 A 
ENDROOT
BRANCH   9  12
ATOM     12  O   UNL     1      41.282  16.872  -0.915  1.00  0.00    -0.504 OA
ATOM     13  H   UNL     1      40.311  16.586  -0.960  1.00  0.00     0.293 HD
ENDBRANCH   9  12
BRANCH   8  14
ATOM     14  O   UNL     1      40.844  19.550  -0.133  1.00  0.00    -0.504 OA
ATOM     15  H   UNL     1      40.118  18.929   0.206  1.00  0.00     0.293 HD
ENDBRANCH   8  14
TORSDOF 2
ENDMDL
MODEL 3
REMARK VINA RESULT:    -4.303      2.061      3.084
REMARK INTER + INTRA:          -4.555
REMARK INTER:                  -4.555
REMARK INTRA:                   0.000
REMARK UNBOUND:                 0.000
REMARK SMILES O=c1ccc2cc(O)c(O)cc2o1
REMARK SMILES IDX 4 1 3 2 2 3 1 4 13 5 12 6 11 7 9 8 7 9 6 10 5 11 8 12 10 14
REMARK H PARENT 8 13 10 15
REMARK Flexibility Score: inf
ROOT
ATOM      1  C   UNL     1      41.593  20.372  -2.783  1.00  0.00     0.019 A 
ATOM      2  C   UNL     1      42.324  21.193  -3.640  1.00  0.00     0.094 A 
ATOM      3  C   UNL     1      43.376  20.638  -4.377  1.00  0.00     0.336 A 
ATOM      4  O   UNL     1      44.049  21.363  -5.157  1.00  0.00    -0.246 OA
ATOM      5  O   UNL     1      43.671  19.346  -4.262  1.00  0.00    -0.423 OA
ATOM      6  C   UNL     1      42.999  18.527  -3.456  1.00  0.00     0.142 A 
ATOM      7  C   UNL     1      43.355  17.178  -3.375  1.00  0.00     0.098 A 
ATOM      8  C   UNL     1      42.649  16.310  -2.528  1.00  0.00     0.161 A 
ATOM      9  C   UNL     1      41.579  16.799  -1.755  1.00  0.00     0.158 A 
ATOM     10  C   UNL     1      41.221  18.150  -1.834  1.00  0.00     0.062 A 
ATOM     11  C   UNL     1      41.925  19.017  -2.681  1.00  0.00     0.022 A 
ENDROOT
BRANCH   9  12
ATOM     12  O   UNL     1      40.861  15.958  -0.905  1.00  0.00    -0.504 OA
ATOM     13  H   UNL     1      40.332  15.166  -1.252  1.00  0.00     0.293 HD
ENDBRANCH   9  12
BRANCH   8  14
ATOM     14  O   UNL     1      43.007  14.965  -2.450  1.00  0.00    -0.504 OA
ATOM     15  H   UNL     1      43.232  14.427  -3.279  1.00  0.00     0.293 HD
ENDBRANCH   8  14
TORSDOF 2
ENDMDL
MODEL 4
REMARK VINA RESULT:    -4.243      5.712      7.654
REMARK INTER + INTRA:          -4.491
REMARK INTER:                  -4.491
REMARK INTRA:                   0.000
REMARK UNBOUND:                 0.000
REMARK SMILES O=c1ccc2cc(O)c(O)cc2o1
REMARK SMILES IDX 4 1 3 2 2 3 1 4 13 5 12 6 11 7 9 8 7 9 6 10 5 11 8 12 10 14
REMARK H PARENT 8 13 10 15
REMARK Flexibility Score: inf
ROOT
ATOM      1  C   UNL     1      46.522  16.429  -3.990  1.00  0.00     0.019 A 
ATOM      2  C   UNL     1      45.185  16.569  -3.621  1.00  0.00     0.094 A 
ATOM      3  C   UNL     1      44.575  15.549  -2.885  1.00  0.00     0.336 A 
ATOM      4  O   UNL     1      43.367  15.656  -2.542  1.00  0.00    -0.246 OA
ATOM      5  O   UNL     1      45.261  14.463  -2.541  1.00  0.00    -0.423 OA
ATOM      6  C   UNL     1      46.539  14.289  -2.872  1.00  0.00     0.142 A 
ATOM      7  C   UNL     1      47.210  13.126  -2.483  1.00  0.00     0.098 A 
ATOM      8  C   UNL     1      48.557  12.938  -2.828  1.00  0.00     0.161 A 
ATOM      9  C   UNL     1      49.236  13.923  -3.570  1.00  0.00     0.158 A 
ATOM     10  C   UNL     1      48.566  15.088  -3.961  1.00  0.00     0.062 A 
ATOM     11  C   UNL     1      47.221  15.277  -3.615  1.00  0.00     0.022 A 
ENDROOT
BRANCH   9  12
ATOM     12  O   UNL     1      50.575  13.761  -3.926  1.00  0.00    -0.504 OA
ATOM     13  H   UNL     1      50.999  14.291  -4.678  1.00  0.00     0.293 HD
ENDBRANCH   9  12
BRANCH   8  14
ATOM     14  O   UNL     1      49.223  11.776  -2.439  1.00  0.00    -0.504 OA
ATOM     15  H   UNL     1      48.887  11.204  -1.672  1.00  0.00     0.293 HD
ENDBRANCH   8  14
TORSDOF 2
ENDMDL
MODEL 5
REMARK VINA RESULT:    -4.239      7.415      9.043
REMARK INTER + INTRA:          -4.487
REMARK INTER:                  -4.487
REMARK INTRA:                   0.000
REMARK UNBOUND:                 0.000
REMARK SMILES O=c1ccc2cc(O)c(O)cc2o1
REMARK SMILES IDX 4 1 3 2 2 3 1 4 13 5 12 6 11 7 9 8 7 9 6 10 5 11 8 12 10 14
REMARK H PARENT 8 13 10 15
REMARK Flexibility Score: inf
ROOT
ATOM      1  C   UNL     1      51.611  15.780  -5.753  1.00  0.00     0.019 A 
ATOM      2  C   UNL     1      52.626  14.899  -6.124  1.00  0.00     0.094 A 
ATOM      3  C   UNL     1      52.528  13.555  -5.747  1.00  0.00     0.336 A 
ATOM      4  O   UNL     1      53.435  12.744  -6.073  1.00  0.00    -0.246 OA
ATOM      5  O   UNL     1      51.482  13.126  -5.047  1.00  0.00    -0.423 OA
ATOM      6  C   UNL     1      50.492  13.933  -4.673  1.00  0.00     0.142 A 
ATOM      7  C   UNL     1      49.417  13.425  -3.937  1.00  0.00     0.098 A 
ATOM      8  C   UNL     1      48.370  14.271  -3.540  1.00  0.00     0.161 A 
ATOM      9  C   UNL     1      48.401  15.636  -3.883  1.00  0.00     0.158 A 
ATOM     10  C   UNL     1      49.476  16.146  -4.620  1.00  0.00     0.062 A 
ATOM     11  C   UNL     1      50.522  15.302  -5.016  1.00  0.00     0.022 A 
ENDROOT
BRANCH   9  12
ATOM     12  O   UNL     1      47.373  16.498  -3.501  1.00  0.00    -0.504 OA
ATOM     13  H   UNL     1      47.505  17.212  -2.795  1.00  0.00     0.293 HD
ENDBRANCH   9  12
BRANCH   8  14
ATOM     14  O   UNL     1      47.299  13.761  -2.806  1.00  0.00    -0.504 OA
ATOM     15  H   UNL     1      47.178  13.980  -1.823  1.00  0.00     0.293 HD
ENDBRANCH   8  14
TORSDOF 2
ENDMDL
MODEL 6
REMARK VINA RESULT:    -4.176      6.338      9.003
REMARK INTER + INTRA:          -4.420
REMARK INTER:                  -4.420
REMARK INTRA:                   0.000
REMARK UNBOUND:                 0.000
REMARK SMILES O=c1ccc2cc(O)c(O)cc2o1
REMARK SMILES IDX 4 1 3 2 2 3 1 4 13 5 12 6 11 7 9 8 7 9 6 10 5 11 8 12 10 14
REMARK H PARENT 8 13 10 15
REMARK Flexibility Score: inf
ROOT
ATOM      1  C   UNL     1      48.238  13.100  -2.864  1.00  0.00     0.019 A 
ATOM      2  C   UNL     1      46.943  13.412  -2.452  1.00  0.00     0.094 A 
ATOM      3  C   UNL     1      46.382  14.631  -2.845  1.00  0.00     0.336 A 
ATOM      4  O   UNL     1      45.213  14.931  -2.484  1.00  0.00    -0.246 OA
ATOM      5  O   UNL     1      47.074  15.479  -3.601  1.00  0.00    -0.423 OA
ATOM      6  C   UNL     1      48.312  15.222  -4.016  1.00  0.00     0.142 A 
ATOM      7  C   UNL     1      48.992  16.152  -4.808  1.00  0.00     0.098 A 
ATOM      8  C   UNL     1      50.297  15.885  -5.249  1.00  0.00     0.161 A 
ATOM      9  C   UNL     1      50.926  14.677  -4.892  1.00  0.00     0.158 A 
ATOM     10  C   UNL     1      50.247  13.745  -4.098  1.00  0.00     0.062 A 
ATOM     11  C   UNL     1      48.944  14.011  -3.658  1.00  0.00     0.022 A 
ENDROOT
BRANCH   9  12
ATOM     12  O   UNL     1      52.222  14.387  -5.316  1.00  0.00    -0.504 OA
ATOM     13  H   UNL     1      52.738  13.590  -4.963  1.00  0.00     0.293 HD
ENDBRANCH   9  12
BRANCH   8  14
ATOM     14  O   UNL     1      50.972  16.815  -6.039  1.00  0.00    -0.504 OA
ATOM     15  H   UNL     1      51.951  16.699  -6.274  1.00  0.00     0.293 HD
ENDBRANCH   8  14
TORSDOF 2
ENDMDL
MODEL 7
REMARK VINA RESULT:    -4.070      7.115      9.052
REMARK INTER + INTRA:          -4.307
REMARK INTER:                  -4.307
REMARK INTRA:                   0.000
REMARK UNBOUND:                 0.000
REMARK SMILES O=c1ccc2cc(O)c(O)cc2o1
REMARK SMILES IDX 4 1 3 2 2 3 1 4 13 5 12 6 11 7 9 8 7 9 6 10 5 11 8 12 10 14
REMARK H PARENT 8 13 10 15
REMARK Flexibility Score: inf
ROOT
ATOM      1  C   UNL     1      47.141  15.212  -3.510  1.00  0.00     0.019 A 
ATOM      2  C   UNL     1      46.626  14.181  -2.727  1.00  0.00     0.094 A 
ATOM      3  C   UNL     1      47.416  13.052  -2.487  1.00  0.00     0.336 A 
ATOM      4  O   UNL     1      46.969  12.109  -1.781  1.00  0.00    -0.246 OA
ATOM      5  O   UNL     1      48.641  12.966  -2.998  1.00  0.00    -0.423 OA
ATOM      6  C   UNL     1      49.172  13.927  -3.750  1.00  0.00     0.142 A 
ATOM      7  C   UNL     1      50.465  13.782  -4.261  1.00  0.00     0.098 A 
ATOM      8  C   UNL     1      51.029  14.792  -5.055  1.00  0.00     0.161 A 
ATOM      9  C   UNL     1      50.292  15.957  -5.339  1.00  0.00     0.158 A 
ATOM     10  C   UNL     1      48.996  16.105  -4.829  1.00  0.00     0.062 A 
ATOM     11  C   UNL     1      48.432  15.096  -4.036  1.00  0.00     0.022 A 
ENDROOT
BRANCH   9  12
ATOM     12  O   UNL     1      50.829  16.976  -6.125  1.00  0.00    -0.504 OA
ATOM     13  H   UNL     1      51.413  17.706  -5.734  1.00  0.00     0.293 HD
ENDBRANCH   9  12
BRANCH   8  14
ATOM     14  O   UNL     1      52.319  14.644  -5.563  1.00  0.00    -0.504 OA
ATOM     15  H   UNL     1      52.591  15.055  -6.449  1.00  0.00     0.293 HD
ENDBRANCH   8  14
TORSDOF 2
ENDMDL
MODEL 8
REMARK VINA RESULT:    -4.066      4.936      7.436
REMARK INTER + INTRA:          -4.304
REMARK INTER:                  -4.304
REMARK INTRA:                   0.000
REMARK UNBOUND:                 0.000
REMARK SMILES O=c1ccc2cc(O)c(O)cc2o1
REMARK SMILES IDX 4 1 3 2 2 3 1 4 13 5 12 6 11 7 9 8 7 9 6 10 5 11 8 12 10 14
REMARK H PARENT 8 13 10 15
REMARK Flexibility Score: inf
ROOT
ATOM      1  C   UNL     1      46.296  17.240  -4.972  1.00  0.00     0.019 A 
ATOM      2  C   UNL     1      45.107  16.935  -4.310  1.00  0.00     0.094 A 
ATOM      3  C   UNL     1      45.087  15.860  -3.415  1.00  0.00     0.336 A 
ATOM      4  O   UNL     1      44.023  15.568  -2.807  1.00  0.00    -0.246 OA
ATOM      5  O   UNL     1      46.185  15.142  -3.199  1.00  0.00    -0.423 OA
ATOM      6  C   UNL     1      47.340  15.399  -3.809  1.00  0.00     0.142 A 
ATOM      7  C   UNL     1      48.463  14.610  -3.543  1.00  0.00     0.098 A 
ATOM      8  C   UNL     1      49.683  14.877  -4.182  1.00  0.00     0.161 A 
ATOM      9  C   UNL     1      49.778  15.943  -5.097  1.00  0.00     0.158 A 
ATOM     10  C   UNL     1      48.655  16.735  -5.365  1.00  0.00     0.062 A 
ATOM     11  C   UNL     1      47.436  16.468  -4.726  1.00  0.00     0.022 A 
ENDROOT
BRANCH   9  12
ATOM     12  O   UNL     1      50.978  16.230  -5.746  1.00  0.00    -0.504 OA
ATOM     13  H   UNL     1      51.613  16.945  -5.412  1.00  0.00     0.293 HD
ENDBRANCH   9  12
BRANCH   8  14
ATOM     14  O   UNL     1      50.800  14.087  -3.915  1.00  0.00    -0.504 OA
ATOM     15  H   UNL     1      50.782  13.081  -4.043  1.00  0.00     0.293 HD
ENDBRANCH   8  14
TORSDOF 2
ENDMDL
MODEL 9
REMARK VINA RESULT:    -3.999      1.775      4.466
REMARK INTER + INTRA:          -4.233
REMARK INTER:                  -4.233
REMARK INTRA:                   0.000
REMARK UNBOUND:                 0.000
REMARK SMILES O=c1ccc2cc(O)c(O)cc2o1
REMARK SMILES IDX 4 1 3 2 2 3 1 4 13 5 12 6 11 7 9 8 7 9 6 10 5 11 8 12 10 14
REMARK H PARENT 8 13 10 15
REMARK Flexibility Score: inf
ROOT
ATOM      1  C   UNL     1      42.985  20.228  -3.132  1.00  0.00     0.019 A 
ATOM      2  C   UNL     1      42.225  20.995  -2.250  1.00  0.00     0.094 A 
ATOM      3  C   UNL     1      41.445  20.347  -1.287  1.00  0.00     0.336 A 
ATOM      4  O   UNL     1      40.751  21.022  -0.481  1.00  0.00    -0.246 OA
ATOM      5  O   UNL     1      41.431  19.019  -1.215  1.00  0.00    -0.423 OA
ATOM      6  C   UNL     1      42.141  18.249  -2.036  1.00  0.00     0.142 A 
ATOM      7  C   UNL     1      42.086  16.858  -1.913  1.00  0.00     0.098 A 
ATOM      8  C   UNL     1      42.832  16.041  -2.775  1.00  0.00     0.161 A 
ATOM      9  C   UNL     1      43.640  16.624  -3.770  1.00  0.00     0.158 A 
ATOM     10  C   UNL     1      43.697  18.018  -3.896  1.00  0.00     0.062 A 
ATOM     11  C   UNL     1      42.951  18.833  -3.034  1.00  0.00     0.022 A 
ENDROOT
BRANCH   9  12
ATOM     12  O   UNL     1      44.392  15.836  -4.641  1.00  0.00    -0.504 OA
ATOM     13  H   UNL     1      44.635  14.877  -4.424  1.00  0.00     0.293 HD
ENDBRANCH   9  12
BRANCH   8  14
ATOM     14  O   UNL     1      42.775  14.654  -2.650  1.00  0.00    -0.504 OA
ATOM     15  H   UNL     1      41.892  14.167  -2.540  1.00  0.00     0.293 HD
ENDBRANCH   8  14
TORSDOF 2
ENDMDL
