MODEL 1
REMARK VINA RESULT:     1.097      0.000      0.000
REMARK INTER + INTRA:           1.566
REMARK INTER:                   1.321
REMARK INTRA:                   0.244
REMARK UNBOUND:                 0.244
REMARK SMILES O=c1c(O)c(-c2ccc(O)c(O)c2)oc2cc(O)cc(O)c12
REMARK SMILES IDX 5 1 3 2 2 3 1 4 22 5 20 6 19 7 17 8 16 9 15 10 14 11 6 12
REMARK SMILES IDX 7 13 8 14 9 15 13 16 11 17 10 18 12 20 4 22 21 24 18 26
REMARK H PARENT 10 19 12 21 4 23 21 25 18 27
REMARK Flexibility Score: inf
ROOT
ATOM      1  C   UNL     1      41.246  11.132  11.349  1.00  0.00     0.180 A 
ATOM      2  C   UNL     1      40.091  10.668  12.008  1.00  0.00     0.208 A 
ATOM      3  C   UNL     1      39.894   9.284  12.138  1.00  0.00     0.238 A 
ATOM      4  O   UNL     1      38.869   8.858  12.736  1.00  0.00    -0.285 OA
ATOM      5  C   UNL     1      40.839   8.391  11.593  1.00  0.00     0.111 A 
ATOM      6  C   UNL     1      40.712   6.983  11.677  1.00  0.00     0.134 A 
ATOM      7  C   UNL     1      41.692   6.162  11.100  1.00  0.00     0.093 A 
ATOM      8  C   UNL     1      42.791   6.718  10.441  1.00  0.00     0.123 A 
ATOM      9  C   UNL     1      42.921   8.108  10.355  1.00  0.00     0.094 A 
ATOM     10  C   UNL     1      41.957   8.944  10.924  1.00  0.00     0.146 A 
ATOM     11  O   UNL     1      42.108  10.260  10.833  1.00  0.00    -0.452 OA
ENDROOT
BRANCH   1  12
ATOM     12  C   UNL     1      41.533  12.576  11.187  1.00  0.00     0.025 A 
ATOM     13  C   UNL     1      42.124  13.078  10.015  1.00  0.00     0.016 A 
ATOM     14  C   UNL     1      42.364  14.448   9.875  1.00  0.00     0.051 A 
ATOM     15  C   UNL     1      42.005  15.336  10.898  1.00  0.00     0.157 A 
ATOM     16  C   UNL     1      41.156  13.473  12.200  1.00  0.00     0.062 A 
ATOM     17  C   UNL     1      41.395  14.845  12.064  1.00  0.00     0.158 A 
BRANCH  15  18
ATOM     18  O   UNL     1      42.247  16.701  10.756  1.00  0.00    -0.504 OA
ATOM     19  H   UNL     1      41.624  17.395  11.153  1.00  0.00     0.293 HD
ENDBRANCH  15  18
BRANCH  17  20
ATOM     20  O   UNL     1      41.019  15.704  13.097  1.00  0.00    -0.504 OA
ATOM     21  H   UNL     1      40.165  15.571  13.623  1.00  0.00     0.293 HD
ENDBRANCH  17  20
ENDBRANCH   1  12
BRANCH   2  22
ATOM     22  O   UNL     1      39.145  11.573  12.497  1.00  0.00    -0.502 OA
ATOM     23  H   UNL     1      38.352  11.879  11.947  1.00  0.00     0.293 HD
ENDBRANCH   2  22
BRANCH   6  24
ATOM     24  O   UNL     1      39.626   6.398  12.327  1.00  0.00    -0.507 OA
ATOM     25  H   UNL     1      39.487   6.494  13.327  1.00  0.00     0.293 HD
ENDBRANCH   6  24
BRANCH   8  26
ATOM     26  O   UNL     1      43.748   5.879   9.875  1.00  0.00    -0.508 OA
ATOM     27  H   UNL     1      44.719   5.913  10.164  1.00  0.00     0.293 HD
ENDBRANCH   8  26
TORSDOF 6
ENDMDL
MODEL 2
REMARK VINA RESULT:     3.204      1.549      3.196
REMARK INTER + INTRA:           4.104
REMARK INTER:                   4.370
REMARK INTRA:                  -0.266
REMARK UNBOUND:                 0.244
REMARK SMILES O=c1c(O)c(-c2ccc(O)c(O)c2)oc2cc(O)cc(O)c12
REMARK SMILES IDX 5 1 3 2 2 3 1 4 22 5 20 6 19 7 17 8 16 9 15 10 14 11 6 12
REMARK SMILES IDX 7 13 8 14 9 15 13 16 11 17 10 18 12 20 4 22 21 24 18 26
REMARK H PARENT 10 19 12 21 4 23 21 25 18 27
REMARK Flexibility Score: inf
ROOT
ATOM      1  C   UNL     1      41.575  12.208  11.330  1.00  0.00     0.180 A 
ATOM      2  C   UNL     1      42.538  11.510  10.576  1.00  0.00     0.208 A 
ATOM      3  C   UNL     1      42.496  10.107  10.555  1.00  0.00     0.238 A 
ATOM      4  O   UNL     1      43.347   9.471   9.875  1.00  0.00    -0.285 OA
ATOM      5  C   UNL     1      41.510   9.428  11.301  1.00  0.00     0.111 A 
ATOM      6  C   UNL     1      41.403   8.016  11.337  1.00  0.00     0.134 A 
ATOM      7  C   UNL     1      40.399   7.416  12.111  1.00  0.00     0.093 A 
ATOM      8  C   UNL     1      39.505   8.195  12.848  1.00  0.00     0.123 A 
ATOM      9  C   UNL     1      39.606   9.590  12.816  1.00  0.00     0.094 A 
ATOM     10  C   UNL     1      40.599  10.208  12.050  1.00  0.00     0.146 A 
ATOM     11  O   UNL     1      40.669  11.534  12.033  1.00  0.00    -0.452 OA
ENDROOT
BRANCH   1  12
ATOM     12  C   UNL     1      41.542  13.688  11.387  1.00  0.00     0.025 A 
ATOM     13  C   UNL     1      42.476  14.412  12.146  1.00  0.00     0.016 A 
ATOM     14  C   UNL     1      42.441  15.809  12.166  1.00  0.00     0.051 A 
ATOM     15  C   UNL     1      41.481  16.502  11.416  1.00  0.00     0.157 A 
ATOM     16  C   UNL     1      40.595  14.388  10.621  1.00  0.00     0.062 A 
ATOM     17  C   UNL     1      40.556  15.787  10.637  1.00  0.00     0.158 A 
BRANCH  15  18
ATOM     18  O   UNL     1      41.447  17.895  11.439  1.00  0.00    -0.504 OA
ATOM     19  H   UNL     1      41.653  18.445  10.613  1.00  0.00     0.293 HD
ENDBRANCH  15  18
BRANCH  17  20
ATOM     20  O   UNL     1      39.593  16.447   9.875  1.00  0.00    -0.504 OA
ATOM     21  H   UNL     1      38.621  16.490  10.156  1.00  0.00     0.293 HD
ENDBRANCH  17  20
ENDBRANCH   1  12
BRANCH   2  22
ATOM     22  O   UNL     1      43.534  12.205   9.885  1.00  0.00    -0.502 OA
ATOM     23  H   UNL     1      43.323  12.947   9.230  1.00  0.00     0.293 HD
ENDBRANCH   2  22
BRANCH   6  24
ATOM     24  O   UNL     1      42.280   7.210  10.613  1.00  0.00    -0.507 OA
ATOM     25  H   UNL     1      43.090   7.594  10.139  1.00  0.00     0.293 HD
ENDBRANCH   6  24
BRANCH   8  26
ATOM     26  O   UNL     1      38.518   7.572  13.610  1.00  0.00    -0.508 OA
ATOM     27  H   UNL     1      37.572   7.935  13.651  1.00  0.00     0.293 HD
ENDBRANCH   8  26
TORSDOF 6
ENDMDL
