MODEL 1
REMARK VINA RESULT:    -5.484      0.000      0.000
REMARK INTER + INTRA:          -5.644
REMARK INTER:                  -5.644
REMARK INTRA:                   0.000
REMARK UNBOUND:                 0.000
REMARK SMILES O=c1ccc2ccc(O)cc2o1
REMARK SMILES IDX 6 1 7 2 8 3 10 4 11 5 5 6 4 7 3 8 2 9 1 10 12 11 9 12
REMARK H PARENT 9 13
REMARK Flexibility Score: inf
ROOT
ATOM      1  C   UNL     1      -9.258  15.291   5.355  1.00  0.00     0.016 A 
ATOM      2  C   UNL     1      -9.911  16.318   6.045  1.00  0.00     0.047 A 
ATOM      3  C   UNL     1      -9.258  17.005   7.075  1.00  0.00     0.119 A 
ATOM      4  C   UNL     1      -7.942  16.664   7.419  1.00  0.00     0.094 A 
ATOM      5  C   UNL     1      -7.280  15.637   6.734  1.00  0.00     0.142 A 
ATOM      6  C   UNL     1      -7.943  14.946   5.696  1.00  0.00     0.018 A 
ATOM      7  C   UNL     1      -7.257  13.926   5.031  1.00  0.00     0.019 A 
ATOM      8  C   UNL     1      -5.949  13.623   5.408  1.00  0.00     0.094 A 
ATOM      9  C   UNL     1      -5.356  14.350   6.446  1.00  0.00     0.336 A 
ATOM     10  O   UNL     1      -4.176  14.090   6.800  1.00  0.00    -0.246 OA
ATOM     11  O   UNL     1      -6.031  15.316   7.063  1.00  0.00    -0.423 OA
ENDROOT
BRANCH   3  12
ATOM     12  O   UNL     1      -9.925  18.025   7.750  1.00  0.00    -0.508 OA
ATOM     13  H   UNL     1     -10.917  18.188   7.617  1.00  0.00     0.293 HD
ENDBRANCH   3  12
TORSDOF 1
ENDMDL
MODEL 2
REMARK VINA RESULT:    -5.466      2.490      4.281
REMARK INTER + INTRA:          -5.625
REMARK INTER:                  -5.625
REMARK INTRA:                   0.000
REMARK UNBOUND:                 0.000
REMARK SMILES O=c1ccc2ccc(O)cc2o1
REMARK SMILES IDX 6 1 7 2 8 3 10 4 11 5 5 6 4 7 3 8 2 9 1 10 12 11 9 12
REMARK H PARENT 9 13
REMARK Flexibility Score: inf
ROOT
ATOM      1  C   UNL     1      -3.883  14.009   7.419  1.00  0.00     0.016 A 
ATOM      2  C   UNL     1      -3.734  14.396   8.755  1.00  0.00     0.047 A 
ATOM      3  C   UNL     1      -4.849  14.779   9.510  1.00  0.00     0.119 A 
ATOM      4  C   UNL     1      -6.124  14.776   8.927  1.00  0.00     0.094 A 
ATOM      5  C   UNL     1      -6.284  14.390   7.590  1.00  0.00     0.142 A 
ATOM      6  C   UNL     1      -5.156  14.004   6.832  1.00  0.00     0.018 A 
ATOM      7  C   UNL     1      -5.347  13.624   5.500  1.00  0.00     0.019 A 
ATOM      8  C   UNL     1      -6.635  13.637   4.963  1.00  0.00     0.094 A 
ATOM      9  C   UNL     1      -7.704  14.031   5.774  1.00  0.00     0.336 A 
ATOM     10  O   UNL     1      -8.873  14.048   5.307  1.00  0.00    -0.246 OA
ATOM     11  O   UNL     1      -7.495  14.388   7.039  1.00  0.00    -0.423 OA
ENDROOT
BRANCH   3  12
ATOM     12  O   UNL     1      -4.679  15.161  10.839  1.00  0.00    -0.508 OA
ATOM     13  H   UNL     1      -3.763  15.174  11.273  1.00  0.00     0.293 HD
ENDBRANCH   3  12
TORSDOF 1
ENDMDL
MODEL 3
REMARK VINA RESULT:    -5.424      1.076      4.277
REMARK INTER + INTRA:          -5.583
REMARK INTER:                  -5.583
REMARK INTRA:                   0.000
REMARK UNBOUND:                 0.000
REMARK SMILES O=c1ccc2ccc(O)cc2o1
REMARK SMILES IDX 6 1 7 2 8 3 10 4 11 5 5 6 4 7 3 8 2 9 1 10 12 11 9 12
REMARK H PARENT 9 13
REMARK Flexibility Score: inf
ROOT
ATOM      1  C   UNL     1      -6.551  13.988   5.016  1.00  0.00     0.016 A 
ATOM      2  C   UNL     1      -5.353  13.624   5.640  1.00  0.00     0.047 A 
ATOM      3  C   UNL     1      -5.115  13.972   6.974  1.00  0.00     0.119 A 
ATOM      4  C   UNL     1      -6.081  14.691   7.693  1.00  0.00     0.094 A 
ATOM      5  C   UNL     1      -7.283  15.061   7.077  1.00  0.00     0.142 A 
ATOM      6  C   UNL     1      -7.519  14.708   5.730  1.00  0.00     0.018 A 
ATOM      7  C   UNL     1      -8.728  15.091   5.143  1.00  0.00     0.019 A 
ATOM      8  C   UNL     1      -9.659  15.806   5.897  1.00  0.00     0.094 A 
ATOM      9  C   UNL     1      -9.356  16.122   7.226  1.00  0.00     0.336 A 
ATOM     10  O   UNL     1     -10.184  16.765   7.923  1.00  0.00    -0.246 OA
ATOM     11  O   UNL     1      -8.198  15.744   7.761  1.00  0.00    -0.423 OA
ENDROOT
BRANCH   3  12
ATOM     12  O   UNL     1      -3.916  13.599   7.577  1.00  0.00    -0.508 OA
ATOM     13  H   UNL     1      -3.806  12.695   8.022  1.00  0.00     0.293 HD
ENDBRANCH   3  12
TORSDOF 1
ENDMDL
MODEL 4
REMARK VINA RESULT:    -5.343      2.172      3.444
REMARK INTER + INTRA:          -5.499
REMARK INTER:                  -5.499
REMARK INTRA:                   0.000
REMARK UNBOUND:                 0.000
REMARK SMILES O=c1ccc2ccc(O)cc2o1
REMARK SMILES IDX 6 1 7 2 8 3 10 4 11 5 5 6 4 7 3 8 2 9 1 10 12 11 9 12
REMARK H PARENT 9 13
REMARK Flexibility Score: inf
ROOT
ATOM      1  C   UNL     1      -5.467  13.634   5.476  1.00  0.00     0.016 A 
ATOM      2  C   UNL     1      -6.774  13.762   4.994  1.00  0.00     0.047 A 
ATOM      3  C   UNL     1      -7.772  14.330   5.794  1.00  0.00     0.119 A 
ATOM      4  C   UNL     1      -7.463  14.774   7.089  1.00  0.00     0.094 A 
ATOM      5  C   UNL     1      -6.158  14.650   7.580  1.00  0.00     0.142 A 
ATOM      6  C   UNL     1      -5.154  14.076   6.769  1.00  0.00     0.018 A 
ATOM      7  C   UNL     1      -3.860  13.965   7.287  1.00  0.00     0.019 A 
ATOM      8  C   UNL     1      -3.600  14.421   8.580  1.00  0.00     0.094 A 
ATOM      9  C   UNL     1      -4.645  14.977   9.326  1.00  0.00     0.336 A 
ATOM     10  O   UNL     1      -4.429  15.394  10.494  1.00  0.00    -0.246 OA
ATOM     11  O   UNL     1      -5.867  15.071   8.808  1.00  0.00    -0.423 OA
ENDROOT
BRANCH   3  12
ATOM     12  O   UNL     1      -9.067  14.449   5.295  1.00  0.00    -0.508 OA
ATOM     13  H   UNL     1      -9.418  15.329   4.937  1.00  0.00     0.293 HD
ENDBRANCH   3  12
TORSDOF 1
ENDMDL
MODEL 5
REMARK VINA RESULT:    -5.201      1.724      4.816
REMARK INTER + INTRA:          -5.353
REMARK INTER:                  -5.353
REMARK INTRA:                   0.000
REMARK UNBOUND:                 0.000
REMARK SMILES O=c1ccc2ccc(O)cc2o1
REMARK SMILES IDX 6 1 7 2 8 3 10 4 11 5 5 6 4 7 3 8 2 9 1 10 12 11 9 12
REMARK H PARENT 9 13
REMARK Flexibility Score: inf
ROOT
ATOM      1  C   UNL     1      -6.473  15.736   6.824  1.00  0.00     0.016 A 
ATOM      2  C   UNL     1      -5.787  14.717   6.155  1.00  0.00     0.047 A 
ATOM      3  C   UNL     1      -6.460  13.882   5.256  1.00  0.00     0.119 A 
ATOM      4  C   UNL     1      -7.831  14.065   5.022  1.00  0.00     0.094 A 
ATOM      5  C   UNL     1      -8.526  15.082   5.688  1.00  0.00     0.142 A 
ATOM      6  C   UNL     1      -7.843  15.922   6.594  1.00  0.00     0.018 A 
ATOM      7  C   UNL     1      -8.565  16.929   7.244  1.00  0.00     0.019 A 
ATOM      8  C   UNL     1      -9.927  17.073   6.979  1.00  0.00     0.094 A 
ATOM      9  C   UNL     1     -10.537  16.203   6.069  1.00  0.00     0.336 A 
ATOM     10  O   UNL     1     -11.765  16.318   5.817  1.00  0.00    -0.246 OA
ATOM     11  O   UNL     1      -9.827  15.254   5.464  1.00  0.00    -0.423 OA
ENDROOT
BRANCH   3  12
ATOM     12  O   UNL     1      -5.758  12.873   4.599  1.00  0.00    -0.508 OA
ATOM     13  H   UNL     1      -4.759  12.758   4.720  1.00  0.00     0.293 HD
ENDBRANCH   3  12
TORSDOF 1
ENDMDL
MODEL 6
REMARK VINA RESULT:    -5.161      2.516      3.944
REMARK INTER + INTRA:          -5.311
REMARK INTER:                  -5.311
REMARK INTRA:                   0.000
REMARK UNBOUND:                 0.000
REMARK SMILES O=c1ccc2ccc(O)cc2o1
REMARK SMILES IDX 6 1 7 2 8 3 10 4 11 5 5 6 4 7 3 8 2 9 1 10 12 11 9 12
REMARK H PARENT 9 13
REMARK Flexibility Score: inf
ROOT
ATOM      1  C   UNL     1      -6.748  15.866   6.865  1.00  0.00     0.016 A 
ATOM      2  C   UNL     1      -7.291  15.077   5.844  1.00  0.00     0.047 A 
ATOM      3  C   UNL     1      -6.590  13.966   5.359  1.00  0.00     0.119 A 
ATOM      4  C   UNL     1      -5.337  13.640   5.898  1.00  0.00     0.094 A 
ATOM      5  C   UNL     1      -4.785  14.424   6.919  1.00  0.00     0.142 A 
ATOM      6  C   UNL     1      -5.496  15.543   7.405  1.00  0.00     0.018 A 
ATOM      7  C   UNL     1      -4.919  16.307   8.425  1.00  0.00     0.019 A 
ATOM      8  C   UNL     1      -3.670  15.943   8.929  1.00  0.00     0.094 A 
ATOM      9  C   UNL     1      -3.025  14.821   8.397  1.00  0.00     0.336 A 
ATOM     10  O   UNL     1      -1.898  14.477   8.840  1.00  0.00    -0.246 OA
ATOM     11  O   UNL     1      -3.596  14.111   7.427  1.00  0.00    -0.423 OA
ENDROOT
BRANCH   3  12
ATOM     12  O   UNL     1      -7.148  13.194   4.343  1.00  0.00    -0.508 OA
ATOM     13  H   UNL     1      -7.071  13.464   3.370  1.00  0.00     0.293 HD
ENDBRANCH   3  12
TORSDOF 1
ENDMDL
MODEL 7
REMARK VINA RESULT:    -5.151      1.681      2.523
REMARK INTER + INTRA:          -5.302
REMARK INTER:                  -5.302
REMARK INTRA:                   0.000
REMARK UNBOUND:                 0.000
REMARK SMILES O=c1ccc2ccc(O)cc2o1
REMARK SMILES IDX 6 1 7 2 8 3 10 4 11 5 5 6 4 7 3 8 2 9 1 10 12 11 9 12
REMARK H PARENT 9 13
REMARK Flexibility Score: inf
ROOT
ATOM      1  C   UNL     1      -9.111  17.345   7.615  1.00  0.00     0.016 A 
ATOM      2  C   UNL     1     -10.472  17.440   7.304  1.00  0.00     0.047 A 
ATOM      3  C   UNL     1     -11.035  16.609   6.329  1.00  0.00     0.119 A 
ATOM      4  C   UNL     1     -10.232  15.676   5.656  1.00  0.00     0.094 A 
ATOM      5  C   UNL     1      -8.869  15.574   5.960  1.00  0.00     0.142 A 
ATOM      6  C   UNL     1      -8.305  16.414   6.946  1.00  0.00     0.018 A 
ATOM      7  C   UNL     1      -6.942  16.289   7.227  1.00  0.00     0.019 A 
ATOM      8  C   UNL     1      -6.183  15.346   6.533  1.00  0.00     0.094 A 
ATOM      9  C   UNL     1      -6.810  14.548   5.570  1.00  0.00     0.336 A 
ATOM     10  O   UNL     1      -6.143  13.691   4.933  1.00  0.00    -0.246 OA
ATOM     11  O   UNL     1      -8.110  14.687   5.321  1.00  0.00    -0.423 OA
ENDROOT
BRANCH   3  12
ATOM     12  O   UNL     1     -12.392  16.719   6.034  1.00  0.00    -0.508 OA
ATOM     13  H   UNL     1     -12.950  17.487   6.389  1.00  0.00     0.293 HD
ENDBRANCH   3  12
TORSDOF 1
ENDMDL
MODEL 8
REMARK VINA RESULT:    -5.080      4.687      6.623
REMARK INTER + INTRA:          -5.229
REMARK INTER:                  -5.229
REMARK INTRA:                   0.000
REMARK UNBOUND:                 0.000
REMARK SMILES O=c1ccc2ccc(O)cc2o1
REMARK SMILES IDX 6 1 7 2 8 3 10 4 11 5 5 6 4 7 3 8 2 9 1 10 12 11 9 12
REMARK H PARENT 9 13
REMARK Flexibility Score: inf
ROOT
ATOM      1  C   UNL     1      -2.911  14.293   8.726  1.00  0.00     0.016 A 
ATOM      2  C   UNL     1      -3.939  14.707   7.873  1.00  0.00     0.047 A 
ATOM      3  C   UNL     1      -3.709  15.707   6.920  1.00  0.00     0.119 A 
ATOM      4  C   UNL     1      -2.441  16.298   6.818  1.00  0.00     0.094 A 
ATOM      5  C   UNL     1      -1.406  15.890   7.667  1.00  0.00     0.142 A 
ATOM      6  C   UNL     1      -1.642  14.881   8.627  1.00  0.00     0.018 A 
ATOM      7  C   UNL     1      -0.589  14.495   9.461  1.00  0.00     0.019 A 
ATOM      8  C   UNL     1       0.655  15.111   9.322  1.00  0.00     0.094 A 
ATOM      9  C   UNL     1       0.815  16.103   8.349  1.00  0.00     0.336 A 
ATOM     10  O   UNL     1       1.930  16.670   8.208  1.00  0.00    -0.246 OA
ATOM     11  O   UNL     1      -0.204  16.452   7.567  1.00  0.00    -0.423 OA
ENDROOT
BRANCH   3  12
ATOM     12  O   UNL     1      -4.747  16.105   6.080  1.00  0.00    -0.508 OA
ATOM     13  H   UNL     1      -4.781  15.820   5.108  1.00  0.00     0.293 HD
ENDBRANCH   3  12
TORSDOF 1
ENDMDL
