MODEL 1
REMARK VINA RESULT:    -4.380      0.000      0.000
REMARK INTER + INTRA:          -4.380
REMARK INTER:                  -4.380
REMARK INTRA:                   0.000
REMARK UNBOUND:                 0.000
REMARK SMILES CC1(C)O[C@]2(C)CC[C@H]1CC2
REMARK SMILES IDX 1 1 2 2 9 3 10 4 11 5 5 6 4 7 7 8 8 9 6 10 3 11
REMARK H PARENT
REMARK Flexibility Score: inf
ROOT
ATOM      1  C   UNL     1      69.193   0.126  -3.718  1.00  0.00     0.042 C 
ATOM      2  C   UNL     1      68.501   1.178  -2.825  1.00  0.00     0.066 C 
ATOM      3  C   UNL     1      68.505   2.593  -3.524  1.00  0.00     0.021 C 
ATOM      4  C   UNL     1      67.676   2.498  -4.827  1.00  0.00     0.009 C 
ATOM      5  C   UNL     1      66.293   1.881  -4.506  1.00  0.00     0.035 C 
ATOM      6  C   UNL     1      66.163   1.648  -2.972  1.00  0.00     0.066 C 
ATOM      7  O   UNL     1      67.167   0.724  -2.552  1.00  0.00    -0.369 OA
ATOM      8  C   UNL     1      66.375   3.002  -2.236  1.00  0.00     0.035 C 
ATOM      9  C   UNL     1      67.756   3.592  -2.610  1.00  0.00     0.009 C 
ATOM     10  C   UNL     1      64.785   1.068  -2.636  1.00  0.00     0.042 C 
ATOM     11  C   UNL     1      69.274   1.227  -1.489  1.00  0.00     0.042 C 
ENDROOT
TORSDOF 0
ENDMDL
MODEL 2
REMARK VINA RESULT:    -4.208      9.544     10.913
REMARK INTER + INTRA:          -4.208
REMARK INTER:                  -4.208
REMARK INTRA:                   0.000
REMARK UNBOUND:                 0.000
REMARK SMILES CC1(C)O[C@]2(C)CC[C@H]1CC2
REMARK SMILES IDX 1 1 2 2 9 3 10 4 11 5 5 6 4 7 7 8 8 9 6 10 3 11
REMARK H PARENT
REMARK Flexibility Score: inf
ROOT
ATOM      1  C   UNL     1      62.825   1.778   5.241  1.00  0.00     0.042 C 
ATOM      2  C   UNL     1      62.794   3.051   6.113  1.00  0.00     0.066 C 
ATOM      3  C   UNL     1      63.403   2.765   7.540  1.00  0.00     0.021 C 
ATOM      4  C   UNL     1      64.892   2.378   7.368  1.00  0.00     0.009 C 
ATOM      5  C   UNL     1      65.601   3.453   6.508  1.00  0.00     0.035 C 
ATOM      6  C   UNL     1      64.607   4.605   6.180  1.00  0.00     0.066 C 
ATOM      7  O   UNL     1      63.515   4.083   5.423  1.00  0.00    -0.369 OA
ATOM      8  C   UNL     1      64.066   5.199   7.513  1.00  0.00     0.035 C 
ATOM      9  C   UNL     1      63.393   4.084   8.349  1.00  0.00     0.009 C 
ATOM     10  C   UNL     1      65.305   5.693   5.357  1.00  0.00     0.042 C 
ATOM     11  C   UNL     1      61.319   3.493   6.228  1.00  0.00     0.042 C 
ENDROOT
TORSDOF 0
ENDMDL
MODEL 3
REMARK VINA RESULT:    -4.180      1.181      2.795
REMARK INTER + INTRA:          -4.180
REMARK INTER:                  -4.180
REMARK INTRA:                   0.000
REMARK UNBOUND:                 0.000
REMARK SMILES CC1(C)O[C@]2(C)CC[C@H]1CC2
REMARK SMILES IDX 1 1 2 2 9 3 10 4 11 5 5 6 4 7 7 8 8 9 6 10 3 11
REMARK H PARENT
REMARK Flexibility Score: inf
ROOT
ATOM      1  C   UNL     1      66.109   0.094  -1.577  1.00  0.00     0.042 C 
ATOM      2  C   UNL     1      66.615   1.475  -2.044  1.00  0.00     0.066 C 
ATOM      3  C   UNL     1      68.115   1.696  -1.609  1.00  0.00     0.021 C 
ATOM      4  C   UNL     1      68.992   0.636  -2.319  1.00  0.00     0.009 C 
ATOM      5  C   UNL     1      68.694   0.664  -3.838  1.00  0.00     0.035 C 
ATOM      6  C   UNL     1      67.683   1.804  -4.155  1.00  0.00     0.066 C 
ATOM      7  O   UNL     1      66.457   1.550  -3.469  1.00  0.00    -0.369 OA
ATOM      8  C   UNL     1      68.275   3.156  -3.660  1.00  0.00     0.035 C 
ATOM      9  C   UNL     1      68.583   3.070  -2.146  1.00  0.00     0.009 C 
ATOM     10  C   UNL     1      67.404   1.865  -5.661  1.00  0.00     0.042 C 
ATOM     11  C   UNL     1      65.699   2.540  -1.403  1.00  0.00     0.042 C 
ENDROOT
TORSDOF 0
ENDMDL
MODEL 4
REMARK VINA RESULT:    -4.154      8.550     10.081
REMARK INTER + INTRA:          -4.154
REMARK INTER:                  -4.154
REMARK INTRA:                   0.000
REMARK UNBOUND:                 0.000
REMARK SMILES CC1(C)O[C@]2(C)CC[C@H]1CC2
REMARK SMILES IDX 1 1 2 2 9 3 10 4 11 5 5 6 4 7 7 8 8 9 6 10 3 11
REMARK H PARENT
REMARK Flexibility Score: inf
ROOT
ATOM      1  C   UNL     1      61.487   3.829   7.170  1.00  0.00     0.042 C 
ATOM      2  C   UNL     1      62.758   3.187   6.574  1.00  0.00     0.066 C 
ATOM      3  C   UNL     1      62.383   1.972   5.639  1.00  0.00     0.021 C 
ATOM      4  C   UNL     1      61.552   2.509   4.448  1.00  0.00     0.009 C 
ATOM      5  C   UNL     1      62.309   3.689   3.791  1.00  0.00     0.035 C 
ATOM      6  C   UNL     1      63.688   3.883   4.487  1.00  0.00     0.066 C 
ATOM      7  O   UNL     1      63.480   4.203   5.862  1.00  0.00    -0.369 OA
ATOM      8  C   UNL     1      64.494   2.555   4.387  1.00  0.00     0.035 C 
ATOM      9  C   UNL     1      63.686   1.402   5.031  1.00  0.00     0.009 C 
ATOM     10  C   UNL     1      64.462   5.027   3.823  1.00  0.00     0.042 C 
ATOM     11  C   UNL     1      63.633   2.716   7.756  1.00  0.00     0.042 C 
ENDROOT
TORSDOF 0
ENDMDL
MODEL 5
REMARK VINA RESULT:    -4.093      9.037     10.441
REMARK INTER + INTRA:          -4.093
REMARK INTER:                  -4.093
REMARK INTRA:                   0.000
REMARK UNBOUND:                 0.000
REMARK SMILES CC1(C)O[C@]2(C)CC[C@H]1CC2
REMARK SMILES IDX 1 1 2 2 9 3 10 4 11 5 5 6 4 7 7 8 8 9 6 10 3 11
REMARK H PARENT
REMARK Flexibility Score: inf
ROOT
ATOM      1  C   UNL     1      65.466   3.343   4.556  1.00  0.00     0.042 C 
ATOM      2  C   UNL     1      63.976   3.563   4.895  1.00  0.00     0.066 C 
ATOM      3  C   UNL     1      63.247   2.183   5.127  1.00  0.00     0.021 C 
ATOM      4  C   UNL     1      63.887   1.490   6.354  1.00  0.00     0.009 C 
ATOM      5  C   UNL     1      63.905   2.480   7.545  1.00  0.00     0.035 C 
ATOM      6  C   UNL     1      63.194   3.804   7.139  1.00  0.00     0.066 C 
ATOM      7  O   UNL     1      63.902   4.405   6.055  1.00  0.00    -0.369 OA
ATOM      8  C   UNL     1      61.742   3.478   6.683  1.00  0.00     0.035 C 
ATOM      9  C   UNL     1      61.775   2.465   5.513  1.00  0.00     0.009 C 
ATOM     10  C   UNL     1      63.174   4.781   8.320  1.00  0.00     0.042 C 
ATOM     11  C   UNL     1      63.342   4.322   3.710  1.00  0.00     0.042 C 
ENDROOT
TORSDOF 0
ENDMDL
MODEL 6
REMARK VINA RESULT:    -4.087      2.883      4.688
REMARK INTER + INTRA:          -4.087
REMARK INTER:                  -4.087
REMARK INTRA:                   0.000
REMARK UNBOUND:                 0.000
REMARK SMILES CC1(C)O[C@]2(C)CC[C@H]1CC2
REMARK SMILES IDX 1 1 2 2 9 3 10 4 11 5 5 6 4 7 7 8 8 9 6 10 3 11
REMARK H PARENT
REMARK Flexibility Score: inf
ROOT
ATOM      1  C   UNL     1      67.413   2.750  -0.835  1.00  0.00     0.042 C 
ATOM      2  C   UNL     1      66.372   3.512  -1.681  1.00  0.00     0.066 C 
ATOM      3  C   UNL     1      64.961   3.499  -0.976  1.00  0.00     0.021 C 
ATOM      4  C   UNL     1      65.079   4.253   0.371  1.00  0.00     0.009 C 
ATOM      5  C   UNL     1      65.723   5.639   0.123  1.00  0.00     0.035 C 
ATOM      6  C   UNL     1      65.953   5.848  -1.403  1.00  0.00     0.066 C 
ATOM      7  O   UNL     1      66.853   4.849  -1.884  1.00  0.00    -0.369 OA
ATOM      8  C   UNL     1      64.590   5.705  -2.142  1.00  0.00     0.035 C 
ATOM      9  C   UNL     1      63.973   4.318  -1.840  1.00  0.00     0.009 C 
ATOM     10  C   UNL     1      66.559   7.230  -1.665  1.00  0.00     0.042 C 
ATOM     11  C   UNL     1      66.300   2.816  -3.058  1.00  0.00     0.042 C 
ENDROOT
TORSDOF 0
ENDMDL
MODEL 7
REMARK VINA RESULT:    -4.073      9.296     10.698
REMARK INTER + INTRA:          -4.073
REMARK INTER:                  -4.073
REMARK INTRA:                   0.000
REMARK UNBOUND:                 0.000
REMARK SMILES CC1(C)O[C@]2(C)CC[C@H]1CC2
REMARK SMILES IDX 1 1 2 2 9 3 10 4 11 5 5 6 4 7 7 8 8 9 6 10 3 11
REMARK H PARENT
REMARK Flexibility Score: inf
ROOT
ATOM      1  C   UNL     1      62.393   3.875   4.039  1.00  0.00     0.042 C 
ATOM      2  C   UNL     1      62.706   2.977   5.254  1.00  0.00     0.066 C 
ATOM      3  C   UNL     1      64.253   2.682   5.346  1.00  0.00     0.021 C 
ATOM      4  C   UNL     1      64.995   4.020   5.577  1.00  0.00     0.009 C 
ATOM      5  C   UNL     1      64.352   4.757   6.777  1.00  0.00     0.035 C 
ATOM      6  C   UNL     1      63.238   3.868   7.405  1.00  0.00     0.066 C 
ATOM      7  O   UNL     1      62.219   3.635   6.433  1.00  0.00    -0.369 OA
ATOM      8  C   UNL     1      63.860   2.507   7.831  1.00  0.00     0.035 C 
ATOM      9  C   UNL     1      64.514   1.823   6.606  1.00  0.00     0.009 C 
ATOM     10  C   UNL     1      62.616   4.572   8.616  1.00  0.00     0.042 C 
ATOM     11  C   UNL     1      61.910   1.666   5.073  1.00  0.00     0.042 C 
ENDROOT
TORSDOF 0
ENDMDL
MODEL 8
REMARK VINA RESULT:    -4.061      3.874      5.412
REMARK INTER + INTRA:          -4.061
REMARK INTER:                  -4.061
REMARK INTRA:                   0.000
REMARK UNBOUND:                 0.000
REMARK SMILES CC1(C)O[C@]2(C)CC[C@H]1CC2
REMARK SMILES IDX 1 1 2 2 9 3 10 4 11 5 5 6 4 7 7 8 8 9 6 10 3 11
REMARK H PARENT
REMARK Flexibility Score: inf
ROOT
ATOM      1  C   UNL     1      66.062   5.338   1.813  1.00  0.00     0.042 C 
ATOM      2  C   UNL     1      65.244   5.858   0.611  1.00  0.00     0.066 C 
ATOM      3  C   UNL     1      66.200   6.403  -0.520  1.00  0.00     0.021 C 
ATOM      4  C   UNL     1      67.062   5.227  -1.041  1.00  0.00     0.009 C 
ATOM      5  C   UNL     1      66.136   4.045  -1.418  1.00  0.00     0.035 C 
ATOM      6  C   UNL     1      64.648   4.463  -1.234  1.00  0.00     0.066 C 
ATOM      7  O   UNL     1      64.416   4.786   0.137  1.00  0.00    -0.369 OA
ATOM      8  C   UNL     1      64.364   5.718  -2.109  1.00  0.00     0.035 C 
ATOM      9  C   UNL     1      65.331   6.861  -1.716  1.00  0.00     0.009 C 
ATOM     10  C   UNL     1      63.719   3.312  -1.636  1.00  0.00     0.042 C 
ATOM     11  C   UNL     1      64.322   6.981   1.134  1.00  0.00     0.042 C 
ENDROOT
TORSDOF 0
ENDMDL
MODEL 9
REMARK VINA RESULT:    -3.965      3.752      5.651
REMARK INTER + INTRA:          -3.965
REMARK INTER:                  -3.965
REMARK INTRA:                   0.000
REMARK UNBOUND:                 0.000
REMARK SMILES CC1(C)O[C@]2(C)CC[C@H]1CC2
REMARK SMILES IDX 1 1 2 2 9 3 10 4 11 5 5 6 4 7 7 8 8 9 6 10 3 11
REMARK H PARENT
REMARK Flexibility Score: inf
ROOT
ATOM      1  C   UNL     1      63.572   5.371   1.003  1.00  0.00     0.042 C 
ATOM      2  C   UNL     1      64.768   4.726   0.271  1.00  0.00     0.066 C 
ATOM      3  C   UNL     1      64.439   4.513  -1.257  1.00  0.00     0.021 C 
ATOM      4  C   UNL     1      64.212   5.899  -1.907  1.00  0.00     0.009 C 
ATOM      5  C   UNL     1      65.411   6.819  -1.573  1.00  0.00     0.035 C 
ATOM      6  C   UNL     1      66.482   6.020  -0.775  1.00  0.00     0.066 C 
ATOM      7  O   UNL     1      65.913   5.572   0.455  1.00  0.00    -0.369 OA
ATOM      8  C   UNL     1      66.921   4.786  -1.615  1.00  0.00     0.035 C 
ATOM      9  C   UNL     1      65.687   3.913  -1.948  1.00  0.00     0.009 C 
ATOM     10  C   UNL     1      67.690   6.911  -0.467  1.00  0.00     0.042 C 
ATOM     11  C   UNL     1      65.055   3.375   0.961  1.00  0.00     0.042 C 
ENDROOT
TORSDOF 0
ENDMDL
