MODEL 1
REMARK VINA RESULT:    -8.863      0.000      0.000
REMARK INTER + INTRA:          -9.400
REMARK INTER:                  -9.641
REMARK INTRA:                   0.240
REMARK UNBOUND:                 0.240
REMARK SMILES C[C@H]1[C@H]2C3=CC[C@H]4[C@]5(C)CC[C@H](O)C(C)(C)[C@@H]5CC[C@]4(C)[C@]3(C)CC[C@]2(C(=O)[O-])CC[C@@H]1C
REMARK SMILES IDX 26 1 30 2 25 3 3 4 31 5 24 6 4 7 2 8 32 9 22 10 5 11 1 12
REMARK SMILES IDX 33 13 23 14 20 15 6 16 7 17 19 18 21 19 8 20 18 21 17 22
REMARK SMILES IDX 10 23 9 24 14 25 11 26 12 27 15 28 16 29 27 30 28 31 29 32
REMARK SMILES IDX 13 33
REMARK H PARENT 13 34
REMARK Flexibility Score: inf
ROOT
ATOM      1  C   UNL     1      29.290  24.235  34.032  1.00  0.00     0.017 C 
ATOM      2  C   UNL     1      30.495  24.980  33.387  1.00  0.00     0.014 C 
ATOM      3  C   UNL     1      28.896  24.960  35.372  1.00  0.00     0.014 C 
ATOM      4  C   UNL     1      28.110  24.235  32.996  1.00  0.00     0.030 C 
ATOM      5  C   UNL     1      30.926  24.383  32.038  1.00  0.00     0.004 C 
ATOM      6  C   UNL     1      27.431  25.421  35.444  1.00  0.00     0.013 C 
ATOM      7  C   UNL     1      26.775  23.788  33.624  1.00  0.00    -0.063 C 
ATOM      8  C   UNL     1      28.508  23.601  31.615  1.00  0.00    -0.003 C 
ATOM      9  C   UNL     1      29.770  24.292  31.018  1.00  0.00    -0.011 C 
ATOM     10  C   UNL     1      26.392  24.328  35.015  1.00  0.00    -0.006 C 
ATOM     11  C   UNL     1      25.875  23.018  32.962  1.00  0.00    -0.027 C 
ATOM     12  C   UNL     1      28.708  22.064  31.630  1.00  0.00     0.008 C 
ATOM     13  C   UNL     1      29.448  25.668  30.409  1.00  0.00     0.008 C 
ATOM     14  C   UNL     1      26.600  23.113  35.990  1.00  0.00     0.017 C 
ATOM     15  C   UNL     1      24.853  24.904  35.050  1.00  0.00    -0.020 C 
ATOM     16  C   UNL     1      24.458  22.902  33.458  1.00  0.00     0.032 C 
ATOM     17  C   UNL     1      23.998  24.318  33.858  1.00  0.00     0.006 C 
ATOM     18  C   UNL     1      24.758  26.454  34.837  1.00  0.00     0.008 C 
ATOM     19  C   UNL     1      24.247  24.593  36.457  1.00  0.00     0.012 C 
ATOM     20  C   UNL     1      22.431  24.604  33.874  1.00  0.00    -0.025 C 
ATOM     21  C   UNL     1      23.399  27.005  34.300  1.00  0.00     0.005 C 
ATOM     22  C   UNL     1      22.148  26.077  34.442  1.00  0.00     0.003 C 
ATOM     23  C   UNL     1      21.927  24.454  32.392  1.00  0.00     0.010 C 
ATOM     24  C   UNL     1      21.705  23.531  34.742  1.00  0.00     0.012 C 
ATOM     25  C   UNL     1      20.785  26.766  33.967  1.00  0.00    -0.006 C 
ATOM     26  C   UNL     1      20.550  25.041  32.106  1.00  0.00     0.033 C 
ATOM     27  C   UNL     1      20.503  26.526  32.459  1.00  0.00     0.120 C 
ATOM     28  C   UNL     1      20.785  28.303  34.211  1.00  0.00     0.014 C 
ATOM     29  C   UNL     1      19.589  26.241  34.815  1.00  0.00     0.014 C 
ENDROOT
BRANCH   1  30
ATOM     30  C   UNL     1      29.685  22.807  34.354  1.00  0.00     0.048 C 
ATOM     31  O   UNL     1      30.671  22.519  35.067  1.00  0.00    -0.550 OA
ATOM     32  O   UNL     1      30.815  22.559  35.152  1.00  0.00    -0.550 OA
ENDBRANCH   1  30
BRANCH  27  33
ATOM     33  O   UNL     1      21.436  27.223  31.668  1.00  0.00    -0.393 OA
ATOM     34  H   UNL     1      21.502  26.748  30.798  1.00  0.00     0.210 HD
ENDBRANCH  27  33
TORSDOF 2
ENDMDL
MODEL 2
REMARK VINA RESULT:    -7.800      0.916      0.989
REMARK INTER + INTRA:          -8.243
REMARK INTER:                  -8.518
REMARK INTRA:                   0.275
REMARK UNBOUND:                 0.240
REMARK SMILES C[C@H]1[C@H]2C3=CC[C@H]4[C@]5(C)CC[C@H](O)C(C)(C)[C@@H]5CC[C@]4(C)[C@]3(C)CC[C@]2(C(=O)[O-])CC[C@@H]1C
REMARK SMILES IDX 26 1 30 2 25 3 3 4 31 5 24 6 4 7 2 8 32 9 22 10 5 11 1 12
REMARK SMILES IDX 33 13 23 14 20 15 6 16 7 17 19 18 21 19 8 20 18 21 17 22
REMARK SMILES IDX 10 23 9 24 14 25 11 26 12 27 15 28 16 29 27 30 28 31 29 32
REMARK SMILES IDX 13 33
REMARK H PARENT 13 34
REMARK Flexibility Score: inf
ROOT
ATOM      1  C   UNL     1      29.023  23.125  34.498  1.00  0.00     0.017 C 
ATOM      2  C   UNL     1      30.342  23.662  33.871  1.00  0.00     0.014 C 
ATOM      3  C   UNL     1      28.690  23.962  35.788  1.00  0.00     0.014 C 
ATOM      4  C   UNL     1      27.891  23.238  33.416  1.00  0.00     0.030 C 
ATOM      5  C   UNL     1      30.730  22.946  32.567  1.00  0.00     0.004 C 
ATOM      6  C   UNL     1      27.303  24.626  35.780  1.00  0.00     0.013 C 
ATOM      7  C   UNL     1      26.485  23.013  34.008  1.00  0.00    -0.063 C 
ATOM      8  C   UNL     1      28.243  22.488  32.081  1.00  0.00    -0.003 C 
ATOM      9  C   UNL     1      29.608  22.967  31.506  1.00  0.00    -0.011 C 
ATOM     10  C   UNL     1      26.135  23.668  35.358  1.00  0.00    -0.006 C 
ATOM     11  C   UNL     1      25.509  22.345  33.344  1.00  0.00    -0.027 C 
ATOM     12  C   UNL     1      28.222  20.941  32.172  1.00  0.00     0.008 C 
ATOM     13  C   UNL     1      29.504  24.343  30.826  1.00  0.00     0.008 C 
ATOM     14  C   UNL     1      26.136  22.485  36.392  1.00  0.00     0.017 C 
ATOM     15  C   UNL     1      24.692  24.454  35.305  1.00  0.00    -0.020 C 
ATOM     16  C   UNL     1      24.073  22.451  33.787  1.00  0.00     0.032 C 
ATOM     17  C   UNL     1      23.804  23.935  34.105  1.00  0.00     0.006 C 
ATOM     18  C   UNL     1      24.824  25.990  35.021  1.00  0.00     0.008 C 
ATOM     19  C   UNL     1      24.001  24.299  36.698  1.00  0.00     0.012 C 
ATOM     20  C   UNL     1      22.294  24.436  34.045  1.00  0.00    -0.025 C 
ATOM     21  C   UNL     1      23.575  26.697  34.405  1.00  0.00     0.005 C 
ATOM     22  C   UNL     1      22.202  25.961  34.537  1.00  0.00     0.003 C 
ATOM     23  C   UNL     1      21.825  24.286  32.552  1.00  0.00     0.010 C 
ATOM     24  C   UNL     1      21.395  23.519  34.929  1.00  0.00     0.012 C 
ATOM     25  C   UNL     1      20.966  26.808  33.977  1.00  0.00    -0.006 C 
ATOM     26  C   UNL     1      20.554  25.045  32.185  1.00  0.00     0.033 C 
ATOM     27  C   UNL     1      20.705  26.536  32.470  1.00  0.00     0.120 C 
ATOM     28  C   UNL     1      21.174  28.341  34.153  1.00  0.00     0.014 C 
ATOM     29  C   UNL     1      19.680  26.497  34.797  1.00  0.00     0.014 C 
ENDROOT
BRANCH   1  30
ATOM     30  C   UNL     1      29.201  21.673  34.898  1.00  0.00     0.048 C 
ATOM     31  O   UNL     1      29.376  21.311  36.081  1.00  0.00    -0.550 OA
ATOM     32  O   UNL     1      29.408  21.342  36.248  1.00  0.00    -0.550 OA
ENDBRANCH   1  30
BRANCH  27  33
ATOM     33  O   UNL     1      21.754  27.058  31.688  1.00  0.00    -0.393 OA
ATOM     34  H   UNL     1      21.762  26.557  30.830  1.00  0.00     0.210 HD
ENDBRANCH  27  33
TORSDOF 2
ENDMDL
MODEL 3
REMARK VINA RESULT:    -6.238      2.866      7.543
REMARK INTER + INTRA:          -6.545
REMARK INTER:                  -6.786
REMARK INTRA:                   0.241
REMARK UNBOUND:                 0.240
REMARK SMILES C[C@H]1[C@H]2C3=CC[C@H]4[C@]5(C)CC[C@H](O)C(C)(C)[C@@H]5CC[C@]4(C)[C@]3(C)CC[C@]2(C(=O)[O-])CC[C@@H]1C
REMARK SMILES IDX 26 1 30 2 25 3 3 4 31 5 24 6 4 7 2 8 32 9 22 10 5 11 1 12
REMARK SMILES IDX 33 13 23 14 20 15 6 16 7 17 19 18 21 19 8 20 18 21 17 22
REMARK SMILES IDX 10 23 9 24 14 25 11 26 12 27 15 28 16 29 27 30 28 31 29 32
REMARK SMILES IDX 13 33
REMARK H PARENT 13 34
REMARK Flexibility Score: inf
ROOT
ATOM      1  C   UNL     1      23.979  21.184  35.478  1.00  0.00     0.017 C 
ATOM      2  C   UNL     1      22.459  21.302  35.164  1.00  0.00     0.014 C 
ATOM      3  C   UNL     1      24.674  20.348  34.340  1.00  0.00     0.014 C 
ATOM      4  C   UNL     1      24.567  22.636  35.582  1.00  0.00     0.030 C 
ATOM      5  C   UNL     1      21.692  22.152  36.190  1.00  0.00     0.004 C 
ATOM      6  C   UNL     1      25.840  21.065  33.640  1.00  0.00     0.013 C 
ATOM      7  C   UNL     1      26.108  22.647  35.598  1.00  0.00    -0.063 C 
ATOM      8  C   UNL     1      23.825  23.522  36.647  1.00  0.00    -0.003 C 
ATOM      9  C   UNL     1      22.291  23.563  36.379  1.00  0.00    -0.011 C 
ATOM     10  C   UNL     1      26.867  21.729  34.622  1.00  0.00    -0.006 C 
ATOM     11  C   UNL     1      26.827  23.506  36.365  1.00  0.00    -0.027 C 
ATOM     12  C   UNL     1      24.092  23.135  38.124  1.00  0.00     0.008 C 
ATOM     13  C   UNL     1      21.929  24.489  35.205  1.00  0.00     0.008 C 
ATOM     14  C   UNL     1      27.436  20.570  35.518  1.00  0.00     0.017 C 
ATOM     15  C   UNL     1      28.050  22.534  33.812  1.00  0.00    -0.020 C 
ATOM     16  C   UNL     1      28.291  23.730  36.095  1.00  0.00     0.032 C 
ATOM     17  C   UNL     1      28.457  23.860  34.568  1.00  0.00     0.006 C 
ATOM     18  C   UNL     1      27.607  23.044  32.397  1.00  0.00     0.008 C 
ATOM     19  C   UNL     1      29.247  21.554  33.596  1.00  0.00     0.012 C 
ATOM     20  C   UNL     1      29.737  24.642  34.033  1.00  0.00    -0.025 C 
ATOM     21  C   UNL     1      28.403  24.252  31.808  1.00  0.00     0.005 C 
ATOM     22  C   UNL     1      29.804  24.554  32.432  1.00  0.00     0.003 C 
ATOM     23  C   UNL     1      29.597  26.130  34.520  1.00  0.00     0.010 C 
ATOM     24  C   UNL     1      31.028  24.044  34.670  1.00  0.00     0.012 C 
ATOM     25  C   UNL     1      30.590  25.735  31.694  1.00  0.00    -0.006 C 
ATOM     26  C   UNL     1      30.503  27.137  33.820  1.00  0.00     0.033 C 
ATOM     27  C   UNL     1      30.273  27.125  32.311  1.00  0.00     0.120 C 
ATOM     28  C   UNL     1      30.260  25.804  30.174  1.00  0.00     0.014 C 
ATOM     29  C   UNL     1      32.125  25.477  31.743  1.00  0.00     0.014 C 
ENDROOT
BRANCH   1  30
ATOM     30  C   UNL     1      24.173  20.460  36.796  1.00  0.00     0.048 C 
ATOM     31  O   UNL     1      23.669  19.342  37.038  1.00  0.00    -0.550 OA
ATOM     32  O   UNL     1      23.564  19.211  37.002  1.00  0.00    -0.550 OA
ENDBRANCH   1  30
BRANCH  27  33
ATOM     33  O   UNL     1      28.940  27.490  32.039  1.00  0.00    -0.393 OA
ATOM     34  H   UNL     1      28.961  28.372  31.583  1.00  0.00     0.210 HD
ENDBRANCH  27  33
TORSDOF 2
ENDMDL
