MODEL 1
REMARK VINA RESULT:    -4.439      0.000      0.000
REMARK INTER + INTRA:         -17.808
REMARK INTER:                 -11.706
REMARK INTRA:                  -6.102
REMARK UNBOUND:                -6.102
REMARK SMILES CCCCCCCCCCCCCCCCCCCCCCCCCCCCCC(=O)[O-]
REMARK SMILES IDX 16 1 17 2 18 3 19 4 20 5 21 6 22 7 23 8 24 9 25 10 26 11
REMARK SMILES IDX 27 12 28 13 29 14 30 15 31 16 32 17 15 18 14 19 13 20 12 21
REMARK SMILES IDX 11 22 10 23 9 24 8 25 7 26 6 27 5 28 4 29 3 30 2 31 1 32
REMARK H PARENT
REMARK Flexibility Score: inf
ROOT
ATOM      1  C   UNL     1      48.759   6.885  21.095  1.00  0.00     0.000 C 
ENDROOT
BRANCH   1   2
ATOM      2  C   UNL     1      47.422   6.199  21.416  1.00  0.00     0.000 C 
BRANCH   2   3
ATOM      3  C   UNL     1      47.162   6.070  22.927  1.00  0.00     0.000 C 
BRANCH   3   4
ATOM      4  C   UNL     1      45.715   5.709  23.315  1.00  0.00     0.000 C 
BRANCH   4   5
ATOM      5  C   UNL     1      44.727   5.714  22.128  1.00  0.00     0.000 C 
BRANCH   5   6
ATOM      6  C   UNL     1      43.709   4.562  22.199  1.00  0.00     0.000 C 
BRANCH   6   7
ATOM      7  C   UNL     1      43.933   3.498  21.110  1.00  0.00     0.000 C 
BRANCH   7   8
ATOM      8  C   UNL     1      45.124   3.764  20.167  1.00  0.00     0.000 C 
BRANCH   8   9
ATOM      9  C   UNL     1      46.219   2.683  20.173  1.00  0.00     0.000 C 
BRANCH   9  10
ATOM     10  C   UNL     1      46.729   2.358  21.587  1.00  0.00     0.000 C 
BRANCH  10  11
ATOM     11  C   UNL     1      48.231   2.032  21.608  1.00  0.00     0.000 C 
BRANCH  11  12
ATOM     12  C   UNL     1      49.049   3.069  22.395  1.00  0.00     0.000 C 
BRANCH  12  13
ATOM     13  C   UNL     1      50.366   3.392  21.675  1.00  0.00     0.006 C 
BRANCH  13  14
ATOM     14  C   UNL     1      50.838   2.239  20.780  1.00  0.00     0.053 C 
BRANCH  14  15
ATOM     15  C   UNL     1      51.618   2.731  19.600  1.00  0.00     0.041 C 
ATOM     16  O   UNL     1      52.527   2.020  19.099  1.00  0.00    -0.550 OA
ATOM     17  O   UNL     1      51.362   3.992  19.074  1.00  0.00    -0.550 OA
ENDBRANCH  14  15
ENDBRANCH  13  14
ENDBRANCH  12  13
ENDBRANCH  11  12
ENDBRANCH  10  11
ENDBRANCH   9  10
ENDBRANCH   8   9
ENDBRANCH   7   8
ENDBRANCH   6   7
ENDBRANCH   5   6
ENDBRANCH   4   5
ENDBRANCH   3   4
ENDBRANCH   2   3
ENDBRANCH   1   2
BRANCH   1  18
ATOM     18  C   UNL     1      48.537   8.232  20.397  1.00  0.00     0.000 C 
BRANCH  18  19
ATOM     19  C   UNL     1      47.041   8.487  20.161  1.00  0.00     0.000 C 
BRANCH  19  20
ATOM     20  C   UNL     1      46.545   9.781  20.824  1.00  0.00     0.000 C 
BRANCH  20  21
ATOM     21  C   UNL     1      46.201   9.585  22.313  1.00  0.00     0.000 C 
BRANCH  21  22
ATOM     22  C   UNL     1      47.149  10.364  23.241  1.00  0.00     0.000 C 
BRANCH  22  23
ATOM     23  C   UNL     1      47.768   9.470  24.329  1.00  0.00     0.000 C 
BRANCH  23  24
ATOM     24  C   UNL     1      49.216   9.050  23.997  1.00  0.00    -0.000 C 
BRANCH  24  25
ATOM     25  C   UNL     1      49.844   8.106  25.042  1.00  0.00    -0.000 C 
BRANCH  25  26
ATOM     26  C   UNL     1      50.322   6.753  24.485  1.00  0.00    -0.000 C 
BRANCH  26  27
ATOM     27  C   UNL     1      49.939   5.525  25.337  1.00  0.00    -0.000 C 
BRANCH  27  28
ATOM     28  C   UNL     1      49.995   5.744  26.863  1.00  0.00    -0.000 C 
BRANCH  28  29
ATOM     29  C   UNL     1      48.636   5.669  27.583  1.00  0.00    -0.000 C 
BRANCH  29  30
ATOM     30  C   UNL     1      47.448   5.909  26.641  1.00  0.00    -0.000 C 
BRANCH  30  31
ATOM     31  C   UNL     1      46.657   7.154  27.060  1.00  0.00    -0.003 C 
ATOM     32  C   UNL     1      47.440   7.991  28.067  1.00  0.00     0.004 C 
ENDBRANCH  30  31
ENDBRANCH  29  30
ENDBRANCH  28  29
ENDBRANCH  27  28
ENDBRANCH  26  27
ENDBRANCH  25  26
ENDBRANCH  24  25
ENDBRANCH  23  24
ENDBRANCH  22  23
ENDBRANCH  21  22
ENDBRANCH  20  21
ENDBRANCH  19  20
ENDBRANCH  18  19
ENDBRANCH   1  18
TORSDOF 28
ENDMDL
MODEL 2
REMARK VINA RESULT:    -4.317      1.220      4.445
REMARK INTER + INTRA:         -17.485
REMARK INTER:                 -11.582
REMARK INTRA:                  -5.903
REMARK UNBOUND:                -6.102
REMARK SMILES CCCCCCCCCCCCCCCCCCCCCCCCCCCCCC(=O)[O-]
REMARK SMILES IDX 16 1 17 2 18 3 19 4 20 5 21 6 22 7 23 8 24 9 25 10 26 11
REMARK SMILES IDX 27 12 28 13 29 14 30 15 31 16 32 17 15 18 14 19 13 20 12 21
REMARK SMILES IDX 11 22 10 23 9 24 8 25 7 26 6 27 5 28 4 29 3 30 2 31 1 32
REMARK H PARENT
REMARK Flexibility Score: inf
ROOT
ATOM      1  C   UNL     1      46.323   7.635  24.520  1.00  0.00     0.000 C 
ENDROOT
BRANCH   1   2
ATOM      2  C   UNL     1      46.049   6.127  24.636  1.00  0.00     0.000 C 
BRANCH   2   3
ATOM      3  C   UNL     1      46.660   5.316  23.480  1.00  0.00     0.000 C 
BRANCH   3   4
ATOM      4  C   UNL     1      45.888   5.390  22.149  1.00  0.00     0.000 C 
BRANCH   4   5
ATOM      5  C   UNL     1      46.538   4.589  21.000  1.00  0.00     0.000 C 
BRANCH   5   6
ATOM      6  C   UNL     1      45.819   3.257  20.725  1.00  0.00     0.000 C 
BRANCH   6   7
ATOM      7  C   UNL     1      46.661   2.287  19.876  1.00  0.00     0.000 C 
BRANCH   7   8
ATOM      8  C   UNL     1      47.354   1.156  20.665  1.00  0.00     0.000 C 
BRANCH   8   9
ATOM      9  C   UNL     1      47.266   1.277  22.197  1.00  0.00     0.000 C 
BRANCH   9  10
ATOM     10  C   UNL     1      48.647   1.260  22.876  1.00  0.00     0.000 C 
BRANCH  10  11
ATOM     11  C   UNL     1      49.176   2.674  23.165  1.00  0.00     0.000 C 
BRANCH  11  12
ATOM     12  C   UNL     1      50.442   3.006  22.360  1.00  0.00     0.000 C 
BRANCH  12  13
ATOM     13  C   UNL     1      50.084   3.636  21.007  1.00  0.00     0.006 C 
BRANCH  13  14
ATOM     14  C   UNL     1      50.591   2.803  19.824  1.00  0.00     0.053 C 
BRANCH  14  15
ATOM     15  C   UNL     1      51.870   3.346  19.264  1.00  0.00     0.041 C 
ATOM     16  O   UNL     1      51.877   4.441  18.643  1.00  0.00    -0.550 OA
ATOM     17  O   UNL     1      53.051   2.625  19.402  1.00  0.00    -0.550 OA
ENDBRANCH  14  15
ENDBRANCH  13  14
ENDBRANCH  12  13
ENDBRANCH  11  12
ENDBRANCH  10  11
ENDBRANCH   9  10
ENDBRANCH   8   9
ENDBRANCH   7   8
ENDBRANCH   6   7
ENDBRANCH   5   6
ENDBRANCH   4   5
ENDBRANCH   3   4
ENDBRANCH   2   3
ENDBRANCH   1   2
BRANCH   1  18
ATOM     18  C   UNL     1      46.583   8.258  25.897  1.00  0.00     0.000 C 
BRANCH  18  19
ATOM     19  C   UNL     1      47.229   7.239  26.846  1.00  0.00     0.000 C 
BRANCH  19  20
ATOM     20  C   UNL     1      48.722   7.511  27.087  1.00  0.00     0.000 C 
BRANCH  20  21
ATOM     21  C   UNL     1      49.543   6.215  27.222  1.00  0.00     0.000 C 
BRANCH  21  22
ATOM     22  C   UNL     1      49.994   5.661  25.860  1.00  0.00     0.000 C 
BRANCH  22  23
ATOM     23  C   UNL     1      50.283   6.777  24.841  1.00  0.00     0.000 C 
BRANCH  23  24
ATOM     24  C   UNL     1      49.801   6.418  23.419  1.00  0.00    -0.000 C 
BRANCH  24  25
ATOM     25  C   UNL     1      49.501   7.646  22.537  1.00  0.00    -0.000 C 
BRANCH  25  26
ATOM     26  C   UNL     1      49.358   7.343  21.034  1.00  0.00    -0.000 C 
BRANCH  26  27
ATOM     27  C   UNL     1      48.613   8.421  20.220  1.00  0.00    -0.000 C 
BRANCH  27  28
ATOM     28  C   UNL     1      47.090   8.212  20.097  1.00  0.00    -0.000 C 
BRANCH  28  29
ATOM     29  C   UNL     1      46.235   9.064  21.053  1.00  0.00    -0.000 C 
BRANCH  29  30
ATOM     30  C   UNL     1      46.815  10.466  21.284  1.00  0.00    -0.000 C 
BRANCH  30  31
ATOM     31  C   UNL     1      46.082  11.183  22.423  1.00  0.00    -0.003 C 
ATOM     32  C   UNL     1      46.961  11.291  23.664  1.00  0.00     0.004 C 
ENDBRANCH  30  31
ENDBRANCH  29  30
ENDBRANCH  28  29
ENDBRANCH  27  28
ENDBRANCH  26  27
ENDBRANCH  25  26
ENDBRANCH  24  25
ENDBRANCH  23  24
ENDBRANCH  22  23
ENDBRANCH  21  22
ENDBRANCH  20  21
ENDBRANCH  19  20
ENDBRANCH  18  19
ENDBRANCH   1  18
TORSDOF 28
ENDMDL
MODEL 3
REMARK VINA RESULT:    -4.180      1.874      6.719
REMARK INTER + INTRA:         -17.125
REMARK INTER:                 -11.100
REMARK INTRA:                  -6.025
REMARK UNBOUND:                -6.102
REMARK SMILES CCCCCCCCCCCCCCCCCCCCCCCCCCCCCC(=O)[O-]
REMARK SMILES IDX 16 1 17 2 18 3 19 4 20 5 21 6 22 7 23 8 24 9 25 10 26 11
REMARK SMILES IDX 27 12 28 13 29 14 30 15 31 16 32 17 15 18 14 19 13 20 12 21
REMARK SMILES IDX 11 22 10 23 9 24 8 25 7 26 6 27 5 28 4 29 3 30 2 31 1 32
REMARK H PARENT
REMARK Flexibility Score: inf
ROOT
ATOM      1  C   UNL     1      49.211   4.387  22.829  1.00  0.00     0.000 C 
ENDROOT
BRANCH   1   2
ATOM      2  C   UNL     1      49.414   4.474  24.350  1.00  0.00     0.000 C 
BRANCH   2   3
ATOM      3  C   UNL     1      50.329   5.639  24.766  1.00  0.00     0.000 C 
BRANCH   3   4
ATOM      4  C   UNL     1      49.870   6.417  26.014  1.00  0.00     0.000 C 
BRANCH   4   5
ATOM      5  C   UNL     1      49.018   5.584  26.997  1.00  0.00     0.000 C 
BRANCH   5   6
ATOM      6  C   UNL     1      47.901   6.408  27.659  1.00  0.00     0.000 C 
BRANCH   6   7
ATOM      7  C   UNL     1      46.544   6.254  26.950  1.00  0.00     0.000 C 
BRANCH   7   8
ATOM      8  C   UNL     1      46.313   7.207  25.759  1.00  0.00     0.000 C 
BRANCH   8   9
ATOM      9  C   UNL     1      46.857   8.634  25.947  1.00  0.00     0.000 C 
BRANCH   9  10
ATOM     10  C   UNL     1      47.594   9.160  24.703  1.00  0.00     0.000 C 
BRANCH  10  11
ATOM     11  C   UNL     1      47.706   8.100  23.595  1.00  0.00     0.000 C 
BRANCH  11  12
ATOM     12  C   UNL     1      48.306   8.664  22.298  1.00  0.00     0.000 C 
BRANCH  12  13
ATOM     13  C   UNL     1      49.569   7.889  21.894  1.00  0.00     0.006 C 
BRANCH  13  14
ATOM     14  C   UNL     1      49.495   7.363  20.456  1.00  0.00     0.053 C 
BRANCH  14  15
ATOM     15  C   UNL     1      50.468   8.062  19.555  1.00  0.00     0.041 C 
ATOM     16  O   UNL     1      51.510   7.473  19.169  1.00  0.00    -0.550 OA
ATOM     17  O   UNL     1      50.237   9.377  19.169  1.00  0.00    -0.550 OA
ENDBRANCH  14  15
ENDBRANCH  13  14
ENDBRANCH  12  13
ENDBRANCH  11  12
ENDBRANCH  10  11
ENDBRANCH   9  10
ENDBRANCH   8   9
ENDBRANCH   7   8
ENDBRANCH   6   7
ENDBRANCH   5   6
ENDBRANCH   4   5
ENDBRANCH   3   4
ENDBRANCH   2   3
ENDBRANCH   1   2
BRANCH   1  18
ATOM     18  C   UNL     1      47.756   4.685  22.446  1.00  0.00     0.000 C 
BRANCH  18  19
ATOM     19  C   UNL     1      46.807   4.373  23.612  1.00  0.00     0.000 C 
BRANCH  19  20
ATOM     20  C   UNL     1      45.404   3.958  23.143  1.00  0.00     0.000 C 
BRANCH  20  21
ATOM     21  C   UNL     1      45.210   4.148  21.627  1.00  0.00     0.000 C 
BRANCH  21  22
ATOM     22  C   UNL     1      44.506   2.948  20.971  1.00  0.00     0.000 C 
BRANCH  22  23
ATOM     23  C   UNL     1      45.422   1.717  20.865  1.00  0.00     0.000 C 
BRANCH  23  24
ATOM     24  C   UNL     1      46.749   2.028  20.139  1.00  0.00    -0.000 C 
BRANCH  24  25
ATOM     25  C   UNL     1      47.977   1.345  20.772  1.00  0.00    -0.000 C 
BRANCH  25  26
ATOM     26  C   UNL     1      47.805   0.942  22.248  1.00  0.00    -0.000 C 
BRANCH  26  27
ATOM     27  C   UNL     1      49.121   0.762  23.033  1.00  0.00    -0.000 C 
BRANCH  27  28
ATOM     28  C   UNL     1      50.093  -0.284  22.450  1.00  0.00    -0.000 C 
BRANCH  28  29
ATOM     29  C   UNL     1      51.508   0.239  22.144  1.00  0.00    -0.000 C 
BRANCH  29  30
ATOM     30  C   UNL     1      51.553   1.761  21.951  1.00  0.00    -0.000 C 
BRANCH  30  31
ATOM     31  C   UNL     1      52.071   2.123  20.555  1.00  0.00    -0.003 C 
ATOM     32  C   UNL     1      51.081   3.017  19.815  1.00  0.00     0.004 C 
ENDBRANCH  30  31
ENDBRANCH  29  30
ENDBRANCH  28  29
ENDBRANCH  27  28
ENDBRANCH  26  27
ENDBRANCH  25  26
ENDBRANCH  24  25
ENDBRANCH  23  24
ENDBRANCH  22  23
ENDBRANCH  21  22
ENDBRANCH  20  21
ENDBRANCH  19  20
ENDBRANCH  18  19
ENDBRANCH   1  18
TORSDOF 28
ENDMDL
MODEL 4
REMARK VINA RESULT:    -4.130      0.944      2.117
REMARK INTER + INTRA:         -16.992
REMARK INTER:                 -11.049
REMARK INTRA:                  -5.944
REMARK UNBOUND:                -6.102
REMARK SMILES CCCCCCCCCCCCCCCCCCCCCCCCCCCCCC(=O)[O-]
REMARK SMILES IDX 16 1 17 2 18 3 19 4 20 5 21 6 22 7 23 8 24 9 25 10 26 11
REMARK SMILES IDX 27 12 28 13 29 14 30 15 31 16 32 17 15 18 14 19 13 20 12 21
REMARK SMILES IDX 11 22 10 23 9 24 8 25 7 26 6 27 5 28 4 29 3 30 2 31 1 32
REMARK H PARENT
REMARK Flexibility Score: inf
ROOT
ATOM      1  C   UNL     1      48.870   6.755  21.328  1.00  0.00     0.000 C 
ENDROOT
BRANCH   1   2
ATOM      2  C   UNL     1      47.620   5.884  21.536  1.00  0.00     0.000 C 
BRANCH   2   3
ATOM      3  C   UNL     1      47.281   5.670  23.022  1.00  0.00     0.000 C 
BRANCH   3   4
ATOM      4  C   UNL     1      45.833   5.226  23.305  1.00  0.00     0.000 C 
BRANCH   4   5
ATOM      5  C   UNL     1      45.031   4.853  22.039  1.00  0.00     0.000 C 
BRANCH   5   6
ATOM      6  C   UNL     1      44.381   3.462  22.137  1.00  0.00     0.000 C 
BRANCH   6   7
ATOM      7  C   UNL     1      44.796   2.525  20.989  1.00  0.00     0.000 C 
BRANCH   7   8
ATOM      8  C   UNL     1      46.057   2.958  20.212  1.00  0.00     0.000 C 
BRANCH   8   9
ATOM      9  C   UNL     1      47.334   2.166  20.541  1.00  0.00     0.000 C 
BRANCH   9  10
ATOM     10  C   UNL     1      47.341   1.615  21.978  1.00  0.00     0.000 C 
BRANCH  10  11
ATOM     11  C   UNL     1      48.764   1.393  22.514  1.00  0.00     0.000 C 
BRANCH  11  12
ATOM     12  C   UNL     1      49.393   2.681  23.071  1.00  0.00     0.000 C 
BRANCH  12  13
ATOM     13  C   UNL     1      50.737   2.974  22.391  1.00  0.00     0.006 C 
BRANCH  13  14
ATOM     14  C   UNL     1      51.073   1.952  21.298  1.00  0.00     0.053 C 
BRANCH  14  15
ATOM     15  C   UNL     1      51.577   2.612  20.051  1.00  0.00     0.041 C 
ATOM     16  O   UNL     1      50.828   3.378  19.391  1.00  0.00    -0.550 OA
ATOM     17  O   UNL     1      52.867   2.354  19.601  1.00  0.00    -0.550 OA
ENDBRANCH  14  15
ENDBRANCH  13  14
ENDBRANCH  12  13
ENDBRANCH  11  12
ENDBRANCH  10  11
ENDBRANCH   9  10
ENDBRANCH   8   9
ENDBRANCH   7   8
ENDBRANCH   6   7
ENDBRANCH   5   6
ENDBRANCH   4   5
ENDBRANCH   3   4
ENDBRANCH   2   3
ENDBRANCH   1   2
BRANCH   1  18
ATOM     18  C   UNL     1      48.494   8.232  21.157  1.00  0.00     0.000 C 
BRANCH  18  19
ATOM     19  C   UNL     1      47.185   8.376  20.367  1.00  0.00     0.000 C 
BRANCH  19  20
ATOM     20  C   UNL     1      46.207   9.371  21.011  1.00  0.00     0.000 C 
BRANCH  20  21
ATOM     21  C   UNL     1      45.089   8.668  21.804  1.00  0.00     0.000 C 
BRANCH  21  22
ATOM     22  C   UNL     1      45.173   8.952  23.314  1.00  0.00     0.000 C 
BRANCH  22  23
ATOM     23  C   UNL     1      46.338   9.892  23.669  1.00  0.00     0.000 C 
BRANCH  23  24
ATOM     24  C   UNL     1      47.023   9.510  24.998  1.00  0.00    -0.000 C 
BRANCH  24  25
ATOM     25  C   UNL     1      46.586   8.139  25.550  1.00  0.00    -0.000 C 
BRANCH  25  26
ATOM     26  C   UNL     1      46.372   8.093  27.074  1.00  0.00    -0.000 C 
BRANCH  26  27
ATOM     27  C   UNL     1      47.667   8.045  27.913  1.00  0.00    -0.000 C 
BRANCH  27  28
ATOM     28  C   UNL     1      48.307   6.649  28.048  1.00  0.00    -0.000 C 
BRANCH  28  29
ATOM     29  C   UNL     1      49.657   6.478  27.327  1.00  0.00    -0.000 C 
BRANCH  29  30
ATOM     30  C   UNL     1      49.596   5.461  26.179  1.00  0.00    -0.000 C 
BRANCH  30  31
ATOM     31  C   UNL     1      50.332   5.986  24.941  1.00  0.00    -0.003 C 
ATOM     32  C   UNL     1      50.196   7.500  24.819  1.00  0.00     0.004 C 
ENDBRANCH  30  31
ENDBRANCH  29  30
ENDBRANCH  28  29
ENDBRANCH  27  28
ENDBRANCH  26  27
ENDBRANCH  25  26
ENDBRANCH  24  25
ENDBRANCH  23  24
ENDBRANCH  22  23
ENDBRANCH  21  22
ENDBRANCH  20  21
ENDBRANCH  19  20
ENDBRANCH  18  19
ENDBRANCH   1  18
TORSDOF 28
ENDMDL
MODEL 5
REMARK VINA RESULT:    -4.107      2.145      7.029
REMARK INTER + INTRA:         -16.932
REMARK INTER:                 -11.665
REMARK INTRA:                  -5.267
REMARK UNBOUND:                -6.102
REMARK SMILES CCCCCCCCCCCCCCCCCCCCCCCCCCCCCC(=O)[O-]
REMARK SMILES IDX 16 1 17 2 18 3 19 4 20 5 21 6 22 7 23 8 24 9 25 10 26 11
REMARK SMILES IDX 27 12 28 13 29 14 30 15 31 16 32 17 15 18 14 19 13 20 12 21
REMARK SMILES IDX 11 22 10 23 9 24 8 25 7 26 6 27 5 28 4 29 3 30 2 31 1 32
REMARK H PARENT
REMARK Flexibility Score: inf
ROOT
ATOM      1  C   UNL     1      49.161   4.318  22.479  1.00  0.00     0.000 C 
ENDROOT
BRANCH   1   2
ATOM      2  C   UNL     1      47.754   4.283  23.097  1.00  0.00     0.000 C 
BRANCH   2   3
ATOM      3  C   UNL     1      47.777   4.223  24.634  1.00  0.00     0.000 C 
BRANCH   3   4
ATOM      4  C   UNL     1      49.107   3.752  25.251  1.00  0.00     0.000 C 
BRANCH   4   5
ATOM      5  C   UNL     1      49.158   3.857  26.791  1.00  0.00     0.000 C 
BRANCH   5   6
ATOM      6  C   UNL     1      49.638   5.237  27.275  1.00  0.00     0.000 C 
BRANCH   6   7
ATOM      7  C   UNL     1      50.274   6.077  26.153  1.00  0.00     0.000 C 
BRANCH   7   8
ATOM      8  C   UNL     1      49.500   7.356  25.772  1.00  0.00     0.000 C 
BRANCH   8   9
ATOM      9  C   UNL     1      50.117   8.178  24.626  1.00  0.00     0.000 C 
BRANCH   9  10
ATOM     10  C   UNL     1      49.644   7.715  23.238  1.00  0.00     0.000 C 
BRANCH  10  11
ATOM     11  C   UNL     1      48.159   8.026  22.991  1.00  0.00     0.000 C 
BRANCH  11  12
ATOM     12  C   UNL     1      47.741   7.782  21.532  1.00  0.00     0.000 C 
BRANCH  12  13
ATOM     13  C   UNL     1      48.942   7.918  20.586  1.00  0.00     0.006 C 
BRANCH  13  14
ATOM     14  C   UNL     1      48.559   8.558  19.246  1.00  0.00     0.053 C 
BRANCH  14  15
ATOM     15  C   UNL     1      49.702   8.553  18.277  1.00  0.00     0.041 C 
ATOM     16  O   UNL     1      49.501   8.785  17.057  1.00  0.00    -0.550 OA
ATOM     17  O   UNL     1      50.987   8.260  18.719  1.00  0.00    -0.550 OA
ENDBRANCH  14  15
ENDBRANCH  13  14
ENDBRANCH  12  13
ENDBRANCH  11  12
ENDBRANCH  10  11
ENDBRANCH   9  10
ENDBRANCH   8   9
ENDBRANCH   7   8
ENDBRANCH   6   7
ENDBRANCH   5   6
ENDBRANCH   4   5
ENDBRANCH   3   4
ENDBRANCH   2   3
ENDBRANCH   1   2
BRANCH   1  18
ATOM     18  C   UNL     1      49.104   4.105  20.962  1.00  0.00     0.000 C 
BRANCH  18  19
ATOM     19  C   UNL     1      49.709   2.746  20.577  1.00  0.00     0.000 C 
BRANCH  19  20
ATOM     20  C   UNL     1      51.204   2.835  20.235  1.00  0.00     0.000 C 
BRANCH  20  21
ATOM     21  C   UNL     1      52.039   1.765  20.963  1.00  0.00     0.000 C 
BRANCH  21  22
ATOM     22  C   UNL     1      51.788   1.757  22.481  1.00  0.00     0.000 C 
BRANCH  22  23
ATOM     23  C   UNL     1      51.179   0.431  22.967  1.00  0.00     0.000 C 
BRANCH  23  24
ATOM     24  C   UNL     1      49.852   0.633  23.729  1.00  0.00    -0.000 C 
BRANCH  24  25
ATOM     25  C   UNL     1      48.600   0.507  22.839  1.00  0.00    -0.000 C 
BRANCH  25  26
ATOM     26  C   UNL     1      47.265   0.457  23.605  1.00  0.00    -0.000 C 
BRANCH  26  27
ATOM     27  C   UNL     1      46.062   1.070  22.858  1.00  0.00    -0.000 C 
BRANCH  27  28
ATOM     28  C   UNL     1      46.294   1.349  21.359  1.00  0.00    -0.000 C 
BRANCH  28  29
ATOM     29  C   UNL     1      45.391   2.436  20.750  1.00  0.00    -0.000 C 
BRANCH  29  30
ATOM     30  C   UNL     1      43.909   2.247  21.102  1.00  0.00    -0.000 C 
BRANCH  30  31
ATOM     31  C   UNL     1      43.253   3.586  21.457  1.00  0.00    -0.003 C 
ATOM     32  C   UNL     1      44.155   4.419  22.363  1.00  0.00     0.004 C 
ENDBRANCH  30  31
ENDBRANCH  29  30
ENDBRANCH  28  29
ENDBRANCH  27  28
ENDBRANCH  26  27
ENDBRANCH  25  26
ENDBRANCH  24  25
ENDBRANCH  23  24
ENDBRANCH  22  23
ENDBRANCH  21  22
ENDBRANCH  20  21
ENDBRANCH  19  20
ENDBRANCH  18  19
ENDBRANCH   1  18
TORSDOF 28
ENDMDL
MODEL 6
REMARK VINA RESULT:    -4.076      2.283      6.923
REMARK INTER + INTRA:         -16.850
REMARK INTER:                 -11.426
REMARK INTRA:                  -5.423
REMARK UNBOUND:                -6.102
REMARK SMILES CCCCCCCCCCCCCCCCCCCCCCCCCCCCCC(=O)[O-]
REMARK SMILES IDX 16 1 17 2 18 3 19 4 20 5 21 6 22 7 23 8 24 9 25 10 26 11
REMARK SMILES IDX 27 12 28 13 29 14 30 15 31 16 32 17 15 18 14 19 13 20 12 21
REMARK SMILES IDX 11 22 10 23 9 24 8 25 7 26 6 27 5 28 4 29 3 30 2 31 1 32
REMARK H PARENT
REMARK Flexibility Score: inf
ROOT
ATOM      1  C   UNL     1      46.956   3.670  20.949  1.00  0.00     0.000 C 
ENDROOT
BRANCH   1   2
ATOM      2  C   UNL     1      46.768   3.882  22.460  1.00  0.00     0.000 C 
BRANCH   2   3
ATOM      3  C   UNL     1      47.759   3.066  23.307  1.00  0.00     0.000 C 
BRANCH   3   4
ATOM      4  C   UNL     1      47.244   2.651  24.698  1.00  0.00     0.000 C 
BRANCH   4   5
ATOM      5  C   UNL     1      47.602   3.645  25.824  1.00  0.00     0.000 C 
BRANCH   5   6
ATOM      6  C   UNL     1      48.882   3.250  26.580  1.00  0.00     0.000 C 
BRANCH   6   7
ATOM      7  C   UNL     1      49.576   4.450  27.248  1.00  0.00     0.000 C 
BRANCH   7   8
ATOM      8  C   UNL     1      48.867   5.807  27.061  1.00  0.00     0.000 C 
BRANCH   8   9
ATOM      9  C   UNL     1      49.682   6.874  26.310  1.00  0.00     0.000 C 
BRANCH   9  10
ATOM     10  C   UNL     1      50.434   6.305  25.094  1.00  0.00     0.000 C 
BRANCH  10  11
ATOM     11  C   UNL     1      49.548   6.228  23.840  1.00  0.00     0.000 C 
BRANCH  11  12
ATOM     12  C   UNL     1      49.153   7.616  23.311  1.00  0.00     0.000 C 
BRANCH  12  13
ATOM     13  C   UNL     1      48.521   7.512  21.916  1.00  0.00     0.006 C 
BRANCH  13  14
ATOM     14  C   UNL     1      49.465   6.867  20.895  1.00  0.00     0.053 C 
BRANCH  14  15
ATOM     15  C   UNL     1      49.974   7.862  19.898  1.00  0.00     0.041 C 
ATOM     16  O   UNL     1      51.187   7.859  19.561  1.00  0.00    -0.550 OA
ATOM     17  O   UNL     1      49.114   8.815  19.365  1.00  0.00    -0.550 OA
ENDBRANCH  14  15
ENDBRANCH  13  14
ENDBRANCH  12  13
ENDBRANCH  11  12
ENDBRANCH  10  11
ENDBRANCH   9  10
ENDBRANCH   8   9
ENDBRANCH   7   8
ENDBRANCH   6   7
ENDBRANCH   5   6
ENDBRANCH   4   5
ENDBRANCH   3   4
ENDBRANCH   2   3
ENDBRANCH   1   2
BRANCH   1  18
ATOM     18  C   UNL     1      45.611   3.434  20.251  1.00  0.00     0.000 C 
BRANCH  18  19
ATOM     19  C   UNL     1      44.441   3.744  21.196  1.00  0.00     0.000 C 
BRANCH  19  20
ATOM     20  C   UNL     1      43.183   2.920  20.878  1.00  0.00     0.000 C 
BRANCH  20  21
ATOM     21  C   UNL     1      43.293   1.464  21.368  1.00  0.00     0.000 C 
BRANCH  21  22
ATOM     22  C   UNL     1      43.430   1.369  22.897  1.00  0.00     0.000 C 
BRANCH  22  23
ATOM     23  C   UNL     1      44.614   0.484  23.325  1.00  0.00     0.000 C 
BRANCH  23  24
ATOM     24  C   UNL     1      45.667   0.323  22.208  1.00  0.00    -0.000 C 
BRANCH  24  25
ATOM     25  C   UNL     1      46.825  -0.623  22.578  1.00  0.00    -0.000 C 
BRANCH  25  26
ATOM     26  C   UNL     1      48.093  -0.459  21.721  1.00  0.00    -0.000 C 
BRANCH  26  27
ATOM     27  C   UNL     1      49.413  -0.832  22.429  1.00  0.00    -0.000 C 
BRANCH  27  28
ATOM     28  C   UNL     1      49.720  -0.026  23.708  1.00  0.00    -0.000 C 
BRANCH  28  29
ATOM     29  C   UNL     1      50.854   1.006  23.571  1.00  0.00    -0.000 C 
BRANCH  29  30
ATOM     30  C   UNL     1      51.260   1.257  22.112  1.00  0.00    -0.000 C 
BRANCH  30  31
ATOM     31  C   UNL     1      50.926   2.692  21.687  1.00  0.00    -0.003 C 
ATOM     32  C   UNL     1      50.568   2.758  20.206  1.00  0.00     0.004 C 
ENDBRANCH  30  31
ENDBRANCH  29  30
ENDBRANCH  28  29
ENDBRANCH  27  28
ENDBRANCH  26  27
ENDBRANCH  25  26
ENDBRANCH  24  25
ENDBRANCH  23  24
ENDBRANCH  22  23
ENDBRANCH  21  22
ENDBRANCH  20  21
ENDBRANCH  19  20
ENDBRANCH  18  19
ENDBRANCH   1  18
TORSDOF 28
ENDMDL
MODEL 7
REMARK VINA RESULT:    -4.059      1.833      5.636
REMARK INTER + INTRA:         -16.804
REMARK INTER:                 -10.308
REMARK INTRA:                  -6.496
REMARK UNBOUND:                -6.102
REMARK SMILES CCCCCCCCCCCCCCCCCCCCCCCCCCCCCC(=O)[O-]
REMARK SMILES IDX 16 1 17 2 18 3 19 4 20 5 21 6 22 7 23 8 24 9 25 10 26 11
REMARK SMILES IDX 27 12 28 13 29 14 30 15 31 16 32 17 15 18 14 19 13 20 12 21
REMARK SMILES IDX 11 22 10 23 9 24 8 25 7 26 6 27 5 28 4 29 3 30 2 31 1 32
REMARK H PARENT
REMARK Flexibility Score: inf
ROOT
ATOM      1  C   UNL     1      46.977   2.086  19.947  1.00  0.00     0.000 C 
ENDROOT
BRANCH   1   2
ATOM      2  C   UNL     1      46.473   3.375  20.616  1.00  0.00     0.000 C 
BRANCH   2   3
ATOM      3  C   UNL     1      45.019   3.714  20.243  1.00  0.00     0.000 C 
BRANCH   3   4
ATOM      4  C   UNL     1      43.992   3.529  21.377  1.00  0.00     0.000 C 
BRANCH   4   5
ATOM      5  C   UNL     1      43.611   4.839  22.099  1.00  0.00     0.000 C 
BRANCH   5   6
ATOM      6  C   UNL     1      43.427   4.649  23.615  1.00  0.00     0.000 C 
BRANCH   6   7
ATOM      7  C   UNL     1      44.360   5.546  24.447  1.00  0.00     0.000 C 
BRANCH   7   8
ATOM      8  C   UNL     1      45.662   5.975  23.740  1.00  0.00     0.000 C 
BRANCH   8   9
ATOM      9  C   UNL     1      46.037   7.459  23.900  1.00  0.00     0.000 C 
BRANCH   9  10
ATOM     10  C   UNL     1      46.362   8.140  22.559  1.00  0.00     0.000 C 
BRANCH  10  11
ATOM     11  C   UNL     1      46.613   7.126  21.432  1.00  0.00     0.000 C 
BRANCH  11  12
ATOM     12  C   UNL     1      47.366   7.741  20.242  1.00  0.00     0.000 C 
BRANCH  12  13
ATOM     13  C   UNL     1      48.637   8.463  20.710  1.00  0.00     0.006 C 
BRANCH  13  14
ATOM     14  C   UNL     1      49.888   7.586  20.579  1.00  0.00     0.053 C 
BRANCH  14  15
ATOM     15  C   UNL     1      50.725   7.977  19.400  1.00  0.00     0.041 C 
ATOM     16  O   UNL     1      50.522   9.072  18.814  1.00  0.00    -0.550 OA
ATOM     17  O   UNL     1      51.707   7.115  18.927  1.00  0.00    -0.550 OA
ENDBRANCH  14  15
ENDBRANCH  13  14
ENDBRANCH  12  13
ENDBRANCH  11  12
ENDBRANCH  10  11
ENDBRANCH   9  10
ENDBRANCH   8   9
ENDBRANCH   7   8
ENDBRANCH   6   7
ENDBRANCH   5   6
ENDBRANCH   4   5
ENDBRANCH   3   4
ENDBRANCH   2   3
ENDBRANCH   1   2
BRANCH   1  18
ATOM     18  C   UNL     1      46.922   0.900  20.918  1.00  0.00     0.000 C 
BRANCH  18  19
ATOM     19  C   UNL     1      47.569   1.263  22.263  1.00  0.00     0.000 C 
BRANCH  19  20
ATOM     20  C   UNL     1      46.609   1.093  23.451  1.00  0.00     0.000 C 
BRANCH  20  21
ATOM     21  C   UNL     1      46.358   2.416  24.198  1.00  0.00     0.000 C 
BRANCH  21  22
ATOM     22  C   UNL     1      47.375   2.654  25.328  1.00  0.00     0.000 C 
BRANCH  22  23
ATOM     23  C   UNL     1      46.828   3.590  26.420  1.00  0.00     0.000 C 
BRANCH  23  24
ATOM     24  C   UNL     1      47.951   4.274  27.229  1.00  0.00    -0.000 C 
BRANCH  24  25
ATOM     25  C   UNL     1      48.177   5.750  26.849  1.00  0.00    -0.000 C 
BRANCH  25  26
ATOM     26  C   UNL     1      49.598   6.081  26.357  1.00  0.00    -0.000 C 
BRANCH  26  27
ATOM     27  C   UNL     1      50.016   5.374  25.050  1.00  0.00    -0.000 C 
BRANCH  27  28
ATOM     28  C   UNL     1      49.272   5.845  23.784  1.00  0.00    -0.000 C 
BRANCH  28  29
ATOM     29  C   UNL     1      48.936   4.733  22.773  1.00  0.00    -0.000 C 
BRANCH  29  30
ATOM     30  C   UNL     1      50.164   3.908  22.363  1.00  0.00    -0.000 C 
BRANCH  30  31
ATOM     31  C   UNL     1      50.207   3.704  20.845  1.00  0.00    -0.003 C 
ATOM     32  C   UNL     1      50.648   2.287  20.491  1.00  0.00     0.004 C 
ENDBRANCH  30  31
ENDBRANCH  29  30
ENDBRANCH  28  29
ENDBRANCH  27  28
ENDBRANCH  26  27
ENDBRANCH  25  26
ENDBRANCH  24  25
ENDBRANCH  23  24
ENDBRANCH  22  23
ENDBRANCH  21  22
ENDBRANCH  20  21
ENDBRANCH  19  20
ENDBRANCH  18  19
ENDBRANCH   1  18
TORSDOF 28
ENDMDL
MODEL 8
REMARK VINA RESULT:    -4.048      1.774      4.847
REMARK INTER + INTRA:         -16.777
REMARK INTER:                 -11.706
REMARK INTRA:                  -5.071
REMARK UNBOUND:                -6.102
REMARK SMILES CCCCCCCCCCCCCCCCCCCCCCCCCCCCCC(=O)[O-]
REMARK SMILES IDX 16 1 17 2 18 3 19 4 20 5 21 6 22 7 23 8 24 9 25 10 26 11
REMARK SMILES IDX 27 12 28 13 29 14 30 15 31 16 32 17 15 18 14 19 13 20 12 21
REMARK SMILES IDX 11 22 10 23 9 24 8 25 7 26 6 27 5 28 4 29 3 30 2 31 1 32
REMARK H PARENT
REMARK Flexibility Score: inf
ROOT
ATOM      1  C   UNL     1      46.685   3.773  21.149  1.00  0.00     0.000 C 
ENDROOT
BRANCH   1   2
ATOM      2  C   UNL     1      45.508   3.366  20.248  1.00  0.00     0.000 C 
BRANCH   2   3
ATOM      3  C   UNL     1      44.160   3.358  20.990  1.00  0.00     0.000 C 
BRANCH   3   4
ATOM      4  C   UNL     1      43.619   1.960  21.347  1.00  0.00     0.000 C 
BRANCH   4   5
ATOM      5  C   UNL     1      43.262   1.787  22.840  1.00  0.00     0.000 C 
BRANCH   5   6
ATOM      6  C   UNL     1      44.213   0.821  23.568  1.00  0.00     0.000 C 
BRANCH   6   7
ATOM      7  C   UNL     1      45.114   0.029  22.605  1.00  0.00     0.000 C 
BRANCH   7   8
ATOM      8  C   UNL     1      46.600  -0.053  23.013  1.00  0.00     0.000 C 
BRANCH   8   9
ATOM      9  C   UNL     1      46.985   0.772  24.254  1.00  0.00     0.000 C 
BRANCH   9  10
ATOM     10  C   UNL     1      48.420   1.321  24.183  1.00  0.00     0.000 C 
BRANCH  10  11
ATOM     11  C   UNL     1      49.045   1.152  22.789  1.00  0.00     0.000 C 
BRANCH  11  12
ATOM     12  C   UNL     1      49.847   2.386  22.348  1.00  0.00     0.000 C 
BRANCH  12  13
ATOM     13  C   UNL     1      50.687   2.079  21.100  1.00  0.00     0.006 C 
BRANCH  13  14
ATOM     14  C   UNL     1      50.579   3.180  20.039  1.00  0.00     0.053 C 
BRANCH  14  15
ATOM     15  C   UNL     1      51.829   3.292  19.220  1.00  0.00     0.041 C 
ATOM     16  O   UNL     1      52.574   2.290  19.060  1.00  0.00    -0.550 OA
ATOM     17  O   UNL     1      52.188   4.513  18.661  1.00  0.00    -0.550 OA
ENDBRANCH  14  15
ENDBRANCH  13  14
ENDBRANCH  12  13
ENDBRANCH  11  12
ENDBRANCH  10  11
ENDBRANCH   9  10
ENDBRANCH   8   9
ENDBRANCH   7   8
ENDBRANCH   6   7
ENDBRANCH   5   6
ENDBRANCH   4   5
ENDBRANCH   3   4
ENDBRANCH   2   3
ENDBRANCH   1   2
BRANCH   1  18
ATOM     18  C   UNL     1      46.234   3.944  22.605  1.00  0.00     0.000 C 
BRANCH  18  19
ATOM     19  C   UNL     1      47.297   4.691  23.424  1.00  0.00     0.000 C 
BRANCH  19  20
ATOM     20  C   UNL     1      46.692   5.537  24.556  1.00  0.00     0.000 C 
BRANCH  20  21
ATOM     21  C   UNL     1      47.195   5.106  25.946  1.00  0.00     0.000 C 
BRANCH  21  22
ATOM     22  C   UNL     1      48.697   4.770  25.948  1.00  0.00     0.000 C 
BRANCH  22  23
ATOM     23  C   UNL     1      49.576   6.021  26.114  1.00  0.00     0.000 C 
BRANCH  23  24
ATOM     24  C   UNL     1      50.374   6.357  24.836  1.00  0.00    -0.000 C 
BRANCH  24  25
ATOM     25  C   UNL     1      49.910   7.649  24.136  1.00  0.00    -0.000 C 
BRANCH  25  26
ATOM     26  C   UNL     1      49.624   7.502  22.630  1.00  0.00    -0.000 C 
BRANCH  26  27
ATOM     27  C   UNL     1      48.247   8.027  22.173  1.00  0.00    -0.000 C 
BRANCH  27  28
ATOM     28  C   UNL     1      47.678   7.356  20.906  1.00  0.00    -0.000 C 
BRANCH  28  29
ATOM     29  C   UNL     1      47.411   8.309  19.727  1.00  0.00    -0.000 C 
BRANCH  29  30
ATOM     30  C   UNL     1      48.527   9.345  19.532  1.00  0.00    -0.000 C 
BRANCH  30  31
ATOM     31  C   UNL     1      49.526   8.883  18.466  1.00  0.00    -0.003 C 
ATOM     32  C   UNL     1      50.758   8.249  19.104  1.00  0.00     0.004 C 
ENDBRANCH  30  31
ENDBRANCH  29  30
ENDBRANCH  28  29
ENDBRANCH  27  28
ENDBRANCH  26  27
ENDBRANCH  25  26
ENDBRANCH  24  25
ENDBRANCH  23  24
ENDBRANCH  22  23
ENDBRANCH  21  22
ENDBRANCH  20  21
ENDBRANCH  19  20
ENDBRANCH  18  19
ENDBRANCH   1  18
TORSDOF 28
ENDMDL
MODEL 9
REMARK VINA RESULT:    -4.006      2.355      4.978
REMARK INTER + INTRA:         -16.665
REMARK INTER:                 -11.035
REMARK INTRA:                  -5.630
REMARK UNBOUND:                -6.102
REMARK SMILES CCCCCCCCCCCCCCCCCCCCCCCCCCCCCC(=O)[O-]
REMARK SMILES IDX 16 1 17 2 18 3 19 4 20 5 21 6 22 7 23 8 24 9 25 10 26 11
REMARK SMILES IDX 27 12 28 13 29 14 30 15 31 16 32 17 15 18 14 19 13 20 12 21
REMARK SMILES IDX 11 22 10 23 9 24 8 25 7 26 6 27 5 28 4 29 3 30 2 31 1 32
REMARK H PARENT
REMARK Flexibility Score: inf
ROOT
ATOM      1  C   UNL     1      50.389   6.001  25.189  1.00  0.00     0.000 C 
ENDROOT
BRANCH   1   2
ATOM      2  C   UNL     1      49.466   4.773  25.250  1.00  0.00     0.000 C 
BRANCH   2   3
ATOM      3  C   UNL     1      48.160   4.967  24.461  1.00  0.00     0.000 C 
BRANCH   3   4
ATOM      4  C   UNL     1      48.215   4.525  22.986  1.00  0.00     0.000 C 
BRANCH   4   5
ATOM      5  C   UNL     1      49.622   4.101  22.509  1.00  0.00     0.000 C 
BRANCH   5   6
ATOM      6  C   UNL     1      49.651   3.709  21.022  1.00  0.00     0.000 C 
BRANCH   6   7
ATOM      7  C   UNL     1      50.562   2.502  20.739  1.00  0.00     0.000 C 
BRANCH   7   8
ATOM      8  C   UNL     1      51.642   2.230  21.807  1.00  0.00     0.000 C 
BRANCH   8   9
ATOM      9  C   UNL     1      51.438   0.950  22.636  1.00  0.00     0.000 C 
BRANCH   9  10
ATOM     10  C   UNL     1      50.103   0.249  22.331  1.00  0.00     0.000 C 
BRANCH  10  11
ATOM     11  C   UNL     1      49.036   0.527  23.402  1.00  0.00     0.000 C 
BRANCH  11  12
ATOM     12  C   UNL     1      47.662   0.855  22.794  1.00  0.00     0.000 C 
BRANCH  12  13
ATOM     13  C   UNL     1      47.487   0.171  21.431  1.00  0.00     0.006 C 
BRANCH  13  14
ATOM     14  C   UNL     1      47.084   1.159  20.330  1.00  0.00     0.053 C 
BRANCH  14  15
ATOM     15  C   UNL     1      45.838   1.913  20.684  1.00  0.00     0.041 C 
ATOM     16  O   UNL     1      44.822   1.298  21.100  1.00  0.00    -0.550 OA
ATOM     17  O   UNL     1      45.790   3.293  20.521  1.00  0.00    -0.550 OA
ENDBRANCH  14  15
ENDBRANCH  13  14
ENDBRANCH  12  13
ENDBRANCH  11  12
ENDBRANCH  10  11
ENDBRANCH   9  10
ENDBRANCH   8   9
ENDBRANCH   7   8
ENDBRANCH   6   7
ENDBRANCH   5   6
ENDBRANCH   4   5
ENDBRANCH   3   4
ENDBRANCH   2   3
ENDBRANCH   1   2
BRANCH   1  18
ATOM     18  C   UNL     1      49.604   7.297  25.422  1.00  0.00     0.000 C 
BRANCH  18  19
ATOM     19  C   UNL     1      49.939   8.341  24.346  1.00  0.00     0.000 C 
BRANCH  19  20
ATOM     20  C   UNL     1      48.963   8.306  23.158  1.00  0.00     0.000 C 
BRANCH  20  21
ATOM     21  C   UNL     1      49.621   7.770  21.872  1.00  0.00     0.000 C 
BRANCH  21  22
ATOM     22  C   UNL     1      48.587   7.409  20.792  1.00  0.00     0.000 C 
BRANCH  22  23
ATOM     23  C   UNL     1      47.165   7.859  21.168  1.00  0.00     0.000 C 
BRANCH  23  24
ATOM     24  C   UNL     1      46.667   9.034  20.299  1.00  0.00    -0.000 C 
BRANCH  24  25
ATOM     25  C   UNL     1      46.971  10.421  20.897  1.00  0.00    -0.000 C 
BRANCH  25  26
ATOM     26  C   UNL     1      46.074  10.825  22.081  1.00  0.00    -0.000 C 
BRANCH  26  27
ATOM     27  C   UNL     1      46.823  11.412  23.296  1.00  0.00    -0.000 C 
BRANCH  27  28
ATOM     28  C   UNL     1      46.685  10.603  24.602  1.00  0.00    -0.000 C 
BRANCH  28  29
ATOM     29  C   UNL     1      45.416   9.739  24.703  1.00  0.00    -0.000 C 
BRANCH  29  30
ATOM     30  C   UNL     1      45.714   8.233  24.673  1.00  0.00    -0.000 C 
BRANCH  30  31
ATOM     31  C   UNL     1      46.072   7.715  26.071  1.00  0.00    -0.003 C 
ATOM     32  C   UNL     1      45.101   6.628  26.521  1.00  0.00     0.004 C 
ENDBRANCH  30  31
ENDBRANCH  29  30
ENDBRANCH  28  29
ENDBRANCH  27  28
ENDBRANCH  26  27
ENDBRANCH  25  26
ENDBRANCH  24  25
ENDBRANCH  23  24
ENDBRANCH  22  23
ENDBRANCH  21  22
ENDBRANCH  20  21
ENDBRANCH  19  20
ENDBRANCH  18  19
ENDBRANCH   1  18
TORSDOF 28
ENDMDL
