MODEL 1
REMARK VINA RESULT:    -3.753      0.000      0.000
REMARK INTER + INTRA:          -7.012
REMARK INTER:                  -5.947
REMARK INTRA:                  -1.065
REMARK UNBOUND:                -1.065
REMARK SMILES CCCCCCCCCCCC(=O)[O-]
REMARK SMILES IDX 7 1 8 2 9 3 10 4 11 5 12 6 13 7 14 8 6 9 5 10 4 11 3 12 2 13
REMARK SMILES IDX 1 14
REMARK H PARENT
REMARK Flexibility Score: inf
ROOT
ATOM      1  C   UNL     1      23.244 -16.679  -2.617  1.00  0.00     0.000 C 
ENDROOT
BRANCH   1   2
ATOM      2  C   UNL     1      24.084 -16.391  -3.872  1.00  0.00     0.000 C 
BRANCH   2   3
ATOM      3  C   UNL     1      25.460 -17.077  -3.833  1.00  0.00     0.000 C 
BRANCH   3   4
ATOM      4  C   UNL     1      26.620 -16.071  -3.770  1.00  0.00     0.006 C 
BRANCH   4   5
ATOM      5  C   UNL     1      27.712 -16.487  -2.776  1.00  0.00     0.053 C 
BRANCH   5   6
ATOM      6  C   UNL     1      29.055 -16.038  -3.257  1.00  0.00     0.041 C 
ATOM      7  O   UNL     1      30.048 -16.807  -3.173  1.00  0.00    -0.550 OA
ATOM      8  O   UNL     1      29.201 -14.788  -3.846  1.00  0.00    -0.550 OA
ENDBRANCH   5   6
ENDBRANCH   4   5
ENDBRANCH   3   4
ENDBRANCH   2   3
ENDBRANCH   1   2
BRANCH   1   9
ATOM      9  C   UNL     1      22.878 -15.399  -1.845  1.00  0.00     0.000 C 
BRANCH   9  10
ATOM     10  C   UNL     1      23.755 -14.195  -2.235  1.00  0.00    -0.000 C 
BRANCH  10  11
ATOM     11  C   UNL     1      24.563 -13.570  -1.079  1.00  0.00    -0.000 C 
BRANCH  11  12
ATOM     12  C   UNL     1      26.087 -13.527  -1.298  1.00  0.00    -0.000 C 
BRANCH  12  13
ATOM     13  C   UNL     1      26.880 -13.637   0.011  1.00  0.00    -0.003 C 
ATOM     14  C   UNL     1      28.380 -13.521  -0.244  1.00  0.00     0.004 C 
ENDBRANCH  12  13
ENDBRANCH  11  12
ENDBRANCH  10  11
ENDBRANCH   9  10
ENDBRANCH   1   9
TORSDOF 10
ENDMDL
MODEL 2
REMARK VINA RESULT:    -3.735      1.101      3.881
REMARK INTER + INTRA:          -6.983
REMARK INTER:                  -6.023
REMARK INTRA:                  -0.960
REMARK UNBOUND:                -1.065
REMARK SMILES CCCCCCCCCCCC(=O)[O-]
REMARK SMILES IDX 7 1 8 2 9 3 10 4 11 5 12 6 13 7 14 8 6 9 5 10 4 11 3 12 2 13
REMARK SMILES IDX 1 14
REMARK H PARENT
REMARK Flexibility Score: inf
ROOT
ATOM      1  C   UNL     1      24.686 -13.480  -1.015  1.00  0.00     0.000 C 
ENDROOT
BRANCH   1   2
ATOM      2  C   UNL     1      26.217 -13.579  -1.123  1.00  0.00     0.000 C 
BRANCH   2   3
ATOM      3  C   UNL     1      26.904 -13.630   0.253  1.00  0.00     0.000 C 
BRANCH   3   4
ATOM      4  C   UNL     1      28.435 -13.710   0.146  1.00  0.00     0.006 C 
BRANCH   4   5
ATOM      5  C   UNL     1      28.965 -15.143   0.287  1.00  0.00     0.053 C 
BRANCH   5   6
ATOM      6  C   UNL     1      29.432 -15.660  -1.036  1.00  0.00     0.041 C 
ATOM      7  O   UNL     1      29.690 -14.859  -1.974  1.00  0.00    -0.550 OA
ATOM      8  O   UNL     1      29.631 -17.022  -1.220  1.00  0.00    -0.550 OA
ENDBRANCH   5   6
ENDBRANCH   4   5
ENDBRANCH   3   4
ENDBRANCH   2   3
ENDBRANCH   1   2
BRANCH   1   9
ATOM      9  C   UNL     1      23.969 -14.092  -2.231  1.00  0.00     0.000 C 
BRANCH   9  10
ATOM     10  C   UNL     1      23.110 -15.316  -1.865  1.00  0.00    -0.000 C 
BRANCH  10  11
ATOM     11  C   UNL     1      23.187 -16.493  -2.858  1.00  0.00    -0.000 C 
BRANCH  11  12
ATOM     12  C   UNL     1      24.257 -16.352  -3.956  1.00  0.00    -0.000 C 
BRANCH  12  13
ATOM     13  C   UNL     1      25.528 -17.160  -3.658  1.00  0.00    -0.003 C 
ATOM     14  C   UNL     1      26.748 -16.250  -3.564  1.00  0.00     0.004 C 
ENDBRANCH  12  13
ENDBRANCH  11  12
ENDBRANCH  10  11
ENDBRANCH   9  10
ENDBRANCH   1   9
TORSDOF 10
ENDMDL
MODEL 3
REMARK VINA RESULT:    -3.694      2.310      4.276
REMARK INTER + INTRA:          -6.918
REMARK INTER:                  -5.944
REMARK INTRA:                  -0.974
REMARK UNBOUND:                -1.065
REMARK SMILES CCCCCCCCCCCC(=O)[O-]
REMARK SMILES IDX 7 1 8 2 9 3 10 4 11 5 12 6 13 7 14 8 6 9 5 10 4 11 3 12 2 13
REMARK SMILES IDX 1 14
REMARK H PARENT
REMARK Flexibility Score: inf
ROOT
ATOM      1  C   UNL     1      26.863 -15.874  -3.843  1.00  0.00     0.000 C 
ENDROOT
BRANCH   1   2
ATOM      2  C   UNL     1      27.727 -15.710  -2.581  1.00  0.00     0.000 C 
BRANCH   2   3
ATOM      3  C   UNL     1      28.182 -14.257  -2.363  1.00  0.00     0.000 C 
BRANCH   3   4
ATOM      4  C   UNL     1      29.267 -14.134  -1.282  1.00  0.00     0.006 C 
BRANCH   4   5
ATOM      5  C   UNL     1      28.904 -13.121  -0.189  1.00  0.00     0.053 C 
BRANCH   5   6
ATOM      6  C   UNL     1      28.601 -13.825   1.096  1.00  0.00     0.041 C 
ATOM      7  O   UNL     1      28.797 -13.246   2.197  1.00  0.00    -0.550 OA
ATOM      8  O   UNL     1      28.055 -15.102   1.077  1.00  0.00    -0.550 OA
ENDBRANCH   5   6
ENDBRANCH   4   5
ENDBRANCH   3   4
ENDBRANCH   2   3
ENDBRANCH   1   2
BRANCH   1   9
ATOM      9  C   UNL     1      25.729 -16.896  -3.652  1.00  0.00     0.000 C 
BRANCH   9  10
ATOM     10  C   UNL     1      24.351 -16.342  -4.056  1.00  0.00    -0.000 C 
BRANCH  10  11
ATOM     11  C   UNL     1      23.234 -16.534  -3.010  1.00  0.00    -0.000 C 
BRANCH  11  12
ATOM     12  C   UNL     1      23.113 -15.405  -1.969  1.00  0.00    -0.000 C 
BRANCH  12  13
ATOM     13  C   UNL     1      23.843 -14.123  -2.393  1.00  0.00    -0.003 C 
ATOM     14  C   UNL     1      24.732 -13.599  -1.269  1.00  0.00     0.004 C 
ENDBRANCH  12  13
ENDBRANCH  11  12
ENDBRANCH  10  11
ENDBRANCH   9  10
ENDBRANCH   1   9
TORSDOF 10
ENDMDL
MODEL 4
REMARK VINA RESULT:    -3.673      2.733      4.991
REMARK INTER + INTRA:          -6.886
REMARK INTER:                  -6.161
REMARK INTRA:                  -0.725
REMARK UNBOUND:                -1.065
REMARK SMILES CCCCCCCCCCCC(=O)[O-]
REMARK SMILES IDX 7 1 8 2 9 3 10 4 11 5 12 6 13 7 14 8 6 9 5 10 4 11 3 12 2 13
REMARK SMILES IDX 1 14
REMARK H PARENT
REMARK Flexibility Score: inf
ROOT
ATOM      1  C   UNL     1      25.859 -13.168  -0.740  1.00  0.00     0.000 C 
ENDROOT
BRANCH   1   2
ATOM      2  C   UNL     1      26.776 -14.149  -1.488  1.00  0.00     0.000 C 
BRANCH   2   3
ATOM      3  C   UNL     1      28.048 -14.493  -0.693  1.00  0.00     0.000 C 
BRANCH   3   4
ATOM      4  C   UNL     1      28.057 -13.860   0.707  1.00  0.00     0.006 C 
BRANCH   4   5
ATOM      5  C   UNL     1      29.460 -13.814   1.328  1.00  0.00     0.053 C 
BRANCH   5   6
ATOM      6  C   UNL     1      29.773 -12.433   1.809  1.00  0.00     0.041 C 
ATOM      7  O   UNL     1      29.942 -12.213   3.037  1.00  0.00    -0.550 OA
ATOM      8  O   UNL     1      29.928 -11.397   0.896  1.00  0.00    -0.550 OA
ENDBRANCH   5   6
ENDBRANCH   4   5
ENDBRANCH   3   4
ENDBRANCH   2   3
ENDBRANCH   1   2
BRANCH   1   9
ATOM      9  C   UNL     1      24.368 -13.496  -0.924  1.00  0.00     0.000 C 
BRANCH   9  10
ATOM     10  C   UNL     1      24.053 -14.087  -2.310  1.00  0.00    -0.000 C 
BRANCH  10  11
ATOM     11  C   UNL     1      22.919 -15.132  -2.337  1.00  0.00    -0.000 C 
BRANCH  11  12
ATOM     12  C   UNL     1      23.346 -16.547  -2.765  1.00  0.00    -0.000 C 
BRANCH  12  13
ATOM     13  C   UNL     1      24.223 -16.550  -4.025  1.00  0.00    -0.003 C 
ATOM     14  C   UNL     1      25.589 -17.168  -3.742  1.00  0.00     0.004 C 
ENDBRANCH  12  13
ENDBRANCH  11  12
ENDBRANCH  10  11
ENDBRANCH   9  10
ENDBRANCH   1   9
TORSDOF 10
ENDMDL
MODEL 5
REMARK VINA RESULT:    -3.641      2.725      5.311
REMARK INTER + INTRA:          -6.834
REMARK INTER:                  -5.754
REMARK INTRA:                  -1.080
REMARK UNBOUND:                -1.065
REMARK SMILES CCCCCCCCCCCC(=O)[O-]
REMARK SMILES IDX 7 1 8 2 9 3 10 4 11 5 12 6 13 7 14 8 6 9 5 10 4 11 3 12 2 13
REMARK SMILES IDX 1 14
REMARK H PARENT
REMARK Flexibility Score: inf
ROOT
ATOM      1  C   UNL     1      27.332 -13.877   0.332  1.00  0.00     0.000 C 
ENDROOT
BRANCH   1   2
ATOM      2  C   UNL     1      26.567 -13.527  -0.955  1.00  0.00     0.000 C 
BRANCH   2   3
ATOM      3  C   UNL     1      25.055 -13.371  -0.720  1.00  0.00     0.000 C 
BRANCH   3   4
ATOM      4  C   UNL     1      24.238 -13.517  -2.013  1.00  0.00     0.006 C 
BRANCH   4   5
ATOM      5  C   UNL     1      24.663 -14.731  -2.849  1.00  0.00     0.053 C 
BRANCH   5   6
ATOM      6  C   UNL     1      23.574 -15.755  -2.875  1.00  0.00     0.041 C 
ATOM      7  O   UNL     1      23.491 -16.568  -3.833  1.00  0.00    -0.550 OA
ATOM      8  O   UNL     1      22.679 -15.846  -1.816  1.00  0.00    -0.550 OA
ENDBRANCH   5   6
ENDBRANCH   4   5
ENDBRANCH   3   4
ENDBRANCH   2   3
ENDBRANCH   1   2
BRANCH   1   9
ATOM      9  C   UNL     1      28.768 -13.325   0.333  1.00  0.00     0.000 C 
BRANCH   9  10
ATOM     10  C   UNL     1      29.831 -14.425   0.160  1.00  0.00    -0.000 C 
BRANCH  10  11
ATOM     11  C   UNL     1      29.283 -15.867   0.117  1.00  0.00    -0.000 C 
BRANCH  11  12
ATOM     12  C   UNL     1      29.522 -16.616  -1.207  1.00  0.00    -0.000 C 
BRANCH  12  13
ATOM     13  C   UNL     1      28.296 -16.602  -2.130  1.00  0.00    -0.003 C 
ATOM     14  C   UNL     1      28.493 -15.630  -3.289  1.00  0.00     0.004 C 
ENDBRANCH  12  13
ENDBRANCH  11  12
ENDBRANCH  10  11
ENDBRANCH   9  10
ENDBRANCH   1   9
TORSDOF 10
ENDMDL
MODEL 6
REMARK VINA RESULT:    -3.589      1.898      3.077
REMARK INTER + INTRA:          -6.752
REMARK INTER:                  -5.838
REMARK INTRA:                  -0.914
REMARK UNBOUND:                -1.065
REMARK SMILES CCCCCCCCCCCC(=O)[O-]
REMARK SMILES IDX 7 1 8 2 9 3 10 4 11 5 12 6 13 7 14 8 6 9 5 10 4 11 3 12 2 13
REMARK SMILES IDX 1 14
REMARK H PARENT
REMARK Flexibility Score: inf
ROOT
ATOM      1  C   UNL     1      25.736 -17.001  -3.748  1.00  0.00     0.000 C 
ENDROOT
BRANCH   1   2
ATOM      2  C   UNL     1      26.877 -16.017  -3.443  1.00  0.00     0.000 C 
BRANCH   2   3
ATOM      3  C   UNL     1      27.914 -16.599  -2.467  1.00  0.00     0.000 C 
BRANCH   3   4
ATOM      4  C   UNL     1      28.636 -15.512  -1.656  1.00  0.00     0.006 C 
BRANCH   4   5
ATOM      5  C   UNL     1      28.651 -15.807  -0.150  1.00  0.00     0.053 C 
BRANCH   5   6
ATOM      6  C   UNL     1      30.039 -16.131   0.304  1.00  0.00     0.041 C 
ATOM      7  O   UNL     1      30.413 -17.330   0.390  1.00  0.00    -0.550 OA
ATOM      8  O   UNL     1      30.935 -15.108   0.586  1.00  0.00    -0.550 OA
ENDBRANCH   5   6
ENDBRANCH   4   5
ENDBRANCH   3   4
ENDBRANCH   2   3
ENDBRANCH   1   2
BRANCH   1   9
ATOM      9  C   UNL     1      24.426 -16.287  -4.125  1.00  0.00     0.000 C 
BRANCH   9  10
ATOM     10  C   UNL     1      23.292 -16.547  -3.117  1.00  0.00    -0.000 C 
BRANCH  10  11
ATOM     11  C   UNL     1      23.036 -15.408  -2.109  1.00  0.00    -0.000 C 
BRANCH  11  12
ATOM     12  C   UNL     1      23.923 -14.163  -2.291  1.00  0.00    -0.000 C 
BRANCH  12  13
ATOM     13  C   UNL     1      24.323 -13.515  -0.958  1.00  0.00    -0.003 C 
ATOM     14  C   UNL     1      25.835 -13.336  -0.866  1.00  0.00     0.004 C 
ENDBRANCH  12  13
ENDBRANCH  11  12
ENDBRANCH  10  11
ENDBRANCH   9  10
ENDBRANCH   1   9
TORSDOF 10
ENDMDL
MODEL 7
REMARK VINA RESULT:    -3.573      1.301      4.171
REMARK INTER + INTRA:          -6.726
REMARK INTER:                  -5.998
REMARK INTRA:                  -0.728
REMARK UNBOUND:                -1.065
REMARK SMILES CCCCCCCCCCCC(=O)[O-]
REMARK SMILES IDX 7 1 8 2 9 3 10 4 11 5 12 6 13 7 14 8 6 9 5 10 4 11 3 12 2 13
REMARK SMILES IDX 1 14
REMARK H PARENT
REMARK Flexibility Score: inf
ROOT
ATOM      1  C   UNL     1      26.697 -13.507   0.243  1.00  0.00     0.000 C 
ENDROOT
BRANCH   1   2
ATOM      2  C   UNL     1      28.201 -13.824   0.274  1.00  0.00     0.000 C 
BRANCH   2   3
ATOM      3  C   UNL     1      28.502 -15.197   0.898  1.00  0.00     0.000 C 
BRANCH   3   4
ATOM      4  C   UNL     1      29.362 -16.085  -0.015  1.00  0.00     0.006 C 
BRANCH   4   5
ATOM      5  C   UNL     1      29.646 -15.437  -1.377  1.00  0.00     0.053 C 
BRANCH   5   6
ATOM      6  C   UNL     1      29.074 -16.269  -2.480  1.00  0.00     0.041 C 
ATOM      7  O   UNL     1      29.743 -16.482  -3.525  1.00  0.00    -0.550 OA
ATOM      8  O   UNL     1      27.821 -16.852  -2.334  1.00  0.00    -0.550 OA
ENDBRANCH   5   6
ENDBRANCH   4   5
ENDBRANCH   3   4
ENDBRANCH   2   3
ENDBRANCH   1   2
BRANCH   1   9
ATOM      9  C   UNL     1      26.100 -13.613  -1.171  1.00  0.00     0.000 C 
BRANCH   9  10
ATOM     10  C   UNL     1      24.565 -13.500  -1.181  1.00  0.00    -0.000 C 
BRANCH  10  11
ATOM     11  C   UNL     1      23.862 -14.208  -2.357  1.00  0.00    -0.000 C 
BRANCH  11  12
ATOM     12  C   UNL     1      23.022 -15.439  -1.969  1.00  0.00    -0.000 C 
BRANCH  12  13
ATOM     13  C   UNL     1      23.146 -16.588  -2.980  1.00  0.00    -0.003 C 
ATOM     14  C   UNL     1      24.533 -16.615  -3.614  1.00  0.00     0.004 C 
ENDBRANCH  12  13
ENDBRANCH  11  12
ENDBRANCH  10  11
ENDBRANCH   9  10
ENDBRANCH   1   9
TORSDOF 10
ENDMDL
MODEL 8
REMARK VINA RESULT:    -3.536      2.991      5.600
REMARK INTER + INTRA:          -6.669
REMARK INTER:                  -5.689
REMARK INTRA:                  -0.980
REMARK UNBOUND:                -1.065
REMARK SMILES CCCCCCCCCCCC(=O)[O-]
REMARK SMILES IDX 7 1 8 2 9 3 10 4 11 5 12 6 13 7 14 8 6 9 5 10 4 11 3 12 2 13
REMARK SMILES IDX 1 14
REMARK H PARENT
REMARK Flexibility Score: inf
ROOT
ATOM      1  C   UNL     1      27.900 -14.604   0.687  1.00  0.00     0.000 C 
ENDROOT
BRANCH   1   2
ATOM      2  C   UNL     1      26.875 -13.506   0.356  1.00  0.00     0.000 C 
BRANCH   2   3
ATOM      3  C   UNL     1      26.285 -13.656  -1.057  1.00  0.00     0.000 C 
BRANCH   3   4
ATOM      4  C   UNL     1      24.756 -13.507  -1.077  1.00  0.00     0.006 C 
BRANCH   4   5
ATOM      5  C   UNL     1      24.165 -13.640  -2.487  1.00  0.00     0.053 C 
BRANCH   5   6
ATOM      6  C   UNL     1      23.566 -14.998  -2.676  1.00  0.00     0.041 C 
ATOM      7  O   UNL     1      22.907 -15.534  -1.746  1.00  0.00    -0.550 OA
ATOM      8  O   UNL     1      23.693 -15.650  -3.895  1.00  0.00    -0.550 OA
ENDBRANCH   5   6
ENDBRANCH   4   5
ENDBRANCH   3   4
ENDBRANCH   2   3
ENDBRANCH   1   2
BRANCH   1   9
ATOM      9  C   UNL     1      28.894 -14.173   1.779  1.00  0.00     0.000 C 
BRANCH   9  10
ATOM     10  C   UNL     1      29.370 -12.718   1.614  1.00  0.00    -0.000 C 
BRANCH  10  11
ATOM     11  C   UNL     1      30.822 -12.554   1.120  1.00  0.00    -0.000 C 
BRANCH  11  12
ATOM     12  C   UNL     1      31.124 -13.203  -0.243  1.00  0.00    -0.000 C 
BRANCH  12  13
ATOM     13  C   UNL     1      30.312 -12.586  -1.390  1.00  0.00    -0.003 C 
ATOM     14  C   UNL     1      29.871 -13.653  -2.387  1.00  0.00     0.004 C 
ENDBRANCH  12  13
ENDBRANCH  11  12
ENDBRANCH  10  11
ENDBRANCH   9  10
ENDBRANCH   1   9
TORSDOF 10
ENDMDL
MODEL 9
REMARK VINA RESULT:    -3.536      2.335      4.806
REMARK INTER + INTRA:          -6.668
REMARK INTER:                  -5.520
REMARK INTRA:                  -1.147
REMARK UNBOUND:                -1.065
REMARK SMILES CCCCCCCCCCCC(=O)[O-]
REMARK SMILES IDX 7 1 8 2 9 3 10 4 11 5 12 6 13 7 14 8 6 9 5 10 4 11 3 12 2 13
REMARK SMILES IDX 1 14
REMARK H PARENT
REMARK Flexibility Score: inf
ROOT
ATOM      1  C   UNL     1      26.615 -13.502   0.289  1.00  0.00     0.000 C 
ENDROOT
BRANCH   1   2
ATOM      2  C   UNL     1      26.053 -13.609  -1.138  1.00  0.00     0.000 C 
BRANCH   2   3
ATOM      3  C   UNL     1      24.515 -13.586  -1.170  1.00  0.00     0.000 C 
BRANCH   3   4
ATOM      4  C   UNL     1      23.947 -14.043  -2.523  1.00  0.00     0.006 C 
BRANCH   4   5
ATOM      5  C   UNL     1      24.920 -14.933  -3.306  1.00  0.00     0.053 C 
BRANCH   5   6
ATOM      6  C   UNL     1      24.429 -16.346  -3.332  1.00  0.00     0.041 C 
ATOM      7  O   UNL     1      23.249 -16.613  -2.983  1.00  0.00    -0.550 OA
ATOM      8  O   UNL     1      25.259 -17.362  -3.790  1.00  0.00    -0.550 OA
ENDBRANCH   5   6
ENDBRANCH   4   5
ENDBRANCH   3   4
ENDBRANCH   2   3
ENDBRANCH   1   2
BRANCH   1   9
ATOM      9  C   UNL     1      28.060 -14.022   0.395  1.00  0.00     0.000 C 
BRANCH   9  10
ATOM     10  C   UNL     1      28.983 -13.446  -0.694  1.00  0.00    -0.000 C 
BRANCH  10  11
ATOM     11  C   UNL     1      29.730 -14.494  -1.543  1.00  0.00    -0.000 C 
BRANCH  11  12
ATOM     12  C   UNL     1      29.332 -15.956  -1.274  1.00  0.00    -0.000 C 
BRANCH  12  13
ATOM     13  C   UNL     1      28.270 -16.475  -2.253  1.00  0.00    -0.003 C 
ATOM     14  C   UNL     1      28.512 -15.938  -3.660  1.00  0.00     0.004 C 
ENDBRANCH  12  13
ENDBRANCH  11  12
ENDBRANCH  10  11
ENDBRANCH   9  10
ENDBRANCH   1   9
TORSDOF 10
ENDMDL
