MODEL 1
REMARK VINA RESULT:    -1.878      0.000      0.000
REMARK INTER + INTRA:          -7.571
REMARK INTER:                  -4.733
REMARK INTRA:                  -2.838
REMARK UNBOUND:                -2.838
REMARK SMILES CCCCCCCCCCCCCCCCCCCCCCCCCCCC(=O)[O-]
REMARK SMILES IDX 15 1 16 2 17 3 18 4 19 5 20 6 21 7 22 8 23 9 24 10 25 11
REMARK SMILES IDX 26 12 27 13 28 14 29 15 30 16 14 17 13 18 12 19 11 20 10 21
REMARK SMILES IDX 9 22 8 23 7 24 6 25 5 26 4 27 3 28 2 29 1 30
REMARK H PARENT
REMARK Flexibility Score: inf
ROOT
ATOM      1  C   UNL     1      82.496 125.650 130.861  1.00  0.00     0.000 C 
ENDROOT
BRANCH   1   2
ATOM      2  C   UNL     1      81.875 124.241 130.860  1.00  0.00     0.000 C 
BRANCH   2   3
ATOM      3  C   UNL     1      82.114 123.420 129.579  1.00  0.00     0.000 C 
BRANCH   3   4
ATOM      4  C   UNL     1      83.144 122.293 129.768  1.00  0.00     0.000 C 
BRANCH   4   5
ATOM      5  C   UNL     1      82.643 120.932 129.252  1.00  0.00     0.000 C 
BRANCH   5   6
ATOM      6  C   UNL     1      83.440 119.712 129.749  1.00  0.00     0.000 C 
BRANCH   6   7
ATOM      7  C   UNL     1      82.733 118.962 130.891  1.00  0.00     0.000 C 
BRANCH   7   8
ATOM      8  C   UNL     1      82.120 119.909 131.939  1.00  0.00     0.000 C 
BRANCH   8   9
ATOM      9  C   UNL     1      83.047 120.268 133.116  1.00  0.00     0.000 C 
BRANCH   9  10
ATOM     10  C   UNL     1      83.751 121.624 132.933  1.00  0.00     0.000 C 
BRANCH  10  11
ATOM     11  C   UNL     1      85.284 121.524 133.033  1.00  0.00     0.000 C 
BRANCH  11  12
ATOM     12  C   UNL     1      85.902 120.259 132.411  1.00  0.00     0.006 C 
BRANCH  12  13
ATOM     13  C   UNL     1      87.297 120.498 131.818  1.00  0.00     0.053 C 
BRANCH  13  14
ATOM     14  C   UNL     1      87.206 120.944 130.389  1.00  0.00     0.041 C 
ATOM     15  O   UNL     1      87.989 121.827 129.951  1.00  0.00    -0.550 OA
ATOM     16  O   UNL     1      86.233 120.410 129.549  1.00  0.00    -0.550 OA
ENDBRANCH  13  14
ENDBRANCH  12  13
ENDBRANCH  11  12
ENDBRANCH  10  11
ENDBRANCH   9  10
ENDBRANCH   8   9
ENDBRANCH   7   8
ENDBRANCH   6   7
ENDBRANCH   5   6
ENDBRANCH   4   5
ENDBRANCH   3   4
ENDBRANCH   2   3
ENDBRANCH   1   2
BRANCH   1  17
ATOM     17  C   UNL     1      82.753 126.195 132.277  1.00  0.00     0.000 C 
BRANCH  17  18
ATOM     18  C   UNL     1      83.744 127.379 132.294  1.00  0.00     0.000 C 
BRANCH  18  19
ATOM     19  C   UNL     1      83.139 128.710 131.809  1.00  0.00     0.000 C 
BRANCH  19  20
ATOM     20  C   UNL     1      83.452 129.088 130.348  1.00  0.00     0.000 C 
BRANCH  20  21
ATOM     21  C   UNL     1      84.534 128.228 129.665  1.00  0.00     0.000 C 
BRANCH  21  22
ATOM     22  C   UNL     1      83.947 127.140 128.751  1.00  0.00    -0.000 C 
BRANCH  22  23
ATOM     23  C   UNL     1      85.010 126.124 128.297  1.00  0.00    -0.000 C 
BRANCH  23  24
ATOM     24  C   UNL     1      84.439 125.074 127.327  1.00  0.00    -0.000 C 
BRANCH  24  25
ATOM     25  C   UNL     1      85.362 123.854 127.180  1.00  0.00    -0.000 C 
BRANCH  25  26
ATOM     26  C   UNL     1      84.652 122.643 126.546  1.00  0.00    -0.000 C 
BRANCH  26  27
ATOM     27  C   UNL     1      83.239 122.998 126.040  1.00  0.00    -0.000 C 
BRANCH  27  28
ATOM     28  C   UNL     1      82.576 121.872 125.229  1.00  0.00    -0.000 C 
BRANCH  28  29
ATOM     29  C   UNL     1      83.176 121.713 123.825  1.00  0.00    -0.003 C 
ATOM     30  C   UNL     1      82.229 120.950 122.904  1.00  0.00     0.004 C 
ENDBRANCH  28  29
ENDBRANCH  27  28
ENDBRANCH  26  27
ENDBRANCH  25  26
ENDBRANCH  24  25
ENDBRANCH  23  24
ENDBRANCH  22  23
ENDBRANCH  21  22
ENDBRANCH  20  21
ENDBRANCH  19  20
ENDBRANCH  18  19
ENDBRANCH  17  18
ENDBRANCH   1  17
TORSDOF 26
ENDMDL
MODEL 2
REMARK VINA RESULT:     0.267      1.677      5.826
REMARK INTER + INTRA:          -2.165
REMARK INTER:                  -3.310
REMARK INTRA:                   1.144
REMARK UNBOUND:                -2.838
REMARK SMILES CCCCCCCCCCCCCCCCCCCCCCCCCCCC(=O)[O-]
REMARK SMILES IDX 15 1 16 2 17 3 18 4 19 5 20 6 21 7 22 8 23 9 24 10 25 11
REMARK SMILES IDX 26 12 27 13 28 14 29 15 30 16 14 17 13 18 12 19 11 20 10 21
REMARK SMILES IDX 9 22 8 23 7 24 6 25 5 26 4 27 3 28 2 29 1 30
REMARK H PARENT
REMARK Flexibility Score: inf
ROOT
ATOM      1  C   UNL     1      84.894 125.310 128.010  1.00  0.00     0.000 C 
ENDROOT
BRANCH   1   2
ATOM      2  C   UNL     1      85.240 124.369 126.842  1.00  0.00     0.000 C 
BRANCH   2   3
ATOM      3  C   UNL     1      84.078 124.064 125.878  1.00  0.00     0.000 C 
BRANCH   3   4
ATOM      4  C   UNL     1      84.522 123.302 124.618  1.00  0.00     0.000 C 
BRANCH   4   5
ATOM      5  C   UNL     1      83.564 122.158 124.243  1.00  0.00     0.000 C 
BRANCH   5   6
ATOM      6  C   UNL     1      83.422 121.051 125.303  1.00  0.00     0.000 C 
BRANCH   6   7
ATOM      7  C   UNL     1      82.031 120.394 125.299  1.00  0.00     0.000 C 
BRANCH   7   8
ATOM      8  C   UNL     1      82.027 118.998 125.947  1.00  0.00     0.000 C 
BRANCH   8   9
ATOM      9  C   UNL     1      82.405 118.969 127.440  1.00  0.00     0.000 C 
BRANCH   9  10
ATOM     10  C   UNL     1      83.632 119.838 127.766  1.00  0.00     0.000 C 
BRANCH  10  11
ATOM     11  C   UNL     1      84.691 119.096 128.602  1.00  0.00     0.000 C 
BRANCH  11  12
ATOM     12  C   UNL     1      84.483 119.155 130.125  1.00  0.00     0.006 C 
BRANCH  12  13
ATOM     13  C   UNL     1      85.799 119.106 130.915  1.00  0.00     0.053 C 
BRANCH  13  14
ATOM     14  C   UNL     1      85.927 120.294 131.820  1.00  0.00     0.041 C 
ATOM     15  O   UNL     1      86.500 121.339 131.414  1.00  0.00    -0.550 OA
ATOM     16  O   UNL     1      85.447 120.238 133.125  1.00  0.00    -0.550 OA
ENDBRANCH  13  14
ENDBRANCH  12  13
ENDBRANCH  11  12
ENDBRANCH  10  11
ENDBRANCH   9  10
ENDBRANCH   8   9
ENDBRANCH   7   8
ENDBRANCH   6   7
ENDBRANCH   5   6
ENDBRANCH   4   5
ENDBRANCH   3   4
ENDBRANCH   2   3
ENDBRANCH   1   2
BRANCH   1  17
ATOM     17  C   UNL     1      83.596 124.916 128.738  1.00  0.00     0.000 C 
BRANCH  17  18
ATOM     18  C   UNL     1      83.836 123.934 129.904  1.00  0.00     0.000 C 
BRANCH  18  19
ATOM     19  C   UNL     1      82.582 123.651 130.754  1.00  0.00     0.000 C 
BRANCH  19  20
ATOM     20  C   UNL     1      81.877 124.896 131.328  1.00  0.00     0.000 C 
BRANCH  20  21
ATOM     21  C   UNL     1      82.196 125.209 132.803  1.00  0.00     0.000 C 
BRANCH  21  22
ATOM     22  C   UNL     1      82.141 126.712 133.122  1.00  0.00    -0.000 C 
BRANCH  22  23
ATOM     23  C   UNL     1      82.903 127.557 132.087  1.00  0.00    -0.000 C 
BRANCH  23  24
ATOM     24  C   UNL     1      83.980 128.446 132.734  1.00  0.00    -0.000 C 
BRANCH  24  25
ATOM     25  C   UNL     1      83.488 129.882 132.970  1.00  0.00    -0.000 C 
BRANCH  25  26
ATOM     26  C   UNL     1      83.296 130.669 131.661  1.00  0.00    -0.000 C 
BRANCH  26  27
ATOM     27  C   UNL     1      83.557 129.797 130.416  1.00  0.00    -0.000 C 
BRANCH  27  28
ATOM     28  C   UNL     1      84.932 129.106 130.428  1.00  0.00    -0.000 C 
BRANCH  28  29
ATOM     29  C   UNL     1      85.160 128.207 129.205  1.00  0.00    -0.003 C 
ATOM     30  C   UNL     1      85.786 128.988 128.054  1.00  0.00     0.004 C 
ENDBRANCH  28  29
ENDBRANCH  27  28
ENDBRANCH  26  27
ENDBRANCH  25  26
ENDBRANCH  24  25
ENDBRANCH  23  24
ENDBRANCH  22  23
ENDBRANCH  21  22
ENDBRANCH  20  21
ENDBRANCH  19  20
ENDBRANCH  18  19
ENDBRANCH  17  18
ENDBRANCH   1  17
TORSDOF 26
ENDMDL
MODEL 3
REMARK VINA RESULT:     0.817     11.545     14.581
REMARK INTER + INTRA:          -0.778
REMARK INTER:                   0.480
REMARK INTRA:                  -1.258
REMARK UNBOUND:                -2.838
REMARK SMILES CCCCCCCCCCCCCCCCCCCCCCCCCCCC(=O)[O-]
REMARK SMILES IDX 15 1 16 2 17 3 18 4 19 5 20 6 21 7 22 8 23 9 24 10 25 11
REMARK SMILES IDX 26 12 27 13 28 14 29 15 30 16 14 17 13 18 12 19 11 20 10 21
REMARK SMILES IDX 9 22 8 23 7 24 6 25 5 26 4 27 3 28 2 29 1 30
REMARK H PARENT
REMARK Flexibility Score: inf
ROOT
ATOM      1  C   UNL     1      95.008 123.869 123.644  1.00  0.00     0.000 C 
ENDROOT
BRANCH   1   2
ATOM      2  C   UNL     1      96.079 123.653 124.730  1.00  0.00     0.000 C 
BRANCH   2   3
ATOM      3  C   UNL     1      95.621 122.826 125.946  1.00  0.00     0.000 C 
BRANCH   3   4
ATOM      4  C   UNL     1      96.738 122.603 126.980  1.00  0.00     0.000 C 
BRANCH   4   5
ATOM      5  C   UNL     1      98.128 122.453 126.334  1.00  0.00     0.000 C 
BRANCH   5   6
ATOM      6  C   UNL     1      99.116 123.593 126.639  1.00  0.00     0.000 C 
BRANCH   6   7
ATOM      7  C   UNL     1      98.425 124.960 126.780  1.00  0.00     0.000 C 
BRANCH   7   8
ATOM      8  C   UNL     1      98.142 125.630 125.424  1.00  0.00     0.000 C 
BRANCH   8   9
ATOM      9  C   UNL     1      97.694 127.102 125.503  1.00  0.00     0.000 C 
BRANCH   9  10
ATOM     10  C   UNL     1      97.683 127.649 126.941  1.00  0.00     0.000 C 
BRANCH  10  11
ATOM     11  C   UNL     1      97.021 129.035 127.053  1.00  0.00     0.000 C 
BRANCH  11  12
ATOM     12  C   UNL     1      97.339 129.812 128.343  1.00  0.00     0.006 C 
BRANCH  12  13
ATOM     13  C   UNL     1      96.779 131.242 128.339  1.00  0.00     0.053 C 
BRANCH  13  14
ATOM     14  C   UNL     1      95.770 131.428 129.432  1.00  0.00     0.041 C 
ATOM     15  O   UNL     1      94.622 131.869 129.164  1.00  0.00    -0.550 OA
ATOM     16  O   UNL     1      96.108 131.149 130.753  1.00  0.00    -0.550 OA
ENDBRANCH  13  14
ENDBRANCH  12  13
ENDBRANCH  11  12
ENDBRANCH  10  11
ENDBRANCH   9  10
ENDBRANCH   8   9
ENDBRANCH   7   8
ENDBRANCH   6   7
ENDBRANCH   5   6
ENDBRANCH   4   5
ENDBRANCH   3   4
ENDBRANCH   2   3
ENDBRANCH   1   2
BRANCH   1  17
ATOM     17  C   UNL     1      93.627 124.228 124.222  1.00  0.00     0.000 C 
BRANCH  17  18
ATOM     18  C   UNL     1      92.608 123.075 124.099  1.00  0.00     0.000 C 
BRANCH  18  19
ATOM     19  C   UNL     1      92.722 122.273 122.789  1.00  0.00     0.000 C 
BRANCH  19  20
ATOM     20  C   UNL     1      92.497 123.081 121.496  1.00  0.00     0.000 C 
BRANCH  20  21
ATOM     21  C   UNL     1      92.442 122.246 120.201  1.00  0.00     0.000 C 
BRANCH  21  22
ATOM     22  C   UNL     1      93.835 121.865 119.674  1.00  0.00    -0.000 C 
BRANCH  22  23
ATOM     23  C   UNL     1      93.935 120.373 119.315  1.00  0.00    -0.000 C 
BRANCH  23  24
ATOM     24  C   UNL     1      94.936 120.109 118.175  1.00  0.00    -0.000 C 
BRANCH  24  25
ATOM     25  C   UNL     1      94.327 120.374 116.789  1.00  0.00    -0.000 C 
BRANCH  25  26
ATOM     26  C   UNL     1      92.788 120.316 116.793  1.00  0.00    -0.000 C 
BRANCH  26  27
ATOM     27  C   UNL     1      92.174 121.150 115.650  1.00  0.00    -0.000 C 
BRANCH  27  28
ATOM     28  C   UNL     1      91.210 122.245 116.139  1.00  0.00    -0.000 C 
BRANCH  28  29
ATOM     29  C   UNL     1      91.896 123.295 117.025  1.00  0.00    -0.003 C 
ATOM     30  C   UNL     1      92.363 124.491 116.203  1.00  0.00     0.004 C 
ENDBRANCH  28  29
ENDBRANCH  27  28
ENDBRANCH  26  27
ENDBRANCH  25  26
ENDBRANCH  24  25
ENDBRANCH  23  24
ENDBRANCH  22  23
ENDBRANCH  21  22
ENDBRANCH  20  21
ENDBRANCH  19  20
ENDBRANCH  18  19
ENDBRANCH  17  18
ENDBRANCH   1  17
TORSDOF 26
ENDMDL
MODEL 4
REMARK VINA RESULT:     0.847     11.676     15.393
REMARK INTER + INTRA:          -0.703
REMARK INTER:                   1.216
REMARK INTRA:                  -1.920
REMARK UNBOUND:                -2.838
REMARK SMILES CCCCCCCCCCCCCCCCCCCCCCCCCCCC(=O)[O-]
REMARK SMILES IDX 15 1 16 2 17 3 18 4 19 5 20 6 21 7 22 8 23 9 24 10 25 11
REMARK SMILES IDX 26 12 27 13 28 14 29 15 30 16 14 17 13 18 12 19 11 20 10 21
REMARK SMILES IDX 9 22 8 23 7 24 6 25 5 26 4 27 3 28 2 29 1 30
REMARK H PARENT
REMARK Flexibility Score: inf
ROOT
ATOM      1  C   UNL     1      95.676 122.984 125.880  1.00  0.00     0.000 C 
ENDROOT
BRANCH   1   2
ATOM      2  C   UNL     1      96.301 123.637 124.633  1.00  0.00     0.000 C 
BRANCH   2   3
ATOM      3  C   UNL     1      95.299 124.065 123.545  1.00  0.00     0.000 C 
BRANCH   3   4
ATOM      4  C   UNL     1      94.067 124.792 124.112  1.00  0.00     0.000 C 
BRANCH   4   5
ATOM      5  C   UNL     1      92.739 124.137 123.690  1.00  0.00     0.000 C 
BRANCH   5   6
ATOM      6  C   UNL     1      92.773 122.602 123.588  1.00  0.00     0.000 C 
BRANCH   6   7
ATOM      7  C   UNL     1      92.279 122.083 122.226  1.00  0.00     0.000 C 
BRANCH   7   8
ATOM      8  C   UNL     1      93.162 122.548 121.053  1.00  0.00     0.000 C 
BRANCH   8   9
ATOM      9  C   UNL     1      93.813 121.415 120.238  1.00  0.00     0.000 C 
BRANCH   9  10
ATOM     10  C   UNL     1      93.441 121.460 118.745  1.00  0.00     0.000 C 
BRANCH  10  11
ATOM     11  C   UNL     1      92.159 122.266 118.468  1.00  0.00     0.000 C 
BRANCH  11  12
ATOM     12  C   UNL     1      92.092 122.939 117.086  1.00  0.00     0.006 C 
BRANCH  12  13
ATOM     13  C   UNL     1      91.298 122.124 116.056  1.00  0.00     0.053 C 
BRANCH  13  14
ATOM     14  C   UNL     1      92.076 120.927 115.600  1.00  0.00     0.041 C 
ATOM     15  O   UNL     1      91.776 119.780 116.022  1.00  0.00    -0.550 OA
ATOM     16  O   UNL     1      93.157 121.081 114.737  1.00  0.00    -0.550 OA
ENDBRANCH  13  14
ENDBRANCH  12  13
ENDBRANCH  11  12
ENDBRANCH  10  11
ENDBRANCH   9  10
ENDBRANCH   8   9
ENDBRANCH   7   8
ENDBRANCH   6   7
ENDBRANCH   5   6
ENDBRANCH   4   5
ENDBRANCH   3   4
ENDBRANCH   2   3
ENDBRANCH   1   2
BRANCH   1  17
ATOM     17  C   UNL     1      96.719 122.333 126.806  1.00  0.00     0.000 C 
BRANCH  17  18
ATOM     18  C   UNL     1      98.117 122.234 126.160  1.00  0.00     0.000 C 
BRANCH  18  19
ATOM     19  C   UNL     1      99.176 123.142 126.814  1.00  0.00     0.000 C 
BRANCH  19  20
ATOM     20  C   UNL     1      99.327 124.543 126.187  1.00  0.00     0.000 C 
BRANCH  20  21
ATOM     21  C   UNL     1      98.305 125.591 126.671  1.00  0.00     0.000 C 
BRANCH  21  22
ATOM     22  C   UNL     1      97.706 126.418 125.521  1.00  0.00    -0.000 C 
BRANCH  22  23
ATOM     23  C   UNL     1      97.384 127.861 125.948  1.00  0.00    -0.000 C 
BRANCH  23  24
ATOM     24  C   UNL     1      97.674 128.110 127.439  1.00  0.00    -0.000 C 
BRANCH  24  25
ATOM     25  C   UNL     1      97.541 129.593 127.820  1.00  0.00    -0.000 C 
BRANCH  25  26
ATOM     26  C   UNL     1      96.114 129.971 128.255  1.00  0.00    -0.000 C 
BRANCH  26  27
ATOM     27  C   UNL     1      95.948 131.493 128.440  1.00  0.00    -0.000 C 
BRANCH  27  28
ATOM     28  C   UNL     1      96.270 131.978 129.864  1.00  0.00    -0.000 C 
BRANCH  28  29
ATOM     29  C   UNL     1      95.803 130.998 130.950  1.00  0.00    -0.003 C 
ATOM     30  C   UNL     1      96.283 131.433 132.330  1.00  0.00     0.004 C 
ENDBRANCH  28  29
ENDBRANCH  27  28
ENDBRANCH  26  27
ENDBRANCH  25  26
ENDBRANCH  24  25
ENDBRANCH  23  24
ENDBRANCH  22  23
ENDBRANCH  21  22
ENDBRANCH  20  21
ENDBRANCH  19  20
ENDBRANCH  18  19
ENDBRANCH  17  18
ENDBRANCH   1  17
TORSDOF 26
ENDMDL
MODEL 5
REMARK VINA RESULT:     0.959     10.990     14.996
REMARK INTER + INTRA:          -0.422
REMARK INTER:                   0.625
REMARK INTRA:                  -1.047
REMARK UNBOUND:                -2.838
REMARK SMILES CCCCCCCCCCCCCCCCCCCCCCCCCCCC(=O)[O-]
REMARK SMILES IDX 15 1 16 2 17 3 18 4 19 5 20 6 21 7 22 8 23 9 24 10 25 11
REMARK SMILES IDX 26 12 27 13 28 14 29 15 30 16 14 17 13 18 12 19 11 20 10 21
REMARK SMILES IDX 9 22 8 23 7 24 6 25 5 26 4 27 3 28 2 29 1 30
REMARK H PARENT
REMARK Flexibility Score: inf
ROOT
ATOM      1  C   UNL     1      92.754 123.923 122.656  1.00  0.00     0.000 C 
ENDROOT
BRANCH   1   2
ATOM      2  C   UNL     1      91.959 124.903 123.538  1.00  0.00     0.000 C 
BRANCH   2   3
ATOM      3  C   UNL     1      91.969 126.369 123.065  1.00  0.00     0.000 C 
BRANCH   3   4
ATOM      4  C   UNL     1      90.562 126.985 122.978  1.00  0.00     0.000 C 
BRANCH   4   5
ATOM      5  C   UNL     1      90.120 127.264 121.530  1.00  0.00     0.000 C 
BRANCH   5   6
ATOM      6  C   UNL     1      89.395 128.605 121.316  1.00  0.00     0.000 C 
BRANCH   6   7
ATOM      7  C   UNL     1      89.035 128.861 119.843  1.00  0.00     0.000 C 
BRANCH   7   8
ATOM      8  C   UNL     1      89.745 130.096 119.259  1.00  0.00     0.000 C 
BRANCH   8   9
ATOM      9  C   UNL     1      89.035 131.439 119.513  1.00  0.00     0.000 C 
BRANCH   9  10
ATOM     10  C   UNL     1      88.666 131.652 120.993  1.00  0.00     0.000 C 
BRANCH  10  11
ATOM     11  C   UNL     1      88.390 133.127 121.337  1.00  0.00     0.000 C 
BRANCH  11  12
ATOM     12  C   UNL     1      88.277 133.440 122.840  1.00  0.00     0.006 C 
BRANCH  12  13
ATOM     13  C   UNL     1      89.580 133.184 123.609  1.00  0.00     0.053 C 
BRANCH  13  14
ATOM     14  C   UNL     1      89.445 131.997 124.516  1.00  0.00     0.041 C 
ATOM     15  O   UNL     1      88.329 131.713 125.024  1.00  0.00    -0.550 OA
ATOM     16  O   UNL     1      90.560 131.225 124.831  1.00  0.00    -0.550 OA
ENDBRANCH  13  14
ENDBRANCH  12  13
ENDBRANCH  11  12
ENDBRANCH  10  11
ENDBRANCH   9  10
ENDBRANCH   8   9
ENDBRANCH   7   8
ENDBRANCH   6   7
ENDBRANCH   5   6
ENDBRANCH   4   5
ENDBRANCH   3   4
ENDBRANCH   2   3
ENDBRANCH   1   2
BRANCH   1  17
ATOM     17  C   UNL     1      93.099 122.607 123.376  1.00  0.00     0.000 C 
BRANCH  17  18
ATOM     18  C   UNL     1      93.346 122.797 124.888  1.00  0.00     0.000 C 
BRANCH  18  19
ATOM     19  C   UNL     1      94.799 123.160 125.246  1.00  0.00     0.000 C 
BRANCH  19  20
ATOM     20  C   UNL     1      95.503 124.119 124.266  1.00  0.00     0.000 C 
BRANCH  20  21
ATOM     21  C   UNL     1      97.010 124.327 124.520  1.00  0.00     0.000 C 
BRANCH  21  22
ATOM     22  C   UNL     1      97.305 124.973 125.883  1.00  0.00    -0.000 C 
BRANCH  22  23
ATOM     23  C   UNL     1      97.859 123.961 126.901  1.00  0.00    -0.000 C 
BRANCH  23  24
ATOM     24  C   UNL     1      98.568 122.775 126.221  1.00  0.00    -0.000 C 
BRANCH  24  25
ATOM     25  C   UNL     1     100.091 122.814 126.420  1.00  0.00    -0.000 C 
BRANCH  25  26
ATOM     26  C   UNL     1     100.703 121.415 126.617  1.00  0.00    -0.000 C 
BRANCH  26  27
ATOM     27  C   UNL     1     101.950 121.198 125.736  1.00  0.00    -0.000 C 
BRANCH  27  28
ATOM     28  C   UNL     1     101.846 119.970 124.815  1.00  0.00    -0.000 C 
BRANCH  28  29
ATOM     29  C   UNL     1     100.398 119.508 124.596  1.00  0.00    -0.003 C 
ATOM     30  C   UNL     1     100.081 119.373 123.111  1.00  0.00     0.004 C 
ENDBRANCH  28  29
ENDBRANCH  27  28
ENDBRANCH  26  27
ENDBRANCH  25  26
ENDBRANCH  24  25
ENDBRANCH  23  24
ENDBRANCH  22  23
ENDBRANCH  21  22
ENDBRANCH  20  21
ENDBRANCH  19  20
ENDBRANCH  18  19
ENDBRANCH  17  18
ENDBRANCH   1  17
TORSDOF 26
ENDMDL
