MODEL 1
REMARK VINA RESULT:    -4.134      0.000      0.000
REMARK INTER + INTRA:         -14.106
REMARK INTER:                 -10.901
REMARK INTRA:                  -3.205
REMARK UNBOUND:                -3.205
REMARK SMILES CCCCCCCCCCCCCCCCCCCCCCCCCCCCCC(=O)[O-]
REMARK SMILES IDX 16 1 17 2 18 3 19 4 20 5 21 6 22 7 23 8 24 9 25 10 26 11
REMARK SMILES IDX 27 12 28 13 29 14 30 15 31 16 32 17 15 18 14 19 13 20 12 21
REMARK SMILES IDX 11 22 10 23 9 24 8 25 7 26 6 27 5 28 4 29 3 30 2 31 1 32
REMARK H PARENT
REMARK Flexibility Score: inf
ROOT
ATOM      1  C   UNL     1     -10.673  -4.248  -6.872  1.00  0.00     0.000 C 
ENDROOT
BRANCH   1   2
ATOM      2  C   UNL     1     -10.385  -5.479  -7.748  1.00  0.00     0.000 C 
BRANCH   2   3
ATOM      3  C   UNL     1      -9.615  -6.595  -7.005  1.00  0.00     0.000 C 
BRANCH   3   4
ATOM      4  C   UNL     1      -9.602  -6.374  -5.485  1.00  0.00     0.000 C 
BRANCH   4   5
ATOM      5  C   UNL     1      -8.903  -7.519  -4.731  1.00  0.00     0.000 C 
BRANCH   5   6
ATOM      6  C   UNL     1      -8.775  -8.789  -5.589  1.00  0.00     0.000 C 
BRANCH   6   7
ATOM      7  C   UNL     1      -7.829  -9.836  -4.976  1.00  0.00     0.000 C 
BRANCH   7   8
ATOM      8  C   UNL     1      -6.447  -9.948  -5.648  1.00  0.00     0.000 C 
BRANCH   8   9
ATOM      9  C   UNL     1      -6.269 -11.156  -6.584  1.00  0.00     0.000 C 
BRANCH   9  10
ATOM     10  C   UNL     1      -4.792 -11.484  -6.871  1.00  0.00     0.000 C 
BRANCH  10  11
ATOM     11  C   UNL     1      -4.628 -12.741  -7.752  1.00  0.00     0.000 C 
BRANCH  11  12
ATOM     12  C   UNL     1      -4.093 -13.973  -6.997  1.00  0.00     0.000 C 
BRANCH  12  13
ATOM     13  C   UNL     1      -2.620 -13.830  -6.582  1.00  0.00     0.006 C 
BRANCH  13  14
ATOM     14  C   UNL     1      -2.410 -14.104  -5.087  1.00  0.00     0.053 C 
BRANCH  14  15
ATOM     15  C   UNL     1      -2.003 -12.869  -4.343  1.00  0.00     0.041 C 
ATOM     16  O   UNL     1      -1.882 -11.774  -4.953  1.00  0.00    -0.550 OA
ATOM     17  O   UNL     1      -1.737 -12.931  -2.980  1.00  0.00    -0.550 OA
ENDBRANCH  14  15
ENDBRANCH  13  14
ENDBRANCH  12  13
ENDBRANCH  11  12
ENDBRANCH  10  11
ENDBRANCH   9  10
ENDBRANCH   8   9
ENDBRANCH   7   8
ENDBRANCH   6   7
ENDBRANCH   5   6
ENDBRANCH   4   5
ENDBRANCH   3   4
ENDBRANCH   2   3
ENDBRANCH   1   2
BRANCH   1  18
ATOM     18  C   UNL     1     -12.176  -3.928  -6.788  1.00  0.00     0.000 C 
BRANCH  18  19
ATOM     19  C   UNL     1     -12.985  -5.054  -6.131  1.00  0.00     0.000 C 
BRANCH  19  20
ATOM     20  C   UNL     1     -12.753  -5.151  -4.613  1.00  0.00     0.000 C 
BRANCH  20  21
ATOM     21  C   UNL     1     -13.408  -6.395  -3.987  1.00  0.00     0.000 C 
BRANCH  21  22
ATOM     22  C   UNL     1     -13.739  -7.536  -4.969  1.00  0.00     0.000 C 
BRANCH  22  23
ATOM     23  C   UNL     1     -13.806  -8.933  -4.315  1.00  0.00     0.000 C 
BRANCH  23  24
ATOM     24  C   UNL     1     -13.407 -10.062  -5.282  1.00  0.00    -0.000 C 
BRANCH  24  25
ATOM     25  C   UNL     1     -11.959  -9.934  -5.789  1.00  0.00    -0.000 C 
BRANCH  25  26
ATOM     26  C   UNL     1     -11.352 -11.233  -6.347  1.00  0.00    -0.000 C 
BRANCH  26  27
ATOM     27  C   UNL     1     -12.294 -12.443  -6.211  1.00  0.00    -0.000 C 
BRANCH  27  28
ATOM     28  C   UNL     1     -11.595 -13.668  -5.592  1.00  0.00    -0.000 C 
BRANCH  28  29
ATOM     29  C   UNL     1     -11.127 -13.414  -4.148  1.00  0.00    -0.000 C 
BRANCH  29  30
ATOM     30  C   UNL     1     -12.301 -13.259  -3.167  1.00  0.00    -0.000 C 
BRANCH  30  31
ATOM     31  C   UNL     1     -12.311 -11.890  -2.468  1.00  0.00    -0.003 C 
ATOM     32  C   UNL     1     -13.303 -11.875  -1.308  1.00  0.00     0.004 C 
ENDBRANCH  30  31
ENDBRANCH  29  30
ENDBRANCH  28  29
ENDBRANCH  27  28
ENDBRANCH  26  27
ENDBRANCH  25  26
ENDBRANCH  24  25
ENDBRANCH  23  24
ENDBRANCH  22  23
ENDBRANCH  21  22
ENDBRANCH  20  21
ENDBRANCH  19  20
ENDBRANCH  18  19
ENDBRANCH   1  18
TORSDOF 28
ENDMDL
MODEL 2
REMARK VINA RESULT:    -4.111      1.143      2.303
REMARK INTER + INTRA:         -14.045
REMARK INTER:                 -10.498
REMARK INTRA:                  -3.546
REMARK UNBOUND:                -3.205
REMARK SMILES CCCCCCCCCCCCCCCCCCCCCCCCCCCCCC(=O)[O-]
REMARK SMILES IDX 16 1 17 2 18 3 19 4 20 5 21 6 22 7 23 8 24 9 25 10 26 11
REMARK SMILES IDX 27 12 28 13 29 14 30 15 31 16 32 17 15 18 14 19 13 20 12 21
REMARK SMILES IDX 11 22 10 23 9 24 8 25 7 26 6 27 5 28 4 29 3 30 2 31 1 32
REMARK H PARENT
REMARK Flexibility Score: inf
ROOT
ATOM      1  C   UNL     1     -11.902  -4.838  -6.990  1.00  0.00     0.000 C 
ENDROOT
BRANCH   1   2
ATOM      2  C   UNL     1     -10.371  -4.980  -6.985  1.00  0.00     0.000 C 
BRANCH   2   3
ATOM      3  C   UNL     1      -9.889  -6.443  -7.124  1.00  0.00     0.000 C 
BRANCH   3   4
ATOM      4  C   UNL     1      -9.363  -7.007  -5.795  1.00  0.00     0.000 C 
BRANCH   4   5
ATOM      5  C   UNL     1      -8.463  -8.239  -5.996  1.00  0.00     0.000 C 
BRANCH   5   6
ATOM      6  C   UNL     1      -8.546  -9.220  -4.814  1.00  0.00     0.000 C 
BRANCH   6   7
ATOM      7  C   UNL     1      -7.410 -10.257  -4.812  1.00  0.00     0.000 C 
BRANCH   7   8
ATOM      8  C   UNL     1      -7.326 -11.144  -6.070  1.00  0.00     0.000 C 
BRANCH   8   9
ATOM      9  C   UNL     1      -5.945 -11.195  -6.745  1.00  0.00     0.000 C 
BRANCH   9  10
ATOM     10  C   UNL     1      -4.887 -10.345  -6.017  1.00  0.00     0.000 C 
BRANCH  10  11
ATOM     11  C   UNL     1      -3.540 -11.084  -5.867  1.00  0.00     0.000 C 
BRANCH  11  12
ATOM     12  C   UNL     1      -3.614 -12.594  -6.163  1.00  0.00     0.000 C 
BRANCH  12  13
ATOM     13  C   UNL     1      -2.302 -13.333  -5.854  1.00  0.00     0.006 C 
BRANCH  13  14
ATOM     14  C   UNL     1      -1.500 -12.649  -4.740  1.00  0.00     0.053 C 
BRANCH  14  15
ATOM     15  C   UNL     1      -1.692 -13.323  -3.416  1.00  0.00     0.041 C 
ATOM     16  O   UNL     1      -2.762 -13.939  -3.169  1.00  0.00    -0.550 OA
ATOM     17  O   UNL     1      -0.697 -13.255  -2.447  1.00  0.00    -0.550 OA
ENDBRANCH  14  15
ENDBRANCH  13  14
ENDBRANCH  12  13
ENDBRANCH  11  12
ENDBRANCH  10  11
ENDBRANCH   9  10
ENDBRANCH   8   9
ENDBRANCH   7   8
ENDBRANCH   6   7
ENDBRANCH   5   6
ENDBRANCH   4   5
ENDBRANCH   3   4
ENDBRANCH   2   3
ENDBRANCH   1   2
BRANCH   1  18
ATOM     18  C   UNL     1     -12.447  -4.323  -5.646  1.00  0.00     0.000 C 
BRANCH  18  19
ATOM     19  C   UNL     1     -12.272  -5.338  -4.508  1.00  0.00     0.000 C 
BRANCH  19  20
ATOM     20  C   UNL     1     -13.613  -5.833  -3.937  1.00  0.00     0.000 C 
BRANCH  20  21
ATOM     21  C   UNL     1     -13.968  -7.257  -4.398  1.00  0.00     0.000 C 
BRANCH  21  22
ATOM     22  C   UNL     1     -12.843  -8.020  -5.126  1.00  0.00     0.000 C 
BRANCH  22  23
ATOM     23  C   UNL     1     -13.049  -9.549  -5.181  1.00  0.00     0.000 C 
BRANCH  23  24
ATOM     24  C   UNL     1     -14.036 -10.054  -4.112  1.00  0.00    -0.000 C 
BRANCH  24  25
ATOM     25  C   UNL     1     -13.881 -11.557  -3.815  1.00  0.00    -0.000 C 
BRANCH  25  26
ATOM     26  C   UNL     1     -13.151 -11.884  -2.501  1.00  0.00    -0.000 C 
BRANCH  26  27
ATOM     27  C   UNL     1     -11.778 -12.544  -2.725  1.00  0.00    -0.000 C 
BRANCH  27  28
ATOM     28  C   UNL     1     -11.872 -13.823  -3.577  1.00  0.00    -0.000 C 
BRANCH  28  29
ATOM     29  C   UNL     1     -11.060 -13.726  -4.881  1.00  0.00    -0.000 C 
BRANCH  29  30
ATOM     30  C   UNL     1     -10.600 -12.290  -5.183  1.00  0.00    -0.000 C 
BRANCH  30  31
ATOM     31  C   UNL     1     -10.710 -11.935  -6.674  1.00  0.00    -0.003 C 
ATOM     32  C   UNL     1     -10.837 -13.195  -7.528  1.00  0.00     0.004 C 
ENDBRANCH  30  31
ENDBRANCH  29  30
ENDBRANCH  28  29
ENDBRANCH  27  28
ENDBRANCH  26  27
ENDBRANCH  25  26
ENDBRANCH  24  25
ENDBRANCH  23  24
ENDBRANCH  22  23
ENDBRANCH  21  22
ENDBRANCH  20  21
ENDBRANCH  19  20
ENDBRANCH  18  19
ENDBRANCH   1  18
TORSDOF 28
ENDMDL
MODEL 3
REMARK VINA RESULT:    -3.935      1.270      2.904
REMARK INTER + INTRA:         -13.580
REMARK INTER:                 -10.446
REMARK INTRA:                  -3.133
REMARK UNBOUND:                -3.205
REMARK SMILES CCCCCCCCCCCCCCCCCCCCCCCCCCCCCC(=O)[O-]
REMARK SMILES IDX 16 1 17 2 18 3 19 4 20 5 21 6 22 7 23 8 24 9 25 10 26 11
REMARK SMILES IDX 27 12 28 13 29 14 30 15 31 16 32 17 15 18 14 19 13 20 12 21
REMARK SMILES IDX 11 22 10 23 9 24 8 25 7 26 6 27 5 28 4 29 3 30 2 31 1 32
REMARK H PARENT
REMARK Flexibility Score: inf
ROOT
ATOM      1  C   UNL     1      -9.517  -7.042  -5.241  1.00  0.00     0.000 C 
ENDROOT
BRANCH   1   2
ATOM      2  C   UNL     1      -8.661  -8.296  -4.992  1.00  0.00     0.000 C 
BRANCH   2   3
ATOM      3  C   UNL     1      -9.450  -9.617  -5.148  1.00  0.00     0.000 C 
BRANCH   3   4
ATOM      4  C   UNL     1      -8.560 -10.850  -4.933  1.00  0.00     0.000 C 
BRANCH   4   5
ATOM      5  C   UNL     1      -7.653 -11.138  -6.143  1.00  0.00     0.000 C 
BRANCH   5   6
ATOM      6  C   UNL     1      -8.196 -12.279  -7.020  1.00  0.00     0.000 C 
BRANCH   6   7
ATOM      7  C   UNL     1      -7.107 -13.276  -7.451  1.00  0.00     0.000 C 
BRANCH   7   8
ATOM      8  C   UNL     1      -6.427 -12.966  -8.799  1.00  0.00     0.000 C 
BRANCH   8   9
ATOM      9  C   UNL     1      -4.889 -12.956  -8.771  1.00  0.00     0.000 C 
BRANCH   9  10
ATOM     10  C   UNL     1      -4.305 -13.642  -7.520  1.00  0.00     0.000 C 
BRANCH  10  11
ATOM     11  C   UNL     1      -3.589 -12.646  -6.583  1.00  0.00     0.000 C 
BRANCH  11  12
ATOM     12  C   UNL     1      -2.461 -13.274  -5.743  1.00  0.00     0.000 C 
BRANCH  12  13
ATOM     13  C   UNL     1      -2.116 -12.453  -4.490  1.00  0.00     0.006 C 
BRANCH  13  14
ATOM     14  C   UNL     1      -2.124 -13.308  -3.216  1.00  0.00     0.053 C 
BRANCH  14  15
ATOM     15  C   UNL     1      -0.739 -13.651  -2.762  1.00  0.00     0.041 C 
ATOM     16  O   UNL     1      -0.495 -13.806  -1.537  1.00  0.00    -0.550 OA
ATOM     17  O   UNL     1       0.288 -13.781  -3.690  1.00  0.00    -0.550 OA
ENDBRANCH  14  15
ENDBRANCH  13  14
ENDBRANCH  12  13
ENDBRANCH  11  12
ENDBRANCH  10  11
ENDBRANCH   9  10
ENDBRANCH   8   9
ENDBRANCH   7   8
ENDBRANCH   6   7
ENDBRANCH   5   6
ENDBRANCH   4   5
ENDBRANCH   3   4
ENDBRANCH   2   3
ENDBRANCH   1   2
BRANCH   1  18
ATOM     18  C   UNL     1     -10.503  -7.228  -6.407  1.00  0.00     0.000 C 
BRANCH  18  19
ATOM     19  C   UNL     1     -10.865  -5.904  -7.093  1.00  0.00     0.000 C 
BRANCH  19  20
ATOM     20  C   UNL     1     -11.286  -4.810  -6.096  1.00  0.00     0.000 C 
BRANCH  20  21
ATOM     21  C   UNL     1     -12.724  -4.993  -5.582  1.00  0.00     0.000 C 
BRANCH  21  22
ATOM     22  C   UNL     1     -12.857  -5.304  -4.077  1.00  0.00     0.000 C 
BRANCH  22  23
ATOM     23  C   UNL     1     -13.782  -6.498  -3.758  1.00  0.00     0.000 C 
BRANCH  23  24
ATOM     24  C   UNL     1     -13.907  -7.484  -4.934  1.00  0.00    -0.000 C 
BRANCH  24  25
ATOM     25  C   UNL     1     -13.820  -8.956  -4.495  1.00  0.00    -0.000 C 
BRANCH  25  26
ATOM     26  C   UNL     1     -12.847  -9.820  -5.316  1.00  0.00    -0.000 C 
BRANCH  26  27
ATOM     27  C   UNL     1     -13.411 -11.214  -5.645  1.00  0.00    -0.000 C 
BRANCH  27  28
ATOM     28  C   UNL     1     -12.323 -12.191  -6.127  1.00  0.00    -0.000 C 
BRANCH  28  29
ATOM     29  C   UNL     1     -12.411 -13.562  -5.435  1.00  0.00    -0.000 C 
BRANCH  29  30
ATOM     30  C   UNL     1     -12.731 -13.445  -3.935  1.00  0.00    -0.000 C 
BRANCH  30  31
ATOM     31  C   UNL     1     -11.508 -13.036  -3.099  1.00  0.00    -0.003 C 
ATOM     32  C   UNL     1     -11.879 -11.970  -2.071  1.00  0.00     0.004 C 
ENDBRANCH  30  31
ENDBRANCH  29  30
ENDBRANCH  28  29
ENDBRANCH  27  28
ENDBRANCH  26  27
ENDBRANCH  25  26
ENDBRANCH  24  25
ENDBRANCH  23  24
ENDBRANCH  22  23
ENDBRANCH  21  22
ENDBRANCH  20  21
ENDBRANCH  19  20
ENDBRANCH  18  19
ENDBRANCH   1  18
TORSDOF 28
ENDMDL
MODEL 4
REMARK VINA RESULT:    -3.856      2.626      8.026
REMARK INTER + INTRA:         -13.372
REMARK INTER:                 -10.852
REMARK INTRA:                  -2.520
REMARK UNBOUND:                -3.205
REMARK SMILES CCCCCCCCCCCCCCCCCCCCCCCCCCCCCC(=O)[O-]
REMARK SMILES IDX 16 1 17 2 18 3 19 4 20 5 21 6 22 7 23 8 24 9 25 10 26 11
REMARK SMILES IDX 27 12 28 13 29 14 30 15 31 16 32 17 15 18 14 19 13 20 12 21
REMARK SMILES IDX 11 22 10 23 9 24 8 25 7 26 6 27 5 28 4 29 3 30 2 31 1 32
REMARK H PARENT
REMARK Flexibility Score: inf
ROOT
ATOM      1  C   UNL     1      -9.265  -6.474  -5.838  1.00  0.00     0.000 C 
ENDROOT
BRANCH   1   2
ATOM      2  C   UNL     1      -9.921  -5.834  -7.073  1.00  0.00     0.000 C 
BRANCH   2   3
ATOM      3  C   UNL     1     -10.499  -4.426  -6.801  1.00  0.00     0.000 C 
BRANCH   3   4
ATOM      4  C   UNL     1     -11.941  -4.285  -7.311  1.00  0.00     0.000 C 
BRANCH   4   5
ATOM      5  C   UNL     1     -12.981  -4.687  -6.250  1.00  0.00     0.000 C 
BRANCH   5   6
ATOM      6  C   UNL     1     -12.340  -5.398  -5.046  1.00  0.00     0.000 C 
BRANCH   6   7
ATOM      7  C   UNL     1     -13.373  -6.079  -4.131  1.00  0.00     0.000 C 
BRANCH   7   8
ATOM      8  C   UNL     1     -14.048  -7.334  -4.719  1.00  0.00     0.000 C 
BRANCH   8   9
ATOM      9  C   UNL     1     -13.302  -8.656  -4.472  1.00  0.00     0.000 C 
BRANCH   9  10
ATOM     10  C   UNL     1     -14.124  -9.895  -4.872  1.00  0.00     0.000 C 
BRANCH  10  11
ATOM     11  C   UNL     1     -13.419 -11.216  -4.496  1.00  0.00     0.000 C 
BRANCH  11  12
ATOM     12  C   UNL     1     -13.507 -12.307  -5.581  1.00  0.00     0.000 C 
BRANCH  12  13
ATOM     13  C   UNL     1     -13.358 -11.751  -7.006  1.00  0.00     0.006 C 
BRANCH  13  14
ATOM     14  C   UNL     1     -11.888 -11.592  -7.416  1.00  0.00     0.053 C 
BRANCH  14  15
ATOM     15  C   UNL     1     -11.221 -12.914  -7.635  1.00  0.00     0.041 C 
ATOM     16  O   UNL     1     -11.910 -13.933  -7.906  1.00  0.00    -0.550 OA
ATOM     17  O   UNL     1      -9.840 -13.027  -7.521  1.00  0.00    -0.550 OA
ENDBRANCH  14  15
ENDBRANCH  13  14
ENDBRANCH  12  13
ENDBRANCH  11  12
ENDBRANCH  10  11
ENDBRANCH   9  10
ENDBRANCH   8   9
ENDBRANCH   7   8
ENDBRANCH   6   7
ENDBRANCH   5   6
ENDBRANCH   4   5
ENDBRANCH   3   4
ENDBRANCH   2   3
ENDBRANCH   1   2
BRANCH   1  18
ATOM     18  C   UNL     1      -9.856  -7.857  -5.512  1.00  0.00     0.000 C 
BRANCH  18  19
ATOM     19  C   UNL     1      -8.796  -8.852  -5.021  1.00  0.00     0.000 C 
BRANCH  19  20
ATOM     20  C   UNL     1      -9.281 -10.311  -5.061  1.00  0.00     0.000 C 
BRANCH  20  21
ATOM     21  C   UNL     1      -8.128 -11.321  -5.197  1.00  0.00     0.000 C 
BRANCH  21  22
ATOM     22  C   UNL     1      -6.712 -10.739  -5.017  1.00  0.00     0.000 C 
BRANCH  22  23
ATOM     23  C   UNL     1      -5.905 -10.623  -6.328  1.00  0.00     0.000 C 
BRANCH  23  24
ATOM     24  C   UNL     1      -6.583 -11.342  -7.508  1.00  0.00    -0.000 C 
BRANCH  24  25
ATOM     25  C   UNL     1      -6.063 -12.776  -7.717  1.00  0.00    -0.000 C 
BRANCH  25  26
ATOM     26  C   UNL     1      -4.533 -12.899  -7.824  1.00  0.00    -0.000 C 
BRANCH  26  27
ATOM     27  C   UNL     1      -3.971 -14.098  -7.038  1.00  0.00    -0.000 C 
BRANCH  27  28
ATOM     28  C   UNL     1      -2.828 -13.697  -6.088  1.00  0.00    -0.000 C 
BRANCH  28  29
ATOM     29  C   UNL     1      -2.929 -12.233  -5.626  1.00  0.00    -0.000 C 
BRANCH  29  30
ATOM     30  C   UNL     1      -2.100 -11.956  -4.361  1.00  0.00    -0.000 C 
BRANCH  30  31
ATOM     31  C   UNL     1      -2.276 -13.041  -3.288  1.00  0.00    -0.003 C 
ATOM     32  C   UNL     1      -0.930 -13.448  -2.694  1.00  0.00     0.004 C 
ENDBRANCH  30  31
ENDBRANCH  29  30
ENDBRANCH  28  29
ENDBRANCH  27  28
ENDBRANCH  26  27
ENDBRANCH  25  26
ENDBRANCH  24  25
ENDBRANCH  23  24
ENDBRANCH  22  23
ENDBRANCH  21  22
ENDBRANCH  20  21
ENDBRANCH  19  20
ENDBRANCH  18  19
ENDBRANCH   1  18
TORSDOF 28
ENDMDL
MODEL 5
REMARK VINA RESULT:    -3.837      3.178      7.955
REMARK INTER + INTRA:         -13.321
REMARK INTER:                  -9.842
REMARK INTRA:                  -3.479
REMARK UNBOUND:                -3.205
REMARK SMILES CCCCCCCCCCCCCCCCCCCCCCCCCCCCCC(=O)[O-]
REMARK SMILES IDX 16 1 17 2 18 3 19 4 20 5 21 6 22 7 23 8 24 9 25 10 26 11
REMARK SMILES IDX 27 12 28 13 29 14 30 15 31 16 32 17 15 18 14 19 13 20 12 21
REMARK SMILES IDX 11 22 10 23 9 24 8 25 7 26 6 27 5 28 4 29 3 30 2 31 1 32
REMARK H PARENT
REMARK Flexibility Score: inf
ROOT
ATOM      1  C   UNL     1      -9.730  -6.369  -5.950  1.00  0.00     0.000 C 
ENDROOT
BRANCH   1   2
ATOM      2  C   UNL     1     -10.345  -5.192  -5.174  1.00  0.00     0.000 C 
BRANCH   2   3
ATOM      3  C   UNL     1     -11.768  -4.821  -5.650  1.00  0.00     0.000 C 
BRANCH   3   4
ATOM      4  C   UNL     1     -12.646  -6.063  -5.869  1.00  0.00     0.000 C 
BRANCH   4   5
ATOM      5  C   UNL     1     -13.349  -6.520  -4.578  1.00  0.00     0.000 C 
BRANCH   5   6
ATOM      6  C   UNL     1     -14.030  -7.889  -4.739  1.00  0.00     0.000 C 
BRANCH   6   7
ATOM      7  C   UNL     1     -13.040  -9.017  -5.078  1.00  0.00     0.000 C 
BRANCH   7   8
ATOM      8  C   UNL     1     -13.661 -10.422  -5.210  1.00  0.00     0.000 C 
BRANCH   8   9
ATOM      9  C   UNL     1     -13.054 -11.306  -6.312  1.00  0.00     0.000 C 
BRANCH   9  10
ATOM     10  C   UNL     1     -11.562 -11.014  -6.564  1.00  0.00     0.000 C 
BRANCH  10  11
ATOM     11  C   UNL     1     -10.665 -12.234  -6.264  1.00  0.00     0.000 C 
BRANCH  11  12
ATOM     12  C   UNL     1     -10.143 -12.288  -4.815  1.00  0.00     0.000 C 
BRANCH  12  13
ATOM     13  C   UNL     1     -10.857 -13.346  -3.958  1.00  0.00     0.006 C 
BRANCH  13  14
ATOM     14  C   UNL     1     -11.444 -12.750  -2.671  1.00  0.00     0.053 C 
BRANCH  14  15
ATOM     15  C   UNL     1     -12.941 -12.732  -2.694  1.00  0.00     0.041 C 
ATOM     16  O   UNL     1     -13.576 -11.971  -1.917  1.00  0.00    -0.550 OA
ATOM     17  O   UNL     1     -13.637 -13.570  -3.558  1.00  0.00    -0.550 OA
ENDBRANCH  14  15
ENDBRANCH  13  14
ENDBRANCH  12  13
ENDBRANCH  11  12
ENDBRANCH  10  11
ENDBRANCH   9  10
ENDBRANCH   8   9
ENDBRANCH   7   8
ENDBRANCH   6   7
ENDBRANCH   5   6
ENDBRANCH   4   5
ENDBRANCH   3   4
ENDBRANCH   2   3
ENDBRANCH   1   2
BRANCH   1  18
ATOM     18  C   UNL     1      -9.363  -7.548  -5.031  1.00  0.00     0.000 C 
BRANCH  18  19
ATOM     19  C   UNL     1      -8.327  -8.489  -5.661  1.00  0.00     0.000 C 
BRANCH  19  20
ATOM     20  C   UNL     1      -7.953  -9.666  -4.743  1.00  0.00     0.000 C 
BRANCH  20  21
ATOM     21  C   UNL     1      -6.676 -10.394  -5.197  1.00  0.00     0.000 C 
BRANCH  21  22
ATOM     22  C   UNL     1      -6.610 -10.748  -6.696  1.00  0.00     0.000 C 
BRANCH  22  23
ATOM     23  C   UNL     1      -6.809 -12.249  -7.001  1.00  0.00     0.000 C 
BRANCH  23  24
ATOM     24  C   UNL     1      -6.263 -12.652  -8.383  1.00  0.00    -0.000 C 
BRANCH  24  25
ATOM     25  C   UNL     1      -4.732 -12.810  -8.401  1.00  0.00    -0.000 C 
BRANCH  25  26
ATOM     26  C   UNL     1      -4.210 -14.125  -7.796  1.00  0.00    -0.000 C 
BRANCH  26  27
ATOM     27  C   UNL     1      -3.215 -13.903  -6.643  1.00  0.00    -0.000 C 
BRANCH  27  28
ATOM     28  C   UNL     1      -3.238 -12.457  -6.114  1.00  0.00    -0.000 C 
BRANCH  28  29
ATOM     29  C   UNL     1      -2.467 -12.297  -4.793  1.00  0.00    -0.000 C 
BRANCH  29  30
ATOM     30  C   UNL     1      -1.554 -13.499  -4.495  1.00  0.00    -0.000 C 
BRANCH  30  31
ATOM     31  C   UNL     1      -0.904 -13.418  -3.106  1.00  0.00    -0.003 C 
ATOM     32  C   UNL     1      -1.804 -14.043  -2.043  1.00  0.00     0.004 C 
ENDBRANCH  30  31
ENDBRANCH  29  30
ENDBRANCH  28  29
ENDBRANCH  27  28
ENDBRANCH  26  27
ENDBRANCH  25  26
ENDBRANCH  24  25
ENDBRANCH  23  24
ENDBRANCH  22  23
ENDBRANCH  21  22
ENDBRANCH  20  21
ENDBRANCH  19  20
ENDBRANCH  18  19
ENDBRANCH   1  18
TORSDOF 28
ENDMDL
MODEL 6
REMARK VINA RESULT:    -3.824      3.238      8.259
REMARK INTER + INTRA:         -13.287
REMARK INTER:                 -10.139
REMARK INTRA:                  -3.148
REMARK UNBOUND:                -3.205
REMARK SMILES CCCCCCCCCCCCCCCCCCCCCCCCCCCCCC(=O)[O-]
REMARK SMILES IDX 16 1 17 2 18 3 19 4 20 5 21 6 22 7 23 8 24 9 25 10 26 11
REMARK SMILES IDX 27 12 28 13 29 14 30 15 31 16 32 17 15 18 14 19 13 20 12 21
REMARK SMILES IDX 11 22 10 23 9 24 8 25 7 26 6 27 5 28 4 29 3 30 2 31 1 32
REMARK H PARENT
REMARK Flexibility Score: inf
ROOT
ATOM      1  C   UNL     1     -10.406  -5.687  -7.851  1.00  0.00     0.000 C 
ENDROOT
BRANCH   1   2
ATOM      2  C   UNL     1     -10.777  -4.227  -7.539  1.00  0.00     0.000 C 
BRANCH   2   3
ATOM      3  C   UNL     1     -12.172  -4.075  -6.888  1.00  0.00     0.000 C 
BRANCH   3   4
ATOM      4  C   UNL     1     -12.263  -4.805  -5.540  1.00  0.00     0.000 C 
BRANCH   4   5
ATOM      5  C   UNL     1     -13.364  -5.881  -5.528  1.00  0.00     0.000 C 
BRANCH   5   6
ATOM      6  C   UNL     1     -12.987  -7.090  -4.656  1.00  0.00     0.000 C 
BRANCH   6   7
ATOM      7  C   UNL     1     -13.990  -8.251  -4.771  1.00  0.00     0.000 C 
BRANCH   7   8
ATOM      8  C   UNL     1     -13.372  -9.662  -4.737  1.00  0.00     0.000 C 
BRANCH   8   9
ATOM      9  C   UNL     1     -12.672 -10.102  -6.034  1.00  0.00     0.000 C 
BRANCH   9  10
ATOM     10  C   UNL     1     -11.248 -10.639  -5.798  1.00  0.00     0.000 C 
BRANCH  10  11
ATOM     11  C   UNL     1     -11.100 -11.334  -4.428  1.00  0.00     0.000 C 
BRANCH  11  12
ATOM     12  C   UNL     1     -10.892 -12.858  -4.514  1.00  0.00     0.000 C 
BRANCH  12  13
ATOM     13  C   UNL     1     -11.765 -13.641  -3.520  1.00  0.00     0.006 C 
BRANCH  13  14
ATOM     14  C   UNL     1     -13.127 -12.972  -3.292  1.00  0.00     0.053 C 
BRANCH  14  15
ATOM     15  C   UNL     1     -13.386 -12.709  -1.841  1.00  0.00     0.041 C 
ATOM     16  O   UNL     1     -12.935 -11.667  -1.297  1.00  0.00    -0.550 OA
ATOM     17  O   UNL     1     -14.109 -13.624  -1.084  1.00  0.00    -0.550 OA
ENDBRANCH  14  15
ENDBRANCH  13  14
ENDBRANCH  12  13
ENDBRANCH  11  12
ENDBRANCH  10  11
ENDBRANCH   9  10
ENDBRANCH   8   9
ENDBRANCH   7   8
ENDBRANCH   6   7
ENDBRANCH   5   6
ENDBRANCH   4   5
ENDBRANCH   3   4
ENDBRANCH   2   3
ENDBRANCH   1   2
BRANCH   1  18
ATOM     18  C   UNL     1      -9.304  -6.223  -6.920  1.00  0.00     0.000 C 
BRANCH  18  19
ATOM     19  C   UNL     1      -9.797  -7.356  -6.010  1.00  0.00     0.000 C 
BRANCH  19  20
ATOM     20  C   UNL     1      -8.899  -7.569  -4.780  1.00  0.00     0.000 C 
BRANCH  20  21
ATOM     21  C   UNL     1      -8.224  -8.952  -4.765  1.00  0.00     0.000 C 
BRANCH  21  22
ATOM     22  C   UNL     1      -7.236  -9.221  -5.917  1.00  0.00     0.000 C 
BRANCH  22  23
ATOM     23  C   UNL     1      -6.814 -10.700  -6.055  1.00  0.00     0.000 C 
BRANCH  23  24
ATOM     24  C   UNL     1      -5.439 -10.987  -5.423  1.00  0.00    -0.000 C 
BRANCH  24  25
ATOM     25  C   UNL     1      -4.380 -11.411  -6.457  1.00  0.00    -0.000 C 
BRANCH  25  26
ATOM     26  C   UNL     1      -3.048 -11.893  -5.857  1.00  0.00    -0.000 C 
BRANCH  26  27
ATOM     27  C   UNL     1      -3.022 -11.825  -4.320  1.00  0.00    -0.000 C 
BRANCH  27  28
ATOM     28  C   UNL     1      -2.713 -13.188  -3.675  1.00  0.00    -0.000 C 
BRANCH  28  29
ATOM     29  C   UNL     1      -1.458 -13.853  -4.268  1.00  0.00    -0.000 C 
BRANCH  29  30
ATOM     30  C   UNL     1      -0.168 -13.093  -3.918  1.00  0.00    -0.000 C 
BRANCH  30  31
ATOM     31  C   UNL     1       0.709 -12.818  -5.150  1.00  0.00    -0.003 C 
ATOM     32  C   UNL     1       0.354 -13.762  -6.296  1.00  0.00     0.004 C 
ENDBRANCH  30  31
ENDBRANCH  29  30
ENDBRANCH  28  29
ENDBRANCH  27  28
ENDBRANCH  26  27
ENDBRANCH  25  26
ENDBRANCH  24  25
ENDBRANCH  23  24
ENDBRANCH  22  23
ENDBRANCH  21  22
ENDBRANCH  20  21
ENDBRANCH  19  20
ENDBRANCH  18  19
ENDBRANCH   1  18
TORSDOF 28
ENDMDL
MODEL 7
REMARK VINA RESULT:    -3.770      1.420      4.537
REMARK INTER + INTRA:         -13.146
REMARK INTER:                 -10.351
REMARK INTRA:                  -2.795
REMARK UNBOUND:                -3.205
REMARK SMILES CCCCCCCCCCCCCCCCCCCCCCCCCCCCCC(=O)[O-]
REMARK SMILES IDX 16 1 17 2 18 3 19 4 20 5 21 6 22 7 23 8 24 9 25 10 26 11
REMARK SMILES IDX 27 12 28 13 29 14 30 15 31 16 32 17 15 18 14 19 13 20 12 21
REMARK SMILES IDX 11 22 10 23 9 24 8 25 7 26 6 27 5 28 4 29 3 30 2 31 1 32
REMARK H PARENT
REMARK Flexibility Score: inf
ROOT
ATOM      1  C   UNL     1      -8.707  -7.844  -4.748  1.00  0.00     0.000 C 
ENDROOT
BRANCH   1   2
ATOM      2  C   UNL     1      -8.666  -9.223  -5.429  1.00  0.00     0.000 C 
BRANCH   2   3
ATOM      3  C   UNL     1      -7.376 -10.019  -5.124  1.00  0.00     0.000 C 
BRANCH   3   4
ATOM      4  C   UNL     1      -7.077 -11.070  -6.204  1.00  0.00     0.000 C 
BRANCH   4   5
ATOM      5  C   UNL     1      -8.126 -12.195  -6.235  1.00  0.00     0.000 C 
BRANCH   5   6
ATOM      6  C   UNL     1      -7.972 -13.103  -7.467  1.00  0.00     0.000 C 
BRANCH   6   7
ATOM      7  C   UNL     1      -6.912 -12.594  -8.459  1.00  0.00     0.000 C 
BRANCH   7   8
ATOM      8  C   UNL     1      -5.673 -13.497  -8.619  1.00  0.00     0.000 C 
BRANCH   8   9
ATOM      9  C   UNL     1      -4.398 -12.988  -7.924  1.00  0.00     0.000 C 
BRANCH   9  10
ATOM     10  C   UNL     1      -3.430 -14.122  -7.537  1.00  0.00     0.000 C 
BRANCH  10  11
ATOM     11  C   UNL     1      -2.903 -13.980  -6.093  1.00  0.00     0.000 C 
BRANCH  11  12
ATOM     12  C   UNL     1      -2.720 -12.522  -5.631  1.00  0.00     0.000 C 
BRANCH  12  13
ATOM     13  C   UNL     1      -1.348 -12.263  -4.988  1.00  0.00     0.006 C 
BRANCH  13  14
ATOM     14  C   UNL     1      -0.692 -13.554  -4.481  1.00  0.00     0.053 C 
BRANCH  14  15
ATOM     15  C   UNL     1      -0.391 -13.491  -3.015  1.00  0.00     0.041 C 
ATOM     16  O   UNL     1      -1.322 -13.587  -2.173  1.00  0.00    -0.550 OA
ATOM     17  O   UNL     1       0.917 -13.307  -2.579  1.00  0.00    -0.550 OA
ENDBRANCH  14  15
ENDBRANCH  13  14
ENDBRANCH  12  13
ENDBRANCH  11  12
ENDBRANCH  10  11
ENDBRANCH   9  10
ENDBRANCH   8   9
ENDBRANCH   7   8
ENDBRANCH   6   7
ENDBRANCH   5   6
ENDBRANCH   4   5
ENDBRANCH   3   4
ENDBRANCH   2   3
ENDBRANCH   1   2
BRANCH   1  18
ATOM     18  C   UNL     1      -9.582  -6.838  -5.516  1.00  0.00     0.000 C 
BRANCH  18  19
ATOM     19  C   UNL     1      -9.248  -6.786  -7.013  1.00  0.00     0.000 C 
BRANCH  19  20
ATOM     20  C   UNL     1     -10.489  -6.562  -7.895  1.00  0.00     0.000 C 
BRANCH  20  21
ATOM     21  C   UNL     1     -10.585  -5.124  -8.436  1.00  0.00     0.000 C 
BRANCH  21  22
ATOM     22  C   UNL     1     -10.667  -4.016  -7.366  1.00  0.00     0.000 C 
BRANCH  22  23
ATOM     23  C   UNL     1     -12.082  -3.430  -7.171  1.00  0.00     0.000 C 
BRANCH  23  24
ATOM     24  C   UNL     1     -12.970  -4.309  -6.272  1.00  0.00    -0.000 C 
BRANCH  24  25
ATOM     25  C   UNL     1     -12.195  -4.956  -5.110  1.00  0.00    -0.000 C 
BRANCH  25  26
ATOM     26  C   UNL     1     -13.034  -5.244  -3.853  1.00  0.00    -0.000 C 
BRANCH  26  27
ATOM     27  C   UNL     1     -13.797  -6.579  -3.933  1.00  0.00    -0.000 C 
BRANCH  27  28
ATOM     28  C   UNL     1     -13.463  -7.373  -5.209  1.00  0.00    -0.000 C 
BRANCH  28  29
ATOM     29  C   UNL     1     -13.415  -8.891  -4.965  1.00  0.00    -0.000 C 
BRANCH  29  30
ATOM     30  C   UNL     1     -12.140  -9.539  -5.530  1.00  0.00    -0.000 C 
BRANCH  30  31
ATOM     31  C   UNL     1     -12.234 -11.071  -5.597  1.00  0.00    -0.003 C 
ATOM     32  C   UNL     1     -11.336 -11.721  -4.548  1.00  0.00     0.004 C 
ENDBRANCH  30  31
ENDBRANCH  29  30
ENDBRANCH  28  29
ENDBRANCH  27  28
ENDBRANCH  26  27
ENDBRANCH  25  26
ENDBRANCH  24  25
ENDBRANCH  23  24
ENDBRANCH  22  23
ENDBRANCH  21  22
ENDBRANCH  20  21
ENDBRANCH  19  20
ENDBRANCH  18  19
ENDBRANCH   1  18
TORSDOF 28
ENDMDL
MODEL 8
REMARK VINA RESULT:    -3.727      2.763      8.273
REMARK INTER + INTRA:         -13.033
REMARK INTER:                  -9.943
REMARK INTRA:                  -3.090
REMARK UNBOUND:                -3.205
REMARK SMILES CCCCCCCCCCCCCCCCCCCCCCCCCCCCCC(=O)[O-]
REMARK SMILES IDX 16 1 17 2 18 3 19 4 20 5 21 6 22 7 23 8 24 9 25 10 26 11
REMARK SMILES IDX 27 12 28 13 29 14 30 15 31 16 32 17 15 18 14 19 13 20 12 21
REMARK SMILES IDX 11 22 10 23 9 24 8 25 7 26 6 27 5 28 4 29 3 30 2 31 1 32
REMARK H PARENT
REMARK Flexibility Score: inf
ROOT
ATOM      1  C   UNL     1     -11.900 -10.185  -6.862  1.00  0.00     0.000 C 
ENDROOT
BRANCH   1   2
ATOM      2  C   UNL     1     -12.537  -9.795  -5.517  1.00  0.00     0.000 C 
BRANCH   2   3
ATOM      3  C   UNL     1     -12.569  -8.268  -5.274  1.00  0.00     0.000 C 
BRANCH   3   4
ATOM      4  C   UNL     1     -13.922  -7.800  -4.717  1.00  0.00     0.000 C 
BRANCH   4   5
ATOM      5  C   UNL     1     -13.823  -6.441  -4.000  1.00  0.00     0.000 C 
BRANCH   5   6
ATOM      6  C   UNL     1     -12.628  -5.608  -4.493  1.00  0.00     0.000 C 
BRANCH   6   7
ATOM      7  C   UNL     1     -12.947  -4.786  -5.754  1.00  0.00     0.000 C 
BRANCH   7   8
ATOM      8  C   UNL     1     -11.833  -3.826  -6.214  1.00  0.00     0.000 C 
BRANCH   8   9
ATOM      9  C   UNL     1     -12.039  -3.201  -7.604  1.00  0.00     0.000 C 
BRANCH   9  10
ATOM     10  C   UNL     1     -10.992  -3.663  -8.634  1.00  0.00     0.000 C 
BRANCH  10  11
ATOM     11  C   UNL     1     -11.330  -5.042  -9.240  1.00  0.00     0.000 C 
BRANCH  11  12
ATOM     12  C   UNL     1     -10.292  -6.137  -8.930  1.00  0.00     0.000 C 
BRANCH  12  13
ATOM     13  C   UNL     1     -10.343  -6.618  -7.471  1.00  0.00     0.006 C 
BRANCH  13  14
ATOM     14  C   UNL     1      -9.158  -6.098  -6.647  1.00  0.00     0.053 C 
BRANCH  14  15
ATOM     15  C   UNL     1      -9.211  -6.575  -5.228  1.00  0.00     0.041 C 
ATOM     16  O   UNL     1      -9.251  -5.744  -4.283  1.00  0.00    -0.550 OA
ATOM     17  O   UNL     1      -9.195  -7.936  -4.947  1.00  0.00    -0.550 OA
ENDBRANCH  14  15
ENDBRANCH  13  14
ENDBRANCH  12  13
ENDBRANCH  11  12
ENDBRANCH  10  11
ENDBRANCH   9  10
ENDBRANCH   8   9
ENDBRANCH   7   8
ENDBRANCH   6   7
ENDBRANCH   5   6
ENDBRANCH   4   5
ENDBRANCH   3   4
ENDBRANCH   2   3
ENDBRANCH   1   2
BRANCH   1  18
ATOM     18  C   UNL     1     -12.505 -11.475  -7.443  1.00  0.00     0.000 C 
BRANCH  18  19
ATOM     19  C   UNL     1     -13.091 -12.393  -6.362  1.00  0.00     0.000 C 
BRANCH  19  20
ATOM     20  C   UNL     1     -12.210 -13.622  -6.078  1.00  0.00     0.000 C 
BRANCH  20  21
ATOM     21  C   UNL     1     -10.959 -13.678  -6.971  1.00  0.00     0.000 C 
BRANCH  21  22
ATOM     22  C   UNL     1      -9.611 -13.529  -6.236  1.00  0.00     0.000 C 
BRANCH  22  23
ATOM     23  C   UNL     1      -8.779 -12.308  -6.685  1.00  0.00     0.000 C 
BRANCH  23  24
ATOM     24  C   UNL     1      -8.730 -11.198  -5.618  1.00  0.00    -0.000 C 
BRANCH  24  25
ATOM     25  C   UNL     1      -7.298 -10.868  -5.161  1.00  0.00    -0.000 C 
BRANCH  25  26
ATOM     26  C   UNL     1      -6.450 -10.104  -6.192  1.00  0.00    -0.000 C 
BRANCH  26  27
ATOM     27  C   UNL     1      -5.171 -10.860  -6.597  1.00  0.00    -0.000 C 
BRANCH  27  28
ATOM     28  C   UNL     1      -4.412 -11.426  -5.383  1.00  0.00    -0.000 C 
BRANCH  28  29
ATOM     29  C   UNL     1      -2.885 -11.301  -5.529  1.00  0.00    -0.000 C 
BRANCH  29  30
ATOM     30  C   UNL     1      -2.126 -11.961  -4.366  1.00  0.00    -0.000 C 
BRANCH  30  31
ATOM     31  C   UNL     1      -1.656 -13.385  -4.698  1.00  0.00    -0.003 C 
ATOM     32  C   UNL     1      -0.706 -13.384  -5.893  1.00  0.00     0.004 C 
ENDBRANCH  30  31
ENDBRANCH  29  30
ENDBRANCH  28  29
ENDBRANCH  27  28
ENDBRANCH  26  27
ENDBRANCH  25  26
ENDBRANCH  24  25
ENDBRANCH  23  24
ENDBRANCH  22  23
ENDBRANCH  21  22
ENDBRANCH  20  21
ENDBRANCH  19  20
ENDBRANCH  18  19
ENDBRANCH   1  18
TORSDOF 28
ENDMDL
MODEL 9
REMARK VINA RESULT:    -3.631      3.312      8.477
REMARK INTER + INTRA:         -12.780
REMARK INTER:                  -9.657
REMARK INTRA:                  -3.122
REMARK UNBOUND:                -3.205
REMARK SMILES CCCCCCCCCCCCCCCCCCCCCCCCCCCCCC(=O)[O-]
REMARK SMILES IDX 16 1 17 2 18 3 19 4 20 5 21 6 22 7 23 8 24 9 25 10 26 11
REMARK SMILES IDX 27 12 28 13 29 14 30 15 31 16 32 17 15 18 14 19 13 20 12 21
REMARK SMILES IDX 11 22 10 23 9 24 8 25 7 26 6 27 5 28 4 29 3 30 2 31 1 32
REMARK H PARENT
REMARK Flexibility Score: inf
ROOT
ATOM      1  C   UNL     1      -5.011 -11.146  -6.882  1.00  0.00     0.000 C 
ENDROOT
BRANCH   1   2
ATOM      2  C   UNL     1      -5.312 -12.577  -7.360  1.00  0.00     0.000 C 
BRANCH   2   3
ATOM      3  C   UNL     1      -5.911 -12.634  -8.784  1.00  0.00     0.000 C 
BRANCH   3   4
ATOM      4  C   UNL     1      -7.283 -13.324  -8.807  1.00  0.00     0.000 C 
BRANCH   4   5
ATOM      5  C   UNL     1      -7.836 -13.577  -7.393  1.00  0.00     0.000 C 
BRANCH   5   6
ATOM      6  C   UNL     1      -9.296 -14.059  -7.416  1.00  0.00     0.000 C 
BRANCH   6   7
ATOM      7  C   UNL     1      -9.901 -14.079  -8.831  1.00  0.00     0.000 C 
BRANCH   7   8
ATOM      8  C   UNL     1     -11.425 -13.862  -8.899  1.00  0.00     0.000 C 
BRANCH   8   9
ATOM      9  C   UNL     1     -11.888 -12.406  -8.725  1.00  0.00     0.000 C 
BRANCH   9  10
ATOM     10  C   UNL     1     -13.314 -12.291  -8.154  1.00  0.00     0.000 C 
BRANCH  10  11
ATOM     11  C   UNL     1     -13.704 -13.511  -7.292  1.00  0.00     0.000 C 
BRANCH  11  12
ATOM     12  C   UNL     1     -13.654 -13.250  -5.774  1.00  0.00     0.000 C 
BRANCH  12  13
ATOM     13  C   UNL     1     -12.293 -12.717  -5.300  1.00  0.00     0.006 C 
BRANCH  13  14
ATOM     14  C   UNL     1     -12.437 -11.520  -4.351  1.00  0.00     0.053 C 
BRANCH  14  15
ATOM     15  C   UNL     1     -12.347 -11.929  -2.913  1.00  0.00     0.041 C 
ATOM     16  O   UNL     1     -11.492 -12.779  -2.550  1.00  0.00    -0.550 OA
ATOM     17  O   UNL     1     -13.221 -11.388  -1.977  1.00  0.00    -0.550 OA
ENDBRANCH  14  15
ENDBRANCH  13  14
ENDBRANCH  12  13
ENDBRANCH  11  12
ENDBRANCH  10  11
ENDBRANCH   9  10
ENDBRANCH   8   9
ENDBRANCH   7   8
ENDBRANCH   6   7
ENDBRANCH   5   6
ENDBRANCH   4   5
ENDBRANCH   3   4
ENDBRANCH   2   3
ENDBRANCH   1   2
BRANCH   1  18
ATOM     18  C   UNL     1      -6.292 -10.342  -6.597  1.00  0.00     0.000 C 
BRANCH  18  19
ATOM     19  C   UNL     1      -7.019 -10.817  -5.331  1.00  0.00     0.000 C 
BRANCH  19  20
ATOM     20  C   UNL     1      -8.441 -10.243  -5.207  1.00  0.00     0.000 C 
BRANCH  20  21
ATOM     21  C   UNL     1      -8.453  -8.772  -4.755  1.00  0.00     0.000 C 
BRANCH  21  22
ATOM     22  C   UNL     1      -9.516  -7.880  -5.428  1.00  0.00     0.000 C 
BRANCH  22  23
ATOM     23  C   UNL     1      -9.284  -6.366  -5.234  1.00  0.00     0.000 C 
BRANCH  23  24
ATOM     24  C   UNL     1     -10.546  -5.629  -4.752  1.00  0.00    -0.000 C 
BRANCH  24  25
ATOM     25  C   UNL     1     -11.843  -6.201  -5.352  1.00  0.00    -0.000 C 
BRANCH  25  26
ATOM     26  C   UNL     1     -12.363  -5.458  -6.595  1.00  0.00    -0.000 C 
BRANCH  26  27
ATOM     27  C   UNL     1     -12.335  -3.927  -6.435  1.00  0.00    -0.000 C 
BRANCH  27  28
ATOM     28  C   UNL     1     -11.331  -3.253  -7.388  1.00  0.00    -0.000 C 
BRANCH  28  29
ATOM     29  C   UNL     1     -10.744  -4.233  -8.418  1.00  0.00    -0.000 C 
BRANCH  29  30
ATOM     30  C   UNL     1     -10.758  -3.664  -9.847  1.00  0.00    -0.000 C 
BRANCH  30  31
ATOM     31  C   UNL     1     -11.773  -4.375 -10.757  1.00  0.00    -0.003 C 
ATOM     32  C   UNL     1     -11.551  -5.885 -10.749  1.00  0.00     0.004 C 
ENDBRANCH  30  31
ENDBRANCH  29  30
ENDBRANCH  28  29
ENDBRANCH  27  28
ENDBRANCH  26  27
ENDBRANCH  25  26
ENDBRANCH  24  25
ENDBRANCH  23  24
ENDBRANCH  22  23
ENDBRANCH  21  22
ENDBRANCH  20  21
ENDBRANCH  19  20
ENDBRANCH  18  19
ENDBRANCH   1  18
TORSDOF 28
ENDMDL
