MODEL 1
REMARK VINA RESULT:    -3.733      0.000      0.000
REMARK INTER + INTRA:          -9.004
REMARK INTER:                  -6.788
REMARK INTRA:                  -2.216
REMARK UNBOUND:                -2.216
REMARK SMILES CCCCCCCCCCCCCCCC(=O)[O-]
REMARK SMILES IDX 9 1 10 2 11 3 12 4 13 5 14 6 15 7 16 8 17 9 18 10 8 11 7 12
REMARK SMILES IDX 6 13 5 14 4 15 3 16 2 17 1 18
REMARK H PARENT
REMARK Flexibility Score: inf
ROOT
ATOM      1  C   UNL     1     162.760 177.541 188.291  1.00  0.00     0.000 C 
ENDROOT
BRANCH   1   2
ATOM      2  C   UNL     1     163.411 178.479 187.267  1.00  0.00     0.000 C 
BRANCH   2   3
ATOM      3  C   UNL     1     164.742 177.907 186.764  1.00  0.00     0.000 C 
BRANCH   3   4
ATOM      4  C   UNL     1     164.845 178.015 185.238  1.00  0.00     0.000 C 
BRANCH   4   5
ATOM      5  C   UNL     1     163.453 177.994 184.590  1.00  0.00     0.000 C 
BRANCH   5   6
ATOM      6  C   UNL     1     163.502 177.661 183.090  1.00  0.00     0.006 C 
BRANCH   6   7
ATOM      7  C   UNL     1     162.114 177.388 182.500  1.00  0.00     0.053 C 
BRANCH   7   8
ATOM      8  C   UNL     1     161.940 178.126 181.210  1.00  0.00     0.041 C 
ATOM      9  O   UNL     1     161.640 179.349 181.216  1.00  0.00    -0.550 OA
ATOM     10  O   UNL     1     162.158 177.476 180.002  1.00  0.00    -0.550 OA
ENDBRANCH   7   8
ENDBRANCH   6   7
ENDBRANCH   5   6
ENDBRANCH   4   5
ENDBRANCH   3   4
ENDBRANCH   2   3
ENDBRANCH   1   2
BRANCH   1  11
ATOM     11  C   UNL     1     161.229 177.617 188.210  1.00  0.00     0.000 C 
BRANCH  11  12
ATOM     12  C   UNL     1     160.700 177.513 186.767  1.00  0.00    -0.000 C 
BRANCH  12  13
ATOM     13  C   UNL     1     160.671 176.086 186.184  1.00  0.00    -0.000 C 
BRANCH  13  14
ATOM     14  C   UNL     1     160.520 174.959 187.225  1.00  0.00    -0.000 C 
BRANCH  14  15
ATOM     15  C   UNL     1     161.572 173.837 187.124  1.00  0.00    -0.000 C 
BRANCH  15  16
ATOM     16  C   UNL     1     162.896 174.113 187.865  1.00  0.00    -0.000 C 
BRANCH  16  17
ATOM     17  C   UNL     1     164.142 174.170 186.964  1.00  0.00    -0.003 C 
ATOM     18  C   UNL     1     163.803 174.411 185.493  1.00  0.00     0.004 C 
ENDBRANCH  16  17
ENDBRANCH  15  16
ENDBRANCH  14  15
ENDBRANCH  13  14
ENDBRANCH  12  13
ENDBRANCH  11  12
ENDBRANCH   1  11
TORSDOF 14
ENDMDL
MODEL 2
REMARK VINA RESULT:    -3.713      4.349      6.629
REMARK INTER + INTRA:          -8.969
REMARK INTER:                  -6.719
REMARK INTRA:                  -2.250
REMARK UNBOUND:                -2.216
REMARK SMILES CCCCCCCCCCCCCCCC(=O)[O-]
REMARK SMILES IDX 9 1 10 2 11 3 12 4 13 5 14 6 15 7 16 8 17 9 18 10 8 11 7 12
REMARK SMILES IDX 6 13 5 14 4 15 3 16 2 17 1 18
REMARK H PARENT
REMARK Flexibility Score: inf
ROOT
ATOM      1  C   UNL     1     161.856 175.605 184.415  1.00  0.00     0.000 C 
ENDROOT
BRANCH   1   2
ATOM      2  C   UNL     1     161.864 174.289 185.202  1.00  0.00     0.000 C 
BRANCH   2   3
ATOM      3  C   UNL     1     160.436 173.815 185.498  1.00  0.00     0.000 C 
BRANCH   3   4
ATOM      4  C   UNL     1     160.262 173.488 186.986  1.00  0.00     0.000 C 
BRANCH   4   5
ATOM      5  C   UNL     1     161.600 173.081 187.620  1.00  0.00     0.000 C 
BRANCH   5   6
ATOM      6  C   UNL     1     161.536 171.711 188.314  1.00  0.00     0.006 C 
BRANCH   6   7
ATOM      7  C   UNL     1     162.520 170.699 187.716  1.00  0.00     0.053 C 
BRANCH   7   8
ATOM      8  C   UNL     1     163.630 170.419 188.679  1.00  0.00     0.041 C 
ATOM      9  O   UNL     1     164.356 169.400 188.531  1.00  0.00    -0.550 OA
ATOM     10  O   UNL     1     163.895 171.310 189.712  1.00  0.00    -0.550 OA
ENDBRANCH   7   8
ENDBRANCH   6   7
ENDBRANCH   5   6
ENDBRANCH   4   5
ENDBRANCH   3   4
ENDBRANCH   2   3
ENDBRANCH   1   2
BRANCH   1  11
ATOM     11  C   UNL     1     160.615 176.443 184.757  1.00  0.00     0.000 C 
BRANCH  11  12
ATOM     12  C   UNL     1     160.962 177.883 185.177  1.00  0.00    -0.000 C 
BRANCH  12  13
ATOM     13  C   UNL     1     160.522 178.271 186.603  1.00  0.00    -0.000 C 
BRANCH  13  14
ATOM     14  C   UNL     1     160.871 177.242 187.696  1.00  0.00    -0.000 C 
BRANCH  14  15
ATOM     15  C   UNL     1     162.278 177.397 188.307  1.00  0.00    -0.000 C 
BRANCH  15  16
ATOM     16  C   UNL     1     163.357 176.472 187.708  1.00  0.00    -0.000 C 
BRANCH  16  17
ATOM     17  C   UNL     1     164.441 177.192 186.886  1.00  0.00    -0.003 C 
ATOM     18  C   UNL     1     164.244 178.707 186.837  1.00  0.00     0.004 C 
ENDBRANCH  16  17
ENDBRANCH  15  16
ENDBRANCH  14  15
ENDBRANCH  13  14
ENDBRANCH  12  13
ENDBRANCH  11  12
ENDBRANCH   1  11
TORSDOF 14
ENDMDL
MODEL 3
REMARK VINA RESULT:    -3.681      1.973      3.056
REMARK INTER + INTRA:          -8.911
REMARK INTER:                  -7.076
REMARK INTRA:                  -1.835
REMARK UNBOUND:                -2.216
REMARK SMILES CCCCCCCCCCCCCCCC(=O)[O-]
REMARK SMILES IDX 9 1 10 2 11 3 12 4 13 5 14 6 15 7 16 8 17 9 18 10 8 11 7 12
REMARK SMILES IDX 6 13 5 14 4 15 3 16 2 17 1 18
REMARK H PARENT
REMARK Flexibility Score: inf
ROOT
ATOM      1  C   UNL     1     162.389 177.426 188.270  1.00  0.00     0.000 C 
ENDROOT
BRANCH   1   2
ATOM      2  C   UNL     1     161.144 177.865 187.490  1.00  0.00     0.000 C 
BRANCH   2   3
ATOM      3  C   UNL     1     161.467 178.070 186.006  1.00  0.00     0.000 C 
BRANCH   3   4
ATOM      4  C   UNL     1     160.196 177.999 185.151  1.00  0.00     0.000 C 
BRANCH   4   5
ATOM      5  C   UNL     1     160.472 177.299 183.812  1.00  0.00     0.000 C 
BRANCH   5   6
ATOM      6  C   UNL     1     161.674 176.343 183.880  1.00  0.00     0.006 C 
BRANCH   6   7
ATOM      7  C   UNL     1     162.611 176.486 182.675  1.00  0.00     0.053 C 
BRANCH   7   8
ATOM      8  C   UNL     1     163.491 177.685 182.837  1.00  0.00     0.041 C 
ATOM      9  O   UNL     1     164.573 177.596 183.476  1.00  0.00    -0.550 OA
ATOM     10  O   UNL     1     163.140 178.889 182.241  1.00  0.00    -0.550 OA
ENDBRANCH   7   8
ENDBRANCH   6   7
ENDBRANCH   5   6
ENDBRANCH   4   5
ENDBRANCH   3   4
ENDBRANCH   2   3
ENDBRANCH   1   2
BRANCH   1  11
ATOM     11  C   UNL     1     163.203 176.397 187.472  1.00  0.00     0.000 C 
BRANCH  11  12
ATOM     12  C   UNL     1     162.833 174.943 187.815  1.00  0.00    -0.000 C 
BRANCH  12  13
ATOM     13  C   UNL     1     162.326 174.100 186.628  1.00  0.00    -0.000 C 
BRANCH  13  14
ATOM     14  C   UNL     1     160.797 173.919 186.562  1.00  0.00    -0.000 C 
BRANCH  14  15
ATOM     15  C   UNL     1     160.203 173.012 187.657  1.00  0.00    -0.000 C 
BRANCH  15  16
ATOM     16  C   UNL     1     160.746 171.568 187.676  1.00  0.00    -0.000 C 
BRANCH  16  17
ATOM     17  C   UNL     1     161.640 171.231 188.882  1.00  0.00    -0.003 C 
ATOM     18  C   UNL     1     163.007 170.681 188.476  1.00  0.00     0.004 C 
ENDBRANCH  16  17
ENDBRANCH  15  16
ENDBRANCH  14  15
ENDBRANCH  13  14
ENDBRANCH  12  13
ENDBRANCH  11  12
ENDBRANCH   1  11
TORSDOF 14
ENDMDL
MODEL 4
REMARK VINA RESULT:    -3.658      4.067      6.549
REMARK INTER + INTRA:          -8.867
REMARK INTER:                  -6.591
REMARK INTRA:                  -2.276
REMARK UNBOUND:                -2.216
REMARK SMILES CCCCCCCCCCCCCCCC(=O)[O-]
REMARK SMILES IDX 9 1 10 2 11 3 12 4 13 5 14 6 15 7 16 8 17 9 18 10 8 11 7 12
REMARK SMILES IDX 6 13 5 14 4 15 3 16 2 17 1 18
REMARK H PARENT
REMARK Flexibility Score: inf
ROOT
ATOM      1  C   UNL     1     163.154 175.860 187.880  1.00  0.00     0.000 C 
ENDROOT
BRANCH   1   2
ATOM      2  C   UNL     1     162.357 174.620 187.454  1.00  0.00     0.000 C 
BRANCH   2   3
ATOM      3  C   UNL     1     160.851 174.907 187.452  1.00  0.00     0.000 C 
BRANCH   3   4
ATOM      4  C   UNL     1     160.054 173.660 187.051  1.00  0.00     0.000 C 
BRANCH   4   5
ATOM      5  C   UNL     1     160.990 172.539 186.574  1.00  0.00     0.000 C 
BRANCH   5   6
ATOM      6  C   UNL     1     160.718 171.200 187.278  1.00  0.00     0.006 C 
BRANCH   6   7
ATOM      7  C   UNL     1     161.183 171.195 188.740  1.00  0.00     0.053 C 
BRANCH   7   8
ATOM      8  C   UNL     1     162.668 171.032 188.814  1.00  0.00     0.041 C 
ATOM      9  O   UNL     1     163.356 171.808 189.529  1.00  0.00    -0.550 OA
ATOM     10  O   UNL     1     163.288 169.992 188.133  1.00  0.00    -0.550 OA
ENDBRANCH   7   8
ENDBRANCH   6   7
ENDBRANCH   5   6
ENDBRANCH   4   5
ENDBRANCH   3   4
ENDBRANCH   2   3
ENDBRANCH   1   2
BRANCH   1  11
ATOM     11  C   UNL     1     162.232 177.078 188.036  1.00  0.00     0.000 C 
BRANCH  11  12
ATOM     12  C   UNL     1     162.730 178.309 187.256  1.00  0.00    -0.000 C 
BRANCH  12  13
ATOM     13  C   UNL     1     164.207 178.251 186.818  1.00  0.00    -0.000 C 
BRANCH  13  14
ATOM     14  C   UNL     1     164.434 177.909 185.333  1.00  0.00    -0.000 C 
BRANCH  14  15
ATOM     15  C   UNL     1     163.149 177.774 184.494  1.00  0.00    -0.000 C 
BRANCH  15  16
ATOM     16  C   UNL     1     162.710 176.325 184.198  1.00  0.00    -0.000 C 
BRANCH  16  17
ATOM     17  C   UNL     1     161.197 176.139 183.984  1.00  0.00    -0.003 C 
ATOM     18  C   UNL     1     160.366 177.270 184.589  1.00  0.00     0.004 C 
ENDBRANCH  16  17
ENDBRANCH  15  16
ENDBRANCH  14  15
ENDBRANCH  13  14
ENDBRANCH  12  13
ENDBRANCH  11  12
ENDBRANCH   1  11
TORSDOF 14
ENDMDL
MODEL 5
REMARK VINA RESULT:    -3.651      2.758      4.409
REMARK INTER + INTRA:          -8.855
REMARK INTER:                  -6.503
REMARK INTRA:                  -2.353
REMARK UNBOUND:                -2.216
REMARK SMILES CCCCCCCCCCCCCCCC(=O)[O-]
REMARK SMILES IDX 9 1 10 2 11 3 12 4 13 5 14 6 15 7 16 8 17 9 18 10 8 11 7 12
REMARK SMILES IDX 6 13 5 14 4 15 3 16 2 17 1 18
REMARK H PARENT
REMARK Flexibility Score: inf
ROOT
ATOM      1  C   UNL     1     161.018 176.710 187.874  1.00  0.00     0.000 C 
ENDROOT
BRANCH   1   2
ATOM      2  C   UNL     1     160.612 175.427 187.139  1.00  0.00     0.000 C 
BRANCH   2   3
ATOM      3  C   UNL     1     161.547 174.266 187.500  1.00  0.00     0.000 C 
BRANCH   3   4
ATOM      4  C   UNL     1     163.008 174.729 187.544  1.00  0.00     0.000 C 
BRANCH   4   5
ATOM      5  C   UNL     1     163.578 174.887 186.127  1.00  0.00     0.000 C 
BRANCH   5   6
ATOM      6  C   UNL     1     164.784 175.838 186.076  1.00  0.00     0.006 C 
BRANCH   6   7
ATOM      7  C   UNL     1     164.683 176.977 187.098  1.00  0.00     0.053 C 
BRANCH   7   8
ATOM      8  C   UNL     1     165.100 178.273 186.479  1.00  0.00     0.041 C 
ATOM      9  O   UNL     1     166.085 178.313 185.695  1.00  0.00    -0.550 OA
ATOM     10  O   UNL     1     164.371 179.429 186.728  1.00  0.00    -0.550 OA
ENDBRANCH   7   8
ENDBRANCH   6   7
ENDBRANCH   5   6
ENDBRANCH   4   5
ENDBRANCH   3   4
ENDBRANCH   2   3
ENDBRANCH   1   2
BRANCH   1  11
ATOM     11  C   UNL     1     160.829 177.941 186.976  1.00  0.00     0.000 C 
BRANCH  11  12
ATOM     12  C   UNL     1     161.285 177.700 185.526  1.00  0.00    -0.000 C 
BRANCH  12  13
ATOM     13  C   UNL     1     160.184 177.863 184.459  1.00  0.00    -0.000 C 
BRANCH  13  14
ATOM     14  C   UNL     1     160.165 176.773 183.370  1.00  0.00    -0.000 C 
BRANCH  14  15
ATOM     15  C   UNL     1     161.078 175.562 183.647  1.00  0.00    -0.000 C 
BRANCH  15  16
ATOM     16  C   UNL     1     160.426 174.184 183.410  1.00  0.00    -0.000 C 
BRANCH  16  17
ATOM     17  C   UNL     1     161.162 173.000 184.062  1.00  0.00    -0.003 C 
ATOM     18  C   UNL     1     162.365 172.525 183.248  1.00  0.00     0.004 C 
ENDBRANCH  16  17
ENDBRANCH  15  16
ENDBRANCH  14  15
ENDBRANCH  13  14
ENDBRANCH  12  13
ENDBRANCH  11  12
ENDBRANCH   1  11
TORSDOF 14
ENDMDL
MODEL 6
REMARK VINA RESULT:    -3.622      3.220      4.544
REMARK INTER + INTRA:          -8.802
REMARK INTER:                  -6.820
REMARK INTRA:                  -1.982
REMARK UNBOUND:                -2.216
REMARK SMILES CCCCCCCCCCCCCCCC(=O)[O-]
REMARK SMILES IDX 9 1 10 2 11 3 12 4 13 5 14 6 15 7 16 8 17 9 18 10 8 11 7 12
REMARK SMILES IDX 6 13 5 14 4 15 3 16 2 17 1 18
REMARK H PARENT
REMARK Flexibility Score: inf
ROOT
ATOM      1  C   UNL     1     160.584 178.188 185.969  1.00  0.00     0.000 C 
ENDROOT
BRANCH   1   2
ATOM      2  C   UNL     1     160.664 177.288 187.208  1.00  0.00     0.000 C 
BRANCH   2   3
ATOM      3  C   UNL     1     161.707 177.811 188.203  1.00  0.00     0.000 C 
BRANCH   3   4
ATOM      4  C   UNL     1     163.127 177.449 187.752  1.00  0.00     0.000 C 
BRANCH   4   5
ATOM      5  C   UNL     1     163.799 178.636 187.046  1.00  0.00     0.000 C 
BRANCH   5   6
ATOM      6  C   UNL     1     164.922 178.199 186.092  1.00  0.00     0.006 C 
BRANCH   6   7
ATOM      7  C   UNL     1     165.889 177.198 186.736  1.00  0.00     0.053 C 
BRANCH   7   8
ATOM      8  C   UNL     1     167.252 177.799 186.867  1.00  0.00     0.041 C 
ATOM      9  O   UNL     1     167.902 177.667 187.938  1.00  0.00    -0.550 OA
ATOM     10  O   UNL     1     167.826 178.463 185.791  1.00  0.00    -0.550 OA
ENDBRANCH   7   8
ENDBRANCH   6   7
ENDBRANCH   5   6
ENDBRANCH   4   5
ENDBRANCH   3   4
ENDBRANCH   2   3
ENDBRANCH   1   2
BRANCH   1  11
ATOM     11  C   UNL     1     160.563 177.351 184.682  1.00  0.00     0.000 C 
BRANCH  11  12
ATOM     12  C   UNL     1     161.946 176.786 184.312  1.00  0.00    -0.000 C 
BRANCH  12  13
ATOM     13  C   UNL     1     162.031 175.247 184.265  1.00  0.00    -0.000 C 
BRANCH  13  14
ATOM     14  C   UNL     1     160.686 174.526 184.047  1.00  0.00    -0.000 C 
BRANCH  14  15
ATOM     15  C   UNL     1     160.386 173.395 185.050  1.00  0.00    -0.000 C 
BRANCH  15  16
ATOM     16  C   UNL     1     160.370 173.823 186.532  1.00  0.00    -0.000 C 
BRANCH  16  17
ATOM     17  C   UNL     1     161.388 173.095 187.427  1.00  0.00    -0.003 C 
ATOM     18  C   UNL     1     162.660 173.908 187.665  1.00  0.00     0.004 C 
ENDBRANCH  16  17
ENDBRANCH  15  16
ENDBRANCH  14  15
ENDBRANCH  13  14
ENDBRANCH  12  13
ENDBRANCH  11  12
ENDBRANCH   1  11
TORSDOF 14
ENDMDL
MODEL 7
REMARK VINA RESULT:    -3.617      2.971      4.986
REMARK INTER + INTRA:          -8.794
REMARK INTER:                  -6.275
REMARK INTRA:                  -2.519
REMARK UNBOUND:                -2.216
REMARK SMILES CCCCCCCCCCCCCCCC(=O)[O-]
REMARK SMILES IDX 9 1 10 2 11 3 12 4 13 5 14 6 15 7 16 8 17 9 18 10 8 11 7 12
REMARK SMILES IDX 6 13 5 14 4 15 3 16 2 17 1 18
REMARK H PARENT
REMARK Flexibility Score: inf
ROOT
ATOM      1  C   UNL     1     161.316 178.240 186.065  1.00  0.00     0.000 C 
ENDROOT
BRANCH   1   2
ATOM      2  C   UNL     1     160.616 178.260 187.430  1.00  0.00     0.000 C 
BRANCH   2   3
ATOM      3  C   UNL     1     161.002 177.034 188.265  1.00  0.00     0.000 C 
BRANCH   3   4
ATOM      4  C   UNL     1     162.397 176.525 187.884  1.00  0.00     0.000 C 
BRANCH   4   5
ATOM      5  C   UNL     1     162.351 175.044 187.479  1.00  0.00     0.000 C 
BRANCH   5   6
ATOM      6  C   UNL     1     160.919 174.541 187.236  1.00  0.00     0.006 C 
BRANCH   6   7
ATOM      7  C   UNL     1     160.808 173.013 187.319  1.00  0.00     0.053 C 
BRANCH   7   8
ATOM      8  C   UNL     1     160.345 172.452 186.012  1.00  0.00     0.041 C 
ATOM      9  O   UNL     1     160.335 171.207 185.825  1.00  0.00    -0.550 OA
ATOM     10  O   UNL     1     159.876 173.302 185.018  1.00  0.00    -0.550 OA
ENDBRANCH   7   8
ENDBRANCH   6   7
ENDBRANCH   5   6
ENDBRANCH   4   5
ENDBRANCH   3   4
ENDBRANCH   2   3
ENDBRANCH   1   2
BRANCH   1  11
ATOM     11  C   UNL     1     160.316 177.944 184.939  1.00  0.00     0.000 C 
BRANCH  11  12
ATOM     12  C   UNL     1     160.600 176.611 184.222  1.00  0.00    -0.000 C 
BRANCH  12  13
ATOM     13  C   UNL     1     162.014 176.481 183.622  1.00  0.00    -0.000 C 
BRANCH  13  14
ATOM     14  C   UNL     1     162.644 175.079 183.734  1.00  0.00    -0.000 C 
BRANCH  14  15
ATOM     15  C   UNL     1     164.103 175.060 184.228  1.00  0.00    -0.000 C 
BRANCH  15  16
ATOM     16  C   UNL     1     164.787 176.441 184.300  1.00  0.00    -0.000 C 
BRANCH  16  17
ATOM     17  C   UNL     1     165.287 176.843 185.699  1.00  0.00    -0.003 C 
ATOM     18  C   UNL     1     165.007 178.308 186.034  1.00  0.00     0.004 C 
ENDBRANCH  16  17
ENDBRANCH  15  16
ENDBRANCH  14  15
ENDBRANCH  13  14
ENDBRANCH  12  13
ENDBRANCH  11  12
ENDBRANCH   1  11
TORSDOF 14
ENDMDL
MODEL 8
REMARK VINA RESULT:    -3.596      1.729      2.813
REMARK INTER + INTRA:          -8.756
REMARK INTER:                  -6.624
REMARK INTRA:                  -2.132
REMARK UNBOUND:                -2.216
REMARK SMILES CCCCCCCCCCCCCCCC(=O)[O-]
REMARK SMILES IDX 9 1 10 2 11 3 12 4 13 5 14 6 15 7 16 8 17 9 18 10 8 11 7 12
REMARK SMILES IDX 6 13 5 14 4 15 3 16 2 17 1 18
REMARK H PARENT
REMARK Flexibility Score: inf
ROOT
ATOM      1  C   UNL     1     164.649 177.770 186.732  1.00  0.00     0.000 C 
ENDROOT
BRANCH   1   2
ATOM      2  C   UNL     1     164.515 177.991 185.221  1.00  0.00     0.000 C 
BRANCH   2   3
ATOM      3  C   UNL     1     164.345 176.658 184.482  1.00  0.00     0.000 C 
BRANCH   3   4
ATOM      4  C   UNL     1     164.322 176.870 182.963  1.00  0.00     0.000 C 
BRANCH   4   5
ATOM      5  C   UNL     1     163.573 178.160 182.599  1.00  0.00     0.000 C 
BRANCH   5   6
ATOM      6  C   UNL     1     162.221 177.889 181.920  1.00  0.00     0.006 C 
BRANCH   6   7
ATOM      7  C   UNL     1     162.343 176.952 180.713  1.00  0.00     0.053 C 
BRANCH   7   8
ATOM      8  C   UNL     1     161.274 177.252 179.710  1.00  0.00     0.041 C 
ATOM      9  O   UNL     1     161.266 178.356 179.103  1.00  0.00    -0.550 OA
ATOM     10  O   UNL     1     160.315 176.293 179.409  1.00  0.00    -0.550 OA
ENDBRANCH   7   8
ENDBRANCH   6   7
ENDBRANCH   5   6
ENDBRANCH   4   5
ENDBRANCH   3   4
ENDBRANCH   2   3
ENDBRANCH   1   2
BRANCH   1  11
ATOM     11  C   UNL     1     163.449 178.365 187.483  1.00  0.00     0.000 C 
BRANCH  11  12
ATOM     12  C   UNL     1     162.523 177.290 188.080  1.00  0.00    -0.000 C 
BRANCH  12  13
ATOM     13  C   UNL     1     161.021 177.493 187.797  1.00  0.00    -0.000 C 
BRANCH  13  14
ATOM     14  C   UNL     1     160.699 178.248 186.492  1.00  0.00    -0.000 C 
BRANCH  14  15
ATOM     15  C   UNL     1     160.753 177.387 185.214  1.00  0.00    -0.000 C 
BRANCH  15  16
ATOM     16  C   UNL     1     160.667 175.865 185.447  1.00  0.00    -0.000 C 
BRANCH  16  17
ATOM     17  C   UNL     1     161.243 175.004 184.309  1.00  0.00    -0.003 C 
ATOM     18  C   UNL     1     160.322 174.929 183.092  1.00  0.00     0.004 C 
ENDBRANCH  16  17
ENDBRANCH  15  16
ENDBRANCH  14  15
ENDBRANCH  13  14
ENDBRANCH  12  13
ENDBRANCH  11  12
ENDBRANCH   1  11
TORSDOF 14
ENDMDL
MODEL 9
REMARK VINA RESULT:    -3.579      1.236      2.987
REMARK INTER + INTRA:          -8.725
REMARK INTER:                  -6.739
REMARK INTRA:                  -1.986
REMARK UNBOUND:                -2.216
REMARK SMILES CCCCCCCCCCCCCCCC(=O)[O-]
REMARK SMILES IDX 9 1 10 2 11 3 12 4 13 5 14 6 15 7 16 8 17 9 18 10 8 11 7 12
REMARK SMILES IDX 6 13 5 14 4 15 3 16 2 17 1 18
REMARK H PARENT
REMARK Flexibility Score: inf
ROOT
ATOM      1  C   UNL     1     162.431 177.235 187.957  1.00  0.00     0.000 C 
ENDROOT
BRANCH   1   2
ATOM      2  C   UNL     1     161.029 177.857 187.968  1.00  0.00     0.000 C 
BRANCH   2   3
ATOM      3  C   UNL     1     160.610 178.296 186.560  1.00  0.00     0.000 C 
BRANCH   3   4
ATOM      4  C   UNL     1     160.604 177.107 185.591  1.00  0.00     0.000 C 
BRANCH   4   5
ATOM      5  C   UNL     1     160.429 177.580 184.141  1.00  0.00     0.000 C 
BRANCH   5   6
ATOM      6  C   UNL     1     160.677 176.460 183.118  1.00  0.00     0.006 C 
BRANCH   6   7
ATOM      7  C   UNL     1     162.061 176.551 182.465  1.00  0.00     0.053 C 
BRANCH   7   8
ATOM      8  C   UNL     1     162.241 177.883 181.807  1.00  0.00     0.041 C 
ATOM      9  O   UNL     1     161.520 178.207 180.826  1.00  0.00    -0.550 OA
ATOM     10  O   UNL     1     163.171 178.785 182.307  1.00  0.00    -0.550 OA
ENDBRANCH   7   8
ENDBRANCH   6   7
ENDBRANCH   5   6
ENDBRANCH   4   5
ENDBRANCH   3   4
ENDBRANCH   2   3
ENDBRANCH   1   2
BRANCH   1  11
ATOM     11  C   UNL     1     163.439 178.164 187.266  1.00  0.00     0.000 C 
BRANCH  11  12
ATOM     12  C   UNL     1     164.710 177.429 186.802  1.00  0.00    -0.000 C 
BRANCH  12  13
ATOM     13  C   UNL     1     164.574 175.898 186.690  1.00  0.00    -0.000 C 
BRANCH  13  14
ATOM     14  C   UNL     1     164.084 175.384 185.322  1.00  0.00    -0.000 C 
BRANCH  14  15
ATOM     15  C   UNL     1     163.012 174.279 185.390  1.00  0.00    -0.000 C 
BRANCH  15  16
ATOM     16  C   UNL     1     162.688 173.768 186.809  1.00  0.00    -0.000 C 
BRANCH  16  17
ATOM     17  C   UNL     1     161.209 173.887 187.216  1.00  0.00    -0.003 C 
ATOM     18  C   UNL     1     160.603 172.554 187.655  1.00  0.00     0.004 C 
ENDBRANCH  16  17
ENDBRANCH  15  16
ENDBRANCH  14  15
ENDBRANCH  13  14
ENDBRANCH  12  13
ENDBRANCH  11  12
ENDBRANCH   1  11
TORSDOF 14
ENDMDL
