MODEL 1
REMARK VINA RESULT:    -1.103      0.000      0.000
REMARK INTER + INTRA:          -1.654
REMARK INTER:                  -1.877
REMARK INTRA:                   0.222
REMARK UNBOUND:                 0.222
REMARK SMILES CCCCCCCCCCCCCC(=O)[O-]
REMARK SMILES IDX 8 1 9 2 10 3 11 4 12 5 13 6 14 7 15 8 16 9 7 10 6 11 5 12
REMARK SMILES IDX 4 13 3 14 2 15 1 16
REMARK H PARENT
REMARK Flexibility Score: inf
ROOT
ATOM      1  C   UNL     1     -17.176  35.745 -20.386  1.00  0.00     0.000 C 
ENDROOT
BRANCH   1   2
ATOM      2  C   UNL     1     -18.502  35.406 -21.089  1.00  0.00     0.000 C 
BRANCH   2   3
ATOM      3  C   UNL     1     -19.730  35.951 -20.343  1.00  0.00     0.000 C 
BRANCH   3   4
ATOM      4  C   UNL     1     -20.656  34.835 -19.835  1.00  0.00     0.000 C 
BRANCH   4   5
ATOM      5  C   UNL     1     -21.115  35.061 -18.385  1.00  0.00     0.006 C 
BRANCH   5   6
ATOM      6  C   UNL     1     -20.252  36.123 -17.698  1.00  0.00     0.053 C 
BRANCH   6   7
ATOM      7  C   UNL     1     -20.037  35.773 -16.259  1.00  0.00     0.041 C 
ATOM      8  O   UNL     1     -18.905  35.390 -15.862  1.00  0.00    -0.550 OA
ATOM      9  O   UNL     1     -21.099  35.823 -15.366  1.00  0.00    -0.550 OA
ENDBRANCH   6   7
ENDBRANCH   5   6
ENDBRANCH   4   5
ENDBRANCH   3   4
ENDBRANCH   2   3
ENDBRANCH   1   2
BRANCH   1  10
ATOM     10  C   UNL     1     -17.249  35.646 -18.847  1.00  0.00     0.000 C 
BRANCH  10  11
ATOM     11  C   UNL     1     -16.979  34.216 -18.345  1.00  0.00    -0.000 C 
BRANCH  11  12
ATOM     12  C   UNL     1     -16.630  33.246 -19.483  1.00  0.00    -0.000 C 
BRANCH  12  13
ATOM     13  C   UNL     1     -15.115  33.017 -19.620  1.00  0.00    -0.000 C 
BRANCH  13  14
ATOM     14  C   UNL     1     -14.328  33.515 -18.397  1.00  0.00    -0.000 C 
BRANCH  14  15
ATOM     15  C   UNL     1     -13.886  34.978 -18.538  1.00  0.00    -0.003 C 
ATOM     16  C   UNL     1     -14.515  35.850 -17.454  1.00  0.00     0.004 C 
ENDBRANCH  14  15
ENDBRANCH  13  14
ENDBRANCH  12  13
ENDBRANCH  11  12
ENDBRANCH  10  11
ENDBRANCH   1  10
TORSDOF 12
ENDMDL
MODEL 2
REMARK VINA RESULT:    -0.684      1.752      2.820
REMARK INTER + INTRA:          -0.941
REMARK INTER:                  -0.954
REMARK INTRA:                   0.013
REMARK UNBOUND:                 0.222
REMARK SMILES CCCCCCCCCCCCCC(=O)[O-]
REMARK SMILES IDX 8 1 9 2 10 3 11 4 12 5 13 6 14 7 15 8 16 9 7 10 6 11 5 12
REMARK SMILES IDX 4 13 3 14 2 15 1 16
REMARK H PARENT
REMARK Flexibility Score: inf
ROOT
ATOM      1  C   UNL     1     -17.329  33.956 -18.578  1.00  0.00     0.000 C 
ENDROOT
BRANCH   1   2
ATOM      2  C   UNL     1     -17.571  35.428 -18.955  1.00  0.00     0.000 C 
BRANCH   2   3
ATOM      3  C   UNL     1     -18.090  35.598 -20.392  1.00  0.00     0.000 C 
BRANCH   3   4
ATOM      4  C   UNL     1     -18.804  34.342 -20.915  1.00  0.00     0.000 C 
BRANCH   4   5
ATOM      5  C   UNL     1     -20.311  34.560 -21.124  1.00  0.00     0.006 C 
BRANCH   5   6
ATOM      6  C   UNL     1     -20.871  35.536 -20.085  1.00  0.00     0.053 C 
BRANCH   6   7
ATOM      7  C   UNL     1     -21.039  34.854 -18.763  1.00  0.00     0.041 C 
ATOM      8  O   UNL     1     -21.057  35.528 -17.700  1.00  0.00    -0.550 OA
ATOM      9  O   UNL     1     -21.125  33.468 -18.702  1.00  0.00    -0.550 OA
ENDBRANCH   6   7
ENDBRANCH   5   6
ENDBRANCH   4   5
ENDBRANCH   3   4
ENDBRANCH   2   3
ENDBRANCH   1   2
BRANCH   1  10
ATOM     10  C   UNL     1     -16.250  33.266 -19.440  1.00  0.00     0.000 C 
BRANCH  10  11
ATOM     11  C   UNL     1     -15.198  34.263 -19.960  1.00  0.00    -0.000 C 
BRANCH  11  12
ATOM     12  C   UNL     1     -14.042  34.471 -18.971  1.00  0.00    -0.000 C 
BRANCH  12  13
ATOM     13  C   UNL     1     -14.369  35.513 -17.888  1.00  0.00    -0.000 C 
BRANCH  13  14
ATOM     14  C   UNL     1     -14.112  34.990 -16.466  1.00  0.00    -0.000 C 
BRANCH  14  15
ATOM     15  C   UNL     1     -13.550  36.072 -15.533  1.00  0.00    -0.003 C 
ATOM     16  C   UNL     1     -12.817  35.450 -14.347  1.00  0.00     0.004 C 
ENDBRANCH  14  15
ENDBRANCH  13  14
ENDBRANCH  12  13
ENDBRANCH  11  12
ENDBRANCH  10  11
ENDBRANCH   1  10
TORSDOF 12
ENDMDL
MODEL 3
REMARK VINA RESULT:    -0.225      2.993      6.042
REMARK INTER + INTRA:          -0.161
REMARK INTER:                   0.928
REMARK INTRA:                  -1.089
REMARK UNBOUND:                 0.222
REMARK SMILES CCCCCCCCCCCCCC(=O)[O-]
REMARK SMILES IDX 8 1 9 2 10 3 11 4 12 5 13 6 14 7 15 8 16 9 7 10 6 11 5 12
REMARK SMILES IDX 4 13 3 14 2 15 1 16
REMARK H PARENT
REMARK Flexibility Score: inf
ROOT
ATOM      1  C   UNL     1     -16.600  33.906 -19.295  1.00  0.00     0.000 C 
ENDROOT
BRANCH   1   2
ATOM      2  C   UNL     1     -15.198  33.361 -18.972  1.00  0.00     0.000 C 
BRANCH   2   3
ATOM      3  C   UNL     1     -14.204  34.466 -18.578  1.00  0.00     0.000 C 
BRANCH   3   4
ATOM      4  C   UNL     1     -14.839  35.539 -17.680  1.00  0.00     0.000 C 
BRANCH   4   5
ATOM      5  C   UNL     1     -13.968  35.882 -16.461  1.00  0.00     0.006 C 
BRANCH   5   6
ATOM      6  C   UNL     1     -13.607  34.619 -15.674  1.00  0.00     0.053 C 
BRANCH   6   7
ATOM      7  C   UNL     1     -12.939  34.979 -14.383  1.00  0.00     0.041 C 
ATOM      8  O   UNL     1     -12.440  36.124 -14.226  1.00  0.00    -0.550 OA
ATOM      9  O   UNL     1     -12.825  34.032 -13.374  1.00  0.00    -0.550 OA
ENDBRANCH   6   7
ENDBRANCH   5   6
ENDBRANCH   4   5
ENDBRANCH   3   4
ENDBRANCH   2   3
ENDBRANCH   1   2
BRANCH   1  10
ATOM     10  C   UNL     1     -16.671  34.683 -20.626  1.00  0.00     0.000 C 
BRANCH  10  11
ATOM     11  C   UNL     1     -17.593  35.912 -20.532  1.00  0.00    -0.000 C 
BRANCH  11  12
ATOM     12  C   UNL     1     -18.302  36.016 -19.174  1.00  0.00    -0.000 C 
BRANCH  12  13
ATOM     13  C   UNL     1     -19.833  35.938 -19.297  1.00  0.00    -0.000 C 
BRANCH  13  14
ATOM     14  C   UNL     1     -20.287  35.232 -20.585  1.00  0.00    -0.000 C 
BRANCH  14  15
ATOM     15  C   UNL     1     -21.093  33.955 -20.303  1.00  0.00    -0.003 C 
ATOM     16  C   UNL     1     -21.117  33.638 -18.811  1.00  0.00     0.004 C 
ENDBRANCH  14  15
ENDBRANCH  13  14
ENDBRANCH  12  13
ENDBRANCH  11  12
ENDBRANCH  10  11
ENDBRANCH   1  10
TORSDOF 12
ENDMDL
MODEL 4
REMARK VINA RESULT:     0.073      2.862      5.850
REMARK INTER + INTRA:           0.346
REMARK INTER:                   1.195
REMARK INTRA:                  -0.850
REMARK UNBOUND:                 0.222
REMARK SMILES CCCCCCCCCCCCCC(=O)[O-]
REMARK SMILES IDX 8 1 9 2 10 3 11 4 12 5 13 6 14 7 15 8 16 9 7 10 6 11 5 12
REMARK SMILES IDX 4 13 3 14 2 15 1 16
REMARK H PARENT
REMARK Flexibility Score: inf
ROOT
ATOM      1  C   UNL     1     -16.658  34.904 -19.682  1.00  0.00     0.000 C 
ENDROOT
BRANCH   1   2
ATOM      2  C   UNL     1     -15.637  33.881 -19.155  1.00  0.00     0.000 C 
BRANCH   2   3
ATOM      3  C   UNL     1     -14.433  34.541 -18.463  1.00  0.00     0.000 C 
BRANCH   3   4
ATOM      4  C   UNL     1     -14.776  35.914 -17.864  1.00  0.00     0.000 C 
BRANCH   4   5
ATOM      5  C   UNL     1     -14.156  36.125 -16.473  1.00  0.00     0.006 C 
BRANCH   5   6
ATOM      6  C   UNL     1     -13.867  34.783 -15.795  1.00  0.00     0.053 C 
BRANCH   6   7
ATOM      7  C   UNL     1     -13.032  34.984 -14.569  1.00  0.00     0.041 C 
ATOM      8  O   UNL     1     -12.540  36.115 -14.316  1.00  0.00    -0.550 OA
ATOM      9  O   UNL     1     -12.757  33.910 -13.732  1.00  0.00    -0.550 OA
ENDBRANCH   6   7
ENDBRANCH   5   6
ENDBRANCH   4   5
ENDBRANCH   3   4
ENDBRANCH   2   3
ENDBRANCH   1   2
BRANCH   1  10
ATOM     10  C   UNL     1     -17.361  34.462 -20.984  1.00  0.00     0.000 C 
BRANCH  10  11
ATOM     11  C   UNL     1     -18.892  34.573 -20.882  1.00  0.00    -0.000 C 
BRANCH  11  12
ATOM     12  C   UNL     1     -19.351  35.930 -20.329  1.00  0.00    -0.000 C 
BRANCH  12  13
ATOM     13  C   UNL     1     -20.823  35.919 -19.882  1.00  0.00    -0.000 C 
BRANCH  13  14
ATOM     14  C   UNL     1     -20.977  35.803 -18.357  1.00  0.00    -0.000 C 
BRANCH  14  15
ATOM     15  C   UNL     1     -19.675  36.122 -17.608  1.00  0.00    -0.003 C 
ATOM     16  C   UNL     1     -19.793  35.771 -16.127  1.00  0.00     0.004 C 
ENDBRANCH  14  15
ENDBRANCH  13  14
ENDBRANCH  12  13
ENDBRANCH  11  12
ENDBRANCH  10  11
ENDBRANCH   1  10
TORSDOF 12
ENDMDL
MODEL 5
REMARK VINA RESULT:     0.569      2.819      5.718
REMARK INTER + INTRA:           1.191
REMARK INTER:                   0.782
REMARK INTRA:                   0.409
REMARK UNBOUND:                 0.222
REMARK SMILES CCCCCCCCCCCCCC(=O)[O-]
REMARK SMILES IDX 8 1 9 2 10 3 11 4 12 5 13 6 14 7 15 8 16 9 7 10 6 11 5 12
REMARK SMILES IDX 4 13 3 14 2 15 1 16
REMARK H PARENT
REMARK Flexibility Score: inf
ROOT
ATOM      1  C   UNL     1     -18.027  35.890 -19.870  1.00  0.00     0.000 C 
ENDROOT
BRANCH   1   2
ATOM      2  C   UNL     1     -16.541  36.110 -19.539  1.00  0.00     0.000 C 
BRANCH   2   3
ATOM      3  C   UNL     1     -16.258  36.100 -18.028  1.00  0.00     0.000 C 
BRANCH   3   4
ATOM      4  C   UNL     1     -14.763  35.943 -17.709  1.00  0.00     0.000 C 
BRANCH   4   5
ATOM      5  C   UNL     1     -14.079  34.878 -18.582  1.00  0.00     0.006 C 
BRANCH   5   6
ATOM      6  C   UNL     1     -14.795  33.530 -18.460  1.00  0.00     0.053 C 
BRANCH   6   7
ATOM      7  C   UNL     1     -15.124  32.987 -19.815  1.00  0.00     0.041 C 
ATOM      8  O   UNL     1     -15.253  31.746 -19.986  1.00  0.00    -0.550 OA
ATOM      9  O   UNL     1     -15.240  33.848 -20.899  1.00  0.00    -0.550 OA
ENDBRANCH   6   7
ENDBRANCH   5   6
ENDBRANCH   4   5
ENDBRANCH   3   4
ENDBRANCH   2   3
ENDBRANCH   1   2
BRANCH   1  10
ATOM     10  C   UNL     1     -18.431  34.402 -19.943  1.00  0.00     0.000 C 
BRANCH  10  11
ATOM     11  C   UNL     1     -19.873  34.216 -20.449  1.00  0.00    -0.000 C 
BRANCH  11  12
ATOM     12  C   UNL     1     -20.921  34.705 -19.438  1.00  0.00    -0.000 C 
BRANCH  12  13
ATOM     13  C   UNL     1     -20.505  36.011 -18.740  1.00  0.00    -0.000 C 
BRANCH  13  14
ATOM     14  C   UNL     1     -21.069  36.125 -17.315  1.00  0.00    -0.000 C 
BRANCH  14  15
ATOM     15  C   UNL     1     -20.415  35.134 -16.341  1.00  0.00    -0.003 C 
ATOM     16  C   UNL     1     -20.051  35.815 -15.025  1.00  0.00     0.004 C 
ENDBRANCH  14  15
ENDBRANCH  13  14
ENDBRANCH  12  13
ENDBRANCH  11  12
ENDBRANCH  10  11
ENDBRANCH   1  10
TORSDOF 12
ENDMDL
MODEL 6
REMARK VINA RESULT:     0.980      2.361      5.256
REMARK INTER + INTRA:           1.890
REMARK INTER:                  -1.857
REMARK INTRA:                   3.747
REMARK UNBOUND:                 0.222
REMARK SMILES CCCCCCCCCCCCCC(=O)[O-]
REMARK SMILES IDX 8 1 9 2 10 3 11 4 12 5 13 6 14 7 15 8 16 9 7 10 6 11 5 12
REMARK SMILES IDX 4 13 3 14 2 15 1 16
REMARK H PARENT
REMARK Flexibility Score: inf
ROOT
ATOM      1  C   UNL     1     -18.264  35.210 -19.640  1.00  0.00     0.000 C 
ENDROOT
BRANCH   1   2
ATOM      2  C   UNL     1     -17.763  33.951 -18.912  1.00  0.00     0.000 C 
BRANCH   2   3
ATOM      3  C   UNL     1     -16.630  33.235 -19.667  1.00  0.00     0.000 C 
BRANCH   3   4
ATOM      4  C   UNL     1     -15.318  34.036 -19.659  1.00  0.00     0.000 C 
BRANCH   4   5
ATOM      5  C   UNL     1     -15.551  35.555 -19.614  1.00  0.00     0.006 C 
BRANCH   5   6
ATOM      6  C   UNL     1     -15.209  36.119 -18.232  1.00  0.00     0.053 C 
BRANCH   6   7
ATOM      7  C   UNL     1     -14.363  35.150 -17.466  1.00  0.00     0.041 C 
ATOM      8  O   UNL     1     -13.955  34.093 -18.014  1.00  0.00    -0.550 OA
ATOM      9  O   UNL     1     -14.067  35.392 -16.130  1.00  0.00    -0.550 OA
ENDBRANCH   6   7
ENDBRANCH   5   6
ENDBRANCH   4   5
ENDBRANCH   3   4
ENDBRANCH   2   3
ENDBRANCH   1   2
BRANCH   1  10
ATOM     10  C   UNL     1     -18.818  34.929 -21.053  1.00  0.00     0.000 C 
BRANCH  10  11
ATOM     11  C   UNL     1     -20.017  33.964 -21.024  1.00  0.00    -0.000 C 
BRANCH  11  12
ATOM     12  C   UNL     1     -21.105  34.403 -20.033  1.00  0.00    -0.000 C 
BRANCH  12  13
ATOM     13  C   UNL     1     -20.991  35.888 -19.650  1.00  0.00    -0.000 C 
BRANCH  13  14
ATOM     14  C   UNL     1     -21.125  36.120 -18.136  1.00  0.00    -0.000 C 
BRANCH  14  15
ATOM     15  C   UNL     1     -19.900  35.623 -17.354  1.00  0.00    -0.003 C 
ATOM     16  C   UNL     1     -20.012  35.976 -15.874  1.00  0.00     0.004 C 
ENDBRANCH  14  15
ENDBRANCH  13  14
ENDBRANCH  12  13
ENDBRANCH  11  12
ENDBRANCH  10  11
ENDBRANCH   1  10
TORSDOF 12
ENDMDL
