MODEL 1
REMARK VINA RESULT:    -5.602      0.000      0.000
REMARK INTER + INTRA:         -14.954
REMARK INTER:                 -12.806
REMARK INTRA:                  -2.148
REMARK UNBOUND:                -2.148
REMARK SMILES CCCCCCCCCCCCCCCCCCCCCCCC(=O)[O-]
REMARK SMILES IDX 13 1 14 2 15 3 16 4 17 5 18 6 19 7 20 8 21 9 22 10 23 11
REMARK SMILES IDX 24 12 25 13 26 14 12 15 11 16 10 17 9 18 8 19 7 20 6 21 5 22
REMARK SMILES IDX 4 23 3 24 2 25 1 26
REMARK H PARENT
REMARK Flexibility Score: inf
ROOT
ATOM      1  C   UNL     1      49.336  27.448  17.030  1.00  0.00     0.000 C 
ENDROOT
BRANCH   1   2
ATOM      2  C   UNL     1      49.582  25.933  16.923  1.00  0.00     0.000 C 
BRANCH   2   3
ATOM      3  C   UNL     1      49.618  25.235  18.295  1.00  0.00     0.000 C 
BRANCH   3   4
ATOM      4  C   UNL     1      48.438  25.569  19.229  1.00  0.00     0.000 C 
BRANCH   4   5
ATOM      5  C   UNL     1      48.666  25.246  20.718  1.00  0.00     0.000 C 
BRANCH   5   6
ATOM      6  C   UNL     1      48.178  26.324  21.702  1.00  0.00     0.000 C 
BRANCH   6   7
ATOM      7  C   UNL     1      49.289  26.816  22.645  1.00  0.00     0.000 C 
BRANCH   7   8
ATOM      8  C   UNL     1      50.622  26.083  22.417  1.00  0.00     0.000 C 
BRANCH   8   9
ATOM      9  C   UNL     1      51.809  27.053  22.281  1.00  0.00     0.000 C 
BRANCH   9  10
ATOM     10  C   UNL     1      52.986  26.445  21.494  1.00  0.00     0.006 C 
BRANCH  10  11
ATOM     11  C   UNL     1      52.658  26.103  20.031  1.00  0.00     0.053 C 
BRANCH  11  12
ATOM     12  C   UNL     1      52.969  27.239  19.104  1.00  0.00     0.041 C 
ATOM     13  O   UNL     1      53.422  28.322  19.559  1.00  0.00    -0.550 OA
ATOM     14  O   UNL     1      52.795  27.086  17.735  1.00  0.00    -0.550 OA
ENDBRANCH  11  12
ENDBRANCH  10  11
ENDBRANCH   9  10
ENDBRANCH   8   9
ENDBRANCH   7   8
ENDBRANCH   6   7
ENDBRANCH   5   6
ENDBRANCH   4   5
ENDBRANCH   3   4
ENDBRANCH   2   3
ENDBRANCH   1   2
BRANCH   1  15
ATOM     15  C   UNL     1      48.584  28.003  15.809  1.00  0.00     0.000 C 
BRANCH  15  16
ATOM     16  C   UNL     1      48.531  29.543  15.802  1.00  0.00     0.000 C 
BRANCH  16  17
ATOM     17  C   UNL     1      47.512  30.109  16.810  1.00  0.00     0.000 C 
BRANCH  17  18
ATOM     18  C   UNL     1      48.112  31.094  17.833  1.00  0.00    -0.000 C 
BRANCH  18  19
ATOM     19  C   UNL     1      49.205  32.012  17.245  1.00  0.00    -0.000 C 
BRANCH  19  20
ATOM     20  C   UNL     1      48.795  33.495  17.140  1.00  0.00    -0.000 C 
BRANCH  20  21
ATOM     21  C   UNL     1      47.755  33.782  16.039  1.00  0.00    -0.000 C 
BRANCH  21  22
ATOM     22  C   UNL     1      48.135  33.151  14.688  1.00  0.00    -0.000 C 
BRANCH  22  23
ATOM     23  C   UNL     1      48.512  34.197  13.625  1.00  0.00    -0.000 C 
BRANCH  23  24
ATOM     24  C   UNL     1      47.717  34.099  12.310  1.00  0.00    -0.000 C 
BRANCH  24  25
ATOM     25  C   UNL     1      48.583  33.660  11.121  1.00  0.00    -0.003 C 
ATOM     26  C   UNL     1      50.060  33.621  11.502  1.00  0.00     0.004 C 
ENDBRANCH  24  25
ENDBRANCH  23  24
ENDBRANCH  22  23
ENDBRANCH  21  22
ENDBRANCH  20  21
ENDBRANCH  19  20
ENDBRANCH  18  19
ENDBRANCH  17  18
ENDBRANCH  16  17
ENDBRANCH  15  16
ENDBRANCH   1  15
TORSDOF 22
ENDMDL
MODEL 2
REMARK VINA RESULT:    -5.536      5.256     11.471
REMARK INTER + INTRA:         -14.803
REMARK INTER:                 -13.139
REMARK INTRA:                  -1.664
REMARK UNBOUND:                -2.148
REMARK SMILES CCCCCCCCCCCCCCCCCCCCCCCC(=O)[O-]
REMARK SMILES IDX 13 1 14 2 15 3 16 4 17 5 18 6 19 7 20 8 21 9 22 10 23 11
REMARK SMILES IDX 24 12 25 13 26 14 12 15 11 16 10 17 9 18 8 19 7 20 6 21 5 22
REMARK SMILES IDX 4 23 3 24 2 25 1 26
REMARK H PARENT
REMARK Flexibility Score: inf
ROOT
ATOM      1  C   UNL     1      49.243  32.424  17.705  1.00  0.00     0.000 C 
ENDROOT
BRANCH   1   2
ATOM      2  C   UNL     1      48.883  33.826  17.185  1.00  0.00     0.000 C 
BRANCH   2   3
ATOM      3  C   UNL     1      47.437  33.919  16.664  1.00  0.00     0.000 C 
BRANCH   3   4
ATOM      4  C   UNL     1      47.277  33.709  15.145  1.00  0.00     0.000 C 
BRANCH   4   5
ATOM      5  C   UNL     1      48.482  34.149  14.290  1.00  0.00     0.000 C 
BRANCH   5   6
ATOM      6  C   UNL     1      48.138  34.584  12.854  1.00  0.00     0.000 C 
BRANCH   6   7
ATOM      7  C   UNL     1      46.628  34.547  12.566  1.00  0.00     0.000 C 
BRANCH   7   8
ATOM      8  C   UNL     1      45.961  35.923  12.736  1.00  0.00     0.000 C 
BRANCH   8   9
ATOM      9  C   UNL     1      44.549  35.821  13.337  1.00  0.00     0.000 C 
BRANCH   9  10
ATOM     10  C   UNL     1      43.441  36.106  12.305  1.00  0.00     0.006 C 
BRANCH  10  11
ATOM     11  C   UNL     1      43.298  37.589  11.926  1.00  0.00     0.053 C 
BRANCH  11  12
ATOM     12  C   UNL     1      41.913  38.104  12.181  1.00  0.00     0.041 C 
ATOM     13  O   UNL     1      41.085  37.403  12.821  1.00  0.00    -0.550 OA
ATOM     14  O   UNL     1      41.552  39.373  11.747  1.00  0.00    -0.550 OA
ENDBRANCH  11  12
ENDBRANCH  10  11
ENDBRANCH   9  10
ENDBRANCH   8   9
ENDBRANCH   7   8
ENDBRANCH   6   7
ENDBRANCH   5   6
ENDBRANCH   4   5
ENDBRANCH   3   4
ENDBRANCH   2   3
ENDBRANCH   1   2
BRANCH   1  15
ATOM     15  C   UNL     1      48.000  31.544  17.917  1.00  0.00     0.000 C 
BRANCH  15  16
ATOM     16  C   UNL     1      48.023  30.275  17.044  1.00  0.00     0.000 C 
BRANCH  16  17
ATOM     17  C   UNL     1      49.446  29.876  16.608  1.00  0.00     0.000 C 
BRANCH  17  18
ATOM     18  C   UNL     1      49.634  28.366  16.362  1.00  0.00    -0.000 C 
BRANCH  18  19
ATOM     19  C   UNL     1      48.311  27.603  16.137  1.00  0.00    -0.000 C 
BRANCH  19  20
ATOM     20  C   UNL     1      48.162  26.329  16.993  1.00  0.00    -0.000 C 
BRANCH  20  21
ATOM     21  C   UNL     1      49.473  25.539  17.175  1.00  0.00    -0.000 C 
BRANCH  21  22
ATOM     22  C   UNL     1      49.688  25.079  18.628  1.00  0.00    -0.000 C 
BRANCH  22  23
ATOM     23  C   UNL     1      48.756  25.790  19.624  1.00  0.00    -0.000 C 
BRANCH  23  24
ATOM     24  C   UNL     1      48.809  25.244  21.062  1.00  0.00    -0.000 C 
BRANCH  24  25
ATOM     25  C   UNL     1      48.748  26.352  22.123  1.00  0.00    -0.003 C 
ATOM     26  C   UNL     1      50.143  26.706  22.630  1.00  0.00     0.004 C 
ENDBRANCH  24  25
ENDBRANCH  23  24
ENDBRANCH  22  23
ENDBRANCH  21  22
ENDBRANCH  20  21
ENDBRANCH  19  20
ENDBRANCH  18  19
ENDBRANCH  17  18
ENDBRANCH  16  17
ENDBRANCH  15  16
ENDBRANCH   1  15
TORSDOF 22
ENDMDL
MODEL 3
REMARK VINA RESULT:    -5.485      2.921      8.930
REMARK INTER + INTRA:         -14.688
REMARK INTER:                 -12.358
REMARK INTRA:                  -2.329
REMARK UNBOUND:                -2.148
REMARK SMILES CCCCCCCCCCCCCCCCCCCCCCCC(=O)[O-]
REMARK SMILES IDX 13 1 14 2 15 3 16 4 17 5 18 6 19 7 20 8 21 9 22 10 23 11
REMARK SMILES IDX 24 12 25 13 26 14 12 15 11 16 10 17 9 18 8 19 7 20 6 21 5 22
REMARK SMILES IDX 4 23 3 24 2 25 1 26
REMARK H PARENT
REMARK Flexibility Score: inf
ROOT
ATOM      1  C   UNL     1      49.058  27.497  17.130  1.00  0.00     0.000 C 
ENDROOT
BRANCH   1   2
ATOM      2  C   UNL     1      48.250  27.937  15.897  1.00  0.00     0.000 C 
BRANCH   2   3
ATOM      3  C   UNL     1      47.840  29.420  15.948  1.00  0.00     0.000 C 
BRANCH   3   4
ATOM      4  C   UNL     1      47.993  30.092  17.328  1.00  0.00     0.000 C 
BRANCH   4   5
ATOM      5  C   UNL     1      49.015  31.244  17.387  1.00  0.00     0.000 C 
BRANCH   5   6
ATOM      6  C   UNL     1      48.472  32.570  17.950  1.00  0.00     0.000 C 
BRANCH   6   7
ATOM      7  C   UNL     1      48.701  33.758  17.001  1.00  0.00     0.000 C 
BRANCH   7   8
ATOM      8  C   UNL     1      47.633  33.844  15.897  1.00  0.00     0.000 C 
BRANCH   8   9
ATOM      9  C   UNL     1      48.153  33.348  14.537  1.00  0.00     0.000 C 
BRANCH   9  10
ATOM     10  C   UNL     1      48.364  34.492  13.528  1.00  0.00     0.006 C 
BRANCH  10  11
ATOM     11  C   UNL     1      47.660  34.282  12.177  1.00  0.00     0.053 C 
BRANCH  11  12
ATOM     12  C   UNL     1      48.552  33.615  11.175  1.00  0.00     0.041 C 
ATOM     13  O   UNL     1      48.079  33.191  10.087  1.00  0.00    -0.550 OA
ATOM     14  O   UNL     1      49.913  33.499  11.425  1.00  0.00    -0.550 OA
ENDBRANCH  11  12
ENDBRANCH  10  11
ENDBRANCH   9  10
ENDBRANCH   8   9
ENDBRANCH   7   8
ENDBRANCH   6   7
ENDBRANCH   5   6
ENDBRANCH   4   5
ENDBRANCH   3   4
ENDBRANCH   2   3
ENDBRANCH   1   2
BRANCH   1  15
ATOM     15  C   UNL     1      48.509  26.205  17.756  1.00  0.00     0.000 C 
BRANCH  15  16
ATOM     16  C   UNL     1      49.629  25.246  18.202  1.00  0.00     0.000 C 
BRANCH  16  17
ATOM     17  C   UNL     1      49.635  25.001  19.724  1.00  0.00     0.000 C 
BRANCH  17  18
ATOM     18  C   UNL     1      48.456  25.651  20.475  1.00  0.00    -0.000 C 
BRANCH  18  19
ATOM     19  C   UNL     1      48.864  26.343  21.793  1.00  0.00    -0.000 C 
BRANCH  19  20
ATOM     20  C   UNL     1      50.161  25.792  22.420  1.00  0.00    -0.000 C 
BRANCH  20  21
ATOM     21  C   UNL     1      51.294  26.830  22.533  1.00  0.00    -0.000 C 
BRANCH  21  22
ATOM     22  C   UNL     1      52.691  26.192  22.435  1.00  0.00    -0.000 C 
BRANCH  22  23
ATOM     23  C   UNL     1      53.185  26.056  20.985  1.00  0.00    -0.000 C 
BRANCH  23  24
ATOM     24  C   UNL     1      52.925  27.284  20.093  1.00  0.00    -0.000 C 
BRANCH  24  25
ATOM     25  C   UNL     1      52.724  26.916  18.616  1.00  0.00    -0.003 C 
ATOM     26  C   UNL     1      52.629  28.167  17.747  1.00  0.00     0.004 C 
ENDBRANCH  24  25
ENDBRANCH  23  24
ENDBRANCH  22  23
ENDBRANCH  21  22
ENDBRANCH  20  21
ENDBRANCH  19  20
ENDBRANCH  18  19
ENDBRANCH  17  18
ENDBRANCH  16  17
ENDBRANCH  15  16
ENDBRANCH   1  15
TORSDOF 22
ENDMDL
MODEL 4
REMARK VINA RESULT:    -5.465      6.298     10.421
REMARK INTER + INTRA:         -14.641
REMARK INTER:                 -12.491
REMARK INTRA:                  -2.150
REMARK UNBOUND:                -2.148
REMARK SMILES CCCCCCCCCCCCCCCCCCCCCCCC(=O)[O-]
REMARK SMILES IDX 13 1 14 2 15 3 16 4 17 5 18 6 19 7 20 8 21 9 22 10 23 11
REMARK SMILES IDX 24 12 25 13 26 14 12 15 11 16 10 17 9 18 8 19 7 20 6 21 5 22
REMARK SMILES IDX 4 23 3 24 2 25 1 26
REMARK H PARENT
REMARK Flexibility Score: inf
ROOT
ATOM      1  C   UNL     1      43.872  36.829  12.512  1.00  0.00     0.000 C 
ENDROOT
BRANCH   1   2
ATOM      2  C   UNL     1      44.773  35.694  13.030  1.00  0.00     0.000 C 
BRANCH   2   3
ATOM      3  C   UNL     1      46.232  35.823  12.554  1.00  0.00     0.000 C 
BRANCH   3   4
ATOM      4  C   UNL     1      46.985  34.488  12.390  1.00  0.00     0.000 C 
BRANCH   4   5
ATOM      5  C   UNL     1      48.318  34.387  13.156  1.00  0.00     0.000 C 
BRANCH   5   6
ATOM      6  C   UNL     1      48.251  33.611  14.484  1.00  0.00     0.000 C 
BRANCH   6   7
ATOM      7  C   UNL     1      47.199  34.177  15.452  1.00  0.00     0.000 C 
BRANCH   7   8
ATOM      8  C   UNL     1      47.438  33.736  16.906  1.00  0.00     0.000 C 
BRANCH   8   9
ATOM      9  C   UNL     1      48.930  33.736  17.282  1.00  0.00     0.000 C 
BRANCH   9  10
ATOM     10  C   UNL     1      49.421  32.359  17.769  1.00  0.00     0.006 C 
BRANCH  10  11
ATOM     11  C   UNL     1      48.320  31.290  17.856  1.00  0.00     0.053 C 
BRANCH  11  12
ATOM     12  C   UNL     1      48.523  30.190  16.858  1.00  0.00     0.041 C 
ATOM     13  O   UNL     1      48.092  29.031  17.096  1.00  0.00    -0.550 OA
ATOM     14  O   UNL     1      49.153  30.457  15.650  1.00  0.00    -0.550 OA
ENDBRANCH  11  12
ENDBRANCH  10  11
ENDBRANCH   9  10
ENDBRANCH   8   9
ENDBRANCH   7   8
ENDBRANCH   6   7
ENDBRANCH   5   6
ENDBRANCH   4   5
ENDBRANCH   3   4
ENDBRANCH   2   3
ENDBRANCH   1   2
BRANCH   1  15
ATOM     15  C   UNL     1      42.653  36.300  11.739  1.00  0.00     0.000 C 
BRANCH  15  16
ATOM     16  C   UNL     1      42.111  37.324  10.725  1.00  0.00     0.000 C 
BRANCH  16  17
ATOM     17  C   UNL     1      42.759  38.714  10.876  1.00  0.00     0.000 C 
BRANCH  17  18
ATOM     18  C   UNL     1      41.858  39.763  11.559  1.00  0.00    -0.000 C 
BRANCH  18  19
ATOM     19  C   UNL     1      40.887  39.164  12.599  1.00  0.00    -0.000 C 
BRANCH  19  20
ATOM     20  C   UNL     1      39.535  39.899  12.696  1.00  0.00    -0.000 C 
BRANCH  20  21
ATOM     21  C   UNL     1      38.363  39.149  12.033  1.00  0.00    -0.000 C 
BRANCH  21  22
ATOM     22  C   UNL     1      38.633  38.824  10.553  1.00  0.00    -0.000 C 
BRANCH  22  23
ATOM     23  C   UNL     1      38.482  37.327  10.234  1.00  0.00    -0.000 C 
BRANCH  23  24
ATOM     24  C   UNL     1      38.377  36.409  11.466  1.00  0.00    -0.000 C 
BRANCH  24  25
ATOM     25  C   UNL     1      38.370  34.918  11.100  1.00  0.00    -0.003 C 
ATOM     26  C   UNL     1      39.689  34.253  11.480  1.00  0.00     0.004 C 
ENDBRANCH  24  25
ENDBRANCH  23  24
ENDBRANCH  22  23
ENDBRANCH  21  22
ENDBRANCH  20  21
ENDBRANCH  19  20
ENDBRANCH  18  19
ENDBRANCH  17  18
ENDBRANCH  16  17
ENDBRANCH  15  16
ENDBRANCH   1  15
TORSDOF 22
ENDMDL
MODEL 5
REMARK VINA RESULT:    -5.464      2.634      5.107
REMARK INTER + INTRA:         -14.640
REMARK INTER:                 -12.915
REMARK INTRA:                  -1.725
REMARK UNBOUND:                -2.148
REMARK SMILES CCCCCCCCCCCCCCCCCCCCCCCC(=O)[O-]
REMARK SMILES IDX 13 1 14 2 15 3 16 4 17 5 18 6 19 7 20 8 21 9 22 10 23 11
REMARK SMILES IDX 24 12 25 13 26 14 12 15 11 16 10 17 9 18 8 19 7 20 6 21 5 22
REMARK SMILES IDX 4 23 3 24 2 25 1 26
REMARK H PARENT
REMARK Flexibility Score: inf
ROOT
ATOM      1  C   UNL     1      48.239  31.845  18.225  1.00  0.00     0.000 C 
ENDROOT
BRANCH   1   2
ATOM      2  C   UNL     1      48.314  30.384  17.749  1.00  0.00     0.000 C 
BRANCH   2   3
ATOM      3  C   UNL     1      48.913  30.245  16.337  1.00  0.00     0.000 C 
BRANCH   3   4
ATOM      4  C   UNL     1      48.254  29.168  15.452  1.00  0.00     0.000 C 
BRANCH   4   5
ATOM      5  C   UNL     1      48.079  27.789  16.117  1.00  0.00     0.000 C 
BRANCH   5   6
ATOM      6  C   UNL     1      49.026  26.691  15.600  1.00  0.00     0.000 C 
BRANCH   6   7
ATOM      7  C   UNL     1      49.332  25.621  16.662  1.00  0.00     0.000 C 
BRANCH   7   8
ATOM      8  C   UNL     1      48.876  26.040  18.070  1.00  0.00     0.000 C 
BRANCH   8   9
ATOM      9  C   UNL     1      49.517  25.183  19.174  1.00  0.00     0.000 C 
BRANCH   9  10
ATOM     10  C   UNL     1      48.716  25.212  20.490  1.00  0.00     0.006 C 
BRANCH  10  11
ATOM     11  C   UNL     1      49.585  25.245  21.758  1.00  0.00     0.053 C 
BRANCH  11  12
ATOM     12  C   UNL     1      49.777  26.640  22.272  1.00  0.00     0.041 C 
ATOM     13  O   UNL     1      50.904  27.009  22.696  1.00  0.00    -0.550 OA
ATOM     14  O   UNL     1      48.721  27.542  22.246  1.00  0.00    -0.550 OA
ENDBRANCH  11  12
ENDBRANCH  10  11
ENDBRANCH   9  10
ENDBRANCH   8   9
ENDBRANCH   7   8
ENDBRANCH   6   7
ENDBRANCH   5   6
ENDBRANCH   4   5
ENDBRANCH   3   4
ENDBRANCH   2   3
ENDBRANCH   1   2
BRANCH   1  15
ATOM     15  C   UNL     1      49.193  32.764  17.444  1.00  0.00     0.000 C 
BRANCH  15  16
ATOM     16  C   UNL     1      48.520  34.080  17.013  1.00  0.00     0.000 C 
BRANCH  16  17
ATOM     17  C   UNL     1      47.475  33.879  15.898  1.00  0.00     0.000 C 
BRANCH  17  18
ATOM     18  C   UNL     1      48.040  33.261  14.604  1.00  0.00    -0.000 C 
BRANCH  18  19
ATOM     19  C   UNL     1      48.625  34.299  13.623  1.00  0.00    -0.000 C 
BRANCH  19  20
ATOM     20  C   UNL     1      48.071  34.195  12.188  1.00  0.00    -0.000 C 
BRANCH  20  21
ATOM     21  C   UNL     1      46.578  34.556  12.065  1.00  0.00    -0.000 C 
BRANCH  21  22
ATOM     22  C   UNL     1      46.193  35.779  12.916  1.00  0.00    -0.000 C 
BRANCH  22  23
ATOM     23  C   UNL     1      44.690  35.837  13.234  1.00  0.00    -0.000 C 
BRANCH  23  24
ATOM     24  C   UNL     1      43.833  36.571  12.186  1.00  0.00    -0.000 C 
BRANCH  24  25
ATOM     25  C   UNL     1      42.379  36.768  12.637  1.00  0.00    -0.003 C 
ATOM     26  C   UNL     1      41.404  36.162  11.631  1.00  0.00     0.004 C 
ENDBRANCH  24  25
ENDBRANCH  23  24
ENDBRANCH  22  23
ENDBRANCH  21  22
ENDBRANCH  20  21
ENDBRANCH  19  20
ENDBRANCH  18  19
ENDBRANCH  17  18
ENDBRANCH  16  17
ENDBRANCH  15  16
ENDBRANCH   1  15
TORSDOF 22
ENDMDL
MODEL 6
REMARK VINA RESULT:    -5.343      1.507      3.441
REMARK INTER + INTRA:         -14.362
REMARK INTER:                 -11.716
REMARK INTRA:                  -2.646
REMARK UNBOUND:                -2.148
REMARK SMILES CCCCCCCCCCCCCCCCCCCCCCCC(=O)[O-]
REMARK SMILES IDX 13 1 14 2 15 3 16 4 17 5 18 6 19 7 20 8 21 9 22 10 23 11
REMARK SMILES IDX 24 12 25 13 26 14 12 15 11 16 10 17 9 18 8 19 7 20 6 21 5 22
REMARK SMILES IDX 4 23 3 24 2 25 1 26
REMARK H PARENT
REMARK Flexibility Score: inf
ROOT
ATOM      1  C   UNL     1      48.895  25.938  18.718  1.00  0.00     0.000 C 
ENDROOT
BRANCH   1   2
ATOM      2  C   UNL     1      48.890  25.048  19.973  1.00  0.00     0.000 C 
BRANCH   2   3
ATOM      3  C   UNL     1      48.023  25.620  21.110  1.00  0.00     0.000 C 
BRANCH   3   4
ATOM      4  C   UNL     1      48.384  27.054  21.546  1.00  0.00     0.000 C 
BRANCH   4   5
ATOM      5  C   UNL     1      49.339  27.153  22.752  1.00  0.00     0.000 C 
BRANCH   5   6
ATOM      6  C   UNL     1      50.563  26.221  22.693  1.00  0.00     0.000 C 
BRANCH   6   7
ATOM      7  C   UNL     1      51.861  26.966  22.336  1.00  0.00     0.000 C 
BRANCH   7   8
ATOM      8  C   UNL     1      53.034  26.008  22.067  1.00  0.00     0.000 C 
BRANCH   8   9
ATOM      9  C   UNL     1      52.877  25.245  20.741  1.00  0.00     0.000 C 
BRANCH   9  10
ATOM     10  C   UNL     1      52.628  26.179  19.542  1.00  0.00     0.006 C 
BRANCH  10  11
ATOM     11  C   UNL     1      53.848  27.023  19.135  1.00  0.00     0.053 C 
BRANCH  11  12
ATOM     12  C   UNL     1      53.540  28.490  19.129  1.00  0.00     0.041 C 
ATOM     13  O   UNL     1      53.178  29.058  18.065  1.00  0.00    -0.550 OA
ATOM     14  O   UNL     1      53.617  29.220  20.308  1.00  0.00    -0.550 OA
ENDBRANCH  11  12
ENDBRANCH  10  11
ENDBRANCH   9  10
ENDBRANCH   8   9
ENDBRANCH   7   8
ENDBRANCH   6   7
ENDBRANCH   5   6
ENDBRANCH   4   5
ENDBRANCH   3   4
ENDBRANCH   2   3
ENDBRANCH   1   2
BRANCH   1  15
ATOM     15  C   UNL     1      49.643  25.286  17.544  1.00  0.00     0.000 C 
BRANCH  15  16
ATOM     16  C   UNL     1      49.390  26.013  16.210  1.00  0.00     0.000 C 
BRANCH  16  17
ATOM     17  C   UNL     1      50.683  26.553  15.569  1.00  0.00     0.000 C 
BRANCH  17  18
ATOM     18  C   UNL     1      50.767  28.091  15.511  1.00  0.00    -0.000 C 
BRANCH  18  19
ATOM     19  C   UNL     1      50.212  28.792  16.770  1.00  0.00    -0.000 C 
BRANCH  19  20
ATOM     20  C   UNL     1      49.257  29.965  16.470  1.00  0.00    -0.000 C 
BRANCH  20  21
ATOM     21  C   UNL     1      48.075  30.079  17.454  1.00  0.00    -0.000 C 
BRANCH  21  22
ATOM     22  C   UNL     1      47.954  31.485  18.069  1.00  0.00    -0.000 C 
BRANCH  22  23
ATOM     23  C   UNL     1      49.159  32.385  17.747  1.00  0.00    -0.000 C 
BRANCH  23  24
ATOM     24  C   UNL     1      48.799  33.814  17.300  1.00  0.00    -0.000 C 
BRANCH  24  25
ATOM     25  C   UNL     1      47.604  33.854  16.336  1.00  0.00    -0.003 C 
ATOM     26  C   UNL     1      48.069  33.806  14.884  1.00  0.00     0.004 C 
ENDBRANCH  24  25
ENDBRANCH  23  24
ENDBRANCH  22  23
ENDBRANCH  21  22
ENDBRANCH  20  21
ENDBRANCH  19  20
ENDBRANCH  18  19
ENDBRANCH  17  18
ENDBRANCH  16  17
ENDBRANCH  15  16
ENDBRANCH   1  15
TORSDOF 22
ENDMDL
MODEL 7
REMARK VINA RESULT:    -5.300      2.601      4.063
REMARK INTER + INTRA:         -14.266
REMARK INTER:                 -12.786
REMARK INTRA:                  -1.479
REMARK UNBOUND:                -2.148
REMARK SMILES CCCCCCCCCCCCCCCCCCCCCCCC(=O)[O-]
REMARK SMILES IDX 13 1 14 2 15 3 16 4 17 5 18 6 19 7 20 8 21 9 22 10 23 11
REMARK SMILES IDX 24 12 25 13 26 14 12 15 11 16 10 17 9 18 8 19 7 20 6 21 5 22
REMARK SMILES IDX 4 23 3 24 2 25 1 26
REMARK H PARENT
REMARK Flexibility Score: inf
ROOT
ATOM      1  C   UNL     1      47.803  30.443  16.792  1.00  0.00     0.000 C 
ENDROOT
BRANCH   1   2
ATOM      2  C   UNL     1      47.614  28.955  16.450  1.00  0.00     0.000 C 
BRANCH   2   3
ATOM      3  C   UNL     1      48.881  28.311  15.857  1.00  0.00     0.000 C 
BRANCH   3   4
ATOM      4  C   UNL     1      48.878  26.769  15.831  1.00  0.00     0.000 C 
BRANCH   4   5
ATOM      5  C   UNL     1      48.115  26.094  16.987  1.00  0.00     0.000 C 
BRANCH   5   6
ATOM      6  C   UNL     1      49.004  25.472  18.080  1.00  0.00     0.000 C 
BRANCH   6   7
ATOM      7  C   UNL     1      49.082  26.339  19.348  1.00  0.00     0.000 C 
BRANCH   7   8
ATOM      8  C   UNL     1      48.603  25.591  20.604  1.00  0.00     0.000 C 
BRANCH   8   9
ATOM      9  C   UNL     1      48.465  26.518  21.823  1.00  0.00     0.000 C 
BRANCH   9  10
ATOM     10  C   UNL     1      49.803  26.746  22.551  1.00  0.00     0.006 C 
BRANCH  10  11
ATOM     11  C   UNL     1      50.835  25.626  22.342  1.00  0.00     0.053 C 
BRANCH  11  12
ATOM     12  C   UNL     1      52.209  26.167  22.085  1.00  0.00     0.041 C 
ATOM     13  O   UNL     1      53.165  25.858  22.845  1.00  0.00    -0.550 OA
ATOM     14  O   UNL     1      52.440  26.980  20.983  1.00  0.00    -0.550 OA
ENDBRANCH  11  12
ENDBRANCH  10  11
ENDBRANCH   9  10
ENDBRANCH   8   9
ENDBRANCH   7   8
ENDBRANCH   6   7
ENDBRANCH   5   6
ENDBRANCH   4   5
ENDBRANCH   3   4
ENDBRANCH   2   3
ENDBRANCH   1   2
BRANCH   1  15
ATOM     15  C   UNL     1      49.285  30.822  16.947  1.00  0.00     0.000 C 
BRANCH  15  16
ATOM     16  C   UNL     1      49.476  32.150  17.704  1.00  0.00     0.000 C 
BRANCH  16  17
ATOM     17  C   UNL     1      48.195  33.006  17.740  1.00  0.00     0.000 C 
BRANCH  17  18
ATOM     18  C   UNL     1      48.145  34.118  16.673  1.00  0.00    -0.000 C 
BRANCH  18  19
ATOM     19  C   UNL     1      46.907  34.042  15.753  1.00  0.00    -0.000 C 
BRANCH  19  20
ATOM     20  C   UNL     1      45.746  34.961  16.181  1.00  0.00    -0.000 C 
BRANCH  20  21
ATOM     21  C   UNL     1      44.805  35.362  15.029  1.00  0.00    -0.000 C 
BRANCH  21  22
ATOM     22  C   UNL     1      45.524  35.411  13.669  1.00  0.00    -0.000 C 
BRANCH  22  23
ATOM     23  C   UNL     1      44.770  36.252  12.625  1.00  0.00    -0.000 C 
BRANCH  23  24
ATOM     24  C   UNL     1      43.284  36.501  12.943  1.00  0.00    -0.000 C 
BRANCH  24  25
ATOM     25  C   UNL     1      42.487  36.990  11.726  1.00  0.00    -0.003 C 
ATOM     26  C   UNL     1      41.812  35.825  11.007  1.00  0.00     0.004 C 
ENDBRANCH  24  25
ENDBRANCH  23  24
ENDBRANCH  22  23
ENDBRANCH  21  22
ENDBRANCH  20  21
ENDBRANCH  19  20
ENDBRANCH  18  19
ENDBRANCH  17  18
ENDBRANCH  16  17
ENDBRANCH  15  16
ENDBRANCH   1  15
TORSDOF 22
ENDMDL
MODEL 8
REMARK VINA RESULT:    -5.245      6.765     12.539
REMARK INTER + INTRA:         -14.139
REMARK INTER:                 -12.304
REMARK INTRA:                  -1.835
REMARK UNBOUND:                -2.148
REMARK SMILES CCCCCCCCCCCCCCCCCCCCCCCC(=O)[O-]
REMARK SMILES IDX 13 1 14 2 15 3 16 4 17 5 18 6 19 7 20 8 21 9 22 10 23 11
REMARK SMILES IDX 24 12 25 13 26 14 12 15 11 16 10 17 9 18 8 19 7 20 6 21 5 22
REMARK SMILES IDX 4 23 3 24 2 25 1 26
REMARK H PARENT
REMARK Flexibility Score: inf
ROOT
ATOM      1  C   UNL     1      46.636  35.516  12.503  1.00  0.00     0.000 C 
ENDROOT
BRANCH   1   2
ATOM      2  C   UNL     1      45.155  35.369  12.890  1.00  0.00     0.000 C 
BRANCH   2   3
ATOM      3  C   UNL     1      44.324  36.624  12.565  1.00  0.00     0.000 C 
BRANCH   3   4
ATOM      4  C   UNL     1      42.843  36.355  12.226  1.00  0.00     0.000 C 
BRANCH   4   5
ATOM      5  C   UNL     1      42.322  37.059  10.958  1.00  0.00     0.000 C 
BRANCH   5   6
ATOM      6  C   UNL     1      41.064  36.428  10.333  1.00  0.00     0.000 C 
BRANCH   6   7
ATOM      7  C   UNL     1      40.726  35.054  10.934  1.00  0.00     0.000 C 
BRANCH   7   8
ATOM      8  C   UNL     1      39.463  35.088  11.810  1.00  0.00     0.000 C 
BRANCH   8   9
ATOM      9  C   UNL     1      38.603  36.337  11.551  1.00  0.00     0.000 C 
BRANCH   9  10
ATOM     10  C   UNL     1      38.346  37.158  12.829  1.00  0.00     0.006 C 
BRANCH  10  11
ATOM     11  C   UNL     1      39.574  37.927  13.344  1.00  0.00     0.053 C 
BRANCH  11  12
ATOM     12  C   UNL     1      39.818  37.685  14.803  1.00  0.00     0.041 C 
ATOM     13  O   UNL     1      38.848  37.578  15.599  1.00  0.00    -0.550 OA
ATOM     14  O   UNL     1      41.116  37.540  15.276  1.00  0.00    -0.550 OA
ENDBRANCH  11  12
ENDBRANCH  10  11
ENDBRANCH   9  10
ENDBRANCH   8   9
ENDBRANCH   7   8
ENDBRANCH   6   7
ENDBRANCH   5   6
ENDBRANCH   4   5
ENDBRANCH   3   4
ENDBRANCH   2   3
ENDBRANCH   1   2
BRANCH   1  15
ATOM     15  C   UNL     1      47.190  34.251  11.826  1.00  0.00     0.000 C 
BRANCH  15  16
ATOM     16  C   UNL     1      48.173  33.483  12.731  1.00  0.00     0.000 C 
BRANCH  16  17
ATOM     17  C   UNL     1      48.523  34.252  14.019  1.00  0.00     0.000 C 
BRANCH  17  18
ATOM     18  C   UNL     1      47.771  33.765  15.273  1.00  0.00    -0.000 C 
BRANCH  18  19
ATOM     19  C   UNL     1      48.460  34.149  16.601  1.00  0.00    -0.000 C 
BRANCH  19  20
ATOM     20  C   UNL     1      48.396  33.054  17.685  1.00  0.00    -0.000 C 
BRANCH  20  21
ATOM     21  C   UNL     1      49.646  32.155  17.743  1.00  0.00    -0.000 C 
BRANCH  21  22
ATOM     22  C   UNL     1      49.442  30.812  17.018  1.00  0.00    -0.000 C 
BRANCH  22  23
ATOM     23  C   UNL     1      47.969  30.369  16.986  1.00  0.00    -0.000 C 
BRANCH  23  24
ATOM     24  C   UNL     1      47.630  29.327  15.904  1.00  0.00    -0.000 C 
BRANCH  24  25
ATOM     25  C   UNL     1      48.010  27.897  16.314  1.00  0.00    -0.003 C 
ATOM     26  C   UNL     1      49.205  27.394  15.510  1.00  0.00     0.004 C 
ENDBRANCH  24  25
ENDBRANCH  23  24
ENDBRANCH  22  23
ENDBRANCH  21  22
ENDBRANCH  20  21
ENDBRANCH  19  20
ENDBRANCH  18  19
ENDBRANCH  17  18
ENDBRANCH  16  17
ENDBRANCH  15  16
ENDBRANCH   1  15
TORSDOF 22
ENDMDL
MODEL 9
REMARK VINA RESULT:    -5.217      1.908      2.946
REMARK INTER + INTRA:         -14.075
REMARK INTER:                 -11.921
REMARK INTRA:                  -2.154
REMARK UNBOUND:                -2.148
REMARK SMILES CCCCCCCCCCCCCCCCCCCCCCCC(=O)[O-]
REMARK SMILES IDX 13 1 14 2 15 3 16 4 17 5 18 6 19 7 20 8 21 9 22 10 23 11
REMARK SMILES IDX 24 12 25 13 26 14 12 15 11 16 10 17 9 18 8 19 7 20 6 21 5 22
REMARK SMILES IDX 4 23 3 24 2 25 1 26
REMARK H PARENT
REMARK Flexibility Score: inf
ROOT
ATOM      1  C   UNL     1      48.240  26.746  16.627  1.00  0.00     0.000 C 
ENDROOT
BRANCH   1   2
ATOM      2  C   UNL     1      48.904  26.601  18.008  1.00  0.00     0.000 C 
BRANCH   2   3
ATOM      3  C   UNL     1      49.594  25.238  18.200  1.00  0.00     0.000 C 
BRANCH   3   4
ATOM      4  C   UNL     1      50.800  24.981  17.275  1.00  0.00     0.000 C 
BRANCH   4   5
ATOM      5  C   UNL     1      51.800  26.148  17.160  1.00  0.00     0.000 C 
BRANCH   5   6
ATOM      6  C   UNL     1      52.988  26.089  18.138  1.00  0.00     0.000 C 
BRANCH   6   7
ATOM      7  C   UNL     1      52.717  26.847  19.449  1.00  0.00     0.000 C 
BRANCH   7   8
ATOM      8  C   UNL     1      52.912  25.963  20.692  1.00  0.00     0.000 C 
BRANCH   8   9
ATOM      9  C   UNL     1      52.351  26.614  21.968  1.00  0.00     0.000 C 
BRANCH   9  10
ATOM     10  C   UNL     1      51.289  25.741  22.664  1.00  0.00     0.006 C 
BRANCH  10  11
ATOM     11  C   UNL     1      50.018  25.509  21.830  1.00  0.00     0.053 C 
BRANCH  11  12
ATOM     12  C   UNL     1      48.943  26.502  22.156  1.00  0.00     0.041 C 
ATOM     13  O   UNL     1      49.175  27.450  22.952  1.00  0.00    -0.550 OA
ATOM     14  O   UNL     1      47.698  26.401  21.549  1.00  0.00    -0.550 OA
ENDBRANCH  11  12
ENDBRANCH  10  11
ENDBRANCH   9  10
ENDBRANCH   8   9
ENDBRANCH   7   8
ENDBRANCH   6   7
ENDBRANCH   5   6
ENDBRANCH   4   5
ENDBRANCH   3   4
ENDBRANCH   2   3
ENDBRANCH   1   2
BRANCH   1  15
ATOM     15  C   UNL     1      48.795  27.941  15.835  1.00  0.00     0.000 C 
BRANCH  15  16
ATOM     16  C   UNL     1      47.773  29.085  15.704  1.00  0.00     0.000 C 
BRANCH  16  17
ATOM     17  C   UNL     1      47.780  30.034  16.918  1.00  0.00     0.000 C 
BRANCH  17  18
ATOM     18  C   UNL     1      49.185  30.494  17.356  1.00  0.00    -0.000 C 
BRANCH  18  19
ATOM     19  C   UNL     1      49.345  32.028  17.420  1.00  0.00    -0.000 C 
BRANCH  19  20
ATOM     20  C   UNL     1      48.049  32.811  17.128  1.00  0.00    -0.000 C 
BRANCH  20  21
ATOM     21  C   UNL     1      48.193  33.873  16.022  1.00  0.00    -0.000 C 
BRANCH  21  22
ATOM     22  C   UNL     1      48.203  33.259  14.611  1.00  0.00    -0.000 C 
BRANCH  22  23
ATOM     23  C   UNL     1      48.398  34.309  13.504  1.00  0.00    -0.000 C 
BRANCH  23  24
ATOM     24  C   UNL     1      48.608  33.730  12.092  1.00  0.00    -0.000 C 
BRANCH  24  25
ATOM     25  C   UNL     1      50.072  33.793  11.634  1.00  0.00    -0.003 C 
ATOM     26  C   UNL     1      50.193  33.500  10.141  1.00  0.00     0.004 C 
ENDBRANCH  24  25
ENDBRANCH  23  24
ENDBRANCH  22  23
ENDBRANCH  21  22
ENDBRANCH  20  21
ENDBRANCH  19  20
ENDBRANCH  18  19
ENDBRANCH  17  18
ENDBRANCH  16  17
ENDBRANCH  15  16
ENDBRANCH   1  15
TORSDOF 22
ENDMDL
