MODEL 1
REMARK VINA RESULT:    -5.146      0.000      0.000
REMARK INTER + INTRA:         -11.178
REMARK INTER:                  -9.959
REMARK INTRA:                  -1.220
REMARK UNBOUND:                -1.220
REMARK SMILES CCCCCCCCCCCCCCCCCC(=O)[O-]
REMARK SMILES IDX 10 1 11 2 12 3 13 4 14 5 15 6 16 7 17 8 18 9 19 10 20 11
REMARK SMILES IDX 9 12 8 13 7 14 6 15 5 16 4 17 3 18 2 19 1 20
REMARK H PARENT
REMARK Flexibility Score: inf
ROOT
ATOM      1  C   UNL     1      12.149  -8.629   3.616  1.00  0.00     0.000 C 
ENDROOT
BRANCH   1   2
ATOM      2  C   UNL     1      12.502  -8.475   2.129  1.00  0.00     0.000 C 
BRANCH   2   3
ATOM      3  C   UNL     1      13.049  -9.772   1.513  1.00  0.00     0.000 C 
BRANCH   3   4
ATOM      4  C   UNL     1      13.311  -9.643   0.002  1.00  0.00     0.000 C 
BRANCH   4   5
ATOM      5  C   UNL     1      14.003  -8.322  -0.369  1.00  0.00     0.000 C 
BRANCH   5   6
ATOM      6  C   UNL     1      14.346  -8.236  -1.866  1.00  0.00     0.000 C 
BRANCH   6   7
ATOM      7  C   UNL     1      13.692  -7.026  -2.553  1.00  0.00     0.006 C 
BRANCH   7   8
ATOM      8  C   UNL     1      12.161  -7.116  -2.577  1.00  0.00     0.053 C 
BRANCH   8   9
ATOM      9  C   UNL     1      11.722  -8.315  -3.357  1.00  0.00     0.041 C 
ATOM     10  O   UNL     1      11.039  -9.218  -2.804  1.00  0.00    -0.550 OA
ATOM     11  O   UNL     1      12.109  -8.462  -4.683  1.00  0.00    -0.550 OA
ENDBRANCH   8   9
ENDBRANCH   7   8
ENDBRANCH   6   7
ENDBRANCH   5   6
ENDBRANCH   4   5
ENDBRANCH   3   4
ENDBRANCH   2   3
ENDBRANCH   1   2
BRANCH   1  12
ATOM     12  C   UNL     1      13.170  -9.526   4.332  1.00  0.00     0.000 C 
BRANCH  12  13
ATOM     13  C   UNL     1      12.513 -10.648   5.157  1.00  0.00    -0.000 C 
BRANCH  13  14
ATOM     14  C   UNL     1      11.006 -10.844   4.912  1.00  0.00    -0.000 C 
BRANCH  14  15
ATOM     15  C   UNL     1      10.655 -12.267   4.445  1.00  0.00    -0.000 C 
BRANCH  15  16
ATOM     16  C   UNL     1       9.264 -12.718   4.920  1.00  0.00    -0.000 C 
BRANCH  16  17
ATOM     17  C   UNL     1       8.893 -12.148   6.298  1.00  0.00    -0.000 C 
BRANCH  17  18
ATOM     18  C   UNL     1       8.023 -13.142   7.083  1.00  0.00    -0.000 C 
BRANCH  18  19
ATOM     19  C   UNL     1       8.619 -14.558   7.109  1.00  0.00    -0.003 C 
ATOM     20  C   UNL     1       7.716 -15.592   6.439  1.00  0.00     0.004 C 
ENDBRANCH  18  19
ENDBRANCH  17  18
ENDBRANCH  16  17
ENDBRANCH  15  16
ENDBRANCH  14  15
ENDBRANCH  13  14
ENDBRANCH  12  13
ENDBRANCH   1  12
TORSDOF 16
ENDMDL
MODEL 2
REMARK VINA RESULT:    -5.103      2.660      4.213
REMARK INTER + INTRA:         -11.097
REMARK INTER:                  -9.508
REMARK INTRA:                  -1.589
REMARK UNBOUND:                -1.220
REMARK SMILES CCCCCCCCCCCCCCCCCC(=O)[O-]
REMARK SMILES IDX 10 1 11 2 12 3 13 4 14 5 15 6 16 7 17 8 18 9 19 10 20 11
REMARK SMILES IDX 9 12 8 13 7 14 6 15 5 16 4 17 3 18 2 19 1 20
REMARK H PARENT
REMARK Flexibility Score: inf
ROOT
ATOM      1  C   UNL     1      12.728  -8.749   0.104  1.00  0.00     0.000 C 
ENDROOT
BRANCH   1   2
ATOM      2  C   UNL     1      14.072  -8.251  -0.447  1.00  0.00     0.000 C 
BRANCH   2   3
ATOM      3  C   UNL     1      14.148  -8.329  -1.981  1.00  0.00     0.000 C 
BRANCH   3   4
ATOM      4  C   UNL     1      13.403  -7.171  -2.669  1.00  0.00     0.000 C 
BRANCH   4   5
ATOM      5  C   UNL     1      12.188  -7.647  -3.480  1.00  0.00     0.000 C 
BRANCH   5   6
ATOM      6  C   UNL     1      12.450  -8.975  -4.212  1.00  0.00     0.000 C 
BRANCH   6   7
ATOM      7  C   UNL     1      11.611  -9.118  -5.492  1.00  0.00     0.006 C 
BRANCH   7   8
ATOM      8  C   UNL     1      12.447  -9.555  -6.702  1.00  0.00     0.053 C 
BRANCH   8   9
ATOM      9  C   UNL     1      11.555  -9.971  -7.829  1.00  0.00     0.041 C 
ATOM     10  O   UNL     1      11.970 -10.778  -8.703  1.00  0.00    -0.550 OA
ATOM     11  O   UNL     1      10.281  -9.430  -7.943  1.00  0.00    -0.550 OA
ENDBRANCH   8   9
ENDBRANCH   7   8
ENDBRANCH   6   7
ENDBRANCH   5   6
ENDBRANCH   4   5
ENDBRANCH   3   4
ENDBRANCH   2   3
ENDBRANCH   1   2
BRANCH   1  12
ATOM     12  C   UNL     1      12.840  -9.088   1.598  1.00  0.00     0.000 C 
BRANCH  12  13
ATOM     13  C   UNL     1      12.085  -8.095   2.500  1.00  0.00    -0.000 C 
BRANCH  13  14
ATOM     14  C   UNL     1      12.300  -8.289   4.012  1.00  0.00    -0.000 C 
BRANCH  14  15
ATOM     15  C   UNL     1      13.200  -9.493   4.339  1.00  0.00    -0.000 C 
BRANCH  15  16
ATOM     16  C   UNL     1      12.574 -10.432   5.384  1.00  0.00    -0.000 C 
BRANCH  16  17
ATOM     17  C   UNL     1      11.229 -11.017   4.926  1.00  0.00    -0.000 C 
BRANCH  17  18
ATOM     18  C   UNL     1      11.414 -11.908   3.689  1.00  0.00    -0.000 C 
BRANCH  18  19
ATOM     19  C   UNL     1      10.301 -11.713   2.648  1.00  0.00    -0.003 C 
ATOM     20  C   UNL     1       9.366 -10.555   2.993  1.00  0.00     0.004 C 
ENDBRANCH  18  19
ENDBRANCH  17  18
ENDBRANCH  16  17
ENDBRANCH  15  16
ENDBRANCH  14  15
ENDBRANCH  13  14
ENDBRANCH  12  13
ENDBRANCH   1  12
TORSDOF 16
ENDMDL
MODEL 3
REMARK VINA RESULT:    -5.081      8.614     12.351
REMARK INTER + INTRA:         -11.053
REMARK INTER:                  -8.625
REMARK INTRA:                  -2.429
REMARK UNBOUND:                -1.220
REMARK SMILES CCCCCCCCCCCCCCCCCC(=O)[O-]
REMARK SMILES IDX 10 1 11 2 12 3 13 4 14 5 15 6 16 7 17 8 18 9 19 10 20 11
REMARK SMILES IDX 9 12 8 13 7 14 6 15 5 16 4 17 3 18 2 19 1 20
REMARK H PARENT
REMARK Flexibility Score: inf
ROOT
ATOM      1  C   UNL     1       8.793 -12.765  -5.752  1.00  0.00     0.000 C 
ENDROOT
BRANCH   1   2
ATOM      2  C   UNL     1       8.731 -13.720  -6.953  1.00  0.00     0.000 C 
BRANCH   2   3
ATOM      3  C   UNL     1       7.746 -13.247  -8.034  1.00  0.00     0.000 C 
BRANCH   3   4
ATOM      4  C   UNL     1       7.455 -14.334  -9.084  1.00  0.00     0.000 C 
BRANCH   4   5
ATOM      5  C   UNL     1       6.319 -15.279  -8.660  1.00  0.00     0.000 C 
BRANCH   5   6
ATOM      6  C   UNL     1       5.165 -14.539  -7.963  1.00  0.00     0.000 C 
BRANCH   6   7
ATOM      7  C   UNL     1       4.702 -15.244  -6.678  1.00  0.00     0.006 C 
BRANCH   7   8
ATOM      8  C   UNL     1       5.839 -15.997  -5.975  1.00  0.00     0.053 C 
BRANCH   8   9
ATOM      9  C   UNL     1       5.311 -16.756  -4.798  1.00  0.00     0.041 C 
ATOM     10  O   UNL     1       5.647 -16.428  -3.629  1.00  0.00    -0.550 OA
ATOM     11  O   UNL     1       4.487 -17.857  -4.993  1.00  0.00    -0.550 OA
ENDBRANCH   8   9
ENDBRANCH   7   8
ENDBRANCH   6   7
ENDBRANCH   5   6
ENDBRANCH   4   5
ENDBRANCH   3   4
ENDBRANCH   2   3
ENDBRANCH   1   2
BRANCH   1  12
ATOM     12  C   UNL     1       7.830 -11.583  -5.939  1.00  0.00     0.000 C 
BRANCH  12  13
ATOM     13  C   UNL     1       8.451 -10.231  -5.543  1.00  0.00    -0.000 C 
BRANCH  13  14
ATOM     14  C   UNL     1       8.523  -9.187  -6.671  1.00  0.00    -0.000 C 
BRANCH  14  15
ATOM     15  C   UNL     1       9.045  -9.771  -7.995  1.00  0.00    -0.000 C 
BRANCH  15  16
ATOM     16  C   UNL     1      10.564  -9.596  -8.159  1.00  0.00    -0.000 C 
BRANCH  16  17
ATOM     17  C   UNL     1      11.336 -10.912  -7.980  1.00  0.00    -0.000 C 
BRANCH  17  18
ATOM     18  C   UNL     1      11.954 -10.996  -6.576  1.00  0.00    -0.000 C 
BRANCH  18  19
ATOM     19  C   UNL     1      12.130  -9.616  -5.924  1.00  0.00    -0.003 C 
ATOM     20  C   UNL     1      12.801  -9.690  -4.553  1.00  0.00     0.004 C 
ENDBRANCH  18  19
ENDBRANCH  17  18
ENDBRANCH  16  17
ENDBRANCH  15  16
ENDBRANCH  14  15
ENDBRANCH  13  14
ENDBRANCH  12  13
ENDBRANCH   1  12
TORSDOF 16
ENDMDL
MODEL 4
REMARK VINA RESULT:    -5.063      3.186      6.450
REMARK INTER + INTRA:         -11.018
REMARK INTER:                  -9.649
REMARK INTRA:                  -1.369
REMARK UNBOUND:                -1.220
REMARK SMILES CCCCCCCCCCCCCCCCCC(=O)[O-]
REMARK SMILES IDX 10 1 11 2 12 3 13 4 14 5 15 6 16 7 17 8 18 9 19 10 20 11
REMARK SMILES IDX 9 12 8 13 7 14 6 15 5 16 4 17 3 18 2 19 1 20
REMARK H PARENT
REMARK Flexibility Score: inf
ROOT
ATOM      1  C   UNL     1      12.669  -7.682  -3.259  1.00  0.00     0.000 C 
ENDROOT
BRANCH   1   2
ATOM      2  C   UNL     1      11.811  -8.551  -4.191  1.00  0.00     0.000 C 
BRANCH   2   3
ATOM      3  C   UNL     1      12.364  -9.977  -4.345  1.00  0.00     0.000 C 
BRANCH   3   4
ATOM      4  C   UNL     1      12.123 -10.555  -5.751  1.00  0.00     0.000 C 
BRANCH   4   5
ATOM      5  C   UNL     1      12.187  -9.483  -6.851  1.00  0.00     0.000 C 
BRANCH   5   6
ATOM      6  C   UNL     1      11.523  -9.942  -8.161  1.00  0.00     0.000 C 
BRANCH   6   7
ATOM      7  C   UNL     1      10.052 -10.345  -7.967  1.00  0.00     0.006 C 
BRANCH   7   8
ATOM      8  C   UNL     1       9.166  -9.164  -7.548  1.00  0.00     0.053 C 
BRANCH   8   9
ATOM      9  C   UNL     1       8.494  -9.455  -6.243  1.00  0.00     0.041 C 
ATOM     10  O   UNL     1       7.823  -8.561  -5.662  1.00  0.00    -0.550 OA
ATOM     11  O   UNL     1       8.650 -10.697  -5.642  1.00  0.00    -0.550 OA
ENDBRANCH   8   9
ENDBRANCH   7   8
ENDBRANCH   6   7
ENDBRANCH   5   6
ENDBRANCH   4   5
ENDBRANCH   3   4
ENDBRANCH   2   3
ENDBRANCH   1   2
BRANCH   1  12
ATOM     12  C   UNL     1      13.926  -8.439  -2.806  1.00  0.00     0.000 C 
BRANCH  12  13
ATOM     13  C   UNL     1      14.615  -7.791  -1.591  1.00  0.00    -0.000 C 
BRANCH  13  14
ATOM     14  C   UNL     1      13.885  -7.976  -0.248  1.00  0.00    -0.000 C 
BRANCH  14  15
ATOM     15  C   UNL     1      13.601  -9.452   0.080  1.00  0.00    -0.000 C 
BRANCH  15  16
ATOM     16  C   UNL     1      13.033  -9.643   1.496  1.00  0.00    -0.000 C 
BRANCH  16  17
ATOM     17  C   UNL     1      12.389  -8.365   2.055  1.00  0.00    -0.000 C 
BRANCH  17  18
ATOM     18  C   UNL     1      12.071  -8.523   3.550  1.00  0.00    -0.000 C 
BRANCH  18  19
ATOM     19  C   UNL     1      13.153  -9.312   4.305  1.00  0.00    -0.003 C 
ATOM     20  C   UNL     1      12.572 -10.414   5.190  1.00  0.00     0.004 C 
ENDBRANCH  18  19
ENDBRANCH  17  18
ENDBRANCH  16  17
ENDBRANCH  15  16
ENDBRANCH  14  15
ENDBRANCH  13  14
ENDBRANCH  12  13
ENDBRANCH   1  12
TORSDOF 16
ENDMDL
MODEL 5
REMARK VINA RESULT:    -5.059      9.497     14.104
REMARK INTER + INTRA:         -11.010
REMARK INTER:                  -9.807
REMARK INTRA:                  -1.203
REMARK UNBOUND:                -1.220
REMARK SMILES CCCCCCCCCCCCCCCCCC(=O)[O-]
REMARK SMILES IDX 10 1 11 2 12 3 13 4 14 5 15 6 16 7 17 8 18 9 19 10 20 11
REMARK SMILES IDX 9 12 8 13 7 14 6 15 5 16 4 17 3 18 2 19 1 20
REMARK H PARENT
REMARK Flexibility Score: inf
ROOT
ATOM      1  C   UNL     1       2.395 -18.251  -3.150  1.00  0.00     0.000 C 
ENDROOT
BRANCH   1   2
ATOM      2  C   UNL     1       2.422 -17.810  -1.679  1.00  0.00     0.000 C 
BRANCH   2   3
ATOM      3  C   UNL     1       3.823 -17.377  -1.217  1.00  0.00     0.000 C 
BRANCH   3   4
ATOM      4  C   UNL     1       3.943 -17.304   0.316  1.00  0.00     0.000 C 
BRANCH   4   5
ATOM      5  C   UNL     1       4.449 -18.618   0.934  1.00  0.00     0.000 C 
BRANCH   5   6
ATOM      6  C   UNL     1       3.570 -19.096   2.102  1.00  0.00     0.000 C 
BRANCH   6   7
ATOM      7  C   UNL     1       4.095 -18.624   3.468  1.00  0.00     0.006 C 
BRANCH   7   8
ATOM      8  C   UNL     1       3.417 -17.334   3.948  1.00  0.00     0.053 C 
BRANCH   8   9
ATOM      9  C   UNL     1       4.381 -16.191   3.906  1.00  0.00     0.041 C 
ATOM     10  O   UNL     1       5.357 -16.155   4.702  1.00  0.00    -0.550 OA
ATOM     11  O   UNL     1       4.176 -15.140   3.021  1.00  0.00    -0.550 OA
ENDBRANCH   8   9
ENDBRANCH   7   8
ENDBRANCH   6   7
ENDBRANCH   5   6
ENDBRANCH   4   5
ENDBRANCH   3   4
ENDBRANCH   2   3
ENDBRANCH   1   2
BRANCH   1  12
ATOM     12  C   UNL     1       3.766 -18.785  -3.588  1.00  0.00     0.000 C 
BRANCH  12  13
ATOM     13  C   UNL     1       4.279 -18.136  -4.887  1.00  0.00    -0.000 C 
BRANCH  13  14
ATOM     14  C   UNL     1       4.282 -16.597  -4.893  1.00  0.00    -0.000 C 
BRANCH  14  15
ATOM     15  C   UNL     1       5.218 -16.004  -5.959  1.00  0.00    -0.000 C 
BRANCH  15  16
ATOM     16  C   UNL     1       6.701 -16.283  -5.663  1.00  0.00    -0.000 C 
BRANCH  16  17
ATOM     17  C   UNL     1       7.594 -16.129  -6.904  1.00  0.00    -0.000 C 
BRANCH  17  18
ATOM     18  C   UNL     1       6.749 -16.118  -8.187  1.00  0.00    -0.000 C 
BRANCH  18  19
ATOM     19  C   UNL     1       6.964 -14.849  -9.025  1.00  0.00    -0.003 C 
ATOM     20  C   UNL     1       7.734 -13.766  -8.271  1.00  0.00     0.004 C 
ENDBRANCH  18  19
ENDBRANCH  17  18
ENDBRANCH  16  17
ENDBRANCH  15  16
ENDBRANCH  14  15
ENDBRANCH  13  14
ENDBRANCH  12  13
ENDBRANCH   1  12
TORSDOF 16
ENDMDL
MODEL 6
REMARK VINA RESULT:    -5.029      8.087     10.780
REMARK INTER + INTRA:         -10.953
REMARK INTER:                  -9.950
REMARK INTRA:                  -1.003
REMARK UNBOUND:                -1.220
REMARK SMILES CCCCCCCCCCCCCCCCCC(=O)[O-]
REMARK SMILES IDX 10 1 11 2 12 3 13 4 14 5 15 6 16 7 17 8 18 9 19 10 20 11
REMARK SMILES IDX 9 12 8 13 7 14 6 15 5 16 4 17 3 18 2 19 1 20
REMARK H PARENT
REMARK Flexibility Score: inf
ROOT
ATOM      1  C   UNL     1       8.289 -14.082  -8.004  1.00  0.00     0.000 C 
ENDROOT
BRANCH   1   2
ATOM      2  C   UNL     1       8.057 -12.648  -7.507  1.00  0.00     0.000 C 
BRANCH   2   3
ATOM      3  C   UNL     1       9.341 -11.803  -7.519  1.00  0.00     0.000 C 
BRANCH   3   4
ATOM      4  C   UNL     1       9.072 -10.325  -7.858  1.00  0.00     0.000 C 
BRANCH   4   5
ATOM      5  C   UNL     1      10.346  -9.569  -8.267  1.00  0.00     0.000 C 
BRANCH   5   6
ATOM      6  C   UNL     1      11.629 -10.282  -7.806  1.00  0.00     0.000 C 
BRANCH   6   7
ATOM      7  C   UNL     1      12.276  -9.602  -6.588  1.00  0.00     0.006 C 
BRANCH   7   8
ATOM      8  C   UNL     1      11.827 -10.220  -5.258  1.00  0.00     0.053 C 
BRANCH   8   9
ATOM      9  C   UNL     1      12.256  -9.359  -4.112  1.00  0.00     0.041 C 
ATOM     10  O   UNL     1      13.473  -9.285  -3.794  1.00  0.00    -0.550 OA
ATOM     11  O   UNL     1      11.308  -8.675  -3.362  1.00  0.00    -0.550 OA
ENDBRANCH   8   9
ENDBRANCH   7   8
ENDBRANCH   6   7
ENDBRANCH   5   6
ENDBRANCH   4   5
ENDBRANCH   3   4
ENDBRANCH   2   3
ENDBRANCH   1   2
BRANCH   1  12
ATOM     12  C   UNL     1       7.270 -14.459  -9.090  1.00  0.00     0.000 C 
BRANCH  12  13
ATOM     13  C   UNL     1       6.094 -15.294  -8.549  1.00  0.00    -0.000 C 
BRANCH  13  14
ATOM     14  C   UNL     1       4.892 -14.479  -8.039  1.00  0.00    -0.000 C 
BRANCH  14  15
ATOM     15  C   UNL     1       4.538 -14.788  -6.575  1.00  0.00    -0.000 C 
BRANCH  15  16
ATOM     16  C   UNL     1       5.247 -16.046  -6.048  1.00  0.00    -0.000 C 
BRANCH  16  17
ATOM     17  C   UNL     1       4.584 -16.618  -4.786  1.00  0.00    -0.000 C 
BRANCH  17  18
ATOM     18  C   UNL     1       3.928 -17.975  -5.080  1.00  0.00    -0.000 C 
BRANCH  18  19
ATOM     19  C   UNL     1       3.667 -18.794  -3.806  1.00  0.00    -0.003 C 
ATOM     20  C   UNL     1       2.429 -18.325  -3.044  1.00  0.00     0.004 C 
ENDBRANCH  18  19
ENDBRANCH  17  18
ENDBRANCH  16  17
ENDBRANCH  15  16
ENDBRANCH  14  15
ENDBRANCH  13  14
ENDBRANCH  12  13
ENDBRANCH   1  12
TORSDOF 16
ENDMDL
MODEL 7
REMARK VINA RESULT:    -5.010      9.810     13.056
REMARK INTER + INTRA:         -10.916
REMARK INTER:                  -8.695
REMARK INTRA:                  -2.221
REMARK UNBOUND:                -1.220
REMARK SMILES CCCCCCCCCCCCCCCCCC(=O)[O-]
REMARK SMILES IDX 10 1 11 2 12 3 13 4 14 5 15 6 16 7 17 8 18 9 19 10 20 11
REMARK SMILES IDX 9 12 8 13 7 14 6 15 5 16 4 17 3 18 2 19 1 20
REMARK H PARENT
REMARK Flexibility Score: inf
ROOT
ATOM      1  C   UNL     1       7.704 -13.321  -7.895  1.00  0.00     0.000 C 
ENDROOT
BRANCH   1   2
ATOM      2  C   UNL     1       7.511 -14.434  -8.936  1.00  0.00     0.000 C 
BRANCH   2   3
ATOM      3  C   UNL     1       6.196 -15.206  -8.739  1.00  0.00     0.000 C 
BRANCH   3   4
ATOM      4  C   UNL     1       5.145 -14.393  -7.963  1.00  0.00     0.000 C 
BRANCH   4   5
ATOM      5  C   UNL     1       4.508 -15.190  -6.813  1.00  0.00     0.000 C 
BRANCH   5   6
ATOM      6  C   UNL     1       5.172 -14.899  -5.455  1.00  0.00     0.000 C 
BRANCH   6   7
ATOM      7  C   UNL     1       5.657 -16.176  -4.751  1.00  0.00     0.006 C 
BRANCH   7   8
ATOM      8  C   UNL     1       4.857 -17.419  -5.161  1.00  0.00     0.053 C 
BRANCH   8   9
ATOM      9  C   UNL     1       4.339 -18.128  -3.949  1.00  0.00     0.041 C 
ATOM     10  O   UNL     1       5.133 -18.727  -3.176  1.00  0.00    -0.550 OA
ATOM     11  O   UNL     1       2.973 -18.170  -3.698  1.00  0.00    -0.550 OA
ENDBRANCH   8   9
ENDBRANCH   7   8
ENDBRANCH   6   7
ENDBRANCH   5   6
ENDBRANCH   4   5
ENDBRANCH   3   4
ENDBRANCH   2   3
ENDBRANCH   1   2
BRANCH   1  12
ATOM     12  C   UNL     1       8.594 -13.800  -6.738  1.00  0.00     0.000 C 
BRANCH  12  13
ATOM     13  C   UNL     1       8.483 -12.913  -5.485  1.00  0.00    -0.000 C 
BRANCH  13  14
ATOM     14  C   UNL     1       7.847 -11.530  -5.716  1.00  0.00    -0.000 C 
BRANCH  14  15
ATOM     15  C   UNL     1       8.862 -10.379  -5.609  1.00  0.00    -0.000 C 
BRANCH  15  16
ATOM     16  C   UNL     1       8.833  -9.451  -6.835  1.00  0.00    -0.000 C 
BRANCH  16  17
ATOM     17  C   UNL     1       9.565 -10.046  -8.047  1.00  0.00    -0.000 C 
BRANCH  17  18
ATOM     18  C   UNL     1      11.053  -9.664  -8.028  1.00  0.00    -0.000 C 
BRANCH  18  19
ATOM     19  C   UNL     1      11.972 -10.850  -8.360  1.00  0.00    -0.003 C 
ATOM     20  C   UNL     1      11.717 -12.064  -7.468  1.00  0.00     0.004 C 
ENDBRANCH  18  19
ENDBRANCH  17  18
ENDBRANCH  16  17
ENDBRANCH  15  16
ENDBRANCH  14  15
ENDBRANCH  13  14
ENDBRANCH  12  13
ENDBRANCH   1  12
TORSDOF 16
ENDMDL
MODEL 8
REMARK VINA RESULT:    -5.000      3.520      9.568
REMARK INTER + INTRA:         -10.896
REMARK INTER:                  -9.956
REMARK INTRA:                  -0.940
REMARK UNBOUND:                -1.220
REMARK SMILES CCCCCCCCCCCCCCCCCC(=O)[O-]
REMARK SMILES IDX 10 1 11 2 12 3 13 4 14 5 15 6 16 7 17 8 18 9 19 10 20 11
REMARK SMILES IDX 9 12 8 13 7 14 6 15 5 16 4 17 3 18 2 19 1 20
REMARK H PARENT
REMARK Flexibility Score: inf
ROOT
ATOM      1  C   UNL     1      13.518  -9.582   0.053  1.00  0.00     0.000 C 
ENDROOT
BRANCH   1   2
ATOM      2  C   UNL     1      13.199  -9.708   1.550  1.00  0.00     0.000 C 
BRANCH   2   3
ATOM      3  C   UNL     1      12.449  -8.484   2.100  1.00  0.00     0.000 C 
BRANCH   3   4
ATOM      4  C   UNL     1      12.418  -8.454   3.639  1.00  0.00     0.000 C 
BRANCH   4   5
ATOM      5  C   UNL     1      13.243  -9.586   4.272  1.00  0.00     0.000 C 
BRANCH   5   6
ATOM      6  C   UNL     1      12.431 -10.412   5.284  1.00  0.00     0.000 C 
BRANCH   6   7
ATOM      7  C   UNL     1      11.072 -10.863   4.723  1.00  0.00     0.006 C 
BRANCH   7   8
ATOM      8  C   UNL     1      10.799 -12.353   4.962  1.00  0.00     0.053 C 
BRANCH   8   9
ATOM      9  C   UNL     1       9.358 -12.570   5.302  1.00  0.00     0.041 C 
ATOM     10  O   UNL     1       8.605 -13.194   4.508  1.00  0.00    -0.550 OA
ATOM     11  O   UNL     1       8.832 -12.040   6.474  1.00  0.00    -0.550 OA
ENDBRANCH   8   9
ENDBRANCH   7   8
ENDBRANCH   6   7
ENDBRANCH   5   6
ENDBRANCH   4   5
ENDBRANCH   3   4
ENDBRANCH   2   3
ENDBRANCH   1   2
BRANCH   1  12
ATOM     12  C   UNL     1      13.731  -8.113  -0.341  1.00  0.00     0.000 C 
BRANCH  12  13
ATOM     13  C   UNL     1      14.212  -7.943  -1.794  1.00  0.00    -0.000 C 
BRANCH  13  14
ATOM     14  C   UNL     1      13.214  -7.247  -2.737  1.00  0.00    -0.000 C 
BRANCH  14  15
ATOM     15  C   UNL     1      12.082  -8.178  -3.203  1.00  0.00    -0.000 C 
BRANCH  15  16
ATOM     16  C   UNL     1      12.550  -9.196  -4.256  1.00  0.00    -0.000 C 
BRANCH  16  17
ATOM     17  C   UNL     1      11.926  -8.951  -5.638  1.00  0.00    -0.000 C 
BRANCH  17  18
ATOM     18  C   UNL     1      12.163 -10.153  -6.565  1.00  0.00    -0.000 C 
BRANCH  18  19
ATOM     19  C   UNL     1      11.678  -9.897  -8.000  1.00  0.00    -0.003 C 
ATOM     20  C   UNL     1      10.176  -9.624  -8.077  1.00  0.00     0.004 C 
ENDBRANCH  18  19
ENDBRANCH  17  18
ENDBRANCH  16  17
ENDBRANCH  15  16
ENDBRANCH  14  15
ENDBRANCH  13  14
ENDBRANCH  12  13
ENDBRANCH   1  12
TORSDOF 16
ENDMDL
MODEL 9
REMARK VINA RESULT:    -4.995      3.145      6.331
REMARK INTER + INTRA:         -10.887
REMARK INTER:                  -9.646
REMARK INTRA:                  -1.240
REMARK UNBOUND:                -1.220
REMARK SMILES CCCCCCCCCCCCCCCCCC(=O)[O-]
REMARK SMILES IDX 10 1 11 2 12 3 13 4 14 5 15 6 16 7 17 8 18 9 19 10 20 11
REMARK SMILES IDX 9 12 8 13 7 14 6 15 5 16 4 17 3 18 2 19 1 20
REMARK H PARENT
REMARK Flexibility Score: inf
ROOT
ATOM      1  C   UNL     1       8.196 -12.897   6.614  1.00  0.00     0.000 C 
ENDROOT
BRANCH   1   2
ATOM      2  C   UNL     1       9.289 -12.062   5.932  1.00  0.00     0.000 C 
BRANCH   2   3
ATOM      3  C   UNL     1       9.740 -12.660   4.590  1.00  0.00     0.000 C 
BRANCH   3   4
ATOM      4  C   UNL     1      11.089 -12.092   4.114  1.00  0.00     0.000 C 
BRANCH   4   5
ATOM      5  C   UNL     1      11.697 -11.093   5.111  1.00  0.00     0.000 C 
BRANCH   5   6
ATOM      6  C   UNL     1      12.854 -10.282   4.503  1.00  0.00     0.000 C 
BRANCH   6   7
ATOM      7  C   UNL     1      12.530  -8.783   4.392  1.00  0.00     0.006 C 
BRANCH   7   8
ATOM      8  C   UNL     1      11.386  -8.496   3.411  1.00  0.00     0.053 C 
BRANCH   8   9
ATOM      9  C   UNL     1      11.775  -8.902   2.025  1.00  0.00     0.041 C 
ATOM     10  O   UNL     1      12.803  -8.412   1.485  1.00  0.00    -0.550 OA
ATOM     11  O   UNL     1      10.976  -9.784   1.308  1.00  0.00    -0.550 OA
ENDBRANCH   8   9
ENDBRANCH   7   8
ENDBRANCH   6   7
ENDBRANCH   5   6
ENDBRANCH   4   5
ENDBRANCH   3   4
ENDBRANCH   2   3
ENDBRANCH   1   2
BRANCH   1  12
ATOM     12  C   UNL     1       8.699 -14.316   6.917  1.00  0.00     0.000 C 
BRANCH  12  13
ATOM     13  C   UNL     1       7.665 -15.407   6.582  1.00  0.00    -0.000 C 
BRANCH  13  14
ATOM     14  C   UNL     1       7.351 -15.574   5.085  1.00  0.00    -0.000 C 
BRANCH  14  15
ATOM     15  C   UNL     1       5.891 -15.978   4.820  1.00  0.00    -0.000 C 
BRANCH  15  16
ATOM     16  C   UNL     1       5.426 -15.615   3.400  1.00  0.00    -0.000 C 
BRANCH  16  17
ATOM     17  C   UNL     1       4.064 -16.231   3.045  1.00  0.00    -0.000 C 
BRANCH  17  18
ATOM     18  C   UNL     1       3.748 -17.422   3.964  1.00  0.00    -0.000 C 
BRANCH  18  19
ATOM     19  C   UNL     1       3.924 -18.776   3.258  1.00  0.00    -0.003 C 
ATOM     20  C   UNL     1       3.916 -18.654   1.735  1.00  0.00     0.004 C 
ENDBRANCH  18  19
ENDBRANCH  17  18
ENDBRANCH  16  17
ENDBRANCH  15  16
ENDBRANCH  14  15
ENDBRANCH  13  14
ENDBRANCH  12  13
ENDBRANCH   1  12
TORSDOF 16
ENDMDL
