MODEL 1
REMARK VINA RESULT:    -7.737      0.000      0.000
REMARK INTER + INTRA:          -9.394
REMARK INTER:                  -9.094
REMARK INTRA:                  -0.300
REMARK UNBOUND:                -0.300
REMARK SMILES O=c1c(O)c(-c2ccc(O)cc2)oc2cc(O)cc(O)c12
REMARK SMILES IDX 5 1 3 2 2 3 1 4 21 5 19 6 18 7 16 8 15 9 14 10 13 11 6 12
REMARK SMILES IDX 7 13 8 14 9 15 12 16 11 17 10 18 4 20 20 22 17 24
REMARK H PARENT 10 19 4 21 20 23 17 25
REMARK Flexibility Score: inf
ROOT
ATOM      1  C   UNL     1     -22.142 -26.239 -19.065  1.00  0.00     0.180 A 
ATOM      2  C   UNL     1     -22.426 -24.885 -18.817  1.00  0.00     0.208 A 
ATOM      3  C   UNL     1     -22.794 -24.059 -19.891  1.00  0.00     0.238 A 
ATOM      4  O   UNL     1     -23.100 -22.861 -19.654  1.00  0.00    -0.285 OA
ATOM      5  C   UNL     1     -22.858 -24.592 -21.201  1.00  0.00     0.111 A 
ATOM      6  C   UNL     1     -23.179 -23.837 -22.369  1.00  0.00     0.134 A 
ATOM      7  C   UNL     1     -23.341 -24.495 -23.593  1.00  0.00     0.093 A 
ATOM      8  C   UNL     1     -23.127 -25.871 -23.706  1.00  0.00     0.123 A 
ATOM      9  C   UNL     1     -22.754 -26.607 -22.584  1.00  0.00     0.094 A 
ATOM     10  C   UNL     1     -22.621 -25.984 -21.340  1.00  0.00     0.146 A 
ATOM     11  O   UNL     1     -22.275 -26.725 -20.294  1.00  0.00    -0.452 OA
ENDROOT
BRANCH   1  12
ATOM     12  C   UNL     1     -21.724 -27.167 -17.989  1.00  0.00     0.021 A 
ATOM     13  C   UNL     1     -22.691 -27.949 -17.335  1.00  0.00     0.016 A 
ATOM     14  C   UNL     1     -22.315 -28.847 -16.333  1.00  0.00     0.047 A 
ATOM     15  C   UNL     1     -20.966 -28.987 -15.982  1.00  0.00     0.115 A 
ATOM     16  C   UNL     1     -20.369 -27.327 -17.645  1.00  0.00     0.016 A 
ATOM     17  C   UNL     1     -19.997 -28.228 -16.642  1.00  0.00     0.047 A 
BRANCH  15  18
ATOM     18  O   UNL     1     -20.580 -29.878 -14.984  1.00  0.00    -0.508 OA
ATOM     19  H   UNL     1     -19.851 -30.565 -15.139  1.00  0.00     0.293 HD
ENDBRANCH  15  18
ENDBRANCH   1  12
BRANCH   2  20
ATOM     20  O   UNL     1     -22.380 -24.385 -17.513  1.00  0.00    -0.502 OA
ATOM     21  H   UNL     1     -22.691 -24.923 -16.713  1.00  0.00     0.293 HD
ENDBRANCH   2  20
BRANCH   6  22
ATOM     22  O   UNL     1     -23.323 -22.446 -22.383  1.00  0.00    -0.507 OA
ATOM     23  H   UNL     1     -23.911 -21.936 -23.023  1.00  0.00     0.293 HD
ENDBRANCH   6  22
BRANCH   8  24
ATOM     24  O   UNL     1     -23.273 -26.515 -24.932  1.00  0.00    -0.508 OA
ATOM     25  H   UNL     1     -22.548 -27.116 -25.306  1.00  0.00     0.293 HD
ENDBRANCH   8  24
TORSDOF 5
ENDMDL
MODEL 2
REMARK VINA RESULT:    -7.706      1.734      3.050
REMARK INTER + INTRA:          -9.358
REMARK INTER:                  -9.531
REMARK INTRA:                   0.174
REMARK UNBOUND:                -0.300
REMARK SMILES O=c1c(O)c(-c2ccc(O)cc2)oc2cc(O)cc(O)c12
REMARK SMILES IDX 5 1 3 2 2 3 1 4 21 5 19 6 18 7 16 8 15 9 14 10 13 11 6 12
REMARK SMILES IDX 7 13 8 14 9 15 12 16 11 17 10 18 4 20 20 22 17 24
REMARK H PARENT 10 19 4 21 20 23 17 25
REMARK Flexibility Score: inf
ROOT
ATOM      1  C   UNL     1     -22.416 -25.997 -19.045  1.00  0.00     0.180 A 
ATOM      2  C   UNL     1     -23.556 -26.229 -19.835  1.00  0.00     0.208 A 
ATOM      3  C   UNL     1     -23.977 -25.233 -20.731  1.00  0.00     0.238 A 
ATOM      4  O   UNL     1     -24.965 -25.468 -21.474  1.00  0.00    -0.285 OA
ATOM      5  C   UNL     1     -23.263 -24.013 -20.816  1.00  0.00     0.111 A 
ATOM      6  C   UNL     1     -23.624 -22.920 -21.659  1.00  0.00     0.134 A 
ATOM      7  C   UNL     1     -22.772 -21.813 -21.757  1.00  0.00     0.093 A 
ATOM      8  C   UNL     1     -21.606 -21.732 -20.993  1.00  0.00     0.123 A 
ATOM      9  C   UNL     1     -21.275 -22.767 -20.122  1.00  0.00     0.094 A 
ATOM     10  C   UNL     1     -22.087 -23.901 -20.029  1.00  0.00     0.146 A 
ATOM     11  O   UNL     1     -21.731 -24.870 -19.195  1.00  0.00    -0.452 OA
ENDROOT
BRANCH   1  12
ATOM     12  C   UNL     1     -21.925 -26.988 -18.060  1.00  0.00     0.021 A 
ATOM     13  C   UNL     1     -20.544 -27.125 -17.846  1.00  0.00     0.016 A 
ATOM     14  C   UNL     1     -20.061 -28.038 -16.905  1.00  0.00     0.047 A 
ATOM     15  C   UNL     1     -20.952 -28.815 -16.154  1.00  0.00     0.115 A 
ATOM     16  C   UNL     1     -22.816 -27.757 -17.289  1.00  0.00     0.016 A 
ATOM     17  C   UNL     1     -22.329 -28.669 -16.347  1.00  0.00     0.047 A 
BRANCH  15  18
ATOM     18  O   UNL     1     -20.482 -29.729 -15.215  1.00  0.00    -0.508 OA
ATOM     19  H   UNL     1     -21.108 -30.191 -14.565  1.00  0.00     0.293 HD
ENDBRANCH  15  18
ENDBRANCH   1  12
BRANCH   2  20
ATOM     20  O   UNL     1     -24.232 -27.449 -19.753  1.00  0.00    -0.502 OA
ATOM     21  H   UNL     1     -24.865 -27.770 -20.476  1.00  0.00     0.293 HD
ENDBRANCH   2  20
BRANCH   6  22
ATOM     22  O   UNL     1     -24.812 -22.860 -22.393  1.00  0.00    -0.507 OA
ATOM     23  H   UNL     1     -24.992 -22.213 -23.145  1.00  0.00     0.293 HD
ENDBRANCH   6  22
BRANCH   8  24
ATOM     24  O   UNL     1     -20.772 -20.620 -21.085  1.00  0.00    -0.508 OA
ATOM     25  H   UNL     1     -20.284 -20.392 -21.944  1.00  0.00     0.293 HD
ENDBRANCH   8  24
TORSDOF 5
ENDMDL
MODEL 3
REMARK VINA RESULT:    -7.681      0.194      1.074
REMARK INTER + INTRA:          -9.328
REMARK INTER:                  -9.041
REMARK INTRA:                  -0.287
REMARK UNBOUND:                -0.300
REMARK SMILES O=c1c(O)c(-c2ccc(O)cc2)oc2cc(O)cc(O)c12
REMARK SMILES IDX 5 1 3 2 2 3 1 4 21 5 19 6 18 7 16 8 15 9 14 10 13 11 6 12
REMARK SMILES IDX 7 13 8 14 9 15 12 16 11 17 10 18 4 20 20 22 17 24
REMARK H PARENT 10 19 4 21 20 23 17 25
REMARK Flexibility Score: inf
ROOT
ATOM      1  C   UNL     1     -22.247 -26.185 -19.223  1.00  0.00     0.180 A 
ATOM      2  C   UNL     1     -22.550 -24.838 -18.957  1.00  0.00     0.208 A 
ATOM      3  C   UNL     1     -22.911 -23.998 -20.023  1.00  0.00     0.238 A 
ATOM      4  O   UNL     1     -23.233 -22.808 -19.772  1.00  0.00    -0.285 OA
ATOM      5  C   UNL     1     -22.949 -24.511 -21.343  1.00  0.00     0.111 A 
ATOM      6  C   UNL     1     -23.261 -23.741 -22.502  1.00  0.00     0.134 A 
ATOM      7  C   UNL     1     -23.397 -24.380 -23.740  1.00  0.00     0.093 A 
ATOM      8  C   UNL     1     -23.166 -25.752 -23.871  1.00  0.00     0.123 A 
ATOM      9  C   UNL     1     -22.802 -26.502 -22.756  1.00  0.00     0.094 A 
ATOM     10  C   UNL     1     -22.695 -25.898 -21.500  1.00  0.00     0.146 A 
ATOM     11  O   UNL     1     -22.356 -26.652 -20.461  1.00  0.00    -0.452 OA
ENDROOT
BRANCH   1  12
ATOM     12  C   UNL     1     -21.835 -27.126 -18.155  1.00  0.00     0.021 A 
ATOM     13  C   UNL     1     -20.483 -27.199 -17.782  1.00  0.00     0.016 A 
ATOM     14  C   UNL     1     -20.076 -28.064 -16.762  1.00  0.00     0.047 A 
ATOM     15  C   UNL     1     -21.018 -28.854 -16.091  1.00  0.00     0.115 A 
ATOM     16  C   UNL     1     -22.779 -27.907 -17.464  1.00  0.00     0.016 A 
ATOM     17  C   UNL     1     -22.368 -28.770 -16.443  1.00  0.00     0.047 A 
BRANCH  15  18
ATOM     18  O   UNL     1     -20.625 -29.719 -15.073  1.00  0.00    -0.508 OA
ATOM     19  H   UNL     1     -20.859 -30.705 -15.095  1.00  0.00     0.293 HD
ENDBRANCH  15  18
ENDBRANCH   1  12
BRANCH   2  20
ATOM     20  O   UNL     1     -22.529 -24.359 -17.644  1.00  0.00    -0.502 OA
ATOM     21  H   UNL     1     -21.667 -24.221 -17.129  1.00  0.00     0.293 HD
ENDBRANCH   2  20
BRANCH   6  22
ATOM     22  O   UNL     1     -23.420 -22.352 -22.497  1.00  0.00    -0.507 OA
ATOM     23  H   UNL     1     -22.666 -21.687 -22.425  1.00  0.00     0.293 HD
ENDBRANCH   6  22
BRANCH   8  24
ATOM     24  O   UNL     1     -23.287 -26.377 -25.110  1.00  0.00    -0.508 OA
ATOM     25  H   UNL     1     -22.641 -26.185 -25.867  1.00  0.00     0.293 HD
ENDBRANCH   8  24
TORSDOF 5
ENDMDL
MODEL 4
REMARK VINA RESULT:    -7.589      1.632      3.397
REMARK INTER + INTRA:          -9.220
REMARK INTER:                  -8.939
REMARK INTRA:                  -0.281
REMARK UNBOUND:                -0.300
REMARK SMILES O=c1c(O)c(-c2ccc(O)cc2)oc2cc(O)cc(O)c12
REMARK SMILES IDX 5 1 3 2 2 3 1 4 21 5 19 6 18 7 16 8 15 9 14 10 13 11 6 12
REMARK SMILES IDX 7 13 8 14 9 15 12 16 11 17 10 18 4 20 20 22 17 24
REMARK H PARENT 10 19 4 21 20 23 17 25
REMARK Flexibility Score: inf
ROOT
ATOM      1  C   UNL     1     -21.667 -25.653 -18.990  1.00  0.00     0.180 A 
ATOM      2  C   UNL     1     -21.476 -25.849 -20.369  1.00  0.00     0.208 A 
ATOM      3  C   UNL     1     -21.727 -24.784 -21.249  1.00  0.00     0.238 A 
ATOM      4  O   UNL     1     -21.502 -24.950 -22.476  1.00  0.00    -0.285 OA
ATOM      5  C   UNL     1     -22.180 -23.542 -20.742  1.00  0.00     0.111 A 
ATOM      6  C   UNL     1     -22.504 -22.409 -21.546  1.00  0.00     0.134 A 
ATOM      7  C   UNL     1     -22.817 -21.192 -20.929  1.00  0.00     0.093 A 
ATOM      8  C   UNL     1     -22.883 -21.086 -19.537  1.00  0.00     0.123 A 
ATOM      9  C   UNL     1     -22.627 -22.202 -18.745  1.00  0.00     0.094 A 
ATOM     10  C   UNL     1     -22.275 -23.421 -19.331  1.00  0.00     0.146 A 
ATOM     11  O   UNL     1     -22.028 -24.458 -18.540  1.00  0.00    -0.452 OA
ENDROOT
BRANCH   1  12
ATOM     12  C   UNL     1     -21.446 -26.735 -18.002  1.00  0.00     0.021 A 
ATOM     13  C   UNL     1     -22.524 -27.548 -17.615  1.00  0.00     0.016 A 
ATOM     14  C   UNL     1     -22.333 -28.589 -16.702  1.00  0.00     0.047 A 
ATOM     15  C   UNL     1     -21.060 -28.839 -16.175  1.00  0.00     0.115 A 
ATOM     16  C   UNL     1     -20.166 -27.004 -17.485  1.00  0.00     0.016 A 
ATOM     17  C   UNL     1     -19.979 -28.047 -16.572  1.00  0.00     0.047 A 
BRANCH  15  18
ATOM     18  O   UNL     1     -20.858 -29.872 -15.264  1.00  0.00    -0.508 OA
ATOM     19  H   UNL     1     -20.079 -30.515 -15.354  1.00  0.00     0.293 HD
ENDBRANCH  15  18
ENDBRANCH   1  12
BRANCH   2  20
ATOM     20  O   UNL     1     -21.005 -27.076 -20.846  1.00  0.00    -0.502 OA
ATOM     21  H   UNL     1     -20.677 -27.810 -20.229  1.00  0.00     0.293 HD
ENDBRANCH   2  20
BRANCH   6  22
ATOM     22  O   UNL     1     -22.558 -22.433 -22.943  1.00  0.00    -0.507 OA
ATOM     23  H   UNL     1     -21.848 -22.059 -23.552  1.00  0.00     0.293 HD
ENDBRANCH   6  22
BRANCH   8  24
ATOM     24  O   UNL     1     -23.211 -19.875 -18.932  1.00  0.00    -0.508 OA
ATOM     25  H   UNL     1     -23.917 -19.261 -19.323  1.00  0.00     0.293 HD
ENDBRANCH   8  24
TORSDOF 5
ENDMDL
MODEL 5
REMARK VINA RESULT:    -7.531      1.932      2.275
REMARK INTER + INTRA:          -9.152
REMARK INTER:                  -8.933
REMARK INTRA:                  -0.219
REMARK UNBOUND:                -0.300
REMARK SMILES O=c1c(O)c(-c2ccc(O)cc2)oc2cc(O)cc(O)c12
REMARK SMILES IDX 5 1 3 2 2 3 1 4 21 5 19 6 18 7 16 8 15 9 14 10 13 11 6 12
REMARK SMILES IDX 7 13 8 14 9 15 12 16 11 17 10 18 4 20 20 22 17 24
REMARK H PARENT 10 19 4 21 20 23 17 25
REMARK Flexibility Score: inf
ROOT
ATOM      1  C   UNL     1     -22.627 -24.970 -19.852  1.00  0.00     0.180 A 
ATOM      2  C   UNL     1     -21.755 -23.869 -19.797  1.00  0.00     0.208 A 
ATOM      3  C   UNL     1     -21.865 -22.864 -20.771  1.00  0.00     0.238 A 
ATOM      4  O   UNL     1     -21.117 -21.855 -20.684  1.00  0.00    -0.285 OA
ATOM      5  C   UNL     1     -22.834 -22.979 -21.796  1.00  0.00     0.111 A 
ATOM      6  C   UNL     1     -23.006 -22.040 -22.858  1.00  0.00     0.134 A 
ATOM      7  C   UNL     1     -24.082 -22.187 -23.742  1.00  0.00     0.093 A 
ATOM      8  C   UNL     1     -24.951 -23.276 -23.643  1.00  0.00     0.123 A 
ATOM      9  C   UNL     1     -24.756 -24.230 -22.647  1.00  0.00     0.094 A 
ATOM     10  C   UNL     1     -23.713 -24.090 -21.728  1.00  0.00     0.146 A 
ATOM     11  O   UNL     1     -23.568 -25.017 -20.787  1.00  0.00    -0.452 OA
ENDROOT
BRANCH   1  12
ATOM     12  C   UNL     1     -22.556 -26.082 -18.876  1.00  0.00     0.021 A 
ATOM     13  C   UNL     1     -23.599 -26.257 -17.951  1.00  0.00     0.016 A 
ATOM     14  C   UNL     1     -23.563 -27.313 -17.036  1.00  0.00     0.047 A 
ATOM     15  C   UNL     1     -22.492 -28.217 -17.044  1.00  0.00     0.115 A 
ATOM     16  C   UNL     1     -21.494 -27.004 -18.892  1.00  0.00     0.016 A 
ATOM     17  C   UNL     1     -21.462 -28.060 -17.976  1.00  0.00     0.047 A 
BRANCH  15  18
ATOM     18  O   UNL     1     -22.445 -29.272 -16.137  1.00  0.00    -0.508 OA
ATOM     19  H   UNL     1     -23.284 -29.625 -15.691  1.00  0.00     0.293 HD
ENDBRANCH  15  18
ENDBRANCH   1  12
BRANCH   2  20
ATOM     20  O   UNL     1     -20.821 -23.764 -18.762  1.00  0.00    -0.502 OA
ATOM     21  H   UNL     1     -20.514 -22.870 -18.396  1.00  0.00     0.293 HD
ENDBRANCH   2  20
BRANCH   6  22
ATOM     22  O   UNL     1     -22.140 -20.970 -23.101  1.00  0.00    -0.507 OA
ATOM     23  H   UNL     1     -21.136 -21.013 -23.022  1.00  0.00     0.293 HD
ENDBRANCH   6  22
BRANCH   8  24
ATOM     24  O   UNL     1     -26.009 -23.424 -24.537  1.00  0.00    -0.508 OA
ATOM     25  H   UNL     1     -25.898 -23.234 -25.527  1.00  0.00     0.293 HD
ENDBRANCH   8  24
TORSDOF 5
ENDMDL
MODEL 6
REMARK VINA RESULT:    -7.425      3.019      6.970
REMARK INTER + INTRA:          -9.027
REMARK INTER:                  -8.753
REMARK INTRA:                  -0.274
REMARK UNBOUND:                -0.300
REMARK SMILES O=c1c(O)c(-c2ccc(O)cc2)oc2cc(O)cc(O)c12
REMARK SMILES IDX 5 1 3 2 2 3 1 4 21 5 19 6 18 7 16 8 15 9 14 10 13 11 6 12
REMARK SMILES IDX 7 13 8 14 9 15 12 16 11 17 10 18 4 20 20 22 17 24
REMARK H PARENT 10 19 4 21 20 23 17 25
REMARK Flexibility Score: inf
ROOT
ATOM      1  C   UNL     1     -24.664 -26.887 -22.425  1.00  0.00     0.180 A 
ATOM      2  C   UNL     1     -23.425 -26.258 -22.634  1.00  0.00     0.208 A 
ATOM      3  C   UNL     1     -22.734 -25.732 -21.530  1.00  0.00     0.238 A 
ATOM      4  O   UNL     1     -21.600 -25.219 -21.717  1.00  0.00    -0.285 OA
ATOM      5  C   UNL     1     -23.297 -25.827 -20.235  1.00  0.00     0.111 A 
ATOM      6  C   UNL     1     -22.704 -25.293 -19.052  1.00  0.00     0.134 A 
ATOM      7  C   UNL     1     -23.286 -25.560 -17.807  1.00  0.00     0.093 A 
ATOM      8  C   UNL     1     -24.476 -26.286 -17.709  1.00  0.00     0.123 A 
ATOM      9  C   UNL     1     -25.095 -26.760 -18.863  1.00  0.00     0.094 A 
ATOM     10  C   UNL     1     -24.518 -26.541 -20.117  1.00  0.00     0.146 A 
ATOM     11  O   UNL     1     -25.135 -27.019 -21.191  1.00  0.00    -0.452 OA
ENDROOT
BRANCH   1  12
ATOM     12  C   UNL     1     -25.463 -27.444 -23.541  1.00  0.00     0.021 A 
ATOM     13  C   UNL     1     -25.483 -28.833 -23.752  1.00  0.00     0.016 A 
ATOM     14  C   UNL     1     -26.249 -29.381 -24.785  1.00  0.00     0.047 A 
ATOM     15  C   UNL     1     -27.017 -28.549 -25.610  1.00  0.00     0.115 A 
ATOM     16  C   UNL     1     -26.252 -26.617 -24.361  1.00  0.00     0.016 A 
ATOM     17  C   UNL     1     -27.018 -27.169 -25.393  1.00  0.00     0.047 A 
BRANCH  15  18
ATOM     18  O   UNL     1     -27.782 -29.084 -26.643  1.00  0.00    -0.508 OA
ATOM     19  H   UNL     1     -28.773 -29.265 -26.530  1.00  0.00     0.293 HD
ENDBRANCH  15  18
ENDBRANCH   1  12
BRANCH   2  20
ATOM     20  O   UNL     1     -22.875 -26.195 -23.918  1.00  0.00    -0.502 OA
ATOM     21  H   UNL     1     -22.320 -25.409 -24.234  1.00  0.00     0.293 HD
ENDBRANCH   2  20
BRANCH   6  22
ATOM     22  O   UNL     1     -21.567 -24.479 -19.048  1.00  0.00    -0.507 OA
ATOM     23  H   UNL     1     -21.040 -24.232 -18.226  1.00  0.00     0.293 HD
ENDBRANCH   6  22
BRANCH   8  24
ATOM     24  O   UNL     1     -25.057 -26.533 -16.467  1.00  0.00    -0.508 OA
ATOM     25  H   UNL     1     -24.556 -27.025 -15.736  1.00  0.00     0.293 HD
ENDBRANCH   8  24
TORSDOF 5
ENDMDL
MODEL 7
REMARK VINA RESULT:    -7.398      1.196      1.199
REMARK INTER + INTRA:          -8.996
REMARK INTER:                  -8.767
REMARK INTRA:                  -0.229
REMARK UNBOUND:                -0.300
REMARK SMILES O=c1c(O)c(-c2ccc(O)cc2)oc2cc(O)cc(O)c12
REMARK SMILES IDX 5 1 3 2 2 3 1 4 21 5 19 6 18 7 16 8 15 9 14 10 13 11 6 12
REMARK SMILES IDX 7 13 8 14 9 15 12 16 11 17 10 18 4 20 20 22 17 24
REMARK H PARENT 10 19 4 21 20 23 17 25
REMARK Flexibility Score: inf
ROOT
ATOM      1  C   UNL     1     -22.801 -26.029 -19.261  1.00  0.00     0.180 A 
ATOM      2  C   UNL     1     -22.953 -24.638 -19.134  1.00  0.00     0.208 A 
ATOM      3  C   UNL     1     -23.588 -23.926 -20.165  1.00  0.00     0.238 A 
ATOM      4  O   UNL     1     -23.770 -22.689 -20.020  1.00  0.00    -0.285 OA
ATOM      5  C   UNL     1     -24.048 -24.611 -21.315  1.00  0.00     0.111 A 
ATOM      6  C   UNL     1     -24.669 -23.984 -22.437  1.00  0.00     0.134 A 
ATOM      7  C   UNL     1     -25.202 -24.775 -23.462  1.00  0.00     0.093 A 
ATOM      8  C   UNL     1     -25.078 -26.166 -23.436  1.00  0.00     0.123 A 
ATOM      9  C   UNL     1     -24.421 -26.784 -22.375  1.00  0.00     0.094 A 
ATOM     10  C   UNL     1     -23.911 -26.023 -21.320  1.00  0.00     0.146 A 
ATOM     11  O   UNL     1     -23.302 -26.652 -20.321  1.00  0.00    -0.452 OA
ENDROOT
BRANCH   1  12
ATOM     12  C   UNL     1     -22.121 -26.845 -18.229  1.00  0.00     0.021 A 
ATOM     13  C   UNL     1     -22.872 -27.737 -17.445  1.00  0.00     0.016 A 
ATOM     14  C   UNL     1     -22.246 -28.532 -16.481  1.00  0.00     0.047 A 
ATOM     15  C   UNL     1     -20.860 -28.458 -16.299  1.00  0.00     0.115 A 
ATOM     16  C   UNL     1     -20.726 -26.790 -18.054  1.00  0.00     0.016 A 
ATOM     17  C   UNL     1     -20.103 -27.588 -17.089  1.00  0.00     0.047 A 
BRANCH  15  18
ATOM     18  O   UNL     1     -20.226 -29.245 -15.341  1.00  0.00    -0.508 OA
ATOM     19  H   UNL     1     -19.881 -30.173 -15.560  1.00  0.00     0.293 HD
ENDBRANCH  15  18
ENDBRANCH   1  12
BRANCH   2  20
ATOM     20  O   UNL     1     -22.513 -23.985 -17.980  1.00  0.00    -0.502 OA
ATOM     21  H   UNL     1     -22.440 -22.976 -17.920  1.00  0.00     0.293 HD
ENDBRANCH   2  20
BRANCH   6  22
ATOM     22  O   UNL     1     -24.762 -22.599 -22.605  1.00  0.00    -0.507 OA
ATOM     23  H   UNL     1     -24.841 -21.933 -21.852  1.00  0.00     0.293 HD
ENDBRANCH   6  22
BRANCH   8  24
ATOM     24  O   UNL     1     -25.597 -26.945 -24.469  1.00  0.00    -0.508 OA
ATOM     25  H   UNL     1     -26.491 -26.731 -24.896  1.00  0.00     0.293 HD
ENDBRANCH   8  24
TORSDOF 5
ENDMDL
MODEL 8
REMARK VINA RESULT:    -7.325      2.451      6.573
REMARK INTER + INTRA:          -8.910
REMARK INTER:                  -8.841
REMARK INTRA:                  -0.070
REMARK UNBOUND:                -0.300
REMARK SMILES O=c1c(O)c(-c2ccc(O)cc2)oc2cc(O)cc(O)c12
REMARK SMILES IDX 5 1 3 2 2 3 1 4 21 5 19 6 18 7 16 8 15 9 14 10 13 11 6 12
REMARK SMILES IDX 7 13 8 14 9 15 12 16 11 17 10 18 4 20 20 22 17 24
REMARK H PARENT 10 19 4 21 20 23 17 25
REMARK Flexibility Score: inf
ROOT
ATOM      1  C   UNL     1     -24.321 -26.390 -21.843  1.00  0.00     0.180 A 
ATOM      2  C   UNL     1     -24.494 -25.163 -21.179  1.00  0.00     0.208 A 
ATOM      3  C   UNL     1     -23.781 -24.926 -19.992  1.00  0.00     0.238 A 
ATOM      4  O   UNL     1     -23.898 -23.805 -19.432  1.00  0.00    -0.285 OA
ATOM      5  C   UNL     1     -22.918 -25.923 -19.476  1.00  0.00     0.111 A 
ATOM      6  C   UNL     1     -22.179 -25.805 -18.261  1.00  0.00     0.134 A 
ATOM      7  C   UNL     1     -21.257 -26.800 -17.915  1.00  0.00     0.093 A 
ATOM      8  C   UNL     1     -21.096 -27.940 -18.707  1.00  0.00     0.123 A 
ATOM      9  C   UNL     1     -21.856 -28.092 -19.863  1.00  0.00     0.094 A 
ATOM     10  C   UNL     1     -22.758 -27.099 -20.254  1.00  0.00     0.146 A 
ATOM     11  O   UNL     1     -23.456 -27.279 -21.370  1.00  0.00    -0.452 OA
ENDROOT
BRANCH   1  12
ATOM     12  C   UNL     1     -25.056 -26.724 -23.085  1.00  0.00     0.021 A 
ATOM     13  C   UNL     1     -25.941 -27.815 -23.094  1.00  0.00     0.016 A 
ATOM     14  C   UNL     1     -26.661 -28.133 -24.249  1.00  0.00     0.047 A 
ATOM     15  C   UNL     1     -26.517 -27.355 -25.405  1.00  0.00     0.115 A 
ATOM     16  C   UNL     1     -24.931 -25.936 -24.244  1.00  0.00     0.016 A 
ATOM     17  C   UNL     1     -25.653 -26.256 -25.397  1.00  0.00     0.047 A 
BRANCH  15  18
ATOM     18  O   UNL     1     -27.228 -27.663 -26.562  1.00  0.00    -0.508 OA
ATOM     19  H   UNL     1     -27.239 -28.602 -26.944  1.00  0.00     0.293 HD
ENDBRANCH  15  18
ENDBRANCH   1  12
BRANCH   2  20
ATOM     20  O   UNL     1     -25.332 -24.184 -21.718  1.00  0.00    -0.502 OA
ATOM     21  H   UNL     1     -25.150 -23.745 -22.613  1.00  0.00     0.293 HD
ENDBRANCH   2  20
BRANCH   6  22
ATOM     22  O   UNL     1     -22.333 -24.753 -17.354  1.00  0.00    -0.507 OA
ATOM     23  H   UNL     1     -22.172 -24.822 -16.361  1.00  0.00     0.293 HD
ENDBRANCH   6  22
BRANCH   8  24
ATOM     24  O   UNL     1     -20.189 -28.933 -18.346  1.00  0.00    -0.508 OA
ATOM     25  H   UNL     1     -20.410 -29.621 -17.635  1.00  0.00     0.293 HD
ENDBRANCH   8  24
TORSDOF 5
ENDMDL
MODEL 9
REMARK VINA RESULT:    -7.119      1.899      2.602
REMARK INTER + INTRA:          -8.668
REMARK INTER:                  -8.535
REMARK INTRA:                  -0.133
REMARK UNBOUND:                -0.300
REMARK SMILES O=c1c(O)c(-c2ccc(O)cc2)oc2cc(O)cc(O)c12
REMARK SMILES IDX 5 1 3 2 2 3 1 4 21 5 19 6 18 7 16 8 15 9 14 10 13 11 6 12
REMARK SMILES IDX 7 13 8 14 9 15 12 16 11 17 10 18 4 20 20 22 17 24
REMARK H PARENT 10 19 4 21 20 23 17 25
REMARK Flexibility Score: inf
ROOT
ATOM      1  C   UNL     1     -22.565 -27.016 -20.654  1.00  0.00     0.180 A 
ATOM      2  C   UNL     1     -22.030 -25.872 -21.273  1.00  0.00     0.208 A 
ATOM      3  C   UNL     1     -22.553 -25.459 -22.509  1.00  0.00     0.238 A 
ATOM      4  O   UNL     1     -22.107 -24.404 -23.031  1.00  0.00    -0.285 OA
ATOM      5  C   UNL     1     -23.592 -26.202 -23.119  1.00  0.00     0.111 A 
ATOM      6  C   UNL     1     -24.169 -25.899 -24.388  1.00  0.00     0.134 A 
ATOM      7  C   UNL     1     -25.279 -26.625 -24.834  1.00  0.00     0.093 A 
ATOM      8  C   UNL     1     -25.793 -27.687 -24.085  1.00  0.00     0.123 A 
ATOM      9  C   UNL     1     -25.200 -28.030 -22.873  1.00  0.00     0.094 A 
ATOM     10  C   UNL     1     -24.113 -27.300 -22.385  1.00  0.00     0.146 A 
ATOM     11  O   UNL     1     -23.584 -27.653 -21.219  1.00  0.00    -0.452 OA
ENDROOT
BRANCH   1  12
ATOM     12  C   UNL     1     -22.051 -27.527 -19.363  1.00  0.00     0.021 A 
ATOM     13  C   UNL     1     -22.919 -27.631 -18.264  1.00  0.00     0.016 A 
ATOM     14  C   UNL     1     -22.460 -28.132 -17.043  1.00  0.00     0.047 A 
ATOM     15  C   UNL     1     -21.130 -28.552 -16.910  1.00  0.00     0.115 A 
ATOM     16  C   UNL     1     -20.722 -27.969 -19.228  1.00  0.00     0.016 A 
ATOM     17  C   UNL     1     -20.265 -28.471 -18.005  1.00  0.00     0.047 A 
BRANCH  15  18
ATOM     18  O   UNL     1     -20.661 -29.052 -15.698  1.00  0.00    -0.508 OA
ATOM     19  H   UNL     1     -20.774 -28.537 -14.832  1.00  0.00     0.293 HD
ENDBRANCH  15  18
ENDBRANCH   1  12
BRANCH   2  20
ATOM     20  O   UNL     1     -21.020 -25.140 -20.642  1.00  0.00    -0.502 OA
ATOM     21  H   UNL     1     -21.192 -24.243 -20.204  1.00  0.00     0.293 HD
ENDBRANCH   2  20
BRANCH   6  22
ATOM     22  O   UNL     1     -23.675 -24.919 -25.255  1.00  0.00    -0.507 OA
ATOM     23  H   UNL     1     -22.742 -24.537 -25.219  1.00  0.00     0.293 HD
ENDBRANCH   6  22
BRANCH   8  24
ATOM     24  O   UNL     1     -26.888 -28.415 -24.544  1.00  0.00    -0.508 OA
ATOM     25  H   UNL     1     -27.410 -29.031 -23.931  1.00  0.00     0.293 HD
ENDBRANCH   8  24
TORSDOF 5
ENDMDL
