MODEL 1
REMARK VINA RESULT:     6.602      0.000      0.000
REMARK INTER + INTRA:           8.249
REMARK INTER:                   7.953
REMARK INTRA:                   0.296
REMARK UNBOUND:                 0.296
REMARK SMILES O=c1c(O)c(-c2ccc(O)c(O)c2)oc2cc(O)cc(O)c12
REMARK SMILES IDX 5 1 3 2 2 3 1 4 22 5 20 6 19 7 17 8 16 9 15 10 14 11 6 12
REMARK SMILES IDX 7 13 8 14 9 15 13 16 11 17 10 18 12 20 4 22 21 24 18 26
REMARK H PARENT 10 19 12 21 4 23 21 25 18 27
REMARK Flexibility Score: inf
ROOT
ATOM      1  C   UNL     1      -3.427   1.456  19.281  1.00  0.00     0.180 A 
ATOM      2  C   UNL     1      -3.255   2.392  20.316  1.00  0.00     0.208 A 
ATOM      3  C   UNL     1      -3.083   1.930  21.631  1.00  0.00     0.238 A 
ATOM      4  O   UNL     1      -2.875   2.771  22.543  1.00  0.00    -0.285 OA
ATOM      5  C   UNL     1      -3.101   0.540  21.896  1.00  0.00     0.111 A 
ATOM      6  C   UNL     1      -2.977  -0.038  23.196  1.00  0.00     0.134 A 
ATOM      7  C   UNL     1      -2.877  -1.428  23.326  1.00  0.00     0.093 A 
ATOM      8  C   UNL     1      -2.962  -2.264  22.214  1.00  0.00     0.123 A 
ATOM      9  C   UNL     1      -3.145  -1.713  20.945  1.00  0.00     0.094 A 
ATOM     10  C   UNL     1      -3.210  -0.327  20.779  1.00  0.00     0.146 A 
ATOM     11  O   UNL     1      -3.373   0.158  19.553  1.00  0.00    -0.452 OA
ENDROOT
BRANCH   1  12
ATOM     12  C   UNL     1      -3.640   1.866  17.875  1.00  0.00     0.025 A 
ATOM     13  C   UNL     1      -3.020   3.028  17.394  1.00  0.00     0.016 A 
ATOM     14  C   UNL     1      -3.192   3.423  16.065  1.00  0.00     0.051 A 
ATOM     15  C   UNL     1      -3.971   2.660  15.189  1.00  0.00     0.157 A 
ATOM     16  C   UNL     1      -4.405   1.086  16.992  1.00  0.00     0.062 A 
ATOM     17  C   UNL     1      -4.580   1.472  15.656  1.00  0.00     0.158 A 
BRANCH  15  18
ATOM     18  O   UNL     1      -4.108   3.113  13.875  1.00  0.00    -0.504 OA
ATOM     19  H   UNL     1      -4.127   2.506  13.068  1.00  0.00     0.293 HD
ENDBRANCH  15  18
BRANCH  17  20
ATOM     20  O   UNL     1      -5.355   0.649  14.836  1.00  0.00    -0.504 OA
ATOM     21  H   UNL     1      -6.226   0.933  14.412  1.00  0.00     0.293 HD
ENDBRANCH  17  20
ENDBRANCH   1  12
BRANCH   2  22
ATOM     22  O   UNL     1      -3.219   3.759  20.027  1.00  0.00    -0.502 OA
ATOM     23  H   UNL     1      -3.734   4.443  20.569  1.00  0.00     0.293 HD
ENDBRANCH   2  22
BRANCH   6  24
ATOM     24  O   UNL     1      -2.974   0.701  24.382  1.00  0.00    -0.507 OA
ATOM     25  H   UNL     1      -3.679   0.637  25.101  1.00  0.00     0.293 HD
ENDBRANCH   6  24
BRANCH   8  26
ATOM     26  O   UNL     1      -2.875  -3.645  22.383  1.00  0.00    -0.508 OA
ATOM     27  H   UNL     1      -2.855  -4.276  21.589  1.00  0.00     0.293 HD
ENDBRANCH   8  26
TORSDOF 6
ENDMDL
MODEL 2
REMARK VINA RESULT:     7.001      1.201      2.827
REMARK INTER + INTRA:           8.730
REMARK INTER:                   8.393
REMARK INTRA:                   0.337
REMARK UNBOUND:                 0.296
REMARK SMILES O=c1c(O)c(-c2ccc(O)c(O)c2)oc2cc(O)cc(O)c12
REMARK SMILES IDX 5 1 3 2 2 3 1 4 22 5 20 6 19 7 17 8 16 9 15 10 14 11 6 12
REMARK SMILES IDX 7 13 8 14 9 15 13 16 11 17 10 18 12 20 4 22 21 24 18 26
REMARK H PARENT 10 19 12 21 4 23 21 25 18 27
REMARK Flexibility Score: inf
ROOT
ATOM      1  C   UNL     1      -3.459   0.953  18.829  1.00  0.00     0.180 A 
ATOM      2  C   UNL     1      -3.527  -0.451  18.815  1.00  0.00     0.208 A 
ATOM      3  C   UNL     1      -3.405  -1.150  20.027  1.00  0.00     0.238 A 
ATOM      4  O   UNL     1      -3.521  -2.403  20.015  1.00  0.00    -0.285 OA
ATOM      5  C   UNL     1      -3.201  -0.439  21.233  1.00  0.00     0.111 A 
ATOM      6  C   UNL     1      -3.024  -1.047  22.512  1.00  0.00     0.134 A 
ATOM      7  C   UNL     1      -2.961  -0.243  23.656  1.00  0.00     0.093 A 
ATOM      8  C   UNL     1      -3.002   1.148  23.563  1.00  0.00     0.123 A 
ATOM      9  C   UNL     1      -3.114   1.755  22.312  1.00  0.00     0.094 A 
ATOM     10  C   UNL     1      -3.217   0.978  21.155  1.00  0.00     0.146 A 
ATOM     11  O   UNL     1      -3.333   1.595  19.985  1.00  0.00    -0.452 OA
ENDROOT
BRANCH   1  12
ATOM     12  C   UNL     1      -3.552   1.759  17.590  1.00  0.00     0.025 A 
ATOM     13  C   UNL     1      -2.914   3.006  17.528  1.00  0.00     0.016 A 
ATOM     14  C   UNL     1      -2.974   3.773  16.363  1.00  0.00     0.051 A 
ATOM     15  C   UNL     1      -3.657   3.306  15.234  1.00  0.00     0.157 A 
ATOM     16  C   UNL     1      -4.220   1.277  16.452  1.00  0.00     0.062 A 
ATOM     17  C   UNL     1      -4.282   2.038  15.277  1.00  0.00     0.158 A 
BRANCH  15  18
ATOM     18  O   UNL     1      -3.684   4.125  14.104  1.00  0.00    -0.504 OA
ATOM     19  H   UNL     1      -4.341   4.880  13.970  1.00  0.00     0.293 HD
ENDBRANCH  15  18
BRANCH  17  20
ATOM     20  O   UNL     1      -4.965   1.497  14.185  1.00  0.00    -0.504 OA
ATOM     21  H   UNL     1      -5.751   1.942  13.734  1.00  0.00     0.293 HD
ENDBRANCH  17  20
ENDBRANCH   1  12
BRANCH   2  22
ATOM     22  O   UNL     1      -3.750  -1.131  17.615  1.00  0.00    -0.502 OA
ATOM     23  H   UNL     1      -3.400  -2.067  17.447  1.00  0.00     0.293 HD
ENDBRANCH   2  22
BRANCH   6  24
ATOM     24  O   UNL     1      -2.880  -2.423  22.709  1.00  0.00    -0.507 OA
ATOM     25  H   UNL     1      -1.997  -2.913  22.720  1.00  0.00     0.293 HD
ENDBRANCH   6  24
BRANCH   8  26
ATOM     26  O   UNL     1      -2.920   1.917  24.722  1.00  0.00    -0.508 OA
ATOM     27  H   UNL     1      -3.081   2.918  24.705  1.00  0.00     0.293 HD
ENDBRANCH   8  26
TORSDOF 6
ENDMDL
MODEL 3
REMARK VINA RESULT:     7.734      1.145      6.643
REMARK INTER + INTRA:           9.612
REMARK INTER:                   9.061
REMARK INTRA:                   0.551
REMARK UNBOUND:                 0.296
REMARK SMILES O=c1c(O)c(-c2ccc(O)c(O)c2)oc2cc(O)cc(O)c12
REMARK SMILES IDX 5 1 3 2 2 3 1 4 22 5 20 6 19 7 17 8 16 9 15 10 14 11 6 12
REMARK SMILES IDX 7 13 8 14 9 15 13 16 11 17 10 18 12 20 4 22 21 24 18 26
REMARK H PARENT 10 19 12 21 4 23 21 25 18 27
REMARK Flexibility Score: inf
ROOT
ATOM      1  C   UNL     1      -3.564   0.963  19.394  1.00  0.00     0.180 A 
ATOM      2  C   UNL     1      -3.275   2.327  19.213  1.00  0.00     0.208 A 
ATOM      3  C   UNL     1      -3.430   2.892  17.936  1.00  0.00     0.238 A 
ATOM      4  O   UNL     1      -3.222   4.124  17.792  1.00  0.00    -0.285 OA
ATOM      5  C   UNL     1      -3.856   2.083  16.855  1.00  0.00     0.111 A 
ATOM      6  C   UNL     1      -4.007   2.542  15.512  1.00  0.00     0.134 A 
ATOM      7  C   UNL     1      -4.560   1.688  14.549  1.00  0.00     0.093 A 
ATOM      8  C   UNL     1      -4.905   0.374  14.865  1.00  0.00     0.123 A 
ATOM      9  C   UNL     1      -4.704  -0.103  16.160  1.00  0.00     0.094 A 
ATOM     10  C   UNL     1      -4.190   0.736  17.152  1.00  0.00     0.146 A 
ATOM     11  O   UNL     1      -4.024   0.247  18.375  1.00  0.00    -0.452 OA
ENDROOT
BRANCH   1  12
ATOM     12  C   UNL     1      -3.400   0.291  20.702  1.00  0.00     0.025 A 
ATOM     13  C   UNL     1      -3.032   1.045  21.825  1.00  0.00     0.016 A 
ATOM     14  C   UNL     1      -2.891   0.434  23.072  1.00  0.00     0.051 A 
ATOM     15  C   UNL     1      -3.128  -0.936  23.228  1.00  0.00     0.157 A 
ATOM     16  C   UNL     1      -3.662  -1.081  20.858  1.00  0.00     0.062 A 
ATOM     17  C   UNL     1      -3.526  -1.703  22.107  1.00  0.00     0.158 A 
BRANCH  15  18
ATOM     18  O   UNL     1      -2.964  -1.486  24.500  1.00  0.00    -0.504 OA
ATOM     19  H   UNL     1      -2.550  -0.993  25.279  1.00  0.00     0.293 HD
ENDBRANCH  15  18
BRANCH  17  20
ATOM     20  O   UNL     1      -3.800  -3.070  22.188  1.00  0.00    -0.504 OA
ATOM     21  H   UNL     1      -4.721  -3.468  22.079  1.00  0.00     0.293 HD
ENDBRANCH  17  20
ENDBRANCH   1  12
BRANCH   2  22
ATOM     22  O   UNL     1      -2.877   3.111  20.298  1.00  0.00    -0.502 OA
ATOM     23  H   UNL     1      -2.473   2.714  21.138  1.00  0.00     0.293 HD
ENDBRANCH   2  22
BRANCH   6  24
ATOM     24  O   UNL     1      -3.609   3.806  15.068  1.00  0.00    -0.507 OA
ATOM     25  H   UNL     1      -2.666   4.054  14.812  1.00  0.00     0.293 HD
ENDBRANCH   6  24
BRANCH   8  26
ATOM     26  O   UNL     1      -5.437  -0.452  13.877  1.00  0.00    -0.508 OA
ATOM     27  H   UNL     1      -4.975  -0.575  12.983  1.00  0.00     0.293 HD
ENDBRANCH   8  26
TORSDOF 6
ENDMDL
