MODEL 1
REMARK VINA RESULT:     5.711      0.000      0.000
REMARK INTER + INTRA:           9.086
REMARK INTER:                   9.717
REMARK INTRA:                  -0.631
REMARK UNBOUND:                -0.631
REMARK SMILES CCCCCCCCCCCCCC(=O)[O-]
REMARK SMILES IDX 8 1 9 2 10 3 11 4 12 5 13 6 14 7 15 8 16 9 7 10 6 11 5 12
REMARK SMILES IDX 4 13 3 14 2 15 1 16
REMARK H PARENT
REMARK Flexibility Score: inf
ROOT
ATOM      1  C   UNL     1      16.385  38.629  46.212  1.00  0.00     0.000 C 
ENDROOT
BRANCH   1   2
ATOM      2  C   UNL     1      17.715  37.867  46.066  1.00  0.00     0.000 C 
BRANCH   2   3
ATOM      3  C   UNL     1      18.841  38.460  46.927  1.00  0.00     0.000 C 
BRANCH   3   4
ATOM      4  C   UNL     1      20.010  37.473  47.055  1.00  0.00     0.000 C 
BRANCH   4   5
ATOM      5  C   UNL     1      19.815  36.210  46.202  1.00  0.00     0.006 C 
BRANCH   5   6
ATOM      6  C   UNL     1      20.501  36.310  44.833  1.00  0.00     0.053 C 
BRANCH   6   7
ATOM      7  C   UNL     1      20.898  34.952  44.348  1.00  0.00     0.041 C 
ATOM      8  O   UNL     1      20.945  33.981  45.148  1.00  0.00    -0.550 OA
ATOM      9  O   UNL     1      21.265  34.767  43.020  1.00  0.00    -0.550 OA
ENDBRANCH   6   7
ENDBRANCH   5   6
ENDBRANCH   4   5
ENDBRANCH   3   4
ENDBRANCH   2   3
ENDBRANCH   1   2
BRANCH   1  10
ATOM     10  C   UNL     1      16.258  39.479  47.492  1.00  0.00     0.000 C 
BRANCH  10  11
ATOM     11  C   UNL     1      14.840  40.009  47.785  1.00  0.00    -0.000 C 
BRANCH  11  12
ATOM     12  C   UNL     1      13.868  39.966  46.589  1.00  0.00    -0.000 C 
BRANCH  12  13
ATOM     13  C   UNL     1      13.323  38.569  46.244  1.00  0.00    -0.000 C 
BRANCH  13  14
ATOM     14  C   UNL     1      12.966  37.742  47.487  1.00  0.00    -0.000 C 
BRANCH  14  15
ATOM     15  C   UNL     1      13.692  36.392  47.476  1.00  0.00    -0.003 C 
ATOM     16  C   UNL     1      14.768  36.336  48.556  1.00  0.00     0.004 C 
ENDBRANCH  14  15
ENDBRANCH  13  14
ENDBRANCH  12  13
ENDBRANCH  11  12
ENDBRANCH  10  11
ENDBRANCH   1  10
TORSDOF 12
ENDMDL
MODEL 2
REMARK VINA RESULT:     6.542      2.941      6.217
REMARK INTER + INTRA:          10.500
REMARK INTER:                  10.469
REMARK INTRA:                   0.032
REMARK UNBOUND:                -0.631
REMARK SMILES CCCCCCCCCCCCCC(=O)[O-]
REMARK SMILES IDX 8 1 9 2 10 3 11 4 12 5 13 6 14 7 15 8 16 9 7 10 6 11 5 12
REMARK SMILES IDX 4 13 3 14 2 15 1 16
REMARK H PARENT
REMARK Flexibility Score: inf
ROOT
ATOM      1  C   UNL     1      15.628  39.795  47.305  1.00  0.00     0.000 C 
ENDROOT
BRANCH   1   2
ATOM      2  C   UNL     1      14.117  39.746  47.016  1.00  0.00     0.000 C 
BRANCH   2   3
ATOM      3  C   UNL     1      13.675  38.424  46.369  1.00  0.00     0.000 C 
BRANCH   3   4
ATOM      4  C   UNL     1      12.925  37.544  47.380  1.00  0.00     0.000 C 
BRANCH   4   5
ATOM      5  C   UNL     1      13.701  36.268  47.745  1.00  0.00     0.006 C 
BRANCH   5   6
ATOM      6  C   UNL     1      15.027  36.567  48.457  1.00  0.00     0.053 C 
BRANCH   6   7
ATOM      7  C   UNL     1      15.299  35.536  49.507  1.00  0.00     0.041 C 
ATOM      8  O   UNL     1      15.883  35.857  50.575  1.00  0.00    -0.550 OA
ATOM      9  O   UNL     1      14.952  34.209  49.284  1.00  0.00    -0.550 OA
ENDBRANCH   6   7
ENDBRANCH   5   6
ENDBRANCH   4   5
ENDBRANCH   3   4
ENDBRANCH   2   3
ENDBRANCH   1   2
BRANCH   1  10
ATOM     10  C   UNL     1      16.403  38.512  46.945  1.00  0.00     0.000 C 
BRANCH  10  11
ATOM     11  C   UNL     1      17.672  38.731  46.099  1.00  0.00    -0.000 C 
BRANCH  11  12
ATOM     12  C   UNL     1      19.000  38.619  46.874  1.00  0.00    -0.000 C 
BRANCH  12  13
ATOM     13  C   UNL     1      19.602  37.204  46.931  1.00  0.00    -0.000 C 
BRANCH  13  14
ATOM     14  C   UNL     1      19.469  36.444  45.603  1.00  0.00    -0.000 C 
BRANCH  14  15
ATOM     15  C   UNL     1      20.455  35.271  45.541  1.00  0.00    -0.003 C 
ATOM     16  C   UNL     1      20.922  35.019  44.110  1.00  0.00     0.004 C 
ENDBRANCH  14  15
ENDBRANCH  13  14
ENDBRANCH  12  13
ENDBRANCH  11  12
ENDBRANCH  10  11
ENDBRANCH   1  10
TORSDOF 12
ENDMDL
MODEL 3
REMARK VINA RESULT:     6.685      2.370      3.747
REMARK INTER + INTRA:          10.743
REMARK INTER:                  11.796
REMARK INTRA:                  -1.053
REMARK UNBOUND:                -0.631
REMARK SMILES CCCCCCCCCCCCCC(=O)[O-]
REMARK SMILES IDX 8 1 9 2 10 3 11 4 12 5 13 6 14 7 15 8 16 9 7 10 6 11 5 12
REMARK SMILES IDX 4 13 3 14 2 15 1 16
REMARK H PARENT
REMARK Flexibility Score: inf
ROOT
ATOM      1  C   UNL     1      14.075  40.125  46.385  1.00  0.00     0.000 C 
ENDROOT
BRANCH   1   2
ATOM      2  C   UNL     1      14.838  40.125  47.722  1.00  0.00     0.000 C 
BRANCH   2   3
ATOM      3  C   UNL     1      16.258  39.551  47.599  1.00  0.00     0.000 C 
BRANCH   3   4
ATOM      4  C   UNL     1      16.383  38.661  46.353  1.00  0.00     0.000 C 
BRANCH   4   5
ATOM      5  C   UNL     1      17.528  37.642  46.465  1.00  0.00     0.006 C 
BRANCH   5   6
ATOM      6  C   UNL     1      18.814  38.121  45.778  1.00  0.00     0.053 C 
BRANCH   6   7
ATOM      7  C   UNL     1      19.742  38.734  46.778  1.00  0.00     0.041 C 
ATOM      8  O   UNL     1      20.289  38.020  47.658  1.00  0.00    -0.550 OA
ATOM      9  O   UNL     1      19.966  40.106  46.769  1.00  0.00    -0.550 OA
ENDBRANCH   6   7
ENDBRANCH   5   6
ENDBRANCH   4   5
ENDBRANCH   3   4
ENDBRANCH   2   3
ENDBRANCH   1   2
BRANCH   1  10
ATOM     10  C   UNL     1      12.860  39.178  46.328  1.00  0.00     0.000 C 
BRANCH  10  11
ATOM     11  C   UNL     1      13.194  37.679  46.465  1.00  0.00    -0.000 C 
BRANCH  11  12
ATOM     12  C   UNL     1      13.165  37.133  47.907  1.00  0.00    -0.000 C 
BRANCH  12  13
ATOM     13  C   UNL     1      13.936  35.819  48.120  1.00  0.00    -0.000 C 
BRANCH  13  14
ATOM     14  C   UNL     1      15.331  36.034  48.724  1.00  0.00    -0.000 C 
BRANCH  14  15
ATOM     15  C   UNL     1      15.448  35.352  50.092  1.00  0.00    -0.003 C 
ATOM     16  C   UNL     1      16.391  36.122  51.013  1.00  0.00     0.004 C 
ENDBRANCH  14  15
ENDBRANCH  13  14
ENDBRANCH  12  13
ENDBRANCH  11  12
ENDBRANCH  10  11
ENDBRANCH   1  10
TORSDOF 12
ENDMDL
MODEL 4
REMARK VINA RESULT:     7.508      1.291      2.704
REMARK INTER + INTRA:          12.143
REMARK INTER:                  12.589
REMARK INTRA:                  -0.446
REMARK UNBOUND:                -0.631
REMARK SMILES CCCCCCCCCCCCCC(=O)[O-]
REMARK SMILES IDX 8 1 9 2 10 3 11 4 12 5 13 6 14 7 15 8 16 9 7 10 6 11 5 12
REMARK SMILES IDX 4 13 3 14 2 15 1 16
REMARK H PARENT
REMARK Flexibility Score: inf
ROOT
ATOM      1  C   UNL     1      14.800  40.124  47.611  1.00  0.00     0.000 C 
ENDROOT
BRANCH   1   2
ATOM      2  C   UNL     1      16.153  39.391  47.605  1.00  0.00     0.000 C 
BRANCH   2   3
ATOM      3  C   UNL     1      16.425  38.652  46.285  1.00  0.00     0.000 C 
BRANCH   3   4
ATOM      4  C   UNL     1      17.867  38.890  45.811  1.00  0.00     0.000 C 
BRANCH   4   5
ATOM      5  C   UNL     1      18.882  38.860  46.965  1.00  0.00     0.006 C 
BRANCH   5   6
ATOM      6  C   UNL     1      20.077  37.943  46.676  1.00  0.00     0.053 C 
BRANCH   6   7
ATOM      7  C   UNL     1      19.609  36.551  46.388  1.00  0.00     0.041 C 
ATOM      8  O   UNL     1      18.506  36.146  46.840  1.00  0.00    -0.550 OA
ATOM      9  O   UNL     1      20.415  35.683  45.661  1.00  0.00    -0.550 OA
ENDBRANCH   6   7
ENDBRANCH   5   6
ENDBRANCH   4   5
ENDBRANCH   3   4
ENDBRANCH   2   3
ENDBRANCH   1   2
BRANCH   1  10
ATOM     10  C   UNL     1      13.912  39.867  46.377  1.00  0.00     0.000 C 
BRANCH  10  11
ATOM     11  C   UNL     1      13.120  38.545  46.408  1.00  0.00    -0.000 C 
BRANCH  11  12
ATOM     12  C   UNL     1      13.339  37.683  47.667  1.00  0.00    -0.000 C 
BRANCH  12  13
ATOM     13  C   UNL     1      13.070  36.179  47.481  1.00  0.00    -0.000 C 
BRANCH  13  14
ATOM     14  C   UNL     1      13.986  35.297  48.341  1.00  0.00    -0.000 C 
BRANCH  14  15
ATOM     15  C   UNL     1      15.271  36.043  48.718  1.00  0.00    -0.003 C 
ATOM     16  C   UNL     1      15.698  35.717  50.147  1.00  0.00     0.004 C 
ENDBRANCH  14  15
ENDBRANCH  13  14
ENDBRANCH  12  13
ENDBRANCH  11  12
ENDBRANCH  10  11
ENDBRANCH   1  10
TORSDOF 12
ENDMDL
MODEL 5
REMARK VINA RESULT:     8.135      3.585      5.588
REMARK INTER + INTRA:          13.211
REMARK INTER:                  13.895
REMARK INTRA:                  -0.683
REMARK UNBOUND:                -0.631
REMARK SMILES CCCCCCCCCCCCCC(=O)[O-]
REMARK SMILES IDX 8 1 9 2 10 3 11 4 12 5 13 6 14 7 15 8 16 9 7 10 6 11 5 12
REMARK SMILES IDX 4 13 3 14 2 15 1 16
REMARK H PARENT
REMARK Flexibility Score: inf
ROOT
ATOM      1  C   UNL     1      14.340  37.129  48.309  1.00  0.00     0.000 C 
ENDROOT
BRANCH   1   2
ATOM      2  C   UNL     1      13.577  37.789  47.146  1.00  0.00     0.000 C 
BRANCH   2   3
ATOM      3  C   UNL     1      14.196  39.126  46.709  1.00  0.00     0.000 C 
BRANCH   3   4
ATOM      4  C   UNL     1      15.660  39.226  47.163  1.00  0.00     0.000 C 
BRANCH   4   5
ATOM      5  C   UNL     1      16.653  38.898  46.036  1.00  0.00     0.006 C 
BRANCH   5   6
ATOM      6  C   UNL     1      17.615  37.762  46.409  1.00  0.00     0.053 C 
BRANCH   6   7
ATOM      7  C   UNL     1      18.937  38.319  46.837  1.00  0.00     0.041 C 
ATOM      8  O   UNL     1      19.115  39.564  46.887  1.00  0.00    -0.550 OA
ATOM      9  O   UNL     1      19.989  37.461  47.133  1.00  0.00    -0.550 OA
ENDBRANCH   6   7
ENDBRANCH   5   6
ENDBRANCH   4   5
ENDBRANCH   3   4
ENDBRANCH   2   3
ENDBRANCH   1   2
BRANCH   1  10
ATOM     10  C   UNL     1      14.221  35.594  48.378  1.00  0.00     0.000 C 
BRANCH  10  11
ATOM     11  C   UNL     1      15.234  34.902  49.312  1.00  0.00    -0.000 C 
BRANCH  11  12
ATOM     12  C   UNL     1      14.934  33.421  49.616  1.00  0.00    -0.000 C 
BRANCH  12  13
ATOM     13  C   UNL     1      15.898  32.754  50.614  1.00  0.00    -0.000 C 
BRANCH  13  14
ATOM     14  C   UNL     1      15.531  31.293  50.914  1.00  0.00    -0.000 C 
BRANCH  14  15
ATOM     15  C   UNL     1      14.152  30.945  50.344  1.00  0.00    -0.003 C 
ATOM     16  C   UNL     1      13.775  29.500  50.657  1.00  0.00     0.004 C 
ENDBRANCH  14  15
ENDBRANCH  13  14
ENDBRANCH  12  13
ENDBRANCH  11  12
ENDBRANCH  10  11
ENDBRANCH   1  10
TORSDOF 12
ENDMDL
