MODEL 1
REMARK VINA RESULT:    -4.259      0.000      0.000
REMARK INTER + INTRA:         -13.544
REMARK INTER:                  -9.736
REMARK INTRA:                  -3.808
REMARK UNBOUND:                -3.808
REMARK SMILES CCCCCCCCCCCCCCCCCCCCCCCC(=O)[O-]
REMARK SMILES IDX 13 1 14 2 15 3 16 4 17 5 18 6 19 7 20 8 21 9 22 10 23 11
REMARK SMILES IDX 24 12 25 13 26 14 12 15 11 16 10 17 9 18 8 19 7 20 6 21 5 22
REMARK SMILES IDX 4 23 3 24 2 25 1 26
REMARK H PARENT
REMARK Flexibility Score: inf
ROOT
ATOM      1  C   UNL     1      25.582   6.401   6.984  1.00  0.00     0.000 C 
ENDROOT
BRANCH   1   2
ATOM      2  C   UNL     1      25.553   4.866   7.018  1.00  0.00     0.000 C 
BRANCH   2   3
ATOM      3  C   UNL     1      24.450   4.312   7.940  1.00  0.00     0.000 C 
BRANCH   3   4
ATOM      4  C   UNL     1      25.015   3.414   9.061  1.00  0.00     0.000 C 
BRANCH   4   5
ATOM      5  C   UNL     1      25.384   4.176  10.350  1.00  0.00     0.000 C 
BRANCH   5   6
ATOM      6  C   UNL     1      26.809   4.756  10.380  1.00  0.00     0.000 C 
BRANCH   6   7
ATOM      7  C   UNL     1      27.937   3.712  10.271  1.00  0.00     0.000 C 
BRANCH   7   8
ATOM      8  C   UNL     1      28.749   3.809   8.960  1.00  0.00     0.000 C 
BRANCH   8   9
ATOM      9  C   UNL     1      28.374   2.702   7.961  1.00  0.00     0.000 C 
BRANCH   9  10
ATOM     10  C   UNL     1      28.341   1.309   8.609  1.00  0.00     0.006 C 
BRANCH  10  11
ATOM     11  C   UNL     1      27.287   0.389   7.978  1.00  0.00     0.053 C 
BRANCH  11  12
ATOM     12  C   UNL     1      27.940  -0.606   7.072  1.00  0.00     0.041 C 
ATOM     13  O   UNL     1      29.125  -0.978   7.286  1.00  0.00    -0.550 OA
ATOM     14  O   UNL     1      27.221  -1.169   6.024  1.00  0.00    -0.550 OA
ENDBRANCH  11  12
ENDBRANCH  10  11
ENDBRANCH   9  10
ENDBRANCH   8   9
ENDBRANCH   7   8
ENDBRANCH   6   7
ENDBRANCH   5   6
ENDBRANCH   4   5
ENDBRANCH   3   4
ENDBRANCH   2   3
ENDBRANCH   1   2
BRANCH   1  15
ATOM     15  C   UNL     1      26.786   6.992   7.732  1.00  0.00     0.000 C 
BRANCH  15  16
ATOM     16  C   UNL     1      26.348   8.148   8.645  1.00  0.00     0.000 C 
BRANCH  16  17
ATOM     17  C   UNL     1      24.821   8.283   8.751  1.00  0.00     0.000 C 
BRANCH  17  18
ATOM     18  C   UNL     1      24.261   7.700  10.060  1.00  0.00    -0.000 C 
BRANCH  18  19
ATOM     19  C   UNL     1      22.862   7.090   9.879  1.00  0.00    -0.000 C 
BRANCH  19  20
ATOM     20  C   UNL     1      22.313   7.283   8.455  1.00  0.00    -0.000 C 
BRANCH  20  21
ATOM     21  C   UNL     1      21.121   8.255   8.404  1.00  0.00    -0.000 C 
BRANCH  21  22
ATOM     22  C   UNL     1      20.327   8.186   7.082  1.00  0.00    -0.000 C 
BRANCH  22  23
ATOM     23  C   UNL     1      20.638   6.911   6.280  1.00  0.00    -0.000 C 
BRANCH  23  24
ATOM     24  C   UNL     1      19.372   6.127   5.895  1.00  0.00    -0.000 C 
BRANCH  24  25
ATOM     25  C   UNL     1      19.402   4.652   6.349  1.00  0.00    -0.003 C 
ATOM     26  C   UNL     1      20.829   4.132   6.533  1.00  0.00     0.004 C 
ENDBRANCH  24  25
ENDBRANCH  23  24
ENDBRANCH  22  23
ENDBRANCH  21  22
ENDBRANCH  20  21
ENDBRANCH  19  20
ENDBRANCH  18  19
ENDBRANCH  17  18
ENDBRANCH  16  17
ENDBRANCH  15  16
ENDBRANCH   1  15
TORSDOF 22
ENDMDL
MODEL 2
REMARK VINA RESULT:    -4.156      3.062      6.089
REMARK INTER + INTRA:         -13.308
REMARK INTER:                  -9.117
REMARK INTRA:                  -4.191
REMARK UNBOUND:                -3.808
REMARK SMILES CCCCCCCCCCCCCCCCCCCCCCCC(=O)[O-]
REMARK SMILES IDX 13 1 14 2 15 3 16 4 17 5 18 6 19 7 20 8 21 9 22 10 23 11
REMARK SMILES IDX 24 12 25 13 26 14 12 15 11 16 10 17 9 18 8 19 7 20 6 21 5 22
REMARK SMILES IDX 4 23 3 24 2 25 1 26
REMARK H PARENT
REMARK Flexibility Score: inf
ROOT
ATOM      1  C   UNL     1      28.796   0.075   8.411  1.00  0.00     0.000 C 
ENDROOT
BRANCH   1   2
ATOM      2  C   UNL     1      28.400  -1.036   9.395  1.00  0.00     0.000 C 
BRANCH   2   3
ATOM      3  C   UNL     1      28.223  -2.404   8.708  1.00  0.00     0.000 C 
BRANCH   3   4
ATOM      4  C   UNL     1      28.699  -2.391   7.239  1.00  0.00     0.000 C 
BRANCH   4   5
ATOM      5  C   UNL     1      27.564  -2.557   6.210  1.00  0.00     0.000 C 
BRANCH   5   6
ATOM      6  C   UNL     1      26.156  -2.210   6.728  1.00  0.00     0.000 C 
BRANCH   6   7
ATOM      7  C   UNL     1      25.690  -0.773   6.427  1.00  0.00     0.000 C 
BRANCH   7   8
ATOM      8  C   UNL     1      26.576  -0.035   5.397  1.00  0.00     0.000 C 
BRANCH   8   9
ATOM      9  C   UNL     1      25.771   0.958   4.543  1.00  0.00     0.000 C 
BRANCH   9  10
ATOM     10  C   UNL     1      24.324   0.495   4.306  1.00  0.00     0.006 C 
BRANCH  10  11
ATOM     11  C   UNL     1      23.941   0.494   2.820  1.00  0.00     0.053 C 
BRANCH  11  12
ATOM     12  C   UNL     1      24.893  -0.354   2.038  1.00  0.00     0.041 C 
ATOM     13  O   UNL     1      25.576   0.151   1.107  1.00  0.00    -0.550 OA
ATOM     14  O   UNL     1      25.070  -1.690   2.374  1.00  0.00    -0.550 OA
ENDBRANCH  11  12
ENDBRANCH  10  11
ENDBRANCH   9  10
ENDBRANCH   8   9
ENDBRANCH   7   8
ENDBRANCH   6   7
ENDBRANCH   5   6
ENDBRANCH   4   5
ENDBRANCH   3   4
ENDBRANCH   2   3
ENDBRANCH   1   2
BRANCH   1  15
ATOM     15  C   UNL     1      27.946   1.345   8.571  1.00  0.00     0.000 C 
BRANCH  15  16
ATOM     16  C   UNL     1      28.612   2.540   7.870  1.00  0.00     0.000 C 
BRANCH  16  17
ATOM     17  C   UNL     1      28.749   3.769   8.783  1.00  0.00     0.000 C 
BRANCH  17  18
ATOM     18  C   UNL     1      27.988   3.612  10.110  1.00  0.00    -0.000 C 
BRANCH  18  19
ATOM     19  C   UNL     1      26.978   4.747  10.344  1.00  0.00    -0.000 C 
BRANCH  19  20
ATOM     20  C   UNL     1      26.839   5.675   9.126  1.00  0.00    -0.000 C 
BRANCH  20  21
ATOM     21  C   UNL     1      25.419   5.673   8.534  1.00  0.00    -0.000 C 
BRANCH  21  22
ATOM     22  C   UNL     1      25.361   5.186   7.070  1.00  0.00    -0.000 C 
BRANCH  22  23
ATOM     23  C   UNL     1      25.391   3.651   6.965  1.00  0.00    -0.000 C 
BRANCH  23  24
ATOM     24  C   UNL     1      24.646   2.962   8.122  1.00  0.00    -0.000 C 
BRANCH  24  25
ATOM     25  C   UNL     1      23.576   1.956   7.650  1.00  0.00    -0.003 C 
ATOM     26  C   UNL     1      22.512   2.614   6.769  1.00  0.00     0.004 C 
ENDBRANCH  24  25
ENDBRANCH  23  24
ENDBRANCH  22  23
ENDBRANCH  21  22
ENDBRANCH  20  21
ENDBRANCH  19  20
ENDBRANCH  18  19
ENDBRANCH  17  18
ENDBRANCH  16  17
ENDBRANCH  15  16
ENDBRANCH   1  15
TORSDOF 22
ENDMDL
MODEL 3
REMARK VINA RESULT:    -4.072      3.004      5.122
REMARK INTER + INTRA:         -13.116
REMARK INTER:                  -9.364
REMARK INTRA:                  -3.751
REMARK UNBOUND:                -3.808
REMARK SMILES CCCCCCCCCCCCCCCCCCCCCCCC(=O)[O-]
REMARK SMILES IDX 13 1 14 2 15 3 16 4 17 5 18 6 19 7 20 8 21 9 22 10 23 11
REMARK SMILES IDX 24 12 25 13 26 14 12 15 11 16 10 17 9 18 8 19 7 20 6 21 5 22
REMARK SMILES IDX 4 23 3 24 2 25 1 26
REMARK H PARENT
REMARK Flexibility Score: inf
ROOT
ATOM      1  C   UNL     1      25.188   2.704   6.744  1.00  0.00     0.000 C 
ENDROOT
BRANCH   1   2
ATOM      2  C   UNL     1      26.583   3.332   6.610  1.00  0.00     0.000 C 
BRANCH   2   3
ATOM      3  C   UNL     1      27.657   2.313   6.186  1.00  0.00     0.000 C 
BRANCH   3   4
ATOM      4  C   UNL     1      28.777   2.165   7.238  1.00  0.00     0.000 C 
BRANCH   4   5
ATOM      5  C   UNL     1      28.401   1.265   8.433  1.00  0.00     0.000 C 
BRANCH   5   6
ATOM      6  C   UNL     1      28.736   1.847   9.818  1.00  0.00     0.000 C 
BRANCH   6   7
ATOM      7  C   UNL     1      28.680   3.384   9.908  1.00  0.00     0.000 C 
BRANCH   7   8
ATOM      8  C   UNL     1      27.294   3.933  10.316  1.00  0.00     0.000 C 
BRANCH   8   9
ATOM      9  C   UNL     1      27.112   5.406   9.915  1.00  0.00     0.000 C 
BRANCH   9  10
ATOM     10  C   UNL     1      25.645   5.761   9.621  1.00  0.00     0.006 C 
BRANCH  10  11
ATOM     11  C   UNL     1      25.460   6.415   8.245  1.00  0.00     0.053 C 
BRANCH  11  12
ATOM     12  C   UNL     1      25.998   7.810   8.256  1.00  0.00     0.041 C 
ATOM     13  O   UNL     1      27.098   8.072   7.702  1.00  0.00    -0.550 OA
ATOM     14  O   UNL     1      25.255   8.836   8.829  1.00  0.00    -0.550 OA
ENDBRANCH  11  12
ENDBRANCH  10  11
ENDBRANCH   9  10
ENDBRANCH   8   9
ENDBRANCH   7   8
ENDBRANCH   6   7
ENDBRANCH   5   6
ENDBRANCH   4   5
ENDBRANCH   3   4
ENDBRANCH   2   3
ENDBRANCH   1   2
BRANCH   1  15
ATOM     15  C   UNL     1      24.831   2.345   8.194  1.00  0.00     0.000 C 
BRANCH  15  16
ATOM     16  C   UNL     1      23.444   2.891   8.567  1.00  0.00     0.000 C 
BRANCH  16  17
ATOM     17  C   UNL     1      22.865   3.835   7.501  1.00  0.00     0.000 C 
BRANCH  17  18
ATOM     18  C   UNL     1      21.635   3.246   6.790  1.00  0.00    -0.000 C 
BRANCH  18  19
ATOM     19  C   UNL     1      20.969   4.255   5.840  1.00  0.00    -0.000 C 
BRANCH  19  20
ATOM     20  C   UNL     1      19.748   4.944   6.471  1.00  0.00    -0.000 C 
BRANCH  20  21
ATOM     21  C   UNL     1      19.509   6.358   5.915  1.00  0.00    -0.000 C 
BRANCH  21  22
ATOM     22  C   UNL     1      19.241   7.414   7.009  1.00  0.00    -0.000 C 
BRANCH  22  23
ATOM     23  C   UNL     1      20.327   8.504   7.046  1.00  0.00    -0.000 C 
BRANCH  23  24
ATOM     24  C   UNL     1      21.091   8.536   8.381  1.00  0.00    -0.000 C 
BRANCH  24  25
ATOM     25  C   UNL     1      21.955   7.281   8.622  1.00  0.00    -0.003 C 
ATOM     26  C   UNL     1      21.407   6.410   9.753  1.00  0.00     0.004 C 
ENDBRANCH  24  25
ENDBRANCH  23  24
ENDBRANCH  22  23
ENDBRANCH  21  22
ENDBRANCH  20  21
ENDBRANCH  19  20
ENDBRANCH  18  19
ENDBRANCH  17  18
ENDBRANCH  16  17
ENDBRANCH  15  16
ENDBRANCH   1  15
TORSDOF 22
ENDMDL
MODEL 4
REMARK VINA RESULT:    -4.026      2.927      7.850
REMARK INTER + INTRA:         -13.011
REMARK INTER:                  -9.386
REMARK INTRA:                  -3.625
REMARK UNBOUND:                -3.808
REMARK SMILES CCCCCCCCCCCCCCCCCCCCCCCC(=O)[O-]
REMARK SMILES IDX 13 1 14 2 15 3 16 4 17 5 18 6 19 7 20 8 21 9 22 10 23 11
REMARK SMILES IDX 24 12 25 13 26 14 12 15 11 16 10 17 9 18 8 19 7 20 6 21 5 22
REMARK SMILES IDX 4 23 3 24 2 25 1 26
REMARK H PARENT
REMARK Flexibility Score: inf
ROOT
ATOM      1  C   UNL     1      23.718   2.745   8.718  1.00  0.00     0.000 C 
ENDROOT
BRANCH   1   2
ATOM      2  C   UNL     1      25.016   3.038   9.487  1.00  0.00     0.000 C 
BRANCH   2   3
ATOM      3  C   UNL     1      25.015   4.430  10.147  1.00  0.00     0.000 C 
BRANCH   3   4
ATOM      4  C   UNL     1      26.285   5.242   9.812  1.00  0.00     0.000 C 
BRANCH   4   5
ATOM      5  C   UNL     1      26.549   5.400   8.301  1.00  0.00     0.000 C 
BRANCH   5   6
ATOM      6  C   UNL     1      26.013   6.702   7.678  1.00  0.00     0.000 C 
BRANCH   6   7
ATOM      7  C   UNL     1      26.186   7.959   8.552  1.00  0.00     0.000 C 
BRANCH   7   8
ATOM      8  C   UNL     1      24.852   8.648   8.920  1.00  0.00     0.000 C 
BRANCH   8   9
ATOM      9  C   UNL     1      24.201   8.026  10.166  1.00  0.00     0.000 C 
BRANCH   9  10
ATOM     10  C   UNL     1      22.779   7.511   9.895  1.00  0.00     0.006 C 
BRANCH  10  11
ATOM     11  C   UNL     1      22.443   7.463   8.398  1.00  0.00     0.053 C 
BRANCH  11  12
ATOM     12  C   UNL     1      22.155   6.057   7.975  1.00  0.00     0.041 C 
ATOM     13  O   UNL     1      22.687   5.585   6.935  1.00  0.00    -0.550 OA
ATOM     14  O   UNL     1      21.343   5.248   8.761  1.00  0.00    -0.550 OA
ENDBRANCH  11  12
ENDBRANCH  10  11
ENDBRANCH   9  10
ENDBRANCH   8   9
ENDBRANCH   7   8
ENDBRANCH   6   7
ENDBRANCH   5   6
ENDBRANCH   4   5
ENDBRANCH   3   4
ENDBRANCH   2   3
ENDBRANCH   1   2
BRANCH   1  15
ATOM     15  C   UNL     1      23.947   1.886   7.466  1.00  0.00     0.000 C 
BRANCH  15  16
ATOM     16  C   UNL     1      25.088   2.460   6.610  1.00  0.00     0.000 C 
BRANCH  16  17
ATOM     17  C   UNL     1      26.295   1.514   6.508  1.00  0.00     0.000 C 
BRANCH  17  18
ATOM     18  C   UNL     1      27.561   2.219   5.994  1.00  0.00    -0.000 C 
BRANCH  18  19
ATOM     19  C   UNL     1      28.741   2.090   6.970  1.00  0.00    -0.000 C 
BRANCH  19  20
ATOM     20  C   UNL     1      28.372   2.509   8.402  1.00  0.00    -0.000 C 
BRANCH  20  21
ATOM     21  C   UNL     1      28.708   1.428   9.444  1.00  0.00    -0.000 C 
BRANCH  21  22
ATOM     22  C   UNL     1      29.067   0.062   8.822  1.00  0.00    -0.000 C 
BRANCH  22  23
ATOM     23  C   UNL     1      28.297  -1.098   9.476  1.00  0.00    -0.000 C 
BRANCH  23  24
ATOM     24  C   UNL     1      28.221  -2.344   8.576  1.00  0.00    -0.000 C 
BRANCH  24  25
ATOM     25  C   UNL     1      27.871  -2.019   7.109  1.00  0.00    -0.003 C 
ATOM     26  C   UNL     1      26.377  -2.173   6.822  1.00  0.00     0.004 C 
ENDBRANCH  24  25
ENDBRANCH  23  24
ENDBRANCH  22  23
ENDBRANCH  21  22
ENDBRANCH  20  21
ENDBRANCH  19  20
ENDBRANCH  18  19
ENDBRANCH  17  18
ENDBRANCH  16  17
ENDBRANCH  15  16
ENDBRANCH   1  15
TORSDOF 22
ENDMDL
MODEL 5
REMARK VINA RESULT:    -4.023      1.453      2.218
REMARK INTER + INTRA:         -13.004
REMARK INTER:                  -8.825
REMARK INTRA:                  -4.179
REMARK UNBOUND:                -3.808
REMARK SMILES CCCCCCCCCCCCCCCCCCCCCCCC(=O)[O-]
REMARK SMILES IDX 13 1 14 2 15 3 16 4 17 5 18 6 19 7 20 8 21 9 22 10 23 11
REMARK SMILES IDX 24 12 25 13 26 14 12 15 11 16 10 17 9 18 8 19 7 20 6 21 5 22
REMARK SMILES IDX 4 23 3 24 2 25 1 26
REMARK H PARENT
REMARK Flexibility Score: inf
ROOT
ATOM      1  C   UNL     1      25.194   6.035   6.897  1.00  0.00     0.000 C 
ENDROOT
BRANCH   1   2
ATOM      2  C   UNL     1      25.777   4.631   7.116  1.00  0.00     0.000 C 
BRANCH   2   3
ATOM      3  C   UNL     1      25.116   3.889   8.294  1.00  0.00     0.000 C 
BRANCH   3   4
ATOM      4  C   UNL     1      26.094   3.654   9.465  1.00  0.00     0.000 C 
BRANCH   4   5
ATOM      5  C   UNL     1      27.417   4.436   9.346  1.00  0.00     0.000 C 
BRANCH   5   6
ATOM      6  C   UNL     1      28.647   3.587   8.978  1.00  0.00     0.000 C 
BRANCH   6   7
ATOM      7  C   UNL     1      28.465   2.068   9.161  1.00  0.00     0.000 C 
BRANCH   7   8
ATOM      8  C   UNL     1      28.427   1.282   7.830  1.00  0.00     0.000 C 
BRANCH   8   9
ATOM      9  C   UNL     1      28.480   2.210   6.606  1.00  0.00     0.000 C 
BRANCH   9  10
ATOM     10  C   UNL     1      27.711   1.643   5.402  1.00  0.00     0.006 C 
BRANCH  10  11
ATOM     11  C   UNL     1      26.300   1.167   5.773  1.00  0.00     0.053 C 
BRANCH  11  12
ATOM     12  C   UNL     1      26.025  -0.170   5.162  1.00  0.00     0.041 C 
ATOM     13  O   UNL     1      26.790  -1.144   5.393  1.00  0.00    -0.550 OA
ATOM     14  O   UNL     1      24.889  -0.357   4.383  1.00  0.00    -0.550 OA
ENDBRANCH  11  12
ENDBRANCH  10  11
ENDBRANCH   9  10
ENDBRANCH   8   9
ENDBRANCH   7   8
ENDBRANCH   6   7
ENDBRANCH   5   6
ENDBRANCH   4   5
ENDBRANCH   3   4
ENDBRANCH   2   3
ENDBRANCH   1   2
BRANCH   1  15
ATOM     15  C   UNL     1      26.222   7.152   7.131  1.00  0.00     0.000 C 
BRANCH  15  16
ATOM     16  C   UNL     1      26.019   7.802   8.509  1.00  0.00     0.000 C 
BRANCH  16  17
ATOM     17  C   UNL     1      24.553   7.782   8.971  1.00  0.00     0.000 C 
BRANCH  17  18
ATOM     18  C   UNL     1      24.358   7.034  10.300  1.00  0.00    -0.000 C 
BRANCH  18  19
ATOM     19  C   UNL     1      22.948   6.439  10.436  1.00  0.00    -0.000 C 
BRANCH  19  20
ATOM     20  C   UNL     1      22.222   6.325   9.085  1.00  0.00    -0.000 C 
BRANCH  20  21
ATOM     21  C   UNL     1      21.687   4.908   8.814  1.00  0.00    -0.000 C 
BRANCH  21  22
ATOM     22  C   UNL     1      21.313   4.662   7.337  1.00  0.00    -0.000 C 
BRANCH  22  23
ATOM     23  C   UNL     1      21.616   5.881   6.448  1.00  0.00    -0.000 C 
BRANCH  23  24
ATOM     24  C   UNL     1      20.357   6.444   5.765  1.00  0.00    -0.000 C 
BRANCH  24  25
ATOM     25  C   UNL     1      19.257   6.868   6.760  1.00  0.00    -0.003 C 
ATOM     26  C   UNL     1      19.496   8.268   7.327  1.00  0.00     0.004 C 
ENDBRANCH  24  25
ENDBRANCH  23  24
ENDBRANCH  22  23
ENDBRANCH  21  22
ENDBRANCH  20  21
ENDBRANCH  19  20
ENDBRANCH  18  19
ENDBRANCH  17  18
ENDBRANCH  16  17
ENDBRANCH  15  16
ENDBRANCH   1  15
TORSDOF 22
ENDMDL
MODEL 6
REMARK VINA RESULT:    -4.003      2.620      7.065
REMARK INTER + INTRA:         -12.960
REMARK INTER:                  -8.797
REMARK INTRA:                  -4.163
REMARK UNBOUND:                -3.808
REMARK SMILES CCCCCCCCCCCCCCCCCCCCCCCC(=O)[O-]
REMARK SMILES IDX 13 1 14 2 15 3 16 4 17 5 18 6 19 7 20 8 21 9 22 10 23 11
REMARK SMILES IDX 24 12 25 13 26 14 12 15 11 16 10 17 9 18 8 19 7 20 6 21 5 22
REMARK SMILES IDX 4 23 3 24 2 25 1 26
REMARK H PARENT
REMARK Flexibility Score: inf
ROOT
ATOM      1  C   UNL     1      25.134   4.833   6.996  1.00  0.00     0.000 C 
ENDROOT
BRANCH   1   2
ATOM      2  C   UNL     1      25.134   6.364   6.874  1.00  0.00     0.000 C 
BRANCH   2   3
ATOM      3  C   UNL     1      26.405   7.008   7.460  1.00  0.00     0.000 C 
BRANCH   3   4
ATOM      4  C   UNL     1      26.134   7.746   8.788  1.00  0.00     0.000 C 
BRANCH   4   5
ATOM      5  C   UNL     1      24.728   8.372   8.883  1.00  0.00     0.000 C 
BRANCH   5   6
ATOM      6  C   UNL     1      23.776   7.690   9.882  1.00  0.00     0.000 C 
BRANCH   6   7
ATOM      7  C   UNL     1      22.413   7.273   9.299  1.00  0.00     0.000 C 
BRANCH   7   8
ATOM      8  C   UNL     1      21.621   8.443   8.671  1.00  0.00     0.000 C 
BRANCH   8   9
ATOM      9  C   UNL     1      20.891   8.025   7.384  1.00  0.00     0.000 C 
BRANCH   9  10
ATOM     10  C   UNL     1      21.406   6.692   6.819  1.00  0.00     0.006 C 
BRANCH  10  11
ATOM     11  C   UNL     1      20.268   5.749   6.403  1.00  0.00     0.053 C 
BRANCH  11  12
ATOM     12  C   UNL     1      20.492   4.383   6.970  1.00  0.00     0.041 C 
ATOM     13  O   UNL     1      20.520   3.377   6.212  1.00  0.00    -0.550 OA
ATOM     14  O   UNL     1      20.727   4.226   8.331  1.00  0.00    -0.550 OA
ENDBRANCH  11  12
ENDBRANCH  10  11
ENDBRANCH   9  10
ENDBRANCH   8   9
ENDBRANCH   7   8
ENDBRANCH   6   7
ENDBRANCH   5   6
ENDBRANCH   4   5
ENDBRANCH   3   4
ENDBRANCH   2   3
ENDBRANCH   1   2
BRANCH   1  15
ATOM     15  C   UNL     1      24.280   4.327   8.168  1.00  0.00     0.000 C 
BRANCH  15  16
ATOM     16  C   UNL     1      25.135   3.522   9.160  1.00  0.00     0.000 C 
BRANCH  16  17
ATOM     17  C   UNL     1      25.503   4.322  10.420  1.00  0.00     0.000 C 
BRANCH  17  18
ATOM     18  C   UNL     1      26.950   4.842  10.393  1.00  0.00    -0.000 C 
BRANCH  18  19
ATOM     19  C   UNL     1      27.970   3.754  10.767  1.00  0.00    -0.000 C 
BRANCH  19  20
ATOM     20  C   UNL     1      28.798   3.282   9.561  1.00  0.00    -0.000 C 
BRANCH  20  21
ATOM     21  C   UNL     1      28.779   1.753   9.388  1.00  0.00    -0.000 C 
BRANCH  21  22
ATOM     22  C   UNL     1      27.982   1.282   8.153  1.00  0.00    -0.000 C 
BRANCH  22  23
ATOM     23  C   UNL     1      28.060   2.287   6.990  1.00  0.00    -0.000 C 
BRANCH  23  24
ATOM     24  C   UNL     1      27.142   1.909   5.815  1.00  0.00    -0.000 C 
BRANCH  24  25
ATOM     25  C   UNL     1      25.842   1.204   6.255  1.00  0.00    -0.003 C 
ATOM     26  C   UNL     1      24.688   1.459   5.284  1.00  0.00     0.004 C 
ENDBRANCH  24  25
ENDBRANCH  23  24
ENDBRANCH  22  23
ENDBRANCH  21  22
ENDBRANCH  20  21
ENDBRANCH  19  20
ENDBRANCH  18  19
ENDBRANCH  17  18
ENDBRANCH  16  17
ENDBRANCH  15  16
ENDBRANCH   1  15
TORSDOF 22
ENDMDL
MODEL 7
REMARK VINA RESULT:    -4.000      3.283      7.634
REMARK INTER + INTRA:         -12.953
REMARK INTER:                  -9.188
REMARK INTRA:                  -3.765
REMARK UNBOUND:                -3.808
REMARK SMILES CCCCCCCCCCCCCCCCCCCCCCCC(=O)[O-]
REMARK SMILES IDX 13 1 14 2 15 3 16 4 17 5 18 6 19 7 20 8 21 9 22 10 23 11
REMARK SMILES IDX 24 12 25 13 26 14 12 15 11 16 10 17 9 18 8 19 7 20 6 21 5 22
REMARK SMILES IDX 4 23 3 24 2 25 1 26
REMARK H PARENT
REMARK Flexibility Score: inf
ROOT
ATOM      1  C   UNL     1      27.821   1.410   8.621  1.00  0.00     0.000 C 
ENDROOT
BRANCH   1   2
ATOM      2  C   UNL     1      28.519   2.652   8.048  1.00  0.00     0.000 C 
BRANCH   2   3
ATOM      3  C   UNL     1      28.690   3.773   9.091  1.00  0.00     0.000 C 
BRANCH   3   4
ATOM      4  C   UNL     1      27.598   3.735  10.181  1.00  0.00     0.000 C 
BRANCH   4   5
ATOM      5  C   UNL     1      26.822   5.057  10.340  1.00  0.00     0.000 C 
BRANCH   5   6
ATOM      6  C   UNL     1      26.821   5.966   9.099  1.00  0.00     0.000 C 
BRANCH   6   7
ATOM      7  C   UNL     1      25.474   6.048   8.355  1.00  0.00     0.000 C 
BRANCH   7   8
ATOM      8  C   UNL     1      25.568   5.685   6.856  1.00  0.00     0.000 C 
BRANCH   8   9
ATOM      9  C   UNL     1      25.791   4.180   6.636  1.00  0.00     0.000 C 
BRANCH   9  10
ATOM     10  C   UNL     1      24.756   3.315   7.373  1.00  0.00     0.006 C 
BRANCH  10  11
ATOM     11  C   UNL     1      23.834   2.550   6.414  1.00  0.00     0.053 C 
BRANCH  11  12
ATOM     12  C   UNL     1      22.469   3.160   6.406  1.00  0.00     0.041 C 
ATOM     13  O   UNL     1      22.305   4.354   6.773  1.00  0.00    -0.550 OA
ATOM     14  O   UNL     1      21.384   2.428   5.940  1.00  0.00    -0.550 OA
ENDBRANCH  11  12
ENDBRANCH  10  11
ENDBRANCH   9  10
ENDBRANCH   8   9
ENDBRANCH   7   8
ENDBRANCH   6   7
ENDBRANCH   5   6
ENDBRANCH   4   5
ENDBRANCH   3   4
ENDBRANCH   2   3
ENDBRANCH   1   2
BRANCH   1  15
ATOM     15  C   UNL     1      28.807   0.385   9.202  1.00  0.00     0.000 C 
BRANCH  15  16
ATOM     16  C   UNL     1      28.404  -1.045   8.808  1.00  0.00     0.000 C 
BRANCH  16  17
ATOM     17  C   UNL     1      28.659  -1.352   7.324  1.00  0.00     0.000 C 
BRANCH  17  18
ATOM     18  C   UNL     1      27.539  -2.194   6.690  1.00  0.00    -0.000 C 
BRANCH  18  19
ATOM     19  C   UNL     1      26.142  -1.616   6.969  1.00  0.00    -0.000 C 
BRANCH  19  20
ATOM     20  C   UNL     1      25.032  -2.360   6.209  1.00  0.00    -0.000 C 
BRANCH  20  21
ATOM     21  C   UNL     1      25.452  -2.761   4.784  1.00  0.00    -0.000 C 
BRANCH  21  22
ATOM     22  C   UNL     1      24.988  -1.764   3.701  1.00  0.00    -0.000 C 
BRANCH  22  23
ATOM     23  C   UNL     1      26.098  -1.451   2.683  1.00  0.00    -0.000 C 
BRANCH  23  24
ATOM     24  C   UNL     1      26.573   0.011   2.753  1.00  0.00    -0.000 C 
BRANCH  24  25
ATOM     25  C   UNL     1      26.150   0.731   4.050  1.00  0.00    -0.003 C 
ATOM     26  C   UNL     1      27.351   1.135   4.907  1.00  0.00     0.004 C 
ENDBRANCH  24  25
ENDBRANCH  23  24
ENDBRANCH  22  23
ENDBRANCH  21  22
ENDBRANCH  20  21
ENDBRANCH  19  20
ENDBRANCH  18  19
ENDBRANCH  17  18
ENDBRANCH  16  17
ENDBRANCH  15  16
ENDBRANCH   1  15
TORSDOF 22
ENDMDL
MODEL 8
REMARK VINA RESULT:    -4.000      2.353      4.801
REMARK INTER + INTRA:         -12.952
REMARK INTER:                  -9.037
REMARK INTRA:                  -3.915
REMARK UNBOUND:                -3.808
REMARK SMILES CCCCCCCCCCCCCCCCCCCCCCCC(=O)[O-]
REMARK SMILES IDX 13 1 14 2 15 3 16 4 17 5 18 6 19 7 20 8 21 9 22 10 23 11
REMARK SMILES IDX 24 12 25 13 26 14 12 15 11 16 10 17 9 18 8 19 7 20 6 21 5 22
REMARK SMILES IDX 4 23 3 24 2 25 1 26
REMARK H PARENT
REMARK Flexibility Score: inf
ROOT
ATOM      1  C   UNL     1      28.402   3.138  10.076  1.00  0.00     0.000 C 
ENDROOT
BRANCH   1   2
ATOM      2  C   UNL     1      28.729   3.389   8.596  1.00  0.00     0.000 C 
BRANCH   2   3
ATOM      3  C   UNL     1      28.542   2.134   7.723  1.00  0.00     0.000 C 
BRANCH   3   4
ATOM      4  C   UNL     1      27.846   0.985   8.485  1.00  0.00     0.000 C 
BRANCH   4   5
ATOM      5  C   UNL     1      28.776  -0.196   8.825  1.00  0.00     0.000 C 
BRANCH   5   6
ATOM      6  C   UNL     1      28.350  -1.553   8.235  1.00  0.00     0.000 C 
BRANCH   6   7
ATOM      7  C   UNL     1      27.868  -1.502   6.772  1.00  0.00     0.000 C 
BRANCH   7   8
ATOM      8  C   UNL     1      26.643  -2.401   6.489  1.00  0.00     0.000 C 
BRANCH   8   9
ATOM      9  C   UNL     1      25.320  -1.624   6.579  1.00  0.00     0.000 C 
BRANCH   9  10
ATOM     10  C   UNL     1      25.425  -0.208   5.989  1.00  0.00     0.006 C 
BRANCH  10  11
ATOM     11  C   UNL     1      25.191  -0.182   4.472  1.00  0.00     0.053 C 
BRANCH  11  12
ATOM     12  C   UNL     1      26.284   0.578   3.790  1.00  0.00     0.041 C 
ATOM     13  O   UNL     1      26.248   0.764   2.545  1.00  0.00    -0.550 OA
ATOM     14  O   UNL     1      27.316   1.132   4.539  1.00  0.00    -0.550 OA
ENDBRANCH  11  12
ENDBRANCH  10  11
ENDBRANCH   9  10
ENDBRANCH   8   9
ENDBRANCH   7   8
ENDBRANCH   6   7
ENDBRANCH   5   6
ENDBRANCH   4   5
ENDBRANCH   3   4
ENDBRANCH   2   3
ENDBRANCH   1   2
BRANCH   1  15
ATOM     15  C   UNL     1      27.639   4.301  10.725  1.00  0.00     0.000 C 
BRANCH  15  16
ATOM     16  C   UNL     1      26.128   4.173  10.472  1.00  0.00     0.000 C 
BRANCH  16  17
ATOM     17  C   UNL     1      25.468   5.509  10.097  1.00  0.00     0.000 C 
BRANCH  17  18
ATOM     18  C   UNL     1      26.413   6.444   9.324  1.00  0.00    -0.000 C 
BRANCH  18  19
ATOM     19  C   UNL     1      25.834   6.868   7.965  1.00  0.00    -0.000 C 
BRANCH  19  20
ATOM     20  C   UNL     1      25.023   5.748   7.292  1.00  0.00    -0.000 C 
BRANCH  20  21
ATOM     21  C   UNL     1      25.915   4.679   6.637  1.00  0.00    -0.000 C 
BRANCH  21  22
ATOM     22  C   UNL     1      25.280   3.271   6.624  1.00  0.00    -0.000 C 
BRANCH  22  23
ATOM     23  C   UNL     1      24.133   3.139   7.641  1.00  0.00    -0.000 C 
BRANCH  23  24
ATOM     24  C   UNL     1      22.782   2.824   6.975  1.00  0.00    -0.000 C 
BRANCH  24  25
ATOM     25  C   UNL     1      21.568   3.320   7.787  1.00  0.00    -0.003 C 
ATOM     26  C   UNL     1      21.963   4.347   8.850  1.00  0.00     0.004 C 
ENDBRANCH  24  25
ENDBRANCH  23  24
ENDBRANCH  22  23
ENDBRANCH  21  22
ENDBRANCH  20  21
ENDBRANCH  19  20
ENDBRANCH  18  19
ENDBRANCH  17  18
ENDBRANCH  16  17
ENDBRANCH  15  16
ENDBRANCH   1  15
TORSDOF 22
ENDMDL
MODEL 9
REMARK VINA RESULT:    -3.975      3.466      7.436
REMARK INTER + INTRA:         -12.895
REMARK INTER:                  -8.750
REMARK INTRA:                  -4.146
REMARK UNBOUND:                -3.808
REMARK SMILES CCCCCCCCCCCCCCCCCCCCCCCC(=O)[O-]
REMARK SMILES IDX 13 1 14 2 15 3 16 4 17 5 18 6 19 7 20 8 21 9 22 10 23 11
REMARK SMILES IDX 24 12 25 13 26 14 12 15 11 16 10 17 9 18 8 19 7 20 6 21 5 22
REMARK SMILES IDX 4 23 3 24 2 25 1 26
REMARK H PARENT
REMARK Flexibility Score: inf
ROOT
ATOM      1  C   UNL     1      27.698   1.466   8.399  1.00  0.00     0.000 C 
ENDROOT
BRANCH   1   2
ATOM      2  C   UNL     1      28.172   2.816   7.839  1.00  0.00     0.000 C 
BRANCH   2   3
ATOM      3  C   UNL     1      28.757   3.738   8.926  1.00  0.00     0.000 C 
BRANCH   3   4
ATOM      4  C   UNL     1      27.926   3.718  10.226  1.00  0.00     0.000 C 
BRANCH   4   5
ATOM      5  C   UNL     1      27.087   4.990  10.456  1.00  0.00     0.000 C 
BRANCH   5   6
ATOM      6  C   UNL     1      25.713   5.000   9.762  1.00  0.00     0.000 C 
BRANCH   6   7
ATOM      7  C   UNL     1      24.922   3.682   9.869  1.00  0.00     0.000 C 
BRANCH   7   8
ATOM      8  C   UNL     1      24.517   3.088   8.501  1.00  0.00     0.000 C 
BRANCH   8   9
ATOM      9  C   UNL     1      24.268   4.177   7.445  1.00  0.00     0.000 C 
BRANCH   9  10
ATOM     10  C   UNL     1      22.820   4.181   6.931  1.00  0.00     0.006 C 
BRANCH  10  11
ATOM     11  C   UNL     1      21.811   4.601   8.009  1.00  0.00     0.053 C 
BRANCH  11  12
ATOM     12  C   UNL     1      22.101   5.990   8.480  1.00  0.00     0.041 C 
ATOM     13  O   UNL     1      22.035   6.960   7.678  1.00  0.00    -0.550 OA
ATOM     14  O   UNL     1      22.388   6.225   9.819  1.00  0.00    -0.550 OA
ENDBRANCH  11  12
ENDBRANCH  10  11
ENDBRANCH   9  10
ENDBRANCH   8   9
ENDBRANCH   7   8
ENDBRANCH   6   7
ENDBRANCH   5   6
ENDBRANCH   4   5
ENDBRANCH   3   4
ENDBRANCH   2   3
ENDBRANCH   1   2
BRANCH   1  15
ATOM     15  C   UNL     1      28.817   0.416   8.452  1.00  0.00     0.000 C 
BRANCH  15  16
ATOM     16  C   UNL     1      28.364  -0.827   9.235  1.00  0.00     0.000 C 
BRANCH  16  17
ATOM     17  C   UNL     1      28.341  -2.101   8.377  1.00  0.00     0.000 C 
BRANCH  17  18
ATOM     18  C   UNL     1      28.207  -1.804   6.874  1.00  0.00    -0.000 C 
BRANCH  18  19
ATOM     19  C   UNL     1      26.744  -1.810   6.403  1.00  0.00    -0.000 C 
BRANCH  19  20
ATOM     20  C   UNL     1      26.559  -1.124   5.040  1.00  0.00    -0.000 C 
BRANCH  20  21
ATOM     21  C   UNL     1      26.953   0.363   5.063  1.00  0.00    -0.000 C 
BRANCH  21  22
ATOM     22  C   UNL     1      25.760   1.313   5.307  1.00  0.00    -0.000 C 
BRANCH  22  23
ATOM     23  C   UNL     1      24.452   0.771   4.705  1.00  0.00    -0.000 C 
BRANCH  23  24
ATOM     24  C   UNL     1      23.283   0.798   5.705  1.00  0.00    -0.000 C 
BRANCH  24  25
ATOM     25  C   UNL     1      23.530  -0.065   6.960  1.00  0.00    -0.003 C 
ATOM     26  C   UNL     1      23.045  -1.504   6.779  1.00  0.00     0.004 C 
ENDBRANCH  24  25
ENDBRANCH  23  24
ENDBRANCH  22  23
ENDBRANCH  21  22
ENDBRANCH  20  21
ENDBRANCH  19  20
ENDBRANCH  18  19
ENDBRANCH  17  18
ENDBRANCH  16  17
ENDBRANCH  15  16
ENDBRANCH   1  15
TORSDOF 22
ENDMDL
