MODEL 1
REMARK VINA RESULT:    -3.927      0.000      0.000
REMARK INTER + INTRA:          -8.875
REMARK INTER:                  -7.141
REMARK INTRA:                  -1.734
REMARK UNBOUND:                -1.734
REMARK SMILES CCCCCCCCCCCCCCCC(=O)[O-]
REMARK SMILES IDX 9 1 10 2 11 3 12 4 13 5 14 6 15 7 16 8 17 9 18 10 8 11 7 12
REMARK SMILES IDX 6 13 5 14 4 15 3 16 2 17 1 18
REMARK H PARENT
REMARK Flexibility Score: inf
ROOT
ATOM      1  C   UNL     1      25.851  32.862  36.754  1.00  0.00     0.000 C 
ENDROOT
BRANCH   1   2
ATOM      2  C   UNL     1      26.750  31.666  36.394  1.00  0.00     0.000 C 
BRANCH   2   3
ATOM      3  C   UNL     1      28.171  31.803  36.965  1.00  0.00     0.000 C 
BRANCH   3   4
ATOM      4  C   UNL     1      28.828  33.142  36.598  1.00  0.00     0.000 C 
BRANCH   4   5
ATOM      5  C   UNL     1      29.951  32.938  35.574  1.00  0.00     0.000 C 
BRANCH   5   6
ATOM      6  C   UNL     1      29.490  32.038  34.421  1.00  0.00     0.006 C 
BRANCH   6   7
ATOM      7  C   UNL     1      30.603  31.076  33.995  1.00  0.00     0.053 C 
BRANCH   7   8
ATOM      8  C   UNL     1      30.079  29.678  33.900  1.00  0.00     0.041 C 
ATOM      9  O   UNL     1      30.106  29.065  32.801  1.00  0.00    -0.550 OA
ATOM     10  O   UNL     1      29.515  29.070  35.014  1.00  0.00    -0.550 OA
ENDBRANCH   7   8
ENDBRANCH   6   7
ENDBRANCH   5   6
ENDBRANCH   4   5
ENDBRANCH   3   4
ENDBRANCH   2   3
ENDBRANCH   1   2
BRANCH   1  11
ATOM     11  C   UNL     1      25.128  33.449  35.531  1.00  0.00     0.000 C 
BRANCH  11  12
ATOM     12  C   UNL     1      26.077  33.694  34.345  1.00  0.00    -0.000 C 
BRANCH  12  13
ATOM     13  C   UNL     1      26.513  35.163  34.232  1.00  0.00    -0.000 C 
BRANCH  13  14
ATOM     14  C   UNL     1      27.206  35.476  32.896  1.00  0.00    -0.000 C 
BRANCH  14  15
ATOM     15  C   UNL     1      27.771  34.196  32.259  1.00  0.00    -0.000 C 
BRANCH  15  16
ATOM     16  C   UNL     1      27.441  34.084  30.763  1.00  0.00    -0.000 C 
BRANCH  16  17
ATOM     17  C   UNL     1      26.033  33.526  30.508  1.00  0.00    -0.003 C 
ATOM     18  C   UNL     1      25.137  34.576  29.854  1.00  0.00     0.004 C 
ENDBRANCH  16  17
ENDBRANCH  15  16
ENDBRANCH  14  15
ENDBRANCH  13  14
ENDBRANCH  12  13
ENDBRANCH  11  12
ENDBRANCH   1  11
TORSDOF 14
ENDMDL
MODEL 2
REMARK VINA RESULT:    -3.797      0.859      1.677
REMARK INTER + INTRA:          -8.638
REMARK INTER:                  -6.893
REMARK INTRA:                  -1.745
REMARK UNBOUND:                -1.734
REMARK SMILES CCCCCCCCCCCCCCCC(=O)[O-]
REMARK SMILES IDX 9 1 10 2 11 3 12 4 13 5 14 6 15 7 16 8 17 9 18 10 8 11 7 12
REMARK SMILES IDX 6 13 5 14 4 15 3 16 2 17 1 18
REMARK H PARENT
REMARK Flexibility Score: inf
ROOT
ATOM      1  C   UNL     1      26.257  32.161  37.065  1.00  0.00     0.000 C 
ENDROOT
BRANCH   1   2
ATOM      2  C   UNL     1      27.736  31.884  36.744  1.00  0.00     0.000 C 
BRANCH   2   3
ATOM      3  C   UNL     1      28.631  33.112  36.974  1.00  0.00     0.000 C 
BRANCH   3   4
ATOM      4  C   UNL     1      29.658  33.313  35.850  1.00  0.00     0.000 C 
BRANCH   4   5
ATOM      5  C   UNL     1      29.382  32.364  34.678  1.00  0.00     0.000 C 
BRANCH   5   6
ATOM      6  C   UNL     1      30.525  31.356  34.504  1.00  0.00     0.006 C 
BRANCH   6   7
ATOM      7  C   UNL     1      30.475  30.701  33.121  1.00  0.00     0.053 C 
BRANCH   7   8
ATOM      8  C   UNL     1      30.135  29.249  33.240  1.00  0.00     0.041 C 
ATOM      9  O   UNL     1      29.890  28.747  34.369  1.00  0.00    -0.550 OA
ATOM     10  O   UNL     1      30.139  28.440  32.112  1.00  0.00    -0.550 OA
ENDBRANCH   7   8
ENDBRANCH   6   7
ENDBRANCH   5   6
ENDBRANCH   4   5
ENDBRANCH   3   4
ENDBRANCH   2   3
ENDBRANCH   1   2
BRANCH   1  11
ATOM     11  C   UNL     1      25.759  33.487  36.468  1.00  0.00     0.000 C 
BRANCH  11  12
ATOM     12  C   UNL     1      24.974  33.287  35.160  1.00  0.00    -0.000 C 
BRANCH  12  13
ATOM     13  C   UNL     1      25.815  33.602  33.913  1.00  0.00    -0.000 C 
BRANCH  13  14
ATOM     14  C   UNL     1      26.753  34.802  34.116  1.00  0.00    -0.000 C 
BRANCH  14  15
ATOM     15  C   UNL     1      27.023  35.518  32.783  1.00  0.00    -0.000 C 
BRANCH  15  16
ATOM     16  C   UNL     1      26.235  34.910  31.613  1.00  0.00    -0.000 C 
BRANCH  16  17
ATOM     17  C   UNL     1      27.135  34.159  30.620  1.00  0.00    -0.003 C 
ATOM     18  C   UNL     1      28.407  33.661  31.302  1.00  0.00     0.004 C 
ENDBRANCH  16  17
ENDBRANCH  15  16
ENDBRANCH  14  15
ENDBRANCH  13  14
ENDBRANCH  12  13
ENDBRANCH  11  12
ENDBRANCH   1  11
TORSDOF 14
ENDMDL
MODEL 3
REMARK VINA RESULT:    -3.746      2.483      5.302
REMARK INTER + INTRA:          -8.546
REMARK INTER:                  -6.876
REMARK INTRA:                  -1.670
REMARK UNBOUND:                -1.734
REMARK SMILES CCCCCCCCCCCCCCCC(=O)[O-]
REMARK SMILES IDX 9 1 10 2 11 3 12 4 13 5 14 6 15 7 16 8 17 9 18 10 8 11 7 12
REMARK SMILES IDX 6 13 5 14 4 15 3 16 2 17 1 18
REMARK H PARENT
REMARK Flexibility Score: inf
ROOT
ATOM      1  C   UNL     1      25.945  32.779  36.733  1.00  0.00     0.000 C 
ENDROOT
BRANCH   1   2
ATOM      2  C   UNL     1      25.118  33.421  35.606  1.00  0.00     0.000 C 
BRANCH   2   3
ATOM      3  C   UNL     1      25.938  33.646  34.326  1.00  0.00     0.000 C 
BRANCH   3   4
ATOM      4  C   UNL     1      26.496  35.073  34.225  1.00  0.00     0.000 C 
BRANCH   4   5
ATOM      5  C   UNL     1      26.981  35.373  32.802  1.00  0.00     0.000 C 
BRANCH   5   6
ATOM      6  C   UNL     1      27.853  34.232  32.264  1.00  0.00     0.006 C 
BRANCH   6   7
ATOM      7  C   UNL     1      27.568  33.974  30.782  1.00  0.00     0.053 C 
BRANCH   7   8
ATOM      8  C   UNL     1      26.095  33.869  30.541  1.00  0.00     0.041 C 
ATOM      9  O   UNL     1      25.424  32.964  31.104  1.00  0.00    -0.550 OA
ATOM     10  O   UNL     1      25.472  34.740  29.657  1.00  0.00    -0.550 OA
ENDBRANCH   7   8
ENDBRANCH   6   7
ENDBRANCH   5   6
ENDBRANCH   4   5
ENDBRANCH   3   4
ENDBRANCH   2   3
ENDBRANCH   1   2
BRANCH   1  11
ATOM     11  C   UNL     1      27.237  32.122  36.221  1.00  0.00     0.000 C 
BRANCH  11  12
ATOM     12  C   UNL     1      28.503  32.818  36.752  1.00  0.00    -0.000 C 
BRANCH  12  13
ATOM     13  C   UNL     1      29.411  33.332  35.623  1.00  0.00    -0.000 C 
BRANCH  13  14
ATOM     14  C   UNL     1      30.879  32.917  35.807  1.00  0.00    -0.000 C 
BRANCH  14  15
ATOM     15  C   UNL     1      31.096  31.459  35.373  1.00  0.00    -0.000 C 
BRANCH  15  16
ATOM     16  C   UNL     1      30.378  31.120  34.058  1.00  0.00    -0.000 C 
BRANCH  16  17
ATOM     17  C   UNL     1      29.890  29.664  34.009  1.00  0.00    -0.003 C 
ATOM     18  C   UNL     1      29.991  29.005  35.383  1.00  0.00     0.004 C 
ENDBRANCH  16  17
ENDBRANCH  15  16
ENDBRANCH  14  15
ENDBRANCH  13  14
ENDBRANCH  12  13
ENDBRANCH  11  12
ENDBRANCH   1  11
TORSDOF 14
ENDMDL
MODEL 4
REMARK VINA RESULT:    -3.671      2.579      5.435
REMARK INTER + INTRA:          -8.408
REMARK INTER:                  -7.059
REMARK INTRA:                  -1.350
REMARK UNBOUND:                -1.734
REMARK SMILES CCCCCCCCCCCCCCCC(=O)[O-]
REMARK SMILES IDX 9 1 10 2 11 3 12 4 13 5 14 6 15 7 16 8 17 9 18 10 8 11 7 12
REMARK SMILES IDX 6 13 5 14 4 15 3 16 2 17 1 18
REMARK H PARENT
REMARK Flexibility Score: inf
ROOT
ATOM      1  C   UNL     1      25.638  32.906  36.447  1.00  0.00     0.000 C 
ENDROOT
BRANCH   1   2
ATOM      2  C   UNL     1      25.344  33.954  35.359  1.00  0.00     0.000 C 
BRANCH   2   3
ATOM      3  C   UNL     1      26.538  34.178  34.418  1.00  0.00     0.000 C 
BRANCH   3   4
ATOM      4  C   UNL     1      26.558  35.590  33.815  1.00  0.00     0.000 C 
BRANCH   4   5
ATOM      5  C   UNL     1      27.480  35.652  32.592  1.00  0.00     0.000 C 
BRANCH   5   6
ATOM      6  C   UNL     1      27.898  34.246  32.146  1.00  0.00     0.006 C 
BRANCH   6   7
ATOM      7  C   UNL     1      27.493  33.988  30.691  1.00  0.00     0.053 C 
BRANCH   7   8
ATOM      8  C   UNL     1      26.005  33.892  30.570  1.00  0.00     0.041 C 
ATOM      9  O   UNL     1      25.393  34.587  29.717  1.00  0.00    -0.550 OA
ATOM     10  O   UNL     1      25.289  33.075  31.435  1.00  0.00    -0.550 OA
ENDBRANCH   7   8
ENDBRANCH   6   7
ENDBRANCH   5   6
ENDBRANCH   4   5
ENDBRANCH   3   4
ENDBRANCH   2   3
ENDBRANCH   1   2
BRANCH   1  11
ATOM     11  C   UNL     1      27.143  32.679  36.661  1.00  0.00     0.000 C 
BRANCH  11  12
ATOM     12  C   UNL     1      27.580  31.247  36.306  1.00  0.00    -0.000 C 
BRANCH  12  13
ATOM     13  C   UNL     1      29.068  31.160  35.929  1.00  0.00    -0.000 C 
BRANCH  13  14
ATOM     14  C   UNL     1      29.384  31.854  34.596  1.00  0.00    -0.000 C 
BRANCH  14  15
ATOM     15  C   UNL     1      30.204  30.932  33.679  1.00  0.00    -0.000 C 
BRANCH  15  16
ATOM     16  C   UNL     1      29.955  29.443  33.960  1.00  0.00    -0.000 C 
BRANCH  16  17
ATOM     17  C   UNL     1      30.500  28.532  32.850  1.00  0.00    -0.003 C 
ATOM     18  C   UNL     1      30.815  27.139  33.388  1.00  0.00     0.004 C 
ENDBRANCH  16  17
ENDBRANCH  15  16
ENDBRANCH  14  15
ENDBRANCH  13  14
ENDBRANCH  12  13
ENDBRANCH  11  12
ENDBRANCH   1  11
TORSDOF 14
ENDMDL
MODEL 5
REMARK VINA RESULT:    -3.539      2.270      5.262
REMARK INTER + INTRA:          -8.169
REMARK INTER:                  -6.452
REMARK INTRA:                  -1.717
REMARK UNBOUND:                -1.734
REMARK SMILES CCCCCCCCCCCCCCCC(=O)[O-]
REMARK SMILES IDX 9 1 10 2 11 3 12 4 13 5 14 6 15 7 16 8 17 9 18 10 8 11 7 12
REMARK SMILES IDX 6 13 5 14 4 15 3 16 2 17 1 18
REMARK H PARENT
REMARK Flexibility Score: inf
ROOT
ATOM      1  C   UNL     1      27.554  31.520  36.765  1.00  0.00     0.000 C 
ENDROOT
BRANCH   1   2
ATOM      2  C   UNL     1      26.417  31.988  35.839  1.00  0.00     0.000 C 
BRANCH   2   3
ATOM      3  C   UNL     1      25.591  33.131  36.451  1.00  0.00     0.000 C 
BRANCH   3   4
ATOM      4  C   UNL     1      25.526  34.366  35.540  1.00  0.00     0.000 C 
BRANCH   4   5
ATOM      5  C   UNL     1      25.894  34.003  34.097  1.00  0.00     0.000 C 
BRANCH   5   6
ATOM      6  C   UNL     1      26.988  34.933  33.557  1.00  0.00     0.006 C 
BRANCH   6   7
ATOM      7  C   UNL     1      26.655  35.408  32.139  1.00  0.00     0.053 C 
BRANCH   7   8
ATOM      8  C   UNL     1      26.801  34.285  31.162  1.00  0.00     0.041 C 
ATOM      9  O   UNL     1      25.780  33.709  30.702  1.00  0.00    -0.550 OA
ATOM     10  O   UNL     1      28.065  33.841  30.798  1.00  0.00    -0.550 OA
ENDBRANCH   7   8
ENDBRANCH   6   7
ENDBRANCH   5   6
ENDBRANCH   4   5
ENDBRANCH   3   4
ENDBRANCH   2   3
ENDBRANCH   1   2
BRANCH   1  11
ATOM     11  C   UNL     1      28.563  32.637  37.077  1.00  0.00     0.000 C 
BRANCH  11  12
ATOM     12  C   UNL     1      29.182  33.246  35.807  1.00  0.00    -0.000 C 
BRANCH  12  13
ATOM     13  C   UNL     1      29.757  32.179  34.861  1.00  0.00    -0.000 C 
BRANCH  13  14
ATOM     14  C   UNL     1      30.954  31.431  35.468  1.00  0.00    -0.000 C 
BRANCH  14  15
ATOM     15  C   UNL     1      30.685  29.919  35.521  1.00  0.00    -0.000 C 
BRANCH  15  16
ATOM     16  C   UNL     1      29.663  29.461  34.470  1.00  0.00    -0.000 C 
BRANCH  16  17
ATOM     17  C   UNL     1      30.308  28.676  33.319  1.00  0.00    -0.003 C 
ATOM     18  C   UNL     1      30.644  29.595  32.148  1.00  0.00     0.004 C 
ENDBRANCH  16  17
ENDBRANCH  15  16
ENDBRANCH  14  15
ENDBRANCH  13  14
ENDBRANCH  12  13
ENDBRANCH  11  12
ENDBRANCH   1  11
TORSDOF 14
ENDMDL
MODEL 6
REMARK VINA RESULT:    -3.472      2.432      5.802
REMARK INTER + INTRA:          -8.048
REMARK INTER:                  -6.547
REMARK INTRA:                  -1.501
REMARK UNBOUND:                -1.734
REMARK SMILES CCCCCCCCCCCCCCCC(=O)[O-]
REMARK SMILES IDX 9 1 10 2 11 3 12 4 13 5 14 6 15 7 16 8 17 9 18 10 8 11 7 12
REMARK SMILES IDX 6 13 5 14 4 15 3 16 2 17 1 18
REMARK H PARENT
REMARK Flexibility Score: inf
ROOT
ATOM      1  C   UNL     1      26.561  31.936  36.969  1.00  0.00     0.000 C 
ENDROOT
BRANCH   1   2
ATOM      2  C   UNL     1      26.396  33.461  37.095  1.00  0.00     0.000 C 
BRANCH   2   3
ATOM      3  C   UNL     1      25.425  34.037  36.053  1.00  0.00     0.000 C 
BRANCH   3   4
ATOM      4  C   UNL     1      25.105  33.041  34.928  1.00  0.00     0.000 C 
BRANCH   4   5
ATOM      5  C   UNL     1      25.779  33.461  33.617  1.00  0.00     0.000 C 
BRANCH   5   6
ATOM      6  C   UNL     1      26.668  34.694  33.823  1.00  0.00     0.006 C 
BRANCH   6   7
ATOM      7  C   UNL     1      26.905  35.429  32.500  1.00  0.00     0.053 C 
BRANCH   7   8
ATOM      8  C   UNL     1      27.315  34.465  31.432  1.00  0.00     0.041 C 
ATOM      9  O   UNL     1      26.654  34.386  30.362  1.00  0.00    -0.550 OA
ATOM     10  O   UNL     1      28.396  33.619  31.637  1.00  0.00    -0.550 OA
ENDBRANCH   7   8
ENDBRANCH   6   7
ENDBRANCH   5   6
ENDBRANCH   4   5
ENDBRANCH   3   4
ENDBRANCH   2   3
ENDBRANCH   1   2
BRANCH   1  11
ATOM     11  C   UNL     1      28.012  31.517  36.683  1.00  0.00     0.000 C 
BRANCH  11  12
ATOM     12  C   UNL     1      28.779  32.570  35.865  1.00  0.00    -0.000 C 
BRANCH  12  13
ATOM     13  C   UNL     1      29.514  31.962  34.660  1.00  0.00    -0.000 C 
BRANCH  13  14
ATOM     14  C   UNL     1      30.282  30.680  35.017  1.00  0.00    -0.000 C 
BRANCH  14  15
ATOM     15  C   UNL     1      29.799  29.496  34.167  1.00  0.00    -0.000 C 
BRANCH  15  16
ATOM     16  C   UNL     1      30.080  28.137  34.827  1.00  0.00    -0.000 C 
BRANCH  16  17
ATOM     17  C   UNL     1      30.493  28.270  36.300  1.00  0.00    -0.003 C 
ATOM     18  C   UNL     1      29.985  27.088  37.122  1.00  0.00     0.004 C 
ENDBRANCH  16  17
ENDBRANCH  15  16
ENDBRANCH  14  15
ENDBRANCH  13  14
ENDBRANCH  12  13
ENDBRANCH  11  12
ENDBRANCH   1  11
TORSDOF 14
ENDMDL
MODEL 7
REMARK VINA RESULT:    -2.933      1.453      4.174
REMARK INTER + INTRA:          -7.067
REMARK INTER:                  -5.300
REMARK INTRA:                  -1.767
REMARK UNBOUND:                -1.734
REMARK SMILES CCCCCCCCCCCCCCCC(=O)[O-]
REMARK SMILES IDX 9 1 10 2 11 3 12 4 13 5 14 6 15 7 16 8 17 9 18 10 8 11 7 12
REMARK SMILES IDX 6 13 5 14 4 15 3 16 2 17 1 18
REMARK H PARENT
REMARK Flexibility Score: inf
ROOT
ATOM      1  C   UNL     1      27.155  35.260  31.875  1.00  0.00     0.000 C 
ENDROOT
BRANCH   1   2
ATOM      2  C   UNL     1      28.257  35.114  32.938  1.00  0.00     0.000 C 
BRANCH   2   3
ATOM      3  C   UNL     1      28.623  33.647  33.212  1.00  0.00     0.000 C 
BRANCH   3   4
ATOM      4  C   UNL     1      28.503  33.277  34.698  1.00  0.00     0.000 C 
BRANCH   4   5
ATOM      5  C   UNL     1      29.805  33.582  35.447  1.00  0.00     0.000 C 
BRANCH   5   6
ATOM      6  C   UNL     1      30.128  32.481  36.464  1.00  0.00     0.006 C 
BRANCH   6   7
ATOM      7  C   UNL     1      30.739  31.257  35.774  1.00  0.00     0.053 C 
BRANCH   7   8
ATOM      8  C   UNL     1      29.770  30.118  35.773  1.00  0.00     0.041 C 
ATOM      9  O   UNL     1      29.435  29.570  36.857  1.00  0.00    -0.550 OA
ATOM     10  O   UNL     1      29.276  29.626  34.572  1.00  0.00    -0.550 OA
ENDBRANCH   7   8
ENDBRANCH   6   7
ENDBRANCH   5   6
ENDBRANCH   4   5
ENDBRANCH   3   4
ENDBRANCH   2   3
ENDBRANCH   1   2
BRANCH   1  11
ATOM     11  C   UNL     1      26.997  34.001  31.007  1.00  0.00     0.000 C 
BRANCH  11  12
ATOM     12  C   UNL     1      25.626  33.326  31.191  1.00  0.00    -0.000 C 
BRANCH  12  13
ATOM     13  C   UNL     1      24.982  33.656  32.547  1.00  0.00    -0.000 C 
BRANCH  13  14
ATOM     14  C   UNL     1      25.111  32.509  33.561  1.00  0.00    -0.000 C 
BRANCH  14  15
ATOM     15  C   UNL     1      24.456  32.883  34.899  1.00  0.00    -0.000 C 
BRANCH  15  16
ATOM     16  C   UNL     1      25.115  34.103  35.561  1.00  0.00    -0.000 C 
BRANCH  16  17
ATOM     17  C   UNL     1      25.564  33.824  37.003  1.00  0.00    -0.003 C 
ATOM     18  C   UNL     1      26.186  32.435  37.125  1.00  0.00     0.004 C 
ENDBRANCH  16  17
ENDBRANCH  15  16
ENDBRANCH  14  15
ENDBRANCH  13  14
ENDBRANCH  12  13
ENDBRANCH  11  12
ENDBRANCH   1  11
TORSDOF 14
ENDMDL
MODEL 8
REMARK VINA RESULT:    -2.831      1.864      3.190
REMARK INTER + INTRA:          -6.882
REMARK INTER:                  -5.694
REMARK INTRA:                  -1.188
REMARK UNBOUND:                -1.734
REMARK SMILES CCCCCCCCCCCCCCCC(=O)[O-]
REMARK SMILES IDX 9 1 10 2 11 3 12 4 13 5 14 6 15 7 16 8 17 9 18 10 8 11 7 12
REMARK SMILES IDX 6 13 5 14 4 15 3 16 2 17 1 18
REMARK H PARENT
REMARK Flexibility Score: inf
ROOT
ATOM      1  C   UNL     1      30.211  33.580  36.019  1.00  0.00     0.000 C 
ENDROOT
BRANCH   1   2
ATOM      2  C   UNL     1      31.125  32.362  35.799  1.00  0.00     0.000 C 
BRANCH   2   3
ATOM      3  C   UNL     1      30.773  31.185  36.723  1.00  0.00     0.000 C 
BRANCH   3   4
ATOM      4  C   UNL     1      31.067  29.821  36.080  1.00  0.00     0.000 C 
BRANCH   4   5
ATOM      5  C   UNL     1      30.904  29.886  34.557  1.00  0.00     0.000 C 
BRANCH   5   6
ATOM      6  C   UNL     1      30.003  28.753  34.051  1.00  0.00     0.006 C 
BRANCH   6   7
ATOM      7  C   UNL     1      30.805  27.464  33.843  1.00  0.00     0.053 C 
BRANCH   7   8
ATOM      8  C   UNL     1      30.265  26.366  34.703  1.00  0.00     0.041 C 
ATOM      9  O   UNL     1      29.986  25.246  34.200  1.00  0.00    -0.550 OA
ATOM     10  O   UNL     1      30.020  26.595  36.051  1.00  0.00    -0.550 OA
ENDBRANCH   7   8
ENDBRANCH   6   7
ENDBRANCH   5   6
ENDBRANCH   4   5
ENDBRANCH   3   4
ENDBRANCH   2   3
ENDBRANCH   1   2
BRANCH   1  11
ATOM     11  C   UNL     1      28.750  33.184  36.286  1.00  0.00     0.000 C 
BRANCH  11  12
ATOM     12  C   UNL     1      27.976  32.877  34.992  1.00  0.00    -0.000 C 
BRANCH  12  13
ATOM     13  C   UNL     1      26.487  33.246  35.093  1.00  0.00    -0.000 C 
BRANCH  13  14
ATOM     14  C   UNL     1      25.996  34.065  33.889  1.00  0.00    -0.000 C 
BRANCH  14  15
ATOM     15  C   UNL     1      26.779  35.381  33.764  1.00  0.00    -0.000 C 
BRANCH  15  16
ATOM     16  C   UNL     1      26.941  35.838  32.307  1.00  0.00    -0.000 C 
BRANCH  16  17
ATOM     17  C   UNL     1      26.571  34.741  31.298  1.00  0.00    -0.003 C 
ATOM     18  C   UNL     1      27.817  34.024  30.785  1.00  0.00     0.004 C 
ENDBRANCH  16  17
ENDBRANCH  15  16
ENDBRANCH  14  15
ENDBRANCH  13  14
ENDBRANCH  12  13
ENDBRANCH  11  12
ENDBRANCH   1  11
TORSDOF 14
ENDMDL
MODEL 9
REMARK VINA RESULT:    -2.685      2.634      4.369
REMARK INTER + INTRA:          -6.616
REMARK INTER:                  -4.769
REMARK INTRA:                  -1.847
REMARK UNBOUND:                -1.734
REMARK SMILES CCCCCCCCCCCCCCCC(=O)[O-]
REMARK SMILES IDX 9 1 10 2 11 3 12 4 13 5 14 6 15 7 16 8 17 9 18 10 8 11 7 12
REMARK SMILES IDX 6 13 5 14 4 15 3 16 2 17 1 18
REMARK H PARENT
REMARK Flexibility Score: inf
ROOT
ATOM      1  C   UNL     1      30.870  30.500  34.212  1.00  0.00     0.000 C 
ENDROOT
BRANCH   1   2
ATOM      2  C   UNL     1      30.001  29.542  35.045  1.00  0.00     0.000 C 
BRANCH   2   3
ATOM      3  C   UNL     1      29.754  30.058  36.471  1.00  0.00     0.000 C 
BRANCH   3   4
ATOM      4  C   UNL     1      28.381  30.729  36.627  1.00  0.00     0.000 C 
BRANCH   4   5
ATOM      5  C   UNL     1      28.533  32.216  36.968  1.00  0.00     0.000 C 
BRANCH   5   6
ATOM      6  C   UNL     1      27.169  32.916  37.001  1.00  0.00     0.006 C 
BRANCH   6   7
ATOM      7  C   UNL     1      26.272  32.428  35.859  1.00  0.00     0.053 C 
BRANCH   7   8
ATOM      8  C   UNL     1      25.172  33.407  35.601  1.00  0.00     0.041 C 
ATOM      9  O   UNL     1      24.031  33.002  35.256  1.00  0.00    -0.550 OA
ATOM     10  O   UNL     1      25.419  34.771  35.692  1.00  0.00    -0.550 OA
ENDBRANCH   7   8
ENDBRANCH   6   7
ENDBRANCH   5   6
ENDBRANCH   4   5
ENDBRANCH   3   4
ENDBRANCH   2   3
ENDBRANCH   1   2
BRANCH   1  11
ATOM     11  C   UNL     1      30.369  30.652  32.767  1.00  0.00     0.000 C 
BRANCH  11  12
ATOM     12  C   UNL     1      29.920  32.089  32.446  1.00  0.00    -0.000 C 
BRANCH  12  13
ATOM     13  C   UNL     1      28.726  32.539  33.302  1.00  0.00    -0.000 C 
BRANCH  13  14
ATOM     14  C   UNL     1      28.825  34.011  33.731  1.00  0.00    -0.000 C 
BRANCH  14  15
ATOM     15  C   UNL     1      27.719  34.850  33.072  1.00  0.00    -0.000 C 
BRANCH  15  16
ATOM     16  C   UNL     1      26.755  34.002  32.228  1.00  0.00    -0.000 C 
BRANCH  16  17
ATOM     17  C   UNL     1      26.874  34.290  30.724  1.00  0.00    -0.003 C 
ATOM     18  C   UNL     1      25.499  34.332  30.063  1.00  0.00     0.004 C 
ENDBRANCH  16  17
ENDBRANCH  15  16
ENDBRANCH  14  15
ENDBRANCH  13  14
ENDBRANCH  12  13
ENDBRANCH  11  12
ENDBRANCH   1  11
TORSDOF 14
ENDMDL
