MODEL 1
REMARK VINA RESULT:    -3.974      0.000      0.000
REMARK INTER + INTRA:          -9.569
REMARK INTER:                  -7.692
REMARK INTRA:                  -1.877
REMARK UNBOUND:                -1.877
REMARK SMILES CCCCCCCCCCCCCCCCCC(=O)[O-]
REMARK SMILES IDX 10 1 11 2 12 3 13 4 14 5 15 6 16 7 17 8 18 9 19 10 20 11
REMARK SMILES IDX 9 12 8 13 7 14 6 15 5 16 4 17 3 18 2 19 1 20
REMARK H PARENT
REMARK Flexibility Score: inf
ROOT
ATOM      1  C   UNL     1      -2.647  -8.450 -40.165  1.00  0.00     0.000 C 
ENDROOT
BRANCH   1   2
ATOM      2  C   UNL     1      -1.208  -8.151 -39.709  1.00  0.00     0.000 C 
BRANCH   2   3
ATOM      3  C   UNL     1      -1.159  -7.382 -38.379  1.00  0.00     0.000 C 
BRANCH   3   4
ATOM      4  C   UNL     1      -0.636  -8.242 -37.216  1.00  0.00     0.000 C 
BRANCH   4   5
ATOM      5  C   UNL     1      -0.682  -9.750 -37.521  1.00  0.00     0.000 C 
BRANCH   5   6
ATOM      6  C   UNL     1      -1.373 -10.612 -36.447  1.00  0.00     0.000 C 
BRANCH   6   7
ATOM      7  C   UNL     1      -1.332 -10.042 -35.015  1.00  0.00     0.006 C 
BRANCH   7   8
ATOM      8  C   UNL     1      -0.619 -10.955 -34.001  1.00  0.00     0.053 C 
BRANCH   8   9
ATOM      9  C   UNL     1      -1.583 -11.708 -33.134  1.00  0.00     0.041 C 
ATOM     10  O   UNL     1      -1.176 -12.647 -32.400  1.00  0.00    -0.550 OA
ATOM     11  O   UNL     1      -2.936 -11.396 -33.160  1.00  0.00    -0.550 OA
ENDBRANCH   8   9
ENDBRANCH   7   8
ENDBRANCH   6   7
ENDBRANCH   5   6
ENDBRANCH   4   5
ENDBRANCH   3   4
ENDBRANCH   2   3
ENDBRANCH   1   2
BRANCH   1  12
ATOM     12  C   UNL     1      -2.899  -8.047 -41.627  1.00  0.00     0.000 C 
BRANCH  12  13
ATOM     13  C   UNL     1      -2.259  -9.021 -42.629  1.00  0.00    -0.000 C 
BRANCH  13  14
ATOM     14  C   UNL     1      -2.674 -10.468 -42.328  1.00  0.00    -0.000 C 
BRANCH  14  15
ATOM     15  C   UNL     1      -1.491 -11.452 -42.374  1.00  0.00    -0.000 C 
BRANCH  15  16
ATOM     16  C   UNL     1      -0.705 -11.590 -41.054  1.00  0.00    -0.000 C 
BRANCH  16  17
ATOM     17  C   UNL     1       0.811 -11.330 -41.163  1.00  0.00    -0.000 C 
BRANCH  17  18
ATOM     18  C   UNL     1       1.194  -9.927 -41.665  1.00  0.00    -0.000 C 
BRANCH  18  19
ATOM     19  C   UNL     1       1.667  -9.925 -43.126  1.00  0.00    -0.003 C 
ATOM     20  C   UNL     1       2.044 -11.331 -43.582  1.00  0.00     0.004 C 
ENDBRANCH  18  19
ENDBRANCH  17  18
ENDBRANCH  16  17
ENDBRANCH  15  16
ENDBRANCH  14  15
ENDBRANCH  13  14
ENDBRANCH  12  13
ENDBRANCH   1  12
TORSDOF 16
ENDMDL
MODEL 2
REMARK VINA RESULT:    -3.920      5.111      8.139
REMARK INTER + INTRA:          -9.464
REMARK INTER:                  -7.465
REMARK INTRA:                  -1.999
REMARK UNBOUND:                -1.877
REMARK SMILES CCCCCCCCCCCCCCCCCC(=O)[O-]
REMARK SMILES IDX 10 1 11 2 12 3 13 4 14 5 15 6 16 7 17 8 18 9 19 10 20 11
REMARK SMILES IDX 9 12 8 13 7 14 6 15 5 16 4 17 3 18 2 19 1 20
REMARK H PARENT
REMARK Flexibility Score: inf
ROOT
ATOM      1  C   UNL     1      -3.706  -7.114 -47.512  1.00  0.00     0.000 C 
ENDROOT
BRANCH   1   2
ATOM      2  C   UNL     1      -3.548  -8.516 -48.126  1.00  0.00     0.000 C 
BRANCH   2   3
ATOM      3  C   UNL     1      -4.900  -9.196 -48.395  1.00  0.00     0.000 C 
BRANCH   3   4
ATOM      4  C   UNL     1      -6.096  -8.330 -47.963  1.00  0.00     0.000 C 
BRANCH   4   5
ATOM      5  C   UNL     1      -7.024  -9.047 -46.965  1.00  0.00     0.000 C 
BRANCH   5   6
ATOM      6  C   UNL     1      -6.429 -10.312 -46.316  1.00  0.00     0.000 C 
BRANCH   6   7
ATOM      7  C   UNL     1      -6.698 -10.468 -44.807  1.00  0.00     0.006 C 
BRANCH   7   8
ATOM      8  C   UNL     1      -5.585 -11.214 -44.049  1.00  0.00     0.053 C 
BRANCH   8   9
ATOM      9  C   UNL     1      -6.080 -11.849 -42.784  1.00  0.00     0.041 C 
ATOM     10  O   UNL     1      -5.424 -11.730 -41.716  1.00  0.00    -0.550 OA
ATOM     11  O   UNL     1      -7.248 -12.600 -42.792  1.00  0.00    -0.550 OA
ENDBRANCH   8   9
ENDBRANCH   7   8
ENDBRANCH   6   7
ENDBRANCH   5   6
ENDBRANCH   4   5
ENDBRANCH   3   4
ENDBRANCH   2   3
ENDBRANCH   1   2
BRANCH   1  12
ATOM     12  C   UNL     1      -3.139  -7.028 -46.086  1.00  0.00     0.000 C 
BRANCH  12  13
ATOM     13  C   UNL     1      -3.674  -8.136 -45.166  1.00  0.00    -0.000 C 
BRANCH  13  14
ATOM     14  C   UNL     1      -4.372  -7.537 -43.936  1.00  0.00    -0.000 C 
BRANCH  14  15
ATOM     15  C   UNL     1      -3.867  -8.137 -42.612  1.00  0.00    -0.000 C 
BRANCH  15  16
ATOM     16  C   UNL     1      -2.813  -9.253 -42.760  1.00  0.00    -0.000 C 
BRANCH  16  17
ATOM     17  C   UNL     1      -1.467  -8.980 -42.061  1.00  0.00    -0.000 C 
BRANCH  17  18
ATOM     18  C   UNL     1      -0.364 -10.013 -42.351  1.00  0.00    -0.000 C 
BRANCH  18  19
ATOM     19  C   UNL     1       1.011  -9.370 -42.576  1.00  0.00    -0.003 C 
ATOM     20  C   UNL     1       2.115 -10.187 -41.910  1.00  0.00     0.004 C 
ENDBRANCH  18  19
ENDBRANCH  17  18
ENDBRANCH  16  17
ENDBRANCH  15  16
ENDBRANCH  14  15
ENDBRANCH  13  14
ENDBRANCH  12  13
ENDBRANCH   1  12
TORSDOF 16
ENDMDL
MODEL 3
REMARK VINA RESULT:    -3.870      5.010      7.500
REMARK INTER + INTRA:          -9.367
REMARK INTER:                  -7.110
REMARK INTRA:                  -2.257
REMARK UNBOUND:                -1.877
REMARK SMILES CCCCCCCCCCCCCCCCCC(=O)[O-]
REMARK SMILES IDX 10 1 11 2 12 3 13 4 14 5 15 6 16 7 17 8 18 9 19 10 20 11
REMARK SMILES IDX 9 12 8 13 7 14 6 15 5 16 4 17 3 18 2 19 1 20
REMARK H PARENT
REMARK Flexibility Score: inf
ROOT
ATOM      1  C   UNL     1      -3.512  -8.133 -44.194  1.00  0.00     0.000 C 
ENDROOT
BRANCH   1   2
ATOM      2  C   UNL     1      -4.098  -7.676 -42.847  1.00  0.00     0.000 C 
BRANCH   2   3
ATOM      3  C   UNL     1      -3.373  -8.305 -41.646  1.00  0.00     0.000 C 
BRANCH   3   4
ATOM      4  C   UNL     1      -3.922  -9.696 -41.285  1.00  0.00     0.000 C 
BRANCH   4   5
ATOM      5  C   UNL     1      -2.813 -10.753 -41.131  1.00  0.00     0.000 C 
BRANCH   5   6
ATOM      6  C   UNL     1      -2.156 -11.205 -42.449  1.00  0.00     0.000 C 
BRANCH   6   7
ATOM      7  C   UNL     1      -0.615 -11.177 -42.463  1.00  0.00     0.006 C 
BRANCH   7   8
ATOM      8  C   UNL     1      -0.008  -9.916 -41.823  1.00  0.00     0.053 C 
BRANCH   8   9
ATOM      9  C   UNL     1       1.334  -9.573 -42.396  1.00  0.00     0.041 C 
ATOM     10  O   UNL     1       1.423  -8.797 -43.384  1.00  0.00    -0.550 OA
ATOM     11  O   UNL     1       2.485 -10.136 -41.860  1.00  0.00    -0.550 OA
ENDBRANCH   8   9
ENDBRANCH   7   8
ENDBRANCH   6   7
ENDBRANCH   5   6
ENDBRANCH   4   5
ENDBRANCH   3   4
ENDBRANCH   2   3
ENDBRANCH   1   2
BRANCH   1  12
ATOM     12  C   UNL     1      -4.135  -7.394 -45.390  1.00  0.00     0.000 C 
BRANCH  12  13
ATOM     13  C   UNL     1      -3.232  -7.409 -46.633  1.00  0.00    -0.000 C 
BRANCH  13  14
ATOM     14  C   UNL     1      -3.788  -8.360 -47.703  1.00  0.00    -0.000 C 
BRANCH  14  15
ATOM     15  C   UNL     1      -5.258  -8.068 -48.056  1.00  0.00    -0.000 C 
BRANCH  15  16
ATOM     16  C   UNL     1      -6.173  -9.308 -48.119  1.00  0.00    -0.000 C 
BRANCH  16  17
ATOM     17  C   UNL     1      -6.260 -10.125 -46.814  1.00  0.00    -0.000 C 
BRANCH  17  18
ATOM     18  C   UNL     1      -7.244  -9.572 -45.768  1.00  0.00    -0.000 C 
BRANCH  18  19
ATOM     19  C   UNL     1      -6.776  -9.811 -44.325  1.00  0.00    -0.003 C 
ATOM     20  C   UNL     1      -5.852 -11.022 -44.242  1.00  0.00     0.004 C 
ENDBRANCH  18  19
ENDBRANCH  17  18
ENDBRANCH  16  17
ENDBRANCH  15  16
ENDBRANCH  14  15
ENDBRANCH  13  14
ENDBRANCH  12  13
ENDBRANCH   1  12
TORSDOF 16
ENDMDL
MODEL 4
REMARK VINA RESULT:    -3.851      3.769      6.526
REMARK INTER + INTRA:          -9.330
REMARK INTER:                  -7.057
REMARK INTRA:                  -2.273
REMARK UNBOUND:                -1.877
REMARK SMILES CCCCCCCCCCCCCCCCCC(=O)[O-]
REMARK SMILES IDX 10 1 11 2 12 3 13 4 14 5 15 6 16 7 17 8 18 9 19 10 20 11
REMARK SMILES IDX 9 12 8 13 7 14 6 15 5 16 4 17 3 18 2 19 1 20
REMARK H PARENT
REMARK Flexibility Score: inf
ROOT
ATOM      1  C   UNL     1      -4.054 -11.636 -42.525  1.00  0.00     0.000 C 
ENDROOT
BRANCH   1   2
ATOM      2  C   UNL     1      -3.819 -10.205 -43.041  1.00  0.00     0.000 C 
BRANCH   2   3
ATOM      3  C   UNL     1      -3.876  -9.158 -41.917  1.00  0.00     0.000 C 
BRANCH   3   4
ATOM      4  C   UNL     1      -2.564  -8.366 -41.778  1.00  0.00     0.000 C 
BRANCH   4   5
ATOM      5  C   UNL     1      -1.757  -8.764 -40.529  1.00  0.00     0.000 C 
BRANCH   5   6
ATOM      6  C   UNL     1      -0.369  -9.367 -40.816  1.00  0.00     0.000 C 
BRANCH   6   7
ATOM      7  C   UNL     1      -0.061  -9.643 -42.301  1.00  0.00     0.006 C 
BRANCH   7   8
ATOM      8  C   UNL     1       1.421  -9.467 -42.674  1.00  0.00     0.053 C 
BRANCH   8   9
ATOM      9  C   UNL     1       2.198 -10.742 -42.545  1.00  0.00     0.041 C 
ATOM     10  O   UNL     1       3.078 -10.862 -41.652  1.00  0.00    -0.550 OA
ATOM     11  O   UNL     1       1.975 -11.788 -43.432  1.00  0.00    -0.550 OA
ENDBRANCH   8   9
ENDBRANCH   7   8
ENDBRANCH   6   7
ENDBRANCH   5   6
ENDBRANCH   4   5
ENDBRANCH   3   4
ENDBRANCH   2   3
ENDBRANCH   1   2
BRANCH   1  12
ATOM     12  C   UNL     1      -2.801 -12.241 -41.873  1.00  0.00     0.000 C 
BRANCH  12  13
ATOM     13  C   UNL     1      -3.114 -12.990 -40.568  1.00  0.00    -0.000 C 
BRANCH  13  14
ATOM     14  C   UNL     1      -3.003 -12.052 -39.358  1.00  0.00    -0.000 C 
BRANCH  14  15
ATOM     15  C   UNL     1      -1.616 -12.099 -38.690  1.00  0.00    -0.000 C 
BRANCH  15  16
ATOM     16  C   UNL     1      -1.566 -11.551 -37.250  1.00  0.00    -0.000 C 
BRANCH  16  17
ATOM     17  C   UNL     1      -1.507 -10.014 -37.135  1.00  0.00    -0.000 C 
BRANCH  17  18
ATOM     18  C   UNL     1      -0.812  -9.485 -35.869  1.00  0.00    -0.000 C 
BRANCH  18  19
ATOM     19  C   UNL     1      -0.236  -8.074 -36.051  1.00  0.00    -0.003 C 
ATOM     20  C   UNL     1      -0.436  -7.580 -37.480  1.00  0.00     0.004 C 
ENDBRANCH  18  19
ENDBRANCH  17  18
ENDBRANCH  16  17
ENDBRANCH  15  16
ENDBRANCH  14  15
ENDBRANCH  13  14
ENDBRANCH  12  13
ENDBRANCH   1  12
TORSDOF 16
ENDMDL
MODEL 5
REMARK VINA RESULT:    -3.848      5.161      7.725
REMARK INTER + INTRA:          -9.324
REMARK INTER:                  -7.400
REMARK INTRA:                  -1.924
REMARK UNBOUND:                -1.877
REMARK SMILES CCCCCCCCCCCCCCCCCC(=O)[O-]
REMARK SMILES IDX 10 1 11 2 12 3 13 4 14 5 15 6 16 7 17 8 18 9 19 10 20 11
REMARK SMILES IDX 9 12 8 13 7 14 6 15 5 16 4 17 3 18 2 19 1 20
REMARK H PARENT
REMARK Flexibility Score: inf
ROOT
ATOM      1  C   UNL     1      -3.231  -7.222 -45.745  1.00  0.00     0.000 C 
ENDROOT
BRANCH   1   2
ATOM      2  C   UNL     1      -4.421  -7.010 -44.794  1.00  0.00     0.000 C 
BRANCH   2   3
ATOM      3  C   UNL     1      -4.191  -7.644 -43.412  1.00  0.00     0.000 C 
BRANCH   3   4
ATOM      4  C   UNL     1      -3.232  -8.846 -43.464  1.00  0.00     0.000 C 
BRANCH   4   5
ATOM      5  C   UNL     1      -2.368  -8.975 -42.196  1.00  0.00     0.000 C 
BRANCH   5   6
ATOM      6  C   UNL     1      -1.140  -9.894 -42.335  1.00  0.00     0.000 C 
BRANCH   6   7
ATOM      7  C   UNL     1       0.175  -9.331 -41.762  1.00  0.00     0.006 C 
BRANCH   7   8
ATOM      8  C   UNL     1       1.359  -9.388 -42.743  1.00  0.00     0.053 C 
BRANCH   8   9
ATOM      9  C   UNL     1       2.182 -10.629 -42.576  1.00  0.00     0.041 C 
ATOM     10  O   UNL     1       3.046 -10.700 -41.662  1.00  0.00    -0.550 OA
ATOM     11  O   UNL     1       2.020 -11.696 -43.450  1.00  0.00    -0.550 OA
ENDBRANCH   8   9
ENDBRANCH   7   8
ENDBRANCH   6   7
ENDBRANCH   5   6
ENDBRANCH   4   5
ENDBRANCH   3   4
ENDBRANCH   2   3
ENDBRANCH   1   2
BRANCH   1  12
ATOM     12  C   UNL     1      -3.636  -7.141 -47.226  1.00  0.00     0.000 C 
BRANCH  12  13
ATOM     13  C   UNL     1      -3.490  -8.486 -47.956  1.00  0.00    -0.000 C 
BRANCH  13  14
ATOM     14  C   UNL     1      -4.783  -8.849 -48.699  1.00  0.00    -0.000 C 
BRANCH  14  15
ATOM     15  C   UNL     1      -6.045  -8.620 -47.849  1.00  0.00    -0.000 C 
BRANCH  15  16
ATOM     16  C   UNL     1      -6.550  -9.859 -47.083  1.00  0.00    -0.000 C 
BRANCH  16  17
ATOM     17  C   UNL     1      -6.633  -9.695 -45.552  1.00  0.00    -0.000 C 
BRANCH  17  18
ATOM     18  C   UNL     1      -5.977 -10.826 -44.742  1.00  0.00    -0.000 C 
BRANCH  18  19
ATOM     19  C   UNL     1      -6.508 -10.916 -43.304  1.00  0.00    -0.003 C 
ATOM     20  C   UNL     1      -5.505 -11.614 -42.391  1.00  0.00     0.004 C 
ENDBRANCH  18  19
ENDBRANCH  17  18
ENDBRANCH  16  17
ENDBRANCH  15  16
ENDBRANCH  14  15
ENDBRANCH  13  14
ENDBRANCH  12  13
ENDBRANCH   1  12
TORSDOF 16
ENDMDL
MODEL 6
REMARK VINA RESULT:    -3.828      4.294      6.550
REMARK INTER + INTRA:          -9.285
REMARK INTER:                  -6.723
REMARK INTRA:                  -2.562
REMARK UNBOUND:                -1.877
REMARK SMILES CCCCCCCCCCCCCCCCCC(=O)[O-]
REMARK SMILES IDX 10 1 11 2 12 3 13 4 14 5 15 6 16 7 17 8 18 9 19 10 20 11
REMARK SMILES IDX 9 12 8 13 7 14 6 15 5 16 4 17 3 18 2 19 1 20
REMARK H PARENT
REMARK Flexibility Score: inf
ROOT
ATOM      1  C   UNL     1      -1.447  -8.138 -39.272  1.00  0.00     0.000 C 
ENDROOT
BRANCH   1   2
ATOM      2  C   UNL     1      -0.863  -9.409 -38.632  1.00  0.00     0.000 C 
BRANCH   2   3
ATOM      3  C   UNL     1      -1.830 -10.603 -38.706  1.00  0.00     0.000 C 
BRANCH   3   4
ATOM      4  C   UNL     1      -1.163 -11.873 -39.260  1.00  0.00     0.000 C 
BRANCH   4   5
ATOM      5  C   UNL     1      -1.498 -12.125 -40.742  1.00  0.00     0.000 C 
BRANCH   5   6
ATOM      6  C   UNL     1      -0.565 -11.428 -41.749  1.00  0.00     0.000 C 
BRANCH   6   7
ATOM      7  C   UNL     1       0.935 -11.465 -41.396  1.00  0.00     0.006 C 
BRANCH   7   8
ATOM      8  C   UNL     1       1.674 -10.143 -41.668  1.00  0.00     0.053 C 
BRANCH   8   9
ATOM      9  C   UNL     1       1.669  -9.773 -43.120  1.00  0.00     0.041 C 
ATOM     10  O   UNL     1       1.125  -8.703 -43.501  1.00  0.00    -0.550 OA
ATOM     11  O   UNL     1       2.235 -10.625 -44.059  1.00  0.00    -0.550 OA
ENDBRANCH   8   9
ENDBRANCH   7   8
ENDBRANCH   6   7
ENDBRANCH   5   6
ENDBRANCH   4   5
ENDBRANCH   3   4
ENDBRANCH   2   3
ENDBRANCH   1   2
BRANCH   1  12
ATOM     12  C   UNL     1      -1.944  -8.375 -40.708  1.00  0.00     0.000 C 
BRANCH  12  13
ATOM     13  C   UNL     1      -3.441  -8.069 -40.876  1.00  0.00    -0.000 C 
BRANCH  13  14
ATOM     14  C   UNL     1      -3.783  -7.808 -42.350  1.00  0.00    -0.000 C 
BRANCH  14  15
ATOM     15  C   UNL     1      -3.609  -9.056 -43.234  1.00  0.00    -0.000 C 
BRANCH  15  16
ATOM     16  C   UNL     1      -4.876  -9.501 -43.993  1.00  0.00    -0.000 C 
BRANCH  16  17
ATOM     17  C   UNL     1      -5.461 -10.857 -43.554  1.00  0.00    -0.000 C 
BRANCH  17  18
ATOM     18  C   UNL     1      -4.499 -11.750 -42.750  1.00  0.00    -0.000 C 
BRANCH  18  19
ATOM     19  C   UNL     1      -5.046 -12.121 -41.365  1.00  0.00    -0.003 C 
ATOM     20  C   UNL     1      -5.764 -10.938 -40.723  1.00  0.00     0.004 C 
ENDBRANCH  18  19
ENDBRANCH  17  18
ENDBRANCH  16  17
ENDBRANCH  15  16
ENDBRANCH  14  15
ENDBRANCH  13  14
ENDBRANCH  12  13
ENDBRANCH   1  12
TORSDOF 16
ENDMDL
MODEL 7
REMARK VINA RESULT:    -3.805      4.642      7.010
REMARK INTER + INTRA:          -9.241
REMARK INTER:                  -7.250
REMARK INTRA:                  -1.992
REMARK UNBOUND:                -1.877
REMARK SMILES CCCCCCCCCCCCCCCCCC(=O)[O-]
REMARK SMILES IDX 10 1 11 2 12 3 13 4 14 5 15 6 16 7 17 8 18 9 19 10 20 11
REMARK SMILES IDX 9 12 8 13 7 14 6 15 5 16 4 17 3 18 2 19 1 20
REMARK H PARENT
REMARK Flexibility Score: inf
ROOT
ATOM      1  C   UNL     1      -4.908 -10.054 -42.031  1.00  0.00     0.000 C 
ENDROOT
BRANCH   1   2
ATOM      2  C   UNL     1      -4.054 -11.170 -41.405  1.00  0.00     0.000 C 
BRANCH   2   3
ATOM      3  C   UNL     1      -3.132 -11.850 -42.431  1.00  0.00     0.000 C 
BRANCH   3   4
ATOM      4  C   UNL     1      -1.648 -11.505 -42.216  1.00  0.00     0.000 C 
BRANCH   4   5
ATOM      5  C   UNL     1      -1.407 -10.680 -40.939  1.00  0.00     0.000 C 
BRANCH   5   6
ATOM      6  C   UNL     1      -0.510  -9.441 -41.123  1.00  0.00     0.000 C 
BRANCH   6   7
ATOM      7  C   UNL     1       0.500  -9.524 -42.285  1.00  0.00     0.006 C 
BRANCH   7   8
ATOM      8  C   UNL     1       1.878 -10.075 -41.876  1.00  0.00     0.053 C 
BRANCH   8   9
ATOM      9  C   UNL     1       2.087 -11.488 -42.330  1.00  0.00     0.041 C 
ATOM     10  O   UNL     1       1.705 -11.850 -43.474  1.00  0.00    -0.550 OA
ATOM     11  O   UNL     1       2.673 -12.414 -41.477  1.00  0.00    -0.550 OA
ENDBRANCH   8   9
ENDBRANCH   7   8
ENDBRANCH   6   7
ENDBRANCH   5   6
ENDBRANCH   4   5
ENDBRANCH   3   4
ENDBRANCH   2   3
ENDBRANCH   1   2
BRANCH   1  12
ATOM     12  C   UNL     1      -4.418  -8.649 -41.645  1.00  0.00     0.000 C 
BRANCH  12  13
ATOM     13  C   UNL     1      -3.455  -8.050 -42.683  1.00  0.00    -0.000 C 
BRANCH  13  14
ATOM     14  C   UNL     1      -3.728  -8.627 -44.080  1.00  0.00    -0.000 C 
BRANCH  14  15
ATOM     15  C   UNL     1      -3.936  -7.536 -45.146  1.00  0.00    -0.000 C 
BRANCH  15  16
ATOM     16  C   UNL     1      -5.191  -7.711 -46.023  1.00  0.00    -0.000 C 
BRANCH  16  17
ATOM     17  C   UNL     1      -5.451  -9.149 -46.516  1.00  0.00    -0.000 C 
BRANCH  17  18
ATOM     18  C   UNL     1      -5.175  -9.381 -48.012  1.00  0.00    -0.000 C 
BRANCH  18  19
ATOM     19  C   UNL     1      -4.284  -8.294 -48.629  1.00  0.00    -0.003 C 
ATOM     20  C   UNL     1      -2.838  -8.767 -48.738  1.00  0.00     0.004 C 
ENDBRANCH  18  19
ENDBRANCH  17  18
ENDBRANCH  16  17
ENDBRANCH  15  16
ENDBRANCH  14  15
ENDBRANCH  13  14
ENDBRANCH  12  13
ENDBRANCH   1  12
TORSDOF 16
ENDMDL
MODEL 8
REMARK VINA RESULT:    -3.756      1.615      2.919
REMARK INTER + INTRA:          -9.146
REMARK INTER:                  -6.795
REMARK INTRA:                  -2.351
REMARK UNBOUND:                -1.877
REMARK SMILES CCCCCCCCCCCCCCCCCC(=O)[O-]
REMARK SMILES IDX 10 1 11 2 12 3 13 4 14 5 15 6 16 7 17 8 18 9 19 10 20 11
REMARK SMILES IDX 9 12 8 13 7 14 6 15 5 16 4 17 3 18 2 19 1 20
REMARK H PARENT
REMARK Flexibility Score: inf
ROOT
ATOM      1  C   UNL     1      -2.275  -8.152 -40.164  1.00  0.00     0.000 C 
ENDROOT
BRANCH   1   2
ATOM      2  C   UNL     1      -1.098  -8.208 -39.175  1.00  0.00     0.000 C 
BRANCH   2   3
ATOM      3  C   UNL     1      -1.026  -6.965 -38.274  1.00  0.00     0.000 C 
BRANCH   3   4
ATOM      4  C   UNL     1      -0.705  -7.311 -36.809  1.00  0.00     0.000 C 
BRANCH   4   5
ATOM      5  C   UNL     1      -0.363  -8.799 -36.609  1.00  0.00     0.000 C 
BRANCH   5   6
ATOM      6  C   UNL     1      -1.071  -9.476 -35.421  1.00  0.00     0.000 C 
BRANCH   6   7
ATOM      7  C   UNL     1      -0.673 -10.942 -35.162  1.00  0.00     0.006 C 
BRANCH   7   8
ATOM      8  C   UNL     1      -0.651 -11.330 -33.673  1.00  0.00     0.053 C 
BRANCH   8   9
ATOM      9  C   UNL     1      -0.629 -12.815 -33.468  1.00  0.00     0.041 C 
ATOM     10  O   UNL     1      -0.782 -13.593 -34.446  1.00  0.00    -0.550 OA
ATOM     11  O   UNL     1      -0.471 -13.340 -32.192  1.00  0.00    -0.550 OA
ENDBRANCH   8   9
ENDBRANCH   7   8
ENDBRANCH   6   7
ENDBRANCH   5   6
ENDBRANCH   4   5
ENDBRANCH   3   4
ENDBRANCH   2   3
ENDBRANCH   1   2
BRANCH   1  12
ATOM     12  C   UNL     1      -2.013  -8.967 -41.441  1.00  0.00     0.000 C 
BRANCH  12  13
ATOM     13  C   UNL     1      -0.546  -9.406 -41.574  1.00  0.00    -0.000 C 
BRANCH  13  14
ATOM     14  C   UNL     1      -0.449 -10.910 -41.867  1.00  0.00    -0.000 C 
BRANCH  14  15
ATOM     15  C   UNL     1       0.232 -11.697 -40.733  1.00  0.00    -0.000 C 
BRANCH  15  16
ATOM     16  C   UNL     1      -0.717 -12.551 -39.869  1.00  0.00    -0.000 C 
BRANCH  16  17
ATOM     17  C   UNL     1      -1.533 -11.768 -38.822  1.00  0.00    -0.000 C 
BRANCH  17  18
ATOM     18  C   UNL     1      -3.048 -11.715 -39.088  1.00  0.00    -0.000 C 
BRANCH  18  19
ATOM     19  C   UNL     1      -3.497 -12.699 -40.177  1.00  0.00    -0.003 C 
ATOM     20  C   UNL     1      -4.112 -11.962 -41.363  1.00  0.00     0.004 C 
ENDBRANCH  18  19
ENDBRANCH  17  18
ENDBRANCH  16  17
ENDBRANCH  15  16
ENDBRANCH  14  15
ENDBRANCH  13  14
ENDBRANCH  12  13
ENDBRANCH   1  12
TORSDOF 16
ENDMDL
MODEL 9
REMARK VINA RESULT:    -3.756      4.378      6.469
REMARK INTER + INTRA:          -9.146
REMARK INTER:                  -6.620
REMARK INTRA:                  -2.526
REMARK UNBOUND:                -1.877
REMARK SMILES CCCCCCCCCCCCCCCCCC(=O)[O-]
REMARK SMILES IDX 10 1 11 2 12 3 13 4 14 5 15 6 16 7 17 8 18 9 19 10 20 11
REMARK SMILES IDX 9 12 8 13 7 14 6 15 5 16 4 17 3 18 2 19 1 20
REMARK H PARENT
REMARK Flexibility Score: inf
ROOT
ATOM      1  C   UNL     1      -4.047  -7.878 -41.935  1.00  0.00     0.000 C 
ENDROOT
BRANCH   1   2
ATOM      2  C   UNL     1      -2.606  -8.295 -41.592  1.00  0.00     0.000 C 
BRANCH   2   3
ATOM      3  C   UNL     1      -2.304  -8.184 -40.088  1.00  0.00     0.000 C 
BRANCH   3   4
ATOM      4  C   UNL     1      -0.883  -8.656 -39.733  1.00  0.00     0.000 C 
BRANCH   4   5
ATOM      5  C   UNL     1      -0.703 -10.177 -39.889  1.00  0.00     0.000 C 
BRANCH   5   6
ATOM      6  C   UNL     1       0.055 -10.617 -41.155  1.00  0.00     0.000 C 
BRANCH   6   7
ATOM      7  C   UNL     1       0.865  -9.510 -41.859  1.00  0.00     0.006 C 
BRANCH   7   8
ATOM      8  C   UNL     1       1.548  -9.967 -43.160  1.00  0.00     0.053 C 
BRANCH   8   9
ATOM      9  C   UNL     1       2.477 -11.123 -42.942  1.00  0.00     0.041 C 
ATOM     10  O   UNL     1       2.358 -12.171 -43.631  1.00  0.00    -0.550 OA
ATOM     11  O   UNL     1       3.453 -11.058 -41.957  1.00  0.00    -0.550 OA
ENDBRANCH   8   9
ENDBRANCH   7   8
ENDBRANCH   6   7
ENDBRANCH   5   6
ENDBRANCH   4   5
ENDBRANCH   3   4
ENDBRANCH   2   3
ENDBRANCH   1   2
BRANCH   1  12
ATOM     12  C   UNL     1      -4.510  -8.421 -43.296  1.00  0.00     0.000 C 
BRANCH  12  13
ATOM     13  C   UNL     1      -5.657  -9.436 -43.172  1.00  0.00    -0.000 C 
BRANCH  13  14
ATOM     14  C   UNL     1      -5.357 -10.704 -43.984  1.00  0.00    -0.000 C 
BRANCH  14  15
ATOM     15  C   UNL     1      -4.996 -11.910 -43.097  1.00  0.00    -0.000 C 
BRANCH  15  16
ATOM     16  C   UNL     1      -3.669 -11.776 -42.323  1.00  0.00    -0.000 C 
BRANCH  16  17
ATOM     17  C   UNL     1      -3.743 -12.141 -40.827  1.00  0.00    -0.000 C 
BRANCH  17  18
ATOM     18  C   UNL     1      -4.407 -11.079 -39.932  1.00  0.00    -0.000 C 
BRANCH  18  19
ATOM     19  C   UNL     1      -5.880 -11.388 -39.634  1.00  0.00    -0.003 C 
ATOM     20  C   UNL     1      -6.735 -10.128 -39.729  1.00  0.00     0.004 C 
ENDBRANCH  18  19
ENDBRANCH  17  18
ENDBRANCH  16  17
ENDBRANCH  15  16
ENDBRANCH  14  15
ENDBRANCH  13  14
ENDBRANCH  12  13
ENDBRANCH   1  12
TORSDOF 16
ENDMDL
