MODEL 1
REMARK VINA RESULT:    -5.004      0.000      0.000
REMARK INTER + INTRA:         -13.764
REMARK INTER:                 -11.440
REMARK INTRA:                  -2.323
REMARK UNBOUND:                -2.323
REMARK SMILES CCCCCCCCCCCCCCCCCCCCCCCC(=O)[O-]
REMARK SMILES IDX 13 1 14 2 15 3 16 4 17 5 18 6 19 7 20 8 21 9 22 10 23 11
REMARK SMILES IDX 24 12 25 13 26 14 12 15 11 16 10 17 9 18 8 19 7 20 6 21 5 22
REMARK SMILES IDX 4 23 3 24 2 25 1 26
REMARK H PARENT
REMARK Flexibility Score: inf
ROOT
ATOM      1  C   UNL     1      23.029   8.026  16.384  1.00  0.00     0.000 C 
ENDROOT
BRANCH   1   2
ATOM      2  C   UNL     1      23.990   7.417  15.347  1.00  0.00     0.000 C 
BRANCH   2   3
ATOM      3  C   UNL     1      23.298   7.084  14.016  1.00  0.00     0.000 C 
BRANCH   3   4
ATOM      4  C   UNL     1      23.018   5.579  13.906  1.00  0.00     0.000 C 
BRANCH   4   5
ATOM      5  C   UNL     1      23.570   4.786  15.101  1.00  0.00     0.000 C 
BRANCH   5   6
ATOM      6  C   UNL     1      24.334   3.521  14.669  1.00  0.00     0.000 C 
BRANCH   6   7
ATOM      7  C   UNL     1      25.000   3.676  13.293  1.00  0.00     0.000 C 
BRANCH   7   8
ATOM      8  C   UNL     1      26.402   3.045  13.239  1.00  0.00     0.000 C 
BRANCH   8   9
ATOM      9  C   UNL     1      27.516   4.109  13.137  1.00  0.00     0.000 C 
BRANCH   9  10
ATOM     10  C   UNL     1      27.059   5.523  13.536  1.00  0.00     0.006 C 
BRANCH  10  11
ATOM     11  C   UNL     1      28.187   6.368  14.141  1.00  0.00     0.053 C 
BRANCH  11  12
ATOM     12  C   UNL     1      28.445   7.584  13.306  1.00  0.00     0.041 C 
ATOM     13  O   UNL     1      28.824   8.657  13.845  1.00  0.00    -0.550 OA
ATOM     14  O   UNL     1      28.283   7.525  11.925  1.00  0.00    -0.550 OA
ENDBRANCH  11  12
ENDBRANCH  10  11
ENDBRANCH   9  10
ENDBRANCH   8   9
ENDBRANCH   7   8
ENDBRANCH   6   7
ENDBRANCH   5   6
ENDBRANCH   4   5
ENDBRANCH   3   4
ENDBRANCH   2   3
ENDBRANCH   1   2
BRANCH   1  15
ATOM     15  C   UNL     1      23.713   8.718  17.580  1.00  0.00     0.000 C 
BRANCH  15  16
ATOM     16  C   UNL     1      22.784   9.052  18.762  1.00  0.00     0.000 C 
BRANCH  16  17
ATOM     17  C   UNL     1      21.404   9.550  18.312  1.00  0.00     0.000 C 
BRANCH  17  18
ATOM     18  C   UNL     1      21.253  11.059  18.555  1.00  0.00    -0.000 C 
BRANCH  18  19
ATOM     19  C   UNL     1      20.249  11.724  17.595  1.00  0.00    -0.000 C 
BRANCH  19  20
ATOM     20  C   UNL     1      20.207  11.126  16.172  1.00  0.00    -0.000 C 
BRANCH  20  21
ATOM     21  C   UNL     1      21.396  11.509  15.270  1.00  0.00    -0.000 C 
BRANCH  21  22
ATOM     22  C   UNL     1      21.598  10.592  14.048  1.00  0.00    -0.000 C 
BRANCH  22  23
ATOM     23  C   UNL     1      20.477  10.714  12.993  1.00  0.00    -0.000 C 
BRANCH  23  24
ATOM     24  C   UNL     1      20.226  12.171  12.568  1.00  0.00    -0.000 C 
BRANCH  24  25
ATOM     25  C   UNL     1      19.332  12.275  11.321  1.00  0.00    -0.003 C 
ATOM     26  C   UNL     1      18.752  10.927  10.895  1.00  0.00     0.004 C 
ENDBRANCH  24  25
ENDBRANCH  23  24
ENDBRANCH  22  23
ENDBRANCH  21  22
ENDBRANCH  20  21
ENDBRANCH  19  20
ENDBRANCH  18  19
ENDBRANCH  17  18
ENDBRANCH  16  17
ENDBRANCH  15  16
ENDBRANCH   1  15
TORSDOF 22
ENDMDL
MODEL 2
REMARK VINA RESULT:    -4.933      7.337     12.637
REMARK INTER + INTRA:         -13.602
REMARK INTER:                 -10.531
REMARK INTRA:                  -3.070
REMARK UNBOUND:                -2.323
REMARK SMILES CCCCCCCCCCCCCCCCCCCCCCCC(=O)[O-]
REMARK SMILES IDX 13 1 14 2 15 3 16 4 17 5 18 6 19 7 20 8 21 9 22 10 23 11
REMARK SMILES IDX 24 12 25 13 26 14 12 15 11 16 10 17 9 18 8 19 7 20 6 21 5 22
REMARK SMILES IDX 4 23 3 24 2 25 1 26
REMARK H PARENT
REMARK Flexibility Score: inf
ROOT
ATOM      1  C   UNL     1      17.010   7.561   4.022  1.00  0.00     0.000 C 
ENDROOT
BRANCH   1   2
ATOM      2  C   UNL     1      17.840   8.039   5.227  1.00  0.00     0.000 C 
BRANCH   2   3
ATOM      3  C   UNL     1      18.002   6.957   6.306  1.00  0.00     0.000 C 
BRANCH   3   4
ATOM      4  C   UNL     1      16.981   5.828   6.108  1.00  0.00     0.000 C 
BRANCH   4   5
ATOM      5  C   UNL     1      16.041   5.663   7.313  1.00  0.00     0.000 C 
BRANCH   5   6
ATOM      6  C   UNL     1      14.680   6.351   7.099  1.00  0.00     0.000 C 
BRANCH   6   7
ATOM      7  C   UNL     1      14.459   7.532   8.057  1.00  0.00     0.000 C 
BRANCH   7   8
ATOM      8  C   UNL     1      14.541   8.894   7.346  1.00  0.00     0.000 C 
BRANCH   8   9
ATOM      9  C   UNL     1      15.722   9.747   7.855  1.00  0.00     0.000 C 
BRANCH   9  10
ATOM     10  C   UNL     1      16.371   9.201   9.138  1.00  0.00     0.006 C 
BRANCH  10  11
ATOM     11  C   UNL     1      17.843   9.609   9.285  1.00  0.00     0.053 C 
BRANCH  11  12
ATOM     12  C   UNL     1      18.041  10.445  10.512  1.00  0.00     0.041 C 
ATOM     13  O   UNL     1      18.614   9.960  11.524  1.00  0.00    -0.550 OA
ATOM     14  O   UNL     1      17.607  11.766  10.531  1.00  0.00    -0.550 OA
ENDBRANCH  11  12
ENDBRANCH  10  11
ENDBRANCH   9  10
ENDBRANCH   8   9
ENDBRANCH   7   8
ENDBRANCH   6   7
ENDBRANCH   5   6
ENDBRANCH   4   5
ENDBRANCH   3   4
ENDBRANCH   2   3
ENDBRANCH   1   2
BRANCH   1  15
ATOM     15  C   UNL     1      17.697   7.724   2.651  1.00  0.00     0.000 C 
BRANCH  15  16
ATOM     16  C   UNL     1      19.236   7.680   2.681  1.00  0.00     0.000 C 
BRANCH  16  17
ATOM     17  C   UNL     1      19.804   6.355   2.156  1.00  0.00     0.000 C 
BRANCH  17  18
ATOM     18  C   UNL     1      20.100   5.383   3.307  1.00  0.00    -0.000 C 
BRANCH  18  19
ATOM     19  C   UNL     1      20.885   6.038   4.458  1.00  0.00    -0.000 C 
BRANCH  19  20
ATOM     20  C   UNL     1      21.204   5.109   5.648  1.00  0.00    -0.000 C 
BRANCH  20  21
ATOM     21  C   UNL     1      22.190   5.688   6.681  1.00  0.00    -0.000 C 
BRANCH  21  22
ATOM     22  C   UNL     1      23.476   4.863   6.878  1.00  0.00    -0.000 C 
BRANCH  22  23
ATOM     23  C   UNL     1      24.544   5.114   5.791  1.00  0.00    -0.000 C 
BRANCH  23  24
ATOM     24  C   UNL     1      25.885   4.436   6.117  1.00  0.00    -0.000 C 
BRANCH  24  25
ATOM     25  C   UNL     1      25.792   3.501   7.334  1.00  0.00    -0.003 C 
ATOM     26  C   UNL     1      26.734   2.302   7.232  1.00  0.00     0.004 C 
ENDBRANCH  24  25
ENDBRANCH  23  24
ENDBRANCH  22  23
ENDBRANCH  21  22
ENDBRANCH  20  21
ENDBRANCH  19  20
ENDBRANCH  18  19
ENDBRANCH  17  18
ENDBRANCH  16  17
ENDBRANCH  15  16
ENDBRANCH   1  15
TORSDOF 22
ENDMDL
MODEL 3
REMARK VINA RESULT:    -4.862      1.631      3.120
REMARK INTER + INTRA:         -13.439
REMARK INTER:                 -11.115
REMARK INTRA:                  -2.324
REMARK UNBOUND:                -2.323
REMARK SMILES CCCCCCCCCCCCCCCCCCCCCCCC(=O)[O-]
REMARK SMILES IDX 13 1 14 2 15 3 16 4 17 5 18 6 19 7 20 8 21 9 22 10 23 11
REMARK SMILES IDX 24 12 25 13 26 14 12 15 11 16 10 17 9 18 8 19 7 20 6 21 5 22
REMARK SMILES IDX 4 23 3 24 2 25 1 26
REMARK H PARENT
REMARK Flexibility Score: inf
ROOT
ATOM      1  C   UNL     1      22.713   8.316  17.272  1.00  0.00     0.000 C 
ENDROOT
BRANCH   1   2
ATOM      2  C   UNL     1      24.222   8.353  17.576  1.00  0.00     0.000 C 
BRANCH   2   3
ATOM      3  C   UNL     1      25.070   8.706  16.344  1.00  0.00     0.000 C 
BRANCH   3   4
ATOM      4  C   UNL     1      26.100   7.606  16.052  1.00  0.00     0.000 C 
BRANCH   4   5
ATOM      5  C   UNL     1      25.833   6.886  14.721  1.00  0.00     0.000 C 
BRANCH   5   6
ATOM      6  C   UNL     1      24.438   7.200  14.148  1.00  0.00     0.000 C 
BRANCH   6   7
ATOM      7  C   UNL     1      23.589   5.936  13.940  1.00  0.00     0.000 C 
BRANCH   7   8
ATOM      8  C   UNL     1      23.624   4.993  15.155  1.00  0.00     0.000 C 
BRANCH   8   9
ATOM      9  C   UNL     1      24.189   3.602  14.797  1.00  0.00     0.000 C 
BRANCH   9  10
ATOM     10  C   UNL     1      25.031   3.590  13.509  1.00  0.00     0.006 C 
BRANCH  10  11
ATOM     11  C   UNL     1      26.133   2.523  13.524  1.00  0.00     0.053 C 
BRANCH  11  12
ATOM     12  C   UNL     1      27.398   3.058  12.928  1.00  0.00     0.041 C 
ATOM     13  O   UNL     1      28.277   2.270  12.490  1.00  0.00    -0.550 OA
ATOM     14  O   UNL     1      27.597   4.432  12.841  1.00  0.00    -0.550 OA
ENDBRANCH  11  12
ENDBRANCH  10  11
ENDBRANCH   9  10
ENDBRANCH   8   9
ENDBRANCH   7   8
ENDBRANCH   6   7
ENDBRANCH   5   6
ENDBRANCH   4   5
ENDBRANCH   3   4
ENDBRANCH   2   3
ENDBRANCH   1   2
BRANCH   1  15
ATOM     15  C   UNL     1      21.803   8.761  18.434  1.00  0.00     0.000 C 
BRANCH  15  16
ATOM     16  C   UNL     1      21.251  10.194  18.320  1.00  0.00     0.000 C 
BRANCH  16  17
ATOM     17  C   UNL     1      22.132  11.104  17.453  1.00  0.00     0.000 C 
BRANCH  17  18
ATOM     18  C   UNL     1      21.291  11.868  16.419  1.00  0.00    -0.000 C 
BRANCH  18  19
ATOM     19  C   UNL     1      20.691  10.950  15.338  1.00  0.00    -0.000 C 
BRANCH  19  20
ATOM     20  C   UNL     1      21.395  11.003  13.966  1.00  0.00    -0.000 C 
BRANCH  20  21
ATOM     21  C   UNL     1      21.957  12.384  13.576  1.00  0.00    -0.000 C 
BRANCH  21  22
ATOM     22  C   UNL     1      21.006  13.249  12.726  1.00  0.00    -0.000 C 
BRANCH  22  23
ATOM     23  C   UNL     1      19.662  12.558  12.407  1.00  0.00    -0.000 C 
BRANCH  23  24
ATOM     24  C   UNL     1      19.360  12.531  10.899  1.00  0.00    -0.000 C 
BRANCH  24  25
ATOM     25  C   UNL     1      18.674  11.227  10.459  1.00  0.00    -0.003 C 
ATOM     26  C   UNL     1      18.788  10.118  11.504  1.00  0.00     0.004 C 
ENDBRANCH  24  25
ENDBRANCH  23  24
ENDBRANCH  22  23
ENDBRANCH  21  22
ENDBRANCH  20  21
ENDBRANCH  19  20
ENDBRANCH  18  19
ENDBRANCH  17  18
ENDBRANCH  16  17
ENDBRANCH  15  16
ENDBRANCH   1  15
TORSDOF 22
ENDMDL
MODEL 4
REMARK VINA RESULT:    -4.811      4.468      8.759
REMARK INTER + INTRA:         -13.323
REMARK INTER:                 -10.754
REMARK INTRA:                  -2.569
REMARK UNBOUND:                -2.323
REMARK SMILES CCCCCCCCCCCCCCCCCCCCCCCC(=O)[O-]
REMARK SMILES IDX 13 1 14 2 15 3 16 4 17 5 18 6 19 7 20 8 21 9 22 10 23 11
REMARK SMILES IDX 24 12 25 13 26 14 12 15 11 16 10 17 9 18 8 19 7 20 6 21 5 22
REMARK SMILES IDX 4 23 3 24 2 25 1 26
REMARK H PARENT
REMARK Flexibility Score: inf
ROOT
ATOM      1  C   UNL     1      26.917   6.398  14.437  1.00  0.00     0.000 C 
ENDROOT
BRANCH   1   2
ATOM      2  C   UNL     1      27.746   6.330  13.141  1.00  0.00     0.000 C 
BRANCH   2   3
ATOM      3  C   UNL     1      28.717   7.511  12.992  1.00  0.00     0.000 C 
BRANCH   3   4
ATOM      4  C   UNL     1      28.333   8.389  11.792  1.00  0.00     0.000 C 
BRANCH   4   5
ATOM      5  C   UNL     1      29.011   9.768  11.829  1.00  0.00     0.000 C 
BRANCH   5   6
ATOM      6  C   UNL     1      28.584  10.605  13.049  1.00  0.00     0.000 C 
BRANCH   6   7
ATOM      7  C   UNL     1      27.063  10.816  13.115  1.00  0.00     0.000 C 
BRANCH   7   8
ATOM      8  C   UNL     1      26.570  11.885  12.124  1.00  0.00     0.000 C 
BRANCH   8   9
ATOM      9  C   UNL     1      26.834  13.318  12.634  1.00  0.00     0.000 C 
BRANCH   9  10
ATOM     10  C   UNL     1      27.934  14.058  11.854  1.00  0.00     0.006 C 
BRANCH  10  11
ATOM     11  C   UNL     1      27.389  14.852  10.659  1.00  0.00     0.053 C 
BRANCH  11  12
ATOM     12  C   UNL     1      26.217  15.688  11.069  1.00  0.00     0.041 C 
ATOM     13  O   UNL     1      25.059  15.403  10.661  1.00  0.00    -0.550 OA
ATOM     14  O   UNL     1      26.401  16.774  11.918  1.00  0.00    -0.550 OA
ENDBRANCH  11  12
ENDBRANCH  10  11
ENDBRANCH   9  10
ENDBRANCH   8   9
ENDBRANCH   7   8
ENDBRANCH   6   7
ENDBRANCH   5   6
ENDBRANCH   4   5
ENDBRANCH   3   4
ENDBRANCH   2   3
ENDBRANCH   1   2
BRANCH   1  15
ATOM     15  C   UNL     1      25.860   7.519  14.478  1.00  0.00     0.000 C 
BRANCH  15  16
ATOM     16  C   UNL     1      24.590   7.192  15.285  1.00  0.00     0.000 C 
BRANCH  16  17
ATOM     17  C   UNL     1      23.342   7.056  14.402  1.00  0.00     0.000 C 
BRANCH  17  18
ATOM     18  C   UNL     1      23.031   5.582  14.106  1.00  0.00    -0.000 C 
BRANCH  18  19
ATOM     19  C   UNL     1      23.650   4.619  15.136  1.00  0.00    -0.000 C 
BRANCH  19  20
ATOM     20  C   UNL     1      24.550   3.513  14.545  1.00  0.00    -0.000 C 
BRANCH  20  21
ATOM     21  C   UNL     1      24.818   3.632  13.032  1.00  0.00    -0.000 C 
BRANCH  21  22
ATOM     22  C   UNL     1      25.883   2.661  12.489  1.00  0.00    -0.000 C 
BRANCH  22  23
ATOM     23  C   UNL     1      26.814   2.091  13.582  1.00  0.00    -0.000 C 
BRANCH  23  24
ATOM     24  C   UNL     1      28.208   2.741  13.563  1.00  0.00    -0.000 C 
BRANCH  24  25
ATOM     25  C   UNL     1      29.339   1.714  13.740  1.00  0.00    -0.003 C 
ATOM     26  C   UNL     1      30.026   1.359  12.422  1.00  0.00     0.004 C 
ENDBRANCH  24  25
ENDBRANCH  23  24
ENDBRANCH  22  23
ENDBRANCH  21  22
ENDBRANCH  20  21
ENDBRANCH  19  20
ENDBRANCH  18  19
ENDBRANCH  17  18
ENDBRANCH  16  17
ENDBRANCH  15  16
ENDBRANCH   1  15
TORSDOF 22
ENDMDL
MODEL 5
REMARK VINA RESULT:    -4.809      3.860      6.144
REMARK INTER + INTRA:         -13.317
REMARK INTER:                 -10.598
REMARK INTRA:                  -2.719
REMARK UNBOUND:                -2.323
REMARK SMILES CCCCCCCCCCCCCCCCCCCCCCCC(=O)[O-]
REMARK SMILES IDX 13 1 14 2 15 3 16 4 17 5 18 6 19 7 20 8 21 9 22 10 23 11
REMARK SMILES IDX 24 12 25 13 26 14 12 15 11 16 10 17 9 18 8 19 7 20 6 21 5 22
REMARK SMILES IDX 4 23 3 24 2 25 1 26
REMARK H PARENT
REMARK Flexibility Score: inf
ROOT
ATOM      1  C   UNL     1      28.490   6.693  14.335  1.00  0.00     0.000 C 
ENDROOT
BRANCH   1   2
ATOM      2  C   UNL     1      27.695   7.630  15.262  1.00  0.00     0.000 C 
BRANCH   2   3
ATOM      3  C   UNL     1      26.268   7.129  15.535  1.00  0.00     0.000 C 
BRANCH   3   4
ATOM      4  C   UNL     1      25.234   8.220  15.221  1.00  0.00     0.000 C 
BRANCH   4   5
ATOM      5  C   UNL     1      24.513   7.983  13.885  1.00  0.00     0.000 C 
BRANCH   5   6
ATOM      6  C   UNL     1      23.099   7.402  14.071  1.00  0.00     0.000 C 
BRANCH   6   7
ATOM      7  C   UNL     1      23.040   5.894  13.783  1.00  0.00     0.000 C 
BRANCH   7   8
ATOM      8  C   UNL     1      23.146   5.043  15.060  1.00  0.00     0.000 C 
BRANCH   8   9
ATOM      9  C   UNL     1      24.186   3.910  14.921  1.00  0.00     0.000 C 
BRANCH   9  10
ATOM     10  C   UNL     1      24.759   3.768  13.501  1.00  0.00     0.006 C 
BRANCH  10  11
ATOM     11  C   UNL     1      26.290   3.867  13.460  1.00  0.00     0.053 C 
BRANCH  11  12
ATOM     12  C   UNL     1      26.856   2.902  12.464  1.00  0.00     0.041 C 
ATOM     13  O   UNL     1      27.796   2.130  12.792  1.00  0.00    -0.550 OA
ATOM     14  O   UNL     1      26.332   2.844  11.177  1.00  0.00    -0.550 OA
ENDBRANCH  11  12
ENDBRANCH  10  11
ENDBRANCH   9  10
ENDBRANCH   8   9
ENDBRANCH   7   8
ENDBRANCH   6   7
ENDBRANCH   5   6
ENDBRANCH   4   5
ENDBRANCH   3   4
ENDBRANCH   2   3
ENDBRANCH   1   2
BRANCH   1  15
ATOM     15  C   UNL     1      28.328   6.976  12.828  1.00  0.00     0.000 C 
BRANCH  15  16
ATOM     16  C   UNL     1      27.781   8.372  12.480  1.00  0.00     0.000 C 
BRANCH  16  17
ATOM     17  C   UNL     1      28.797   9.237  11.720  1.00  0.00     0.000 C 
BRANCH  17  18
ATOM     18  C   UNL     1      28.831  10.668  12.276  1.00  0.00    -0.000 C 
BRANCH  18  19
ATOM     19  C   UNL     1      27.549  11.045  13.041  1.00  0.00    -0.000 C 
BRANCH  19  20
ATOM     20  C   UNL     1      26.501  11.827  12.221  1.00  0.00    -0.000 C 
BRANCH  20  21
ATOM     21  C   UNL     1      26.254  13.274  12.689  1.00  0.00    -0.000 C 
BRANCH  21  22
ATOM     22  C   UNL     1      27.414  14.248  12.409  1.00  0.00    -0.000 C 
BRANCH  22  23
ATOM     23  C   UNL     1      27.138  15.218  11.240  1.00  0.00    -0.000 C 
BRANCH  23  24
ATOM     24  C   UNL     1      25.688  15.129  10.734  1.00  0.00    -0.000 C 
BRANCH  24  25
ATOM     25  C   UNL     1      24.804  16.262  11.280  1.00  0.00    -0.003 C 
ATOM     26  C   UNL     1      23.358  15.824  11.512  1.00  0.00     0.004 C 
ENDBRANCH  24  25
ENDBRANCH  23  24
ENDBRANCH  22  23
ENDBRANCH  21  22
ENDBRANCH  20  21
ENDBRANCH  19  20
ENDBRANCH  18  19
ENDBRANCH  17  18
ENDBRANCH  16  17
ENDBRANCH  15  16
ENDBRANCH   1  15
TORSDOF 22
ENDMDL
MODEL 6
REMARK VINA RESULT:    -4.766      1.579      3.110
REMARK INTER + INTRA:         -13.218
REMARK INTER:                 -10.425
REMARK INTRA:                  -2.793
REMARK UNBOUND:                -2.323
REMARK SMILES CCCCCCCCCCCCCCCCCCCCCCCC(=O)[O-]
REMARK SMILES IDX 13 1 14 2 15 3 16 4 17 5 18 6 19 7 20 8 21 9 22 10 23 11
REMARK SMILES IDX 24 12 25 13 26 14 12 15 11 16 10 17 9 18 8 19 7 20 6 21 5 22
REMARK SMILES IDX 4 23 3 24 2 25 1 26
REMARK H PARENT
REMARK Flexibility Score: inf
ROOT
ATOM      1  C   UNL     1      23.202   6.211  14.320  1.00  0.00     0.000 C 
ENDROOT
BRANCH   1   2
ATOM      2  C   UNL     1      23.205   5.062  15.345  1.00  0.00     0.000 C 
BRANCH   2   3
ATOM      3  C   UNL     1      24.048   3.860  14.889  1.00  0.00     0.000 C 
BRANCH   3   4
ATOM      4  C   UNL     1      24.721   4.143  13.539  1.00  0.00     0.000 C 
BRANCH   4   5
ATOM      5  C   UNL     1      26.177   3.652  13.491  1.00  0.00     0.000 C 
BRANCH   5   6
ATOM      6  C   UNL     1      27.177   4.791  13.218  1.00  0.00     0.000 C 
BRANCH   6   7
ATOM      7  C   UNL     1      27.057   5.936  14.235  1.00  0.00     0.000 C 
BRANCH   7   8
ATOM      8  C   UNL     1      27.168   7.324  13.581  1.00  0.00     0.000 C 
BRANCH   8   9
ATOM      9  C   UNL     1      28.543   7.547  12.915  1.00  0.00     0.000 C 
BRANCH   9  10
ATOM     10  C   UNL     1      28.495   8.489  11.700  1.00  0.00     0.006 C 
BRANCH  10  11
ATOM     11  C   UNL     1      29.141   9.853  11.975  1.00  0.00     0.053 C 
BRANCH  11  12
ATOM     12  C   UNL     1      28.095  10.887  12.257  1.00  0.00     0.041 C 
ATOM     13  O   UNL     1      28.429  12.050  12.607  1.00  0.00    -0.550 OA
ATOM     14  O   UNL     1      26.748  10.569  12.116  1.00  0.00    -0.550 OA
ENDBRANCH  11  12
ENDBRANCH  10  11
ENDBRANCH   9  10
ENDBRANCH   8   9
ENDBRANCH   7   8
ENDBRANCH   6   7
ENDBRANCH   5   6
ENDBRANCH   4   5
ENDBRANCH   3   4
ENDBRANCH   2   3
ENDBRANCH   1   2
BRANCH   1  15
ATOM     15  C   UNL     1      23.675   7.573  14.867  1.00  0.00     0.000 C 
BRANCH  15  16
ATOM     16  C   UNL     1      24.303   7.532  16.272  1.00  0.00     0.000 C 
BRANCH  16  17
ATOM     17  C   UNL     1      24.162   8.860  17.027  1.00  0.00     0.000 C 
BRANCH  17  18
ATOM     18  C   UNL     1      23.259   8.704  18.259  1.00  0.00    -0.000 C 
BRANCH  18  19
ATOM     19  C   UNL     1      21.765   8.890  17.935  1.00  0.00    -0.000 C 
BRANCH  19  20
ATOM     20  C   UNL     1      21.218  10.316  18.158  1.00  0.00    -0.000 C 
BRANCH  20  21
ATOM     21  C   UNL     1      21.186  11.206  16.900  1.00  0.00    -0.000 C 
BRANCH  21  22
ATOM     22  C   UNL     1      20.845  10.463  15.594  1.00  0.00    -0.000 C 
BRANCH  22  23
ATOM     23  C   UNL     1      21.643  10.966  14.371  1.00  0.00    -0.000 C 
BRANCH  23  24
ATOM     24  C   UNL     1      20.729  11.451  13.233  1.00  0.00    -0.000 C 
BRANCH  24  25
ATOM     25  C   UNL     1      20.808  12.972  13.022  1.00  0.00    -0.003 C 
ATOM     26  C   UNL     1      19.664  13.723  13.703  1.00  0.00     0.004 C 
ENDBRANCH  24  25
ENDBRANCH  23  24
ENDBRANCH  22  23
ENDBRANCH  21  22
ENDBRANCH  20  21
ENDBRANCH  19  20
ENDBRANCH  18  19
ENDBRANCH  17  18
ENDBRANCH  16  17
ENDBRANCH  15  16
ENDBRANCH   1  15
TORSDOF 22
ENDMDL
MODEL 7
REMARK VINA RESULT:    -4.723      8.665     11.699
REMARK INTER + INTRA:         -13.122
REMARK INTER:                  -9.321
REMARK INTRA:                  -3.801
REMARK UNBOUND:                -2.323
REMARK SMILES CCCCCCCCCCCCCCCCCCCCCCCC(=O)[O-]
REMARK SMILES IDX 13 1 14 2 15 3 16 4 17 5 18 6 19 7 20 8 21 9 22 10 23 11
REMARK SMILES IDX 24 12 25 13 26 14 12 15 11 16 10 17 9 18 8 19 7 20 6 21 5 22
REMARK SMILES IDX 4 23 3 24 2 25 1 26
REMARK H PARENT
REMARK Flexibility Score: inf
ROOT
ATOM      1  C   UNL     1      20.546   2.953   3.099  1.00  0.00     0.000 C 
ENDROOT
BRANCH   1   2
ATOM      2  C   UNL     1      20.282   4.455   2.885  1.00  0.00     0.000 C 
BRANCH   2   3
ATOM      3  C   UNL     1      19.177   5.002   3.802  1.00  0.00     0.000 C 
BRANCH   3   4
ATOM      4  C   UNL     1      19.743   6.032   4.789  1.00  0.00     0.000 C 
BRANCH   4   5
ATOM      5  C   UNL     1      20.060   5.421   6.163  1.00  0.00     0.000 C 
BRANCH   5   6
ATOM      6  C   UNL     1      21.309   6.046   6.814  1.00  0.00     0.000 C 
BRANCH   6   7
ATOM      7  C   UNL     1      22.548   5.145   6.694  1.00  0.00     0.000 C 
BRANCH   7   8
ATOM      8  C   UNL     1      23.710   5.833   5.957  1.00  0.00     0.000 C 
BRANCH   8   9
ATOM      9  C   UNL     1      24.935   4.905   5.808  1.00  0.00     0.000 C 
BRANCH   9  10
ATOM     10  C   UNL     1      25.005   3.797   6.873  1.00  0.00     0.006 C 
BRANCH  10  11
ATOM     11  C   UNL     1      26.401   3.172   6.995  1.00  0.00     0.053 C 
BRANCH  11  12
ATOM     12  C   UNL     1      26.624   2.641   8.377  1.00  0.00     0.041 C 
ATOM     13  O   UNL     1      26.140   1.528   8.716  1.00  0.00    -0.550 OA
ATOM     14  O   UNL     1      27.384   3.368   9.288  1.00  0.00    -0.550 OA
ENDBRANCH  11  12
ENDBRANCH  10  11
ENDBRANCH   9  10
ENDBRANCH   8   9
ENDBRANCH   7   8
ENDBRANCH   6   7
ENDBRANCH   5   6
ENDBRANCH   4   5
ENDBRANCH   3   4
ENDBRANCH   2   3
ENDBRANCH   1   2
BRANCH   1  15
ATOM     15  C   UNL     1      21.847   2.621   3.858  1.00  0.00     0.000 C 
BRANCH  15  16
ATOM     16  C   UNL     1      21.650   2.076   5.285  1.00  0.00     0.000 C 
BRANCH  16  17
ATOM     17  C   UNL     1      21.247   0.595   5.306  1.00  0.00     0.000 C 
BRANCH  17  18
ATOM     18  C   UNL     1      21.955  -0.156   6.443  1.00  0.00    -0.000 C 
BRANCH  18  19
ATOM     19  C   UNL     1      21.146  -1.358   6.963  1.00  0.00    -0.000 C 
BRANCH  19  20
ATOM     20  C   UNL     1      19.626  -1.288   6.703  1.00  0.00    -0.000 C 
BRANCH  20  21
ATOM     21  C   UNL     1      18.769  -0.947   7.938  1.00  0.00    -0.000 C 
BRANCH  21  22
ATOM     22  C   UNL     1      19.402   0.079   8.897  1.00  0.00    -0.000 C 
BRANCH  22  23
ATOM     23  C   UNL     1      18.667   1.437   8.920  1.00  0.00    -0.000 C 
BRANCH  23  24
ATOM     24  C   UNL     1      19.049   2.332   7.729  1.00  0.00    -0.000 C 
BRANCH  24  25
ATOM     25  C   UNL     1      17.850   2.643   6.818  1.00  0.00    -0.003 C 
ATOM     26  C   UNL     1      17.868   1.836   5.520  1.00  0.00     0.004 C 
ENDBRANCH  24  25
ENDBRANCH  23  24
ENDBRANCH  22  23
ENDBRANCH  21  22
ENDBRANCH  20  21
ENDBRANCH  19  20
ENDBRANCH  18  19
ENDBRANCH  17  18
ENDBRANCH  16  17
ENDBRANCH  15  16
ENDBRANCH   1  15
TORSDOF 22
ENDMDL
MODEL 8
REMARK VINA RESULT:    -4.692      7.511     12.586
REMARK INTER + INTRA:         -13.051
REMARK INTER:                  -9.853
REMARK INTRA:                  -3.198
REMARK UNBOUND:                -2.323
REMARK SMILES CCCCCCCCCCCCCCCCCCCCCCCC(=O)[O-]
REMARK SMILES IDX 13 1 14 2 15 3 16 4 17 5 18 6 19 7 20 8 21 9 22 10 23 11
REMARK SMILES IDX 24 12 25 13 26 14 12 15 11 16 10 17 9 18 8 19 7 20 6 21 5 22
REMARK SMILES IDX 4 23 3 24 2 25 1 26
REMARK H PARENT
REMARK Flexibility Score: inf
ROOT
ATOM      1  C   UNL     1      15.736   5.047   4.544  1.00  0.00     0.000 C 
ENDROOT
BRANCH   1   2
ATOM      2  C   UNL     1      17.000   4.949   5.418  1.00  0.00     0.000 C 
BRANCH   2   3
ATOM      3  C   UNL     1      16.928   5.837   6.671  1.00  0.00     0.000 C 
BRANCH   3   4
ATOM      4  C   UNL     1      17.769   7.108   6.490  1.00  0.00     0.000 C 
BRANCH   4   5
ATOM      5  C   UNL     1      16.907   8.376   6.376  1.00  0.00     0.000 C 
BRANCH   5   6
ATOM      6  C   UNL     1      15.414   8.100   6.638  1.00  0.00     0.000 C 
BRANCH   6   7
ATOM      7  C   UNL     1      14.899   8.801   7.904  1.00  0.00     0.000 C 
BRANCH   7   8
ATOM      8  C   UNL     1      15.846   9.909   8.395  1.00  0.00     0.000 C 
BRANCH   8   9
ATOM      9  C   UNL     1      16.636   9.487   9.652  1.00  0.00     0.000 C 
BRANCH   9  10
ATOM     10  C   UNL     1      18.111   9.926   9.632  1.00  0.00     0.006 C 
BRANCH  10  11
ATOM     11  C   UNL     1      18.658  10.249  11.028  1.00  0.00     0.053 C 
BRANCH  11  12
ATOM     12  C   UNL     1      18.998  11.703  11.141  1.00  0.00     0.041 C 
ATOM     13  O   UNL     1      19.974  12.074  11.846  1.00  0.00    -0.550 OA
ATOM     14  O   UNL     1      18.245  12.648  10.451  1.00  0.00    -0.550 OA
ENDBRANCH  11  12
ENDBRANCH  10  11
ENDBRANCH   9  10
ENDBRANCH   8   9
ENDBRANCH   7   8
ENDBRANCH   6   7
ENDBRANCH   5   6
ENDBRANCH   4   5
ENDBRANCH   3   4
ENDBRANCH   2   3
ENDBRANCH   1   2
BRANCH   1  15
ATOM     15  C   UNL     1      15.967   5.598   3.123  1.00  0.00     0.000 C 
BRANCH  15  16
ATOM     16  C   UNL     1      15.419   7.015   2.874  1.00  0.00     0.000 C 
BRANCH  16  17
ATOM     17  C   UNL     1      16.522   8.031   2.546  1.00  0.00     0.000 C 
BRANCH  17  18
ATOM     18  C   UNL     1      17.853   7.327   2.246  1.00  0.00    -0.000 C 
BRANCH  18  19
ATOM     19  C   UNL     1      19.004   7.811   3.147  1.00  0.00    -0.000 C 
BRANCH  19  20
ATOM     20  C   UNL     1      20.265   6.921   3.136  1.00  0.00    -0.000 C 
BRANCH  20  21
ATOM     21  C   UNL     1      20.072   5.511   3.726  1.00  0.00    -0.000 C 
BRANCH  21  22
ATOM     22  C   UNL     1      20.712   5.299   5.111  1.00  0.00    -0.000 C 
BRANCH  22  23
ATOM     23  C   UNL     1      22.231   5.577   5.138  1.00  0.00    -0.000 C 
BRANCH  23  24
ATOM     24  C   UNL     1      22.764   5.789   6.565  1.00  0.00    -0.000 C 
BRANCH  24  25
ATOM     25  C   UNL     1      24.004   4.930   6.864  1.00  0.00    -0.003 C 
ATOM     26  C   UNL     1      25.040   4.977   5.741  1.00  0.00     0.004 C 
ENDBRANCH  24  25
ENDBRANCH  23  24
ENDBRANCH  22  23
ENDBRANCH  21  22
ENDBRANCH  20  21
ENDBRANCH  19  20
ENDBRANCH  18  19
ENDBRANCH  17  18
ENDBRANCH  16  17
ENDBRANCH  15  16
ENDBRANCH   1  15
TORSDOF 22
ENDMDL
MODEL 9
REMARK VINA RESULT:    -4.678      8.452     12.881
REMARK INTER + INTRA:         -13.017
REMARK INTER:                  -9.097
REMARK INTRA:                  -3.920
REMARK UNBOUND:                -2.323
REMARK SMILES CCCCCCCCCCCCCCCCCCCCCCCC(=O)[O-]
REMARK SMILES IDX 13 1 14 2 15 3 16 4 17 5 18 6 19 7 20 8 21 9 22 10 23 11
REMARK SMILES IDX 24 12 25 13 26 14 12 15 11 16 10 17 9 18 8 19 7 20 6 21 5 22
REMARK SMILES IDX 4 23 3 24 2 25 1 26
REMARK H PARENT
REMARK Flexibility Score: inf
ROOT
ATOM      1  C   UNL     1      17.257   7.618   4.027  1.00  0.00     0.000 C 
ENDROOT
BRANCH   1   2
ATOM      2  C   UNL     1      17.938   8.107   5.319  1.00  0.00     0.000 C 
BRANCH   2   3
ATOM      3  C   UNL     1      18.140   6.985   6.348  1.00  0.00     0.000 C 
BRANCH   3   4
ATOM      4  C   UNL     1      17.293   5.755   5.992  1.00  0.00     0.000 C 
BRANCH   4   5
ATOM      5  C   UNL     1      16.196   5.472   7.032  1.00  0.00     0.000 C 
BRANCH   5   6
ATOM      6  C   UNL     1      14.787   5.816   6.513  1.00  0.00     0.000 C 
BRANCH   6   7
ATOM      7  C   UNL     1      14.138   6.969   7.292  1.00  0.00     0.000 C 
BRANCH   7   8
ATOM      8  C   UNL     1      14.203   8.307   6.534  1.00  0.00     0.000 C 
BRANCH   8   9
ATOM      9  C   UNL     1      15.148   9.318   7.217  1.00  0.00     0.000 C 
BRANCH   9  10
ATOM     10  C   UNL     1      15.453   8.983   8.687  1.00  0.00     0.006 C 
BRANCH  10  11
ATOM     11  C   UNL     1      16.938   9.139   9.041  1.00  0.00     0.053 C 
BRANCH  11  12
ATOM     12  C   UNL     1      17.143  10.292   9.974  1.00  0.00     0.041 C 
ATOM     13  O   UNL     1      16.227  11.139  10.146  1.00  0.00    -0.550 OA
ATOM     14  O   UNL     1      18.341  10.419  10.669  1.00  0.00    -0.550 OA
ENDBRANCH  11  12
ENDBRANCH  10  11
ENDBRANCH   9  10
ENDBRANCH   8   9
ENDBRANCH   7   8
ENDBRANCH   6   7
ENDBRANCH   5   6
ENDBRANCH   4   5
ENDBRANCH   3   4
ENDBRANCH   2   3
ENDBRANCH   1   2
BRANCH   1  15
ATOM     15  C   UNL     1      18.107   7.757   2.749  1.00  0.00     0.000 C 
BRANCH  15  16
ATOM     16  C   UNL     1      19.617   7.522   2.939  1.00  0.00     0.000 C 
BRANCH  16  17
ATOM     17  C   UNL     1      20.069   6.134   2.464  1.00  0.00     0.000 C 
BRANCH  17  18
ATOM     18  C   UNL     1      20.212   5.163   3.645  1.00  0.00    -0.000 C 
BRANCH  18  19
ATOM     19  C   UNL     1      21.271   5.614   4.667  1.00  0.00    -0.000 C 
BRANCH  19  20
ATOM     20  C   UNL     1      21.187   4.927   6.047  1.00  0.00    -0.000 C 
BRANCH  20  21
ATOM     21  C   UNL     1      20.640   3.488   6.025  1.00  0.00    -0.000 C 
BRANCH  21  22
ATOM     22  C   UNL     1      19.711   3.134   7.202  1.00  0.00    -0.000 C 
BRANCH  22  23
ATOM     23  C   UNL     1      18.461   2.330   6.782  1.00  0.00    -0.000 C 
BRANCH  23  24
ATOM     24  C   UNL     1      18.005   1.342   7.869  1.00  0.00    -0.000 C 
BRANCH  24  25
ATOM     25  C   UNL     1      19.093   1.085   8.925  1.00  0.00    -0.003 C 
ATOM     26  C   UNL     1      19.752  -0.286   8.772  1.00  0.00     0.004 C 
ENDBRANCH  24  25
ENDBRANCH  23  24
ENDBRANCH  22  23
ENDBRANCH  21  22
ENDBRANCH  20  21
ENDBRANCH  19  20
ENDBRANCH  18  19
ENDBRANCH  17  18
ENDBRANCH  16  17
ENDBRANCH  15  16
ENDBRANCH   1  15
TORSDOF 22
ENDMDL
