MODEL 1
REMARK VINA RESULT:    -4.256      0.000      0.000
REMARK INTER + INTRA:          -9.107
REMARK INTER:                  -7.241
REMARK INTRA:                  -1.866
REMARK UNBOUND:                -1.866
REMARK SMILES CCCCCCCCCCCCCC(=O)[O-]
REMARK SMILES IDX 8 1 9 2 10 3 11 4 12 5 13 6 14 7 15 8 16 9 7 10 6 11 5 12
REMARK SMILES IDX 4 13 3 14 2 15 1 16
REMARK H PARENT
REMARK Flexibility Score: inf
ROOT
ATOM      1  C   UNL     1      85.390 318.191 204.858  1.00  0.00     0.000 C 
ENDROOT
BRANCH   1   2
ATOM      2  C   UNL     1      85.002 316.931 205.651  1.00  0.00     0.000 C 
BRANCH   2   3
ATOM      3  C   UNL     1      86.230 316.152 206.155  1.00  0.00     0.000 C 
BRANCH   3   4
ATOM      4  C   UNL     1      85.858 314.787 206.755  1.00  0.00     0.000 C 
BRANCH   4   5
ATOM      5  C   UNL     1      84.604 314.176 206.111  1.00  0.00     0.006 C 
BRANCH   5   6
ATOM      6  C   UNL     1      84.091 312.988 206.929  1.00  0.00     0.053 C 
BRANCH   6   7
ATOM      7  C   UNL     1      84.398 311.701 206.233  1.00  0.00     0.041 C 
ATOM      8  O   UNL     1      84.495 310.631 206.891  1.00  0.00    -0.550 OA
ATOM      9  O   UNL     1      84.625 311.688 204.863  1.00  0.00    -0.550 OA
ENDBRANCH   6   7
ENDBRANCH   5   6
ENDBRANCH   4   5
ENDBRANCH   3   4
ENDBRANCH   2   3
ENDBRANCH   1   2
BRANCH   1  10
ATOM     10  C   UNL     1      85.731 317.882 203.390  1.00  0.00     0.000 C 
BRANCH  10  11
ATOM     11  C   UNL     1      84.492 317.521 202.550  1.00  0.00    -0.000 C 
BRANCH  11  12
ATOM     12  C   UNL     1      84.631 316.249 201.694  1.00  0.00    -0.000 C 
BRANCH  12  13
ATOM     13  C   UNL     1      84.620 314.960 202.528  1.00  0.00    -0.000 C 
BRANCH  13  14
ATOM     14  C   UNL     1      85.779 314.035 202.123  1.00  0.00    -0.000 C 
BRANCH  14  15
ATOM     15  C   UNL     1      86.926 314.043 203.145  1.00  0.00    -0.003 C 
ATOM     16  C   UNL     1      87.973 315.117 202.852  1.00  0.00     0.004 C 
ENDBRANCH  14  15
ENDBRANCH  13  14
ENDBRANCH  12  13
ENDBRANCH  11  12
ENDBRANCH  10  11
ENDBRANCH   1  10
TORSDOF 12
ENDMDL
MODEL 2
REMARK VINA RESULT:    -4.191      0.699      1.484
REMARK INTER + INTRA:          -8.997
REMARK INTER:                  -7.012
REMARK INTRA:                  -1.985
REMARK UNBOUND:                -1.866
REMARK SMILES CCCCCCCCCCCCCC(=O)[O-]
REMARK SMILES IDX 8 1 9 2 10 3 11 4 12 5 13 6 14 7 15 8 16 9 7 10 6 11 5 12
REMARK SMILES IDX 4 13 3 14 2 15 1 16
REMARK H PARENT
REMARK Flexibility Score: inf
ROOT
ATOM      1  C   UNL     1      85.651 317.857 203.488  1.00  0.00     0.000 C 
ENDROOT
BRANCH   1   2
ATOM      2  C   UNL     1      85.310 317.969 204.984  1.00  0.00     0.000 C 
BRANCH   2   3
ATOM      3  C   UNL     1      84.930 316.612 205.603  1.00  0.00     0.000 C 
BRANCH   3   4
ATOM      4  C   UNL     1      86.059 316.016 206.459  1.00  0.00     0.000 C 
BRANCH   4   5
ATOM      5  C   UNL     1      85.923 314.498 206.649  1.00  0.00     0.006 C 
BRANCH   5   6
ATOM      6  C   UNL     1      84.508 314.027 206.297  1.00  0.00     0.053 C 
BRANCH   6   7
ATOM      7  C   UNL     1      84.501 312.559 206.013  1.00  0.00     0.041 C 
ATOM      8  O   UNL     1      83.905 311.766 206.788  1.00  0.00    -0.550 OA
ATOM      9  O   UNL     1      85.193 312.059 204.917  1.00  0.00    -0.550 OA
ENDBRANCH   6   7
ENDBRANCH   5   6
ENDBRANCH   4   5
ENDBRANCH   3   4
ENDBRANCH   2   3
ENDBRANCH   1   2
BRANCH   1  10
ATOM     10  C   UNL     1      84.425 317.508 202.628  1.00  0.00     0.000 C 
BRANCH  10  11
ATOM     11  C   UNL     1      84.665 316.298 201.706  1.00  0.00    -0.000 C 
BRANCH  11  12
ATOM     12  C   UNL     1      84.847 314.952 202.430  1.00  0.00    -0.000 C 
BRANCH  12  13
ATOM     13  C   UNL     1      86.181 314.267 202.096  1.00  0.00    -0.000 C 
BRANCH  13  14
ATOM     14  C   UNL     1      87.186 314.434 203.247  1.00  0.00    -0.000 C 
BRANCH  14  15
ATOM     15  C   UNL     1      88.182 315.577 202.999  1.00  0.00    -0.003 C 
ATOM     16  C   UNL     1      89.053 315.878 204.219  1.00  0.00     0.004 C 
ENDBRANCH  14  15
ENDBRANCH  13  14
ENDBRANCH  12  13
ENDBRANCH  11  12
ENDBRANCH  10  11
ENDBRANCH   1  10
TORSDOF 12
ENDMDL
MODEL 3
REMARK VINA RESULT:    -4.152      1.487      3.346
REMARK INTER + INTRA:          -8.931
REMARK INTER:                  -6.847
REMARK INTRA:                  -2.083
REMARK UNBOUND:                -1.866
REMARK SMILES CCCCCCCCCCCCCC(=O)[O-]
REMARK SMILES IDX 8 1 9 2 10 3 11 4 12 5 13 6 14 7 15 8 16 9 7 10 6 11 5 12
REMARK SMILES IDX 4 13 3 14 2 15 1 16
REMARK H PARENT
REMARK Flexibility Score: inf
ROOT
ATOM      1  C   UNL     1      85.756 317.912 203.189  1.00  0.00     0.000 C 
ENDROOT
BRANCH   1   2
ATOM      2  C   UNL     1      84.385 317.589 202.570  1.00  0.00     0.000 C 
BRANCH   2   3
ATOM      3  C   UNL     1      84.411 316.309 201.717  1.00  0.00     0.000 C 
BRANCH   3   4
ATOM      4  C   UNL     1      85.504 315.324 202.163  1.00  0.00     0.000 C 
BRANCH   4   5
ATOM      5  C   UNL     1      84.934 314.081 202.864  1.00  0.00     0.006 C 
BRANCH   5   6
ATOM      6  C   UNL     1      86.048 313.090 203.213  1.00  0.00     0.053 C 
BRANCH   6   7
ATOM      7  C   UNL     1      85.552 312.065 204.182  1.00  0.00     0.041 C 
ATOM      8  O   UNL     1      85.253 312.397 205.359  1.00  0.00    -0.550 OA
ATOM      9  O   UNL     1      85.466 310.732 203.801  1.00  0.00    -0.550 OA
ENDBRANCH   6   7
ENDBRANCH   5   6
ENDBRANCH   4   5
ENDBRANCH   3   4
ENDBRANCH   2   3
ENDBRANCH   1   2
BRANCH   1  10
ATOM     10  C   UNL     1      85.669 318.198 204.698  1.00  0.00     0.000 C 
BRANCH  10  11
ATOM     11  C   UNL     1      84.603 317.345 205.409  1.00  0.00    -0.000 C 
BRANCH  11  12
ATOM     12  C   UNL     1      85.062 315.933 205.817  1.00  0.00    -0.000 C 
BRANCH  12  13
ATOM     13  C   UNL     1      86.408 315.931 206.556  1.00  0.00    -0.000 C 
BRANCH  13  14
ATOM     14  C   UNL     1      87.464 315.140 205.767  1.00  0.00    -0.000 C 
BRANCH  14  15
ATOM     15  C   UNL     1      88.612 316.028 205.263  1.00  0.00    -0.003 C 
ATOM     16  C   UNL     1      88.787 315.963 203.745  1.00  0.00     0.004 C 
ENDBRANCH  14  15
ENDBRANCH  13  14
ENDBRANCH  12  13
ENDBRANCH  11  12
ENDBRANCH  10  11
ENDBRANCH   1  10
TORSDOF 12
ENDMDL
MODEL 4
REMARK VINA RESULT:    -4.135      2.247      4.340
REMARK INTER + INTRA:          -8.902
REMARK INTER:                  -7.028
REMARK INTRA:                  -1.874
REMARK UNBOUND:                -1.866
REMARK SMILES CCCCCCCCCCCCCC(=O)[O-]
REMARK SMILES IDX 8 1 9 2 10 3 11 4 12 5 13 6 14 7 15 8 16 9 7 10 6 11 5 12
REMARK SMILES IDX 4 13 3 14 2 15 1 16
REMARK H PARENT
REMARK Flexibility Score: inf
ROOT
ATOM      1  C   UNL     1      85.661 318.268 204.521  1.00  0.00     0.000 C 
ENDROOT
BRANCH   1   2
ATOM      2  C   UNL     1      85.744 317.686 203.099  1.00  0.00     0.000 C 
BRANCH   2   3
ATOM      3  C   UNL     1      84.362 317.560 202.434  1.00  0.00     0.000 C 
BRANCH   3   4
ATOM      4  C   UNL     1      84.229 316.286 201.585  1.00  0.00     0.000 C 
BRANCH   4   5
ATOM      5  C   UNL     1      85.103 315.134 202.102  1.00  0.00     0.006 C 
BRANCH   5   6
ATOM      6  C   UNL     1      86.075 314.655 201.019  1.00  0.00     0.053 C 
BRANCH   6   7
ATOM      7  C   UNL     1      86.684 313.345 201.403  1.00  0.00     0.041 C 
ATOM      8  O   UNL     1      87.747 312.953 200.853  1.00  0.00    -0.550 OA
ATOM      9  O   UNL     1      86.053 312.531 202.335  1.00  0.00    -0.550 OA
ENDBRANCH   6   7
ENDBRANCH   5   6
ENDBRANCH   4   5
ENDBRANCH   3   4
ENDBRANCH   2   3
ENDBRANCH   1   2
BRANCH   1  10
ATOM     10  C   UNL     1      84.699 317.480 205.425  1.00  0.00     0.000 C 
BRANCH  10  11
ATOM     11  C   UNL     1      85.128 316.014 205.624  1.00  0.00    -0.000 C 
BRANCH  11  12
ATOM     12  C   UNL     1      86.060 315.764 206.823  1.00  0.00    -0.000 C 
BRANCH  12  13
ATOM     13  C   UNL     1      87.330 314.987 206.443  1.00  0.00    -0.000 C 
BRANCH  13  14
ATOM     14  C   UNL     1      87.549 315.005 204.922  1.00  0.00    -0.000 C 
BRANCH  14  15
ATOM     15  C   UNL     1      88.699 315.935 204.503  1.00  0.00    -0.003 C 
ATOM     16  C   UNL     1      88.944 315.930 202.994  1.00  0.00     0.004 C 
ENDBRANCH  14  15
ENDBRANCH  13  14
ENDBRANCH  12  13
ENDBRANCH  11  12
ENDBRANCH  10  11
ENDBRANCH   1  10
TORSDOF 12
ENDMDL
MODEL 5
REMARK VINA RESULT:    -4.108      0.620      1.623
REMARK INTER + INTRA:          -8.855
REMARK INTER:                  -7.147
REMARK INTRA:                  -1.708
REMARK UNBOUND:                -1.866
REMARK SMILES CCCCCCCCCCCCCC(=O)[O-]
REMARK SMILES IDX 8 1 9 2 10 3 11 4 12 5 13 6 14 7 15 8 16 9 7 10 6 11 5 12
REMARK SMILES IDX 4 13 3 14 2 15 1 16
REMARK H PARENT
REMARK Flexibility Score: inf
ROOT
ATOM      1  C   UNL     1      85.117 316.915 205.700  1.00  0.00     0.000 C 
ENDROOT
BRANCH   1   2
ATOM      2  C   UNL     1      86.359 316.042 205.951  1.00  0.00     0.000 C 
BRANCH   2   3
ATOM      3  C   UNL     1      86.008 314.693 206.602  1.00  0.00     0.000 C 
BRANCH   3   4
ATOM      4  C   UNL     1      84.620 314.180 206.187  1.00  0.00     0.000 C 
BRANCH   4   5
ATOM      5  C   UNL     1      84.186 312.937 206.978  1.00  0.00     0.006 C 
BRANCH   5   6
ATOM      6  C   UNL     1      85.297 311.883 206.995  1.00  0.00     0.053 C 
BRANCH   6   7
ATOM      7  C   UNL     1      85.074 310.869 205.918  1.00  0.00     0.041 C 
ATOM      8  O   UNL     1      85.427 311.113 204.735  1.00  0.00    -0.550 OA
ATOM      9  O   UNL     1      84.431 309.673 206.211  1.00  0.00    -0.550 OA
ENDBRANCH   6   7
ENDBRANCH   5   6
ENDBRANCH   4   5
ENDBRANCH   3   4
ENDBRANCH   2   3
ENDBRANCH   1   2
BRANCH   1  10
ATOM     10  C   UNL     1      85.441 318.182 204.890  1.00  0.00     0.000 C 
BRANCH  10  11
ATOM     11  C   UNL     1      85.749 317.885 203.411  1.00  0.00    -0.000 C 
BRANCH  11  12
ATOM     12  C   UNL     1      84.546 317.415 202.574  1.00  0.00    -0.000 C 
BRANCH  12  13
ATOM     13  C   UNL     1      84.844 316.152 201.752  1.00  0.00    -0.000 C 
BRANCH  13  14
ATOM     14  C   UNL     1      84.569 314.884 202.577  1.00  0.00    -0.000 C 
BRANCH  14  15
ATOM     15  C   UNL     1      85.744 313.896 202.549  1.00  0.00    -0.003 C 
ATOM     16  C   UNL     1      87.105 314.593 202.577  1.00  0.00     0.004 C 
ENDBRANCH  14  15
ENDBRANCH  13  14
ENDBRANCH  12  13
ENDBRANCH  11  12
ENDBRANCH  10  11
ENDBRANCH   1  10
TORSDOF 12
ENDMDL
MODEL 6
REMARK VINA RESULT:    -4.090      2.774      4.702
REMARK INTER + INTRA:          -8.825
REMARK INTER:                  -7.030
REMARK INTRA:                  -1.795
REMARK UNBOUND:                -1.866
REMARK SMILES CCCCCCCCCCCCCC(=O)[O-]
REMARK SMILES IDX 8 1 9 2 10 3 11 4 12 5 13 6 14 7 15 8 16 9 7 10 6 11 5 12
REMARK SMILES IDX 4 13 3 14 2 15 1 16
REMARK H PARENT
REMARK Flexibility Score: inf
ROOT
ATOM      1  C   UNL     1      85.716 317.849 203.026  1.00  0.00     0.000 C 
ENDROOT
BRANCH   1   2
ATOM      2  C   UNL     1      84.340 317.421 202.489  1.00  0.00     0.000 C 
BRANCH   2   3
ATOM      3  C   UNL     1      84.414 316.147 201.629  1.00  0.00     0.000 C 
BRANCH   3   4
ATOM      4  C   UNL     1      84.625 314.878 202.471  1.00  0.00     0.000 C 
BRANCH   4   5
ATOM      5  C   UNL     1      85.822 314.042 201.994  1.00  0.00     0.006 C 
BRANCH   5   6
ATOM      6  C   UNL     1      86.401 314.606 200.693  1.00  0.00     0.053 C 
BRANCH   6   7
ATOM      7  C   UNL     1      87.792 314.100 200.476  1.00  0.00     0.041 C 
ATOM      8  O   UNL     1      88.317 313.313 201.306  1.00  0.00    -0.550 OA
ATOM      9  O   UNL     1      88.527 314.536 199.381  1.00  0.00    -0.550 OA
ENDBRANCH   6   7
ENDBRANCH   5   6
ENDBRANCH   4   5
ENDBRANCH   3   4
ENDBRANCH   2   3
ENDBRANCH   1   2
BRANCH   1  10
ATOM     10  C   UNL     1      85.679 318.211 204.520  1.00  0.00     0.000 C 
BRANCH  10  11
ATOM     11  C   UNL     1      84.615 317.420 205.303  1.00  0.00    -0.000 C 
BRANCH  11  12
ATOM     12  C   UNL     1      85.022 315.987 205.693  1.00  0.00    -0.000 C 
BRANCH  12  13
ATOM     13  C   UNL     1      86.341 315.931 206.476  1.00  0.00    -0.000 C 
BRANCH  13  14
ATOM     14  C   UNL     1      87.390 315.096 205.724  1.00  0.00    -0.000 C 
BRANCH  14  15
ATOM     15  C   UNL     1      88.557 315.947 205.201  1.00  0.00    -0.003 C 
ATOM     16  C   UNL     1      88.643 315.958 203.675  1.00  0.00     0.004 C 
ENDBRANCH  14  15
ENDBRANCH  13  14
ENDBRANCH  12  13
ENDBRANCH  11  12
ENDBRANCH  10  11
ENDBRANCH   1  10
TORSDOF 12
ENDMDL
MODEL 7
REMARK VINA RESULT:    -4.038      1.898      3.702
REMARK INTER + INTRA:          -8.737
REMARK INTER:                  -7.261
REMARK INTRA:                  -1.476
REMARK UNBOUND:                -1.866
REMARK SMILES CCCCCCCCCCCCCC(=O)[O-]
REMARK SMILES IDX 8 1 9 2 10 3 11 4 12 5 13 6 14 7 15 8 16 9 7 10 6 11 5 12
REMARK SMILES IDX 4 13 3 14 2 15 1 16
REMARK H PARENT
REMARK Flexibility Score: inf
ROOT
ATOM      1  C   UNL     1      84.655 316.260 201.707  1.00  0.00     0.000 C 
ENDROOT
BRANCH   1   2
ATOM      2  C   UNL     1      84.403 317.497 202.585  1.00  0.00     0.000 C 
BRANCH   2   3
ATOM      3  C   UNL     1      85.646 317.909 203.392  1.00  0.00     0.000 C 
BRANCH   3   4
ATOM      4  C   UNL     1      85.333 318.152 204.878  1.00  0.00     0.000 C 
BRANCH   4   5
ATOM      5  C   UNL     1      84.787 316.900 205.582  1.00  0.00     0.006 C 
BRANCH   5   6
ATOM      6  C   UNL     1      85.919 316.101 206.234  1.00  0.00     0.053 C 
BRANCH   6   7
ATOM      7  C   UNL     1      85.700 314.633 206.045  1.00  0.00     0.041 C 
ATOM      8  O   UNL     1      86.658 313.886 205.717  1.00  0.00    -0.550 OA
ATOM      9  O   UNL     1      84.426 314.096 206.185  1.00  0.00    -0.550 OA
ENDBRANCH   6   7
ENDBRANCH   5   6
ENDBRANCH   4   5
ENDBRANCH   3   4
ENDBRANCH   2   3
ENDBRANCH   1   2
BRANCH   1  10
ATOM     10  C   UNL     1      85.488 315.186 202.426  1.00  0.00     0.000 C 
BRANCH  10  11
ATOM     11  C   UNL     1      86.782 314.827 201.673  1.00  0.00    -0.000 C 
BRANCH  11  12
ATOM     12  C   UNL     1      88.038 314.705 202.554  1.00  0.00    -0.000 C 
BRANCH  12  13
ATOM     13  C   UNL     1      88.389 316.010 203.283  1.00  0.00    -0.000 C 
BRANCH  13  14
ATOM     14  C   UNL     1      89.659 315.840 204.131  1.00  0.00    -0.000 C 
BRANCH  14  15
ATOM     15  C   UNL     1      89.423 316.154 205.617  1.00  0.00    -0.003 C 
ATOM     16  C   UNL     1      90.674 316.689 206.315  1.00  0.00     0.004 C 
ENDBRANCH  14  15
ENDBRANCH  13  14
ENDBRANCH  12  13
ENDBRANCH  11  12
ENDBRANCH  10  11
ENDBRANCH   1  10
TORSDOF 12
ENDMDL
MODEL 8
REMARK VINA RESULT:    -3.999      3.291      4.048
REMARK INTER + INTRA:          -8.670
REMARK INTER:                  -7.127
REMARK INTRA:                  -1.543
REMARK UNBOUND:                -1.866
REMARK SMILES CCCCCCCCCCCCCC(=O)[O-]
REMARK SMILES IDX 8 1 9 2 10 3 11 4 12 5 13 6 14 7 15 8 16 9 7 10 6 11 5 12
REMARK SMILES IDX 4 13 3 14 2 15 1 16
REMARK H PARENT
REMARK Flexibility Score: inf
ROOT
ATOM      1  C   UNL     1      84.746 317.570 205.569  1.00  0.00     0.000 C 
ENDROOT
BRANCH   1   2
ATOM      2  C   UNL     1      85.020 316.058 205.643  1.00  0.00     0.000 C 
BRANCH   2   3
ATOM      3  C   UNL     1      86.217 315.721 206.549  1.00  0.00     0.000 C 
BRANCH   3   4
ATOM      4  C   UNL     1      86.938 314.433 206.120  1.00  0.00     0.000 C 
BRANCH   4   5
ATOM      5  C   UNL     1      88.447 314.637 205.915  1.00  0.00     0.006 C 
BRANCH   5   6
ATOM      6  C   UNL     1      88.752 316.074 205.483  1.00  0.00     0.053 C 
BRANCH   6   7
ATOM      7  C   UNL     1      90.219 316.347 205.569  1.00  0.00     0.041 C 
ATOM      8  O   UNL     1      90.708 316.867 206.607  1.00  0.00    -0.550 OA
ATOM      9  O   UNL     1      91.043 316.072 204.485  1.00  0.00    -0.550 OA
ENDBRANCH   6   7
ENDBRANCH   5   6
ENDBRANCH   4   5
ENDBRANCH   3   4
ENDBRANCH   2   3
ENDBRANCH   1   2
BRANCH   1  10
ATOM     10  C   UNL     1      85.692 318.294 204.597  1.00  0.00     0.000 C 
BRANCH  10  11
ATOM     11  C   UNL     1      85.793 317.596 203.228  1.00  0.00    -0.000 C 
BRANCH  11  12
ATOM     12  C   UNL     1      84.481 317.537 202.426  1.00  0.00    -0.000 C 
BRANCH  12  13
ATOM     13  C   UNL     1      84.396 316.313 201.503  1.00  0.00    -0.000 C 
BRANCH  13  14
ATOM     14  C   UNL     1      85.052 315.086 202.157  1.00  0.00    -0.000 C 
BRANCH  14  15
ATOM     15  C   UNL     1      86.228 314.537 201.336  1.00  0.00    -0.003 C 
ATOM     16  C   UNL     1      87.543 314.532 202.115  1.00  0.00     0.004 C 
ENDBRANCH  14  15
ENDBRANCH  13  14
ENDBRANCH  12  13
ENDBRANCH  11  12
ENDBRANCH  10  11
ENDBRANCH   1  10
TORSDOF 12
ENDMDL
MODEL 9
REMARK VINA RESULT:    -3.922      2.011      4.549
REMARK INTER + INTRA:          -8.539
REMARK INTER:                  -6.745
REMARK INTRA:                  -1.794
REMARK UNBOUND:                -1.866
REMARK SMILES CCCCCCCCCCCCCC(=O)[O-]
REMARK SMILES IDX 8 1 9 2 10 3 11 4 12 5 13 6 14 7 15 8 16 9 7 10 6 11 5 12
REMARK SMILES IDX 4 13 3 14 2 15 1 16
REMARK H PARENT
REMARK Flexibility Score: inf
ROOT
ATOM      1  C   UNL     1      85.722 317.770 203.520  1.00  0.00     0.000 C 
ENDROOT
BRANCH   1   2
ATOM      2  C   UNL     1      84.523 317.565 202.580  1.00  0.00     0.000 C 
BRANCH   2   3
ATOM      3  C   UNL     1      84.634 316.269 201.758  1.00  0.00     0.000 C 
BRANCH   3   4
ATOM      4  C   UNL     1      84.546 315.006 202.631  1.00  0.00     0.000 C 
BRANCH   4   5
ATOM      5  C   UNL     1      85.644 313.982 202.307  1.00  0.00     0.006 C 
BRANCH   5   6
ATOM      6  C   UNL     1      87.006 314.666 202.162  1.00  0.00     0.053 C 
BRANCH   6   7
ATOM      7  C   UNL     1      88.101 313.756 202.619  1.00  0.00     0.041 C 
ATOM      8  O   UNL     1      88.112 312.549 202.264  1.00  0.00    -0.550 OA
ATOM      9  O   UNL     1      89.085 314.229 203.479  1.00  0.00    -0.550 OA
ENDBRANCH   6   7
ENDBRANCH   5   6
ENDBRANCH   4   5
ENDBRANCH   3   4
ENDBRANCH   2   3
ENDBRANCH   1   2
BRANCH   1  10
ATOM     10  C   UNL     1      85.295 317.990 204.981  1.00  0.00     0.000 C 
BRANCH  10  11
ATOM     11  C   UNL     1      85.333 316.698 205.818  1.00  0.00    -0.000 C 
BRANCH  11  12
ATOM     12  C   UNL     1      86.631 315.880 205.699  1.00  0.00    -0.000 C 
BRANCH  12  13
ATOM     13  C   UNL     1      86.422 314.381 205.961  1.00  0.00    -0.000 C 
BRANCH  13  14
ATOM     14  C   UNL     1      85.087 314.132 206.679  1.00  0.00    -0.000 C 
BRANCH  14  15
ATOM     15  C   UNL     1      84.281 312.987 206.046  1.00  0.00    -0.003 C 
ATOM     16  C   UNL     1      84.099 311.798 206.991  1.00  0.00     0.004 C 
ENDBRANCH  14  15
ENDBRANCH  13  14
ENDBRANCH  12  13
ENDBRANCH  11  12
ENDBRANCH  10  11
ENDBRANCH   1  10
TORSDOF 12
ENDMDL
