MODEL 1
REMARK VINA RESULT:    -7.502      0.000      0.000
REMARK INTER + INTRA:          -9.631
REMARK INTER:                  -9.256
REMARK INTRA:                  -0.375
REMARK UNBOUND:                -0.375
REMARK SMILES Oc1cc(O)c2cc(O)c(-c3cc(O)c(O)c(O)c3)[o+]c2c1
REMARK SMILES IDX 10 1 20 2 21 3 22 4 2 5 3 6 4 7 6 8 7 9 8 10 11 11 12 12
REMARK SMILES IDX 13 13 19 14 15 15 17 16 14 17 16 19 18 21 9 23 1 25 5 27
REMARK H PARENT 14 18 16 20 18 22 9 24 1 26 5 28
REMARK Flexibility Score: inf
ROOT
ATOM      1  C   UNL     1       9.094  -5.498   9.477  1.00  0.00     0.402 A 
ATOM      2  O   UNL     1       9.740  -4.815   8.536  1.00  0.00    -0.202 OA
ATOM      3  C   UNL     1      10.798  -4.051   8.784  1.00  0.00     0.368 A 
ATOM      4  C   UNL     1      11.407  -3.369   7.727  1.00  0.00     0.162 A 
ATOM      5  C   UNL     1      12.520  -2.555   7.961  1.00  0.00     0.128 A 
ATOM      6  C   UNL     1      13.024  -2.422   9.257  1.00  0.00     0.093 A 
ATOM      7  C   UNL     1      12.430  -3.094  10.333  1.00  0.00     0.136 A 
ATOM      8  C   UNL     1      11.303  -3.923  10.101  1.00  0.00     0.125 A 
ATOM      9  C   UNL     1      10.653  -4.645  11.115  1.00  0.00     0.078 A 
ATOM     10  C   UNL     1       9.549  -5.445  10.809  1.00  0.00     0.223 A 
ENDROOT
BRANCH   1  11
ATOM     11  C   UNL     1       7.922  -6.307   9.076  1.00  0.00     0.091 A 
ATOM     12  C   UNL     1       8.066  -7.627   8.618  1.00  0.00     0.068 A 
ATOM     13  C   UNL     1       6.942  -8.387   8.265  1.00  0.00     0.162 A 
ATOM     14  C   UNL     1       6.633  -5.769   9.208  1.00  0.00     0.068 A 
ATOM     15  C   UNL     1       5.656  -7.830   8.378  1.00  0.00     0.200 A 
ATOM     16  C   UNL     1       5.506  -6.517   8.856  1.00  0.00     0.162 A 
BRANCH  13  17
ATOM     17  O   UNL     1       7.098  -9.694   7.805  1.00  0.00    -0.504 OA
ATOM     18  H   UNL     1       7.082  -9.915   6.816  1.00  0.00     0.293 HD
ENDBRANCH  13  17
BRANCH  15  19
ATOM     19  O   UNL     1       4.527  -8.570   8.026  1.00  0.00    -0.502 OA
ATOM     20  H   UNL     1       4.190  -8.620   7.071  1.00  0.00     0.293 HD
ENDBRANCH  15  19
BRANCH  16  21
ATOM     21  O   UNL     1       4.243  -5.940   8.988  1.00  0.00    -0.504 OA
ATOM     22  H   UNL     1       3.482  -6.158   8.358  1.00  0.00     0.293 HD
ENDBRANCH  16  21
ENDBRANCH   1  11
BRANCH  10  23
ATOM     23  O   UNL     1       8.934  -6.200  11.807  1.00  0.00    -0.500 OA
ATOM     24  H   UNL     1       8.063  -5.908  12.235  1.00  0.00     0.294 HD
ENDBRANCH  10  23
BRANCH   5  25
ATOM     25  O   UNL     1      13.134  -1.873   6.912  1.00  0.00    -0.507 OA
ATOM     26  H   UNL     1      12.907  -0.907   6.704  1.00  0.00     0.293 HD
ENDBRANCH   5  25
BRANCH   7  27
ATOM     27  O   UNL     1      12.994  -2.904  11.599  1.00  0.00    -0.507 OA
ATOM     28  H   UNL     1      12.846  -2.087  12.172  1.00  0.00     0.293 HD
ENDBRANCH   7  27
TORSDOF 7
ENDMDL
MODEL 2
REMARK VINA RESULT:    -7.497      5.110      9.370
REMARK INTER + INTRA:          -9.625
REMARK INTER:                  -9.362
REMARK INTRA:                  -0.263
REMARK UNBOUND:                -0.375
REMARK SMILES Oc1cc(O)c2cc(O)c(-c3cc(O)c(O)c(O)c3)[o+]c2c1
REMARK SMILES IDX 10 1 20 2 21 3 22 4 2 5 3 6 4 7 6 8 7 9 8 10 11 11 12 12
REMARK SMILES IDX 13 13 19 14 15 15 17 16 14 17 16 19 18 21 9 23 1 25 5 27
REMARK H PARENT 14 18 16 20 18 22 9 24 1 26 5 28
REMARK Flexibility Score: inf
ROOT
ATOM      1  C   UNL     1      11.968  -4.451  14.708  1.00  0.00     0.402 A 
ATOM      2  O   UNL     1      11.006  -3.681  15.208  1.00  0.00    -0.202 OA
ATOM      3  C   UNL     1       9.815  -3.536  14.637  1.00  0.00     0.368 A 
ATOM      4  C   UNL     1       8.871  -2.700  15.239  1.00  0.00     0.162 A 
ATOM      5  C   UNL     1       7.611  -2.527  14.657  1.00  0.00     0.128 A 
ATOM      6  C   UNL     1       7.296  -3.190  13.470  1.00  0.00     0.093 A 
ATOM      7  C   UNL     1       8.226  -4.032  12.847  1.00  0.00     0.136 A 
ATOM      8  C   UNL     1       9.505  -4.214  13.434  1.00  0.00     0.125 A 
ATOM      9  C   UNL     1      10.493  -5.049  12.889  1.00  0.00     0.078 A 
ATOM     10  C   UNL     1      11.730  -5.181  13.527  1.00  0.00     0.223 A 
ENDROOT
BRANCH   1  11
ATOM     11  C   UNL     1      13.257  -4.524  15.432  1.00  0.00     0.091 A 
ATOM     12  C   UNL     1      14.118  -3.417  15.505  1.00  0.00     0.068 A 
ATOM     13  C   UNL     1      15.325  -3.497  16.216  1.00  0.00     0.162 A 
ATOM     14  C   UNL     1      13.603  -5.703  16.109  1.00  0.00     0.068 A 
ATOM     15  C   UNL     1      15.674  -4.690  16.872  1.00  0.00     0.200 A 
ATOM     16  C   UNL     1      14.805  -5.794  16.818  1.00  0.00     0.162 A 
BRANCH  13  17
ATOM     17  O   UNL     1      16.175  -2.394  16.276  1.00  0.00    -0.504 OA
ATOM     18  H   UNL     1      17.091  -2.404  15.843  1.00  0.00     0.293 HD
ENDBRANCH  13  17
BRANCH  15  19
ATOM     19  O   UNL     1      16.872  -4.790  17.579  1.00  0.00    -0.502 OA
ATOM     20  H   UNL     1      17.027  -4.299  18.451  1.00  0.00     0.293 HD
ENDBRANCH  15  19
BRANCH  16  21
ATOM     21  O   UNL     1      15.119  -6.988  17.466  1.00  0.00    -0.504 OA
ATOM     22  H   UNL     1      14.771  -7.883  17.145  1.00  0.00     0.293 HD
ENDBRANCH  16  21
ENDBRANCH   1  11
BRANCH  10  23
ATOM     23  O   UNL     1      12.694  -6.047  13.013  1.00  0.00    -0.500 OA
ATOM     24  H   UNL     1      12.761  -6.241  12.021  1.00  0.00     0.294 HD
ENDBRANCH  10  23
BRANCH   5  25
ATOM     25  O   UNL     1       6.663  -1.696  15.251  1.00  0.00    -0.507 OA
ATOM     26  H   UNL     1       6.712  -0.687  15.162  1.00  0.00     0.293 HD
ENDBRANCH   5  25
BRANCH   7  27
ATOM     27  O   UNL     1       7.834  -4.657  11.659  1.00  0.00    -0.507 OA
ATOM     28  H   UNL     1       8.472  -5.073  10.996  1.00  0.00     0.293 HD
ENDBRANCH   7  27
TORSDOF 7
ENDMDL
MODEL 3
REMARK VINA RESULT:    -7.384      7.529     11.008
REMARK INTER + INTRA:          -9.486
REMARK INTER:                  -9.106
REMARK INTRA:                  -0.379
REMARK UNBOUND:                -0.375
REMARK SMILES Oc1cc(O)c2cc(O)c(-c3cc(O)c(O)c(O)c3)[o+]c2c1
REMARK SMILES IDX 10 1 20 2 21 3 22 4 2 5 3 6 4 7 6 8 7 9 8 10 11 11 12 12
REMARK SMILES IDX 13 13 19 14 15 15 17 16 14 17 16 19 18 21 9 23 1 25 5 27
REMARK H PARENT 14 18 16 20 18 22 9 24 1 26 5 28
REMARK Flexibility Score: inf
ROOT
ATOM      1  C   UNL     1      13.823  -3.898  16.262  1.00  0.00     0.402 A 
ATOM      2  O   UNL     1      12.766  -4.399  16.895  1.00  0.00    -0.202 OA
ATOM      3  C   UNL     1      11.519  -4.003  16.663  1.00  0.00     0.368 A 
ATOM      4  C   UNL     1      10.474  -4.589  17.383  1.00  0.00     0.162 A 
ATOM      5  C   UNL     1       9.153  -4.188  17.160  1.00  0.00     0.128 A 
ATOM      6  C   UNL     1       8.878  -3.198  16.215  1.00  0.00     0.093 A 
ATOM      7  C   UNL     1       9.907  -2.595  15.482  1.00  0.00     0.136 A 
ATOM      8  C   UNL     1      11.249  -3.000  15.702  1.00  0.00     0.125 A 
ATOM      9  C   UNL     1      12.342  -2.462  15.004  1.00  0.00     0.078 A 
ATOM     10  C   UNL     1      13.637  -2.914  15.272  1.00  0.00     0.223 A 
ENDROOT
BRANCH   1  11
ATOM     11  C   UNL     1      15.163  -4.416  16.617  1.00  0.00     0.091 A 
ATOM     12  C   UNL     1      15.905  -3.863  17.674  1.00  0.00     0.068 A 
ATOM     13  C   UNL     1      17.164  -4.382  18.010  1.00  0.00     0.162 A 
ATOM     14  C   UNL     1      15.684  -5.518  15.922  1.00  0.00     0.068 A 
ATOM     15  C   UNL     1      17.687  -5.471  17.293  1.00  0.00     0.200 A 
ATOM     16  C   UNL     1      16.939  -6.040  16.248  1.00  0.00     0.162 A 
BRANCH  13  17
ATOM     17  O   UNL     1      17.893  -3.820  19.058  1.00  0.00    -0.504 OA
ATOM     18  H   UNL     1      17.680  -2.898  19.420  1.00  0.00     0.293 HD
ENDBRANCH  13  17
BRANCH  15  19
ATOM     19  O   UNL     1      18.940  -5.997  17.611  1.00  0.00    -0.502 OA
ATOM     20  H   UNL     1      19.729  -5.407  17.848  1.00  0.00     0.293 HD
ENDBRANCH  15  19
BRANCH  16  21
ATOM     21  O   UNL     1      17.427  -7.128  15.524  1.00  0.00    -0.504 OA
ATOM     22  H   UNL     1      18.057  -7.808  15.931  1.00  0.00     0.293 HD
ENDBRANCH  16  21
ENDBRANCH   1  11
BRANCH  10  23
ATOM     23  O   UNL     1      14.718  -2.415  14.545  1.00  0.00    -0.500 OA
ATOM     24  H   UNL     1      14.959  -1.432  14.558  1.00  0.00     0.294 HD
ENDBRANCH  10  23
BRANCH   5  25
ATOM     25  O   UNL     1       8.106  -4.768  17.873  1.00  0.00    -0.507 OA
ATOM     26  H   UNL     1       7.153  -4.435  17.779  1.00  0.00     0.293 HD
ENDBRANCH   5  25
BRANCH   7  27
ATOM     27  O   UNL     1       9.546  -1.609  14.557  1.00  0.00    -0.507 OA
ATOM     28  H   UNL     1       9.478  -0.625  14.772  1.00  0.00     0.293 HD
ENDBRANCH   7  27
TORSDOF 7
ENDMDL
MODEL 4
REMARK VINA RESULT:    -7.353      7.631     10.956
REMARK INTER + INTRA:          -9.447
REMARK INTER:                  -9.067
REMARK INTRA:                  -0.380
REMARK UNBOUND:                -0.375
REMARK SMILES Oc1cc(O)c2cc(O)c(-c3cc(O)c(O)c(O)c3)[o+]c2c1
REMARK SMILES IDX 10 1 20 2 21 3 22 4 2 5 3 6 4 7 6 8 7 9 8 10 11 11 12 12
REMARK SMILES IDX 13 13 19 14 15 15 17 16 14 17 16 19 18 21 9 23 1 25 5 27
REMARK H PARENT 14 18 16 20 18 22 9 24 1 26 5 28
REMARK Flexibility Score: inf
ROOT
ATOM      1  C   UNL     1      13.854  -3.950  16.318  1.00  0.00     0.402 A 
ATOM      2  O   UNL     1      12.784  -4.448  16.931  1.00  0.00    -0.202 OA
ATOM      3  C   UNL     1      11.546  -4.021  16.704  1.00  0.00     0.368 A 
ATOM      4  C   UNL     1      10.486  -4.605  17.402  1.00  0.00     0.162 A 
ATOM      5  C   UNL     1       9.174  -4.172  17.184  1.00  0.00     0.128 A 
ATOM      6  C   UNL     1       8.924  -3.150  16.265  1.00  0.00     0.093 A 
ATOM      7  C   UNL     1       9.969  -2.548  15.555  1.00  0.00     0.136 A 
ATOM      8  C   UNL     1      11.301  -2.986  15.770  1.00  0.00     0.125 A 
ATOM      9  C   UNL     1      12.408  -2.450  15.092  1.00  0.00     0.078 A 
ATOM     10  C   UNL     1      13.693  -2.936  15.355  1.00  0.00     0.223 A 
ENDROOT
BRANCH   1  11
ATOM     11  C   UNL     1      15.182  -4.504  16.665  1.00  0.00     0.091 A 
ATOM     12  C   UNL     1      15.715  -5.609  15.980  1.00  0.00     0.068 A 
ATOM     13  C   UNL     1      16.985  -6.105  16.308  1.00  0.00     0.162 A 
ATOM     14  C   UNL     1      15.951  -3.883  17.660  1.00  0.00     0.068 A 
ATOM     15  C   UNL     1      17.739  -5.489  17.322  1.00  0.00     0.200 A 
ATOM     16  C   UNL     1      17.217  -4.372  17.996  1.00  0.00     0.162 A 
BRANCH  13  17
ATOM     17  O   UNL     1      17.502  -7.206  15.625  1.00  0.00    -0.504 OA
ATOM     18  H   UNL     1      18.451  -7.213  15.269  1.00  0.00     0.293 HD
ENDBRANCH  13  17
BRANCH  15  19
ATOM     19  O   UNL     1      19.001  -5.974  17.664  1.00  0.00    -0.502 OA
ATOM     20  H   UNL     1      19.352  -6.860  17.320  1.00  0.00     0.293 HD
ENDBRANCH  15  19
BRANCH  16  21
ATOM     21  O   UNL     1      17.943  -3.734  19.000  1.00  0.00    -0.504 OA
ATOM     22  H   UNL     1      18.948  -3.826  19.081  1.00  0.00     0.293 HD
ENDBRANCH  16  21
ENDBRANCH   1  11
BRANCH  10  23
ATOM     23  O   UNL     1      14.787  -2.439  14.647  1.00  0.00    -0.500 OA
ATOM     24  H   UNL     1      14.922  -2.643  13.664  1.00  0.00     0.294 HD
ENDBRANCH  10  23
BRANCH   5  25
ATOM     25  O   UNL     1       8.112  -4.750  17.875  1.00  0.00    -0.507 OA
ATOM     26  H   UNL     1       7.953  -5.751  17.861  1.00  0.00     0.293 HD
ENDBRANCH   5  25
BRANCH   7  27
ATOM     27  O   UNL     1       9.633  -1.530  14.656  1.00  0.00    -0.507 OA
ATOM     28  H   UNL     1       9.235  -1.685  13.742  1.00  0.00     0.293 HD
ENDBRANCH   7  27
TORSDOF 7
ENDMDL
MODEL 5
REMARK VINA RESULT:    -7.305      5.342      9.507
REMARK INTER + INTRA:          -9.389
REMARK INTER:                  -9.048
REMARK INTRA:                  -0.340
REMARK UNBOUND:                -0.375
REMARK SMILES Oc1cc(O)c2cc(O)c(-c3cc(O)c(O)c(O)c3)[o+]c2c1
REMARK SMILES IDX 10 1 20 2 21 3 22 4 2 5 3 6 4 7 6 8 7 9 8 10 11 11 12 12
REMARK SMILES IDX 13 13 19 14 15 15 17 16 14 17 16 19 18 21 9 23 1 25 5 27
REMARK H PARENT 14 18 16 20 18 22 9 24 1 26 5 28
REMARK Flexibility Score: inf
ROOT
ATOM      1  C   UNL     1      12.045  -4.407  15.055  1.00  0.00     0.402 A 
ATOM      2  O   UNL     1      11.032  -3.666  15.497  1.00  0.00    -0.202 OA
ATOM      3  C   UNL     1       9.880  -3.542  14.847  1.00  0.00     0.368 A 
ATOM      4  C   UNL     1       8.876  -2.736  15.392  1.00  0.00     0.162 A 
ATOM      5  C   UNL     1       7.655  -2.585  14.728  1.00  0.00     0.128 A 
ATOM      6  C   UNL     1       7.439  -3.241  13.514  1.00  0.00     0.093 A 
ATOM      7  C   UNL     1       8.429  -4.052  12.947  1.00  0.00     0.136 A 
ATOM      8  C   UNL     1       9.669  -4.211  13.618  1.00  0.00     0.125 A 
ATOM      9  C   UNL     1      10.712  -5.015  13.132  1.00  0.00     0.078 A 
ATOM     10  C   UNL     1      11.905  -5.126  13.852  1.00  0.00     0.223 A 
ENDROOT
BRANCH   1  11
ATOM     11  C   UNL     1      13.282  -4.458  15.865  1.00  0.00     0.091 A 
ATOM     12  C   UNL     1      13.570  -5.556  16.693  1.00  0.00     0.068 A 
ATOM     13  C   UNL     1      14.758  -5.597  17.436  1.00  0.00     0.162 A 
ATOM     14  C   UNL     1      14.218  -3.417  15.764  1.00  0.00     0.068 A 
ATOM     15  C   UNL     1      15.678  -4.538  17.346  1.00  0.00     0.200 A 
ATOM     16  C   UNL     1      15.404  -3.447  16.502  1.00  0.00     0.162 A 
BRANCH  13  17
ATOM     17  O   UNL     1      15.030  -6.689  18.259  1.00  0.00    -0.504 OA
ATOM     18  H   UNL     1      14.656  -7.610  18.062  1.00  0.00     0.293 HD
ENDBRANCH  13  17
BRANCH  15  19
ATOM     19  O   UNL     1      16.863  -4.560  18.082  1.00  0.00    -0.502 OA
ATOM     20  H   UNL     1      17.584  -3.857  17.967  1.00  0.00     0.293 HD
ENDBRANCH  15  19
BRANCH  16  21
ATOM     21  O   UNL     1      16.301  -2.387  16.385  1.00  0.00    -0.504 OA
ATOM     22  H   UNL     1      16.448  -1.719  17.131  1.00  0.00     0.293 HD
ENDBRANCH  16  21
ENDBRANCH   1  11
BRANCH  10  23
ATOM     23  O   UNL     1      12.924  -5.963  13.395  1.00  0.00    -0.500 OA
ATOM     24  H   UNL     1      12.995  -6.231  12.421  1.00  0.00     0.294 HD
ENDBRANCH  10  23
BRANCH   5  25
ATOM     25  O   UNL     1       6.649  -1.785  15.265  1.00  0.00    -0.507 OA
ATOM     26  H   UNL     1       6.693  -0.774  15.215  1.00  0.00     0.293 HD
ENDBRANCH   5  25
BRANCH   7  27
ATOM     27  O   UNL     1       8.134  -4.670  11.727  1.00  0.00    -0.507 OA
ATOM     28  H   UNL     1       8.798  -4.795  10.977  1.00  0.00     0.293 HD
ENDBRANCH   7  27
TORSDOF 7
ENDMDL
MODEL 6
REMARK VINA RESULT:    -7.260      6.827     10.773
REMARK INTER + INTRA:          -9.332
REMARK INTER:                  -9.188
REMARK INTRA:                  -0.145
REMARK UNBOUND:                -0.375
REMARK SMILES Oc1cc(O)c2cc(O)c(-c3cc(O)c(O)c(O)c3)[o+]c2c1
REMARK SMILES IDX 10 1 20 2 21 3 22 4 2 5 3 6 4 7 6 8 7 9 8 10 11 11 12 12
REMARK SMILES IDX 13 13 19 14 15 15 17 16 14 17 16 19 18 21 9 23 1 25 5 27
REMARK H PARENT 14 18 16 20 18 22 9 24 1 26 5 28
REMARK Flexibility Score: inf
ROOT
ATOM      1  C   UNL     1      13.082  -4.857  17.248  1.00  0.00     0.402 A 
ATOM      2  O   UNL     1      12.452  -4.618  16.101  1.00  0.00    -0.202 OA
ATOM      3  C   UNL     1      11.130  -4.542  15.997  1.00  0.00     0.368 A 
ATOM      4  C   UNL     1      10.560  -4.290  14.745  1.00  0.00     0.162 A 
ATOM      5  C   UNL     1       9.171  -4.208  14.607  1.00  0.00     0.128 A 
ATOM      6  C   UNL     1       8.350  -4.380  15.723  1.00  0.00     0.093 A 
ATOM      7  C   UNL     1       8.896  -4.634  16.986  1.00  0.00     0.136 A 
ATOM      8  C   UNL     1      10.304  -4.716  17.134  1.00  0.00     0.125 A 
ATOM      9  C   UNL     1      10.940  -4.952  18.363  1.00  0.00     0.078 A 
ATOM     10  C   UNL     1      12.335  -5.015  18.431  1.00  0.00     0.223 A 
ENDROOT
BRANCH   1  11
ATOM     11  C   UNL     1      14.560  -4.928  17.234  1.00  0.00     0.091 A 
ATOM     12  C   UNL     1      15.241  -5.850  16.422  1.00  0.00     0.068 A 
ATOM     13  C   UNL     1      16.643  -5.887  16.405  1.00  0.00     0.162 A 
ATOM     14  C   UNL     1      15.303  -4.019  18.004  1.00  0.00     0.068 A 
ATOM     15  C   UNL     1      17.377  -4.988  17.197  1.00  0.00     0.200 A 
ATOM     16  C   UNL     1      16.700  -4.050  17.996  1.00  0.00     0.162 A 
BRANCH  13  17
ATOM     17  O   UNL     1      17.307  -6.811  15.600  1.00  0.00    -0.504 OA
ATOM     18  H   UNL     1      16.805  -7.521  15.079  1.00  0.00     0.293 HD
ENDBRANCH  13  17
BRANCH  15  19
ATOM     19  O   UNL     1      18.772  -5.015  17.196  1.00  0.00    -0.502 OA
ATOM     20  H   UNL     1      19.300  -5.728  17.685  1.00  0.00     0.293 HD
ENDBRANCH  15  19
BRANCH  16  21
ATOM     21  O   UNL     1      17.401  -3.139  18.785  1.00  0.00    -0.504 OA
ATOM     22  H   UNL     1      18.392  -3.235  18.970  1.00  0.00     0.293 HD
ENDBRANCH  16  21
ENDBRANCH   1  11
BRANCH  10  23
ATOM     23  O   UNL     1      12.968  -5.202  19.660  1.00  0.00    -0.500 OA
ATOM     24  H   UNL     1      12.775  -4.603  20.454  1.00  0.00     0.294 HD
ENDBRANCH  10  23
BRANCH   5  25
ATOM     25  O   UNL     1       8.596  -3.956  13.363  1.00  0.00    -0.507 OA
ATOM     26  H   UNL     1       9.081  -3.416  12.654  1.00  0.00     0.293 HD
ENDBRANCH   5  25
BRANCH   7  27
ATOM     27  O   UNL     1       8.004  -4.797  18.052  1.00  0.00    -0.507 OA
ATOM     28  H   UNL     1       7.390  -5.590  18.164  1.00  0.00     0.293 HD
ENDBRANCH   7  27
TORSDOF 7
ENDMDL
MODEL 7
REMARK VINA RESULT:    -7.208      2.239      2.875
REMARK INTER + INTRA:          -9.268
REMARK INTER:                  -8.890
REMARK INTRA:                  -0.378
REMARK UNBOUND:                -0.375
REMARK SMILES Oc1cc(O)c2cc(O)c(-c3cc(O)c(O)c(O)c3)[o+]c2c1
REMARK SMILES IDX 10 1 20 2 21 3 22 4 2 5 3 6 4 7 6 8 7 9 8 10 11 11 12 12
REMARK SMILES IDX 13 13 19 14 15 15 17 16 14 17 16 19 18 21 9 23 1 25 5 27
REMARK H PARENT 14 18 16 20 18 22 9 24 1 26 5 28
REMARK Flexibility Score: inf
ROOT
ATOM      1  C   UNL     1      10.429  -4.630  11.057  1.00  0.00     0.402 A 
ATOM      2  O   UNL     1      10.633  -3.367  10.694  1.00  0.00    -0.202 OA
ATOM      3  C   UNL     1      11.455  -2.545  11.338  1.00  0.00     0.368 A 
ATOM      4  C   UNL     1      11.599  -1.232  10.882  1.00  0.00     0.162 A 
ATOM      5  C   UNL     1      12.456  -0.346  11.543  1.00  0.00     0.128 A 
ATOM      6  C   UNL     1      13.168  -0.775  12.665  1.00  0.00     0.093 A 
ATOM      7  C   UNL     1      13.039  -2.084  13.142  1.00  0.00     0.136 A 
ATOM      8  C   UNL     1      12.174  -2.988  12.474  1.00  0.00     0.125 A 
ATOM      9  C   UNL     1      11.994  -4.323  12.873  1.00  0.00     0.078 A 
ATOM     10  C   UNL     1      11.126  -5.156  12.161  1.00  0.00     0.223 A 
ENDROOT
BRANCH   1  11
ATOM     11  C   UNL     1       9.480  -5.443  10.264  1.00  0.00     0.091 A 
ATOM     12  C   UNL     1       9.915  -6.232   9.186  1.00  0.00     0.068 A 
ATOM     13  C   UNL     1       9.005  -7.014   8.461  1.00  0.00     0.162 A 
ATOM     14  C   UNL     1       8.124  -5.472  10.626  1.00  0.00     0.068 A 
ATOM     15  C   UNL     1       7.645  -7.018   8.818  1.00  0.00     0.200 A 
ATOM     16  C   UNL     1       7.209  -6.246   9.907  1.00  0.00     0.162 A 
BRANCH  13  17
ATOM     17  O   UNL     1       9.448  -7.788   7.390  1.00  0.00    -0.504 OA
ATOM     18  H   UNL     1       8.955  -7.803   6.504  1.00  0.00     0.293 HD
ENDBRANCH  13  17
BRANCH  15  19
ATOM     19  O   UNL     1       6.725  -7.786   8.103  1.00  0.00    -0.502 OA
ATOM     20  H   UNL     1       6.094  -7.378   7.422  1.00  0.00     0.293 HD
ENDBRANCH  15  19
BRANCH  16  21
ATOM     21  O   UNL     1       5.868  -6.237  10.291  1.00  0.00    -0.504 OA
ATOM     22  H   UNL     1       5.579  -6.402  11.247  1.00  0.00     0.293 HD
ENDBRANCH  16  21
ENDBRANCH   1  11
BRANCH  10  23
ATOM     23  O   UNL     1      10.984  -6.495  12.527  1.00  0.00    -0.500 OA
ATOM     24  H   UNL     1      10.350  -7.116  12.038  1.00  0.00     0.294 HD
ENDBRANCH  10  23
BRANCH   5  25
ATOM     25  O   UNL     1      12.606   0.964  11.093  1.00  0.00    -0.507 OA
ATOM     26  H   UNL     1      13.523   1.381  10.974  1.00  0.00     0.293 HD
ENDBRANCH   5  25
BRANCH   7  27
ATOM     27  O   UNL     1      13.784  -2.433  14.274  1.00  0.00    -0.507 OA
ATOM     28  H   UNL     1      13.385  -2.646  15.176  1.00  0.00     0.293 HD
ENDBRANCH   7  27
TORSDOF 7
ENDMDL
MODEL 8
REMARK VINA RESULT:    -7.197      4.802      7.092
REMARK INTER + INTRA:          -9.255
REMARK INTER:                  -8.871
REMARK INTRA:                  -0.384
REMARK UNBOUND:                -0.375
REMARK SMILES Oc1cc(O)c2cc(O)c(-c3cc(O)c(O)c(O)c3)[o+]c2c1
REMARK SMILES IDX 10 1 20 2 21 3 22 4 2 5 3 6 4 7 6 8 7 9 8 10 11 11 12 12
REMARK SMILES IDX 13 13 19 14 15 15 17 16 14 17 16 19 18 21 9 23 1 25 5 27
REMARK H PARENT 14 18 16 20 18 22 9 24 1 26 5 28
REMARK Flexibility Score: inf
ROOT
ATOM      1  C   UNL     1      11.770  -4.314  13.881  1.00  0.00     0.402 A 
ATOM      2  O   UNL     1      12.230  -3.066  13.895  1.00  0.00    -0.202 OA
ATOM      3  C   UNL     1      12.486  -2.370  12.792  1.00  0.00     0.368 A 
ATOM      4  C   UNL     1      12.972  -1.065  12.909  1.00  0.00     0.162 A 
ATOM      5  C   UNL     1      13.252  -0.312  11.765  1.00  0.00     0.128 A 
ATOM      6  C   UNL     1      13.048  -0.866  10.500  1.00  0.00     0.093 A 
ATOM      7  C   UNL     1      12.563  -2.172  10.356  1.00  0.00     0.136 A 
ATOM      8  C   UNL     1      12.274  -2.940  11.514  1.00  0.00     0.125 A 
ATOM      9  C   UNL     1      11.772  -4.250  11.465  1.00  0.00     0.078 A 
ATOM     10  C   UNL     1      11.507  -4.944  12.650  1.00  0.00     0.223 A 
ENDROOT
BRANCH   1  11
ATOM     11  C   UNL     1      11.533  -4.987  15.178  1.00  0.00     0.091 A 
ATOM     12  C   UNL     1      12.504  -5.821  15.757  1.00  0.00     0.068 A 
ATOM     13  C   UNL     1      12.270  -6.432  16.998  1.00  0.00     0.162 A 
ATOM     14  C   UNL     1      10.338  -4.746  15.873  1.00  0.00     0.068 A 
ATOM     15  C   UNL     1      11.061  -6.203  17.676  1.00  0.00     0.200 A 
ATOM     16  C   UNL     1      10.095  -5.353  17.109  1.00  0.00     0.162 A 
BRANCH  13  17
ATOM     17  O   UNL     1      13.238  -7.263  17.560  1.00  0.00    -0.504 OA
ATOM     18  H   UNL     1      13.079  -8.257  17.684  1.00  0.00     0.293 HD
ENDBRANCH  13  17
BRANCH  15  19
ATOM     19  O   UNL     1      10.809  -6.808  18.908  1.00  0.00    -0.502 OA
ATOM     20  H   UNL     1      10.175  -6.405  19.588  1.00  0.00     0.293 HD
ENDBRANCH  15  19
BRANCH  16  21
ATOM     21  O   UNL     1       8.889  -5.099  17.761  1.00  0.00    -0.504 OA
ATOM     22  H   UNL     1       8.709  -5.415  18.706  1.00  0.00     0.293 HD
ENDBRANCH  16  21
ENDBRANCH   1  11
BRANCH  10  23
ATOM     23  O   UNL     1      10.963  -6.227  12.603  1.00  0.00    -0.500 OA
ATOM     24  H   UNL     1      11.405  -7.010  13.070  1.00  0.00     0.294 HD
ENDBRANCH  10  23
BRANCH   5  25
ATOM     25  O   UNL     1      13.736   0.991  11.874  1.00  0.00    -0.507 OA
ATOM     26  H   UNL     1      14.627   1.260  11.473  1.00  0.00     0.293 HD
ENDBRANCH   5  25
BRANCH   7  27
ATOM     27  O   UNL     1      12.389  -2.654   9.055  1.00  0.00    -0.507 OA
ATOM     28  H   UNL     1      13.124  -3.060   8.495  1.00  0.00     0.293 HD
ENDBRANCH   7  27
TORSDOF 7
ENDMDL
MODEL 9
REMARK VINA RESULT:    -7.126      3.578      6.161
REMARK INTER + INTRA:          -9.167
REMARK INTER:                  -8.792
REMARK INTRA:                  -0.375
REMARK UNBOUND:                -0.375
REMARK SMILES Oc1cc(O)c2cc(O)c(-c3cc(O)c(O)c(O)c3)[o+]c2c1
REMARK SMILES IDX 10 1 20 2 21 3 22 4 2 5 3 6 4 7 6 8 7 9 8 10 11 11 12 12
REMARK SMILES IDX 13 13 19 14 15 15 17 16 14 17 16 19 18 21 9 23 1 25 5 27
REMARK H PARENT 14 18 16 20 18 22 9 24 1 26 5 28
REMARK Flexibility Score: inf
ROOT
ATOM      1  C   UNL     1       4.824  -7.320   6.822  1.00  0.00     0.402 A 
ATOM      2  O   UNL     1       4.943  -6.495   7.859  1.00  0.00    -0.202 OA
ATOM      3  C   UNL     1       6.049  -6.393   8.588  1.00  0.00     0.368 A 
ATOM      4  C   UNL     1       6.075  -5.499   9.662  1.00  0.00     0.162 A 
ATOM      5  C   UNL     1       7.225  -5.374  10.447  1.00  0.00     0.128 A 
ATOM      6  C   UNL     1       8.352  -6.147  10.158  1.00  0.00     0.093 A 
ATOM      7  C   UNL     1       8.350  -7.050   9.089  1.00  0.00     0.136 A 
ATOM      8  C   UNL     1       7.187  -7.179   8.287  1.00  0.00     0.125 A 
ATOM      9  C   UNL     1       7.100  -8.048   7.188  1.00  0.00     0.078 A 
ATOM     10  C   UNL     1       5.920  -8.118   6.441  1.00  0.00     0.223 A 
ENDROOT
BRANCH   1  11
ATOM     11  C   UNL     1       3.536  -7.350   6.095  1.00  0.00     0.091 A 
ATOM     12  C   UNL     1       2.472  -8.161   6.523  1.00  0.00     0.068 A 
ATOM     13  C   UNL     1       1.251  -8.159   5.834  1.00  0.00     0.162 A 
ATOM     14  C   UNL     1       3.350  -6.510   4.986  1.00  0.00     0.068 A 
ATOM     15  C   UNL     1       1.082  -7.331   4.710  1.00  0.00     0.200 A 
ATOM     16  C   UNL     1       2.137  -6.503   4.290  1.00  0.00     0.162 A 
BRANCH  13  17
ATOM     17  O   UNL     1       0.204  -8.973   6.265  1.00  0.00    -0.504 OA
ATOM     18  H   UNL     1      -0.473  -8.652   6.948  1.00  0.00     0.293 HD
ENDBRANCH  13  17
BRANCH  15  19
ATOM     19  O   UNL     1      -0.125  -7.320   4.009  1.00  0.00    -0.502 OA
ATOM     20  H   UNL     1      -0.358  -8.029   3.324  1.00  0.00     0.293 HD
ENDBRANCH  15  19
BRANCH  16  21
ATOM     21  O   UNL     1       1.996  -5.664   3.185  1.00  0.00    -0.504 OA
ATOM     22  H   UNL     1       1.867  -6.024   2.248  1.00  0.00     0.293 HD
ENDBRANCH  16  21
ENDBRANCH   1  11
BRANCH  10  23
ATOM     23  O   UNL     1       5.849  -8.944   5.319  1.00  0.00    -0.500 OA
ATOM     24  H   UNL     1       5.946  -8.576   4.380  1.00  0.00     0.294 HD
ENDBRANCH  10  23
BRANCH   5  25
ATOM     25  O   UNL     1       7.260  -4.484  11.519  1.00  0.00    -0.507 OA
ATOM     26  H   UNL     1       6.702  -3.637  11.522  1.00  0.00     0.293 HD
ENDBRANCH   5  25
BRANCH   7  27
ATOM     27  O   UNL     1       9.517  -7.789   8.869  1.00  0.00    -0.507 OA
ATOM     28  H   UNL     1       9.697  -8.337   8.040  1.00  0.00     0.293 HD
ENDBRANCH   7  27
TORSDOF 7
ENDMDL
