MODEL 1
REMARK VINA RESULT:    -6.147      0.000      0.000
REMARK INTER + INTRA:          -6.810
REMARK INTER:                  -6.686
REMARK INTRA:                  -0.124
REMARK UNBOUND:                -0.124
REMARK SMILES C[C@H]1[C@H](C)CC[C@]2(C(=O)[O-])CC[C@@]3(C)C(=CC[C@@H]4[C@@]5(C)CC[C@@H](O)C(C)(C)[C@H]5CC[C@]43C)[C@H]12
REMARK SMILES IDX 7 1 6 2 11 3 33 4 5 5 12 6 15 7 2 8 3 9 13 10 16 11 1 12
REMARK SMILES IDX 4 13 14 14 31 15 17 16 18 17 30 18 32 19 19 20 29 21 28 22
REMARK SMILES IDX 21 23 20 24 25 25 22 26 23 27 26 28 27 29 8 30 9 31 10 32
REMARK SMILES IDX 24 33
REMARK H PARENT 24 34
REMARK Flexibility Score: inf
ROOT
ATOM      1  C   UNL     1      -3.162 -20.431  -8.101  1.00  0.00     0.017 C 
ATOM      2  C   UNL     1      -3.614 -19.414  -9.205  1.00  0.00     0.014 C 
ATOM      3  C   UNL     1      -3.346 -19.822  -6.677  1.00  0.00     0.014 C 
ATOM      4  C   UNL     1      -1.649 -20.949  -8.233  1.00  0.00     0.030 C 
ATOM      5  C   UNL     1      -2.794 -19.495 -10.479  1.00  0.00     0.004 C 
ATOM      6  C   UNL     1      -3.049 -20.788  -5.501  1.00  0.00     0.013 C 
ATOM      7  C   UNL     1      -1.004 -21.357  -6.853  1.00  0.00    -0.063 C 
ATOM      8  C   UNL     1      -0.690 -20.096  -9.197  1.00  0.00    -0.003 C 
ATOM      9  C   UNL     1      -1.331 -19.095 -10.228  1.00  0.00    -0.011 C 
ATOM     10  C   UNL     1      -1.892 -21.843  -5.653  1.00  0.00    -0.006 C 
ATOM     11  C   UNL     1       0.356 -21.238  -6.687  1.00  0.00    -0.027 C 
ATOM     12  C   UNL     1       0.332 -21.028  -9.917  1.00  0.00     0.008 C 
ATOM     13  C   UNL     1      -1.130 -17.573  -9.825  1.00  0.00     0.008 C 
ATOM     14  C   UNL     1      -2.518 -23.190  -6.102  1.00  0.00     0.017 C 
ATOM     15  C   UNL     1      -1.085 -22.051  -4.191  1.00  0.00    -0.020 C 
ATOM     16  C   UNL     1       1.067 -21.752  -5.490  1.00  0.00     0.032 C 
ATOM     17  C   UNL     1       0.293 -21.254  -4.272  1.00  0.00     0.006 C 
ATOM     18  C   UNL     1      -1.802 -21.581  -2.868  1.00  0.00     0.008 C 
ATOM     19  C   UNL     1      -0.836 -23.597  -3.942  1.00  0.00     0.012 C 
ATOM     20  C   UNL     1       1.100 -20.991  -2.924  1.00  0.00    -0.025 C 
ATOM     21  C   UNL     1      -1.344 -20.226  -2.268  1.00  0.00     0.005 C 
ATOM     22  C   UNL     1       0.202 -20.061  -2.012  1.00  0.00     0.003 C 
ATOM     23  C   UNL     1       2.475 -20.324  -3.231  1.00  0.00     0.010 C 
ATOM     24  C   UNL     1       1.422 -22.315  -2.179  1.00  0.00     0.012 C 
ATOM     25  C   UNL     1       0.655 -18.530  -1.955  1.00  0.00    -0.006 C 
ATOM     26  C   UNL     1       3.087 -19.542  -2.055  1.00  0.00     0.033 C 
ATOM     27  C   UNL     1       2.176 -18.416  -1.546  1.00  0.00     0.120 C 
ATOM     28  C   UNL     1       0.359 -17.756  -3.285  1.00  0.00     0.014 C 
ATOM     29  C   UNL     1      -0.168 -17.800  -0.875  1.00  0.00     0.014 C 
ENDROOT
BRANCH   1  30
ATOM     30  C   UNL     1      -4.221 -21.528  -8.318  1.00  0.00     0.048 C 
ATOM     31  O   UNL     1      -4.109 -22.394  -9.253  1.00  0.00    -0.550 OA
ATOM     32  O   UNL     1      -5.377 -21.559  -7.541  1.00  0.00    -0.550 OA
ENDBRANCH   1  30
BRANCH  27  33
ATOM     33  O   UNL     1       2.717 -17.146  -1.867  1.00  0.00    -0.393 OA
ATOM     34  H   UNL     1       3.598 -17.286  -2.332  1.00  0.00     0.210 HD
ENDBRANCH  27  33
TORSDOF 2
ENDMDL
MODEL 2
REMARK VINA RESULT:    -5.492      1.750      2.315
REMARK INTER + INTRA:          -6.097
REMARK INTER:                  -6.047
REMARK INTRA:                  -0.050
REMARK UNBOUND:                -0.124
REMARK SMILES C[C@H]1[C@H](C)CC[C@]2(C(=O)[O-])CC[C@@]3(C)C(=CC[C@@H]4[C@@]5(C)CC[C@@H](O)C(C)(C)[C@H]5CC[C@]43C)[C@H]12
REMARK SMILES IDX 7 1 6 2 11 3 33 4 5 5 12 6 15 7 2 8 3 9 13 10 16 11 1 12
REMARK SMILES IDX 4 13 14 14 31 15 17 16 18 17 30 18 32 19 19 20 29 21 28 22
REMARK SMILES IDX 21 23 20 24 25 25 22 26 23 27 26 28 27 29 8 30 9 31 10 32
REMARK SMILES IDX 24 33
REMARK H PARENT 24 34
REMARK Flexibility Score: inf
ROOT
ATOM      1  C   UNL     1      -5.091 -21.779  -6.534  1.00  0.00     0.017 C 
ATOM      2  C   UNL     1      -6.121 -20.746  -7.107  1.00  0.00     0.014 C 
ATOM      3  C   UNL     1      -4.687 -21.410  -5.073  1.00  0.00     0.014 C 
ATOM      4  C   UNL     1      -3.748 -21.949  -7.397  1.00  0.00     0.030 C 
ATOM      5  C   UNL     1      -5.963 -20.490  -8.594  1.00  0.00     0.004 C 
ATOM      6  C   UNL     1      -3.768 -22.435  -4.362  1.00  0.00     0.013 C 
ATOM      7  C   UNL     1      -2.501 -22.387  -6.536  1.00  0.00    -0.063 C 
ATOM      8  C   UNL     1      -3.449 -20.798  -8.476  1.00  0.00    -0.003 C 
ATOM      9  C   UNL     1      -4.611 -19.829  -8.907  1.00  0.00    -0.011 C 
ATOM     10  C   UNL     1      -2.679 -23.197  -5.203  1.00  0.00    -0.006 C 
ATOM     11  C   UNL     1      -1.242 -22.010  -6.939  1.00  0.00    -0.027 C 
ATOM     12  C   UNL     1      -2.752 -21.396  -9.736  1.00  0.00     0.008 C 
ATOM     13  C   UNL     1      -4.450 -18.363  -8.320  1.00  0.00     0.008 C 
ATOM     14  C   UNL     1      -3.259 -24.576  -5.614  1.00  0.00     0.017 C 
ATOM     15  C   UNL     1      -1.278 -23.418  -4.297  1.00  0.00    -0.020 C 
ATOM     16  C   UNL     1      -0.006 -22.513  -6.289  1.00  0.00     0.032 C 
ATOM     17  C   UNL     1      -0.203 -22.347  -4.784  1.00  0.00     0.006 C 
ATOM     18  C   UNL     1      -1.373 -23.281  -2.729  1.00  0.00     0.008 C 
ATOM     19  C   UNL     1      -0.745 -24.897  -4.503  1.00  0.00     0.012 C 
ATOM     20  C   UNL     1       1.085 -22.098  -3.880  1.00  0.00    -0.025 C 
ATOM     21  C   UNL     1      -0.874 -21.949  -2.111  1.00  0.00     0.005 C 
ATOM     22  C   UNL     1       0.585 -21.500  -2.504  1.00  0.00     0.003 C 
ATOM     23  C   UNL     1       2.072 -21.125  -4.594  1.00  0.00     0.010 C 
ATOM     24  C   UNL     1       1.878 -23.409  -3.633  1.00  0.00     0.012 C 
ATOM     25  C   UNL     1       0.811 -19.928  -2.327  1.00  0.00    -0.006 C 
ATOM     26  C   UNL     1       3.043 -20.389  -3.652  1.00  0.00     0.033 C 
ATOM     27  C   UNL     1       2.323 -19.553  -2.584  1.00  0.00     0.120 C 
ATOM     28  C   UNL     1      -0.152 -19.069  -3.215  1.00  0.00     0.014 C 
ATOM     29  C   UNL     1       0.479 -19.531  -0.875  1.00  0.00     0.014 C 
ENDROOT
BRANCH   1  30
ATOM     30  C   UNL     1      -5.980 -23.036  -6.507  1.00  0.00     0.048 C 
ATOM     31  O   UNL     1      -5.753 -24.036  -7.272  1.00  0.00    -0.550 OA
ATOM     32  O   UNL     1      -7.111 -23.084  -5.694  1.00  0.00    -0.550 OA
ENDBRANCH   1  30
BRANCH  27  33
ATOM     33  O   UNL     1       2.490 -18.168  -2.832  1.00  0.00    -0.393 OA
ATOM     34  H   UNL     1       3.198 -18.056  -3.538  1.00  0.00     0.210 HD
ENDBRANCH  27  33
TORSDOF 2
ENDMDL
MODEL 3
REMARK VINA RESULT:    -5.124      2.596      7.080
REMARK INTER + INTRA:          -5.697
REMARK INTER:                  -5.564
REMARK INTRA:                  -0.133
REMARK UNBOUND:                -0.124
REMARK SMILES C[C@H]1[C@H](C)CC[C@]2(C(=O)[O-])CC[C@@]3(C)C(=CC[C@@H]4[C@@]5(C)CC[C@@H](O)C(C)(C)[C@H]5CC[C@]43C)[C@H]12
REMARK SMILES IDX 7 1 6 2 11 3 33 4 5 5 12 6 15 7 2 8 3 9 13 10 16 11 1 12
REMARK SMILES IDX 4 13 14 14 31 15 17 16 18 17 30 18 32 19 19 20 29 21 28 22
REMARK SMILES IDX 21 23 20 24 25 25 22 26 23 27 26 28 27 29 8 30 9 31 10 32
REMARK SMILES IDX 24 33
REMARK H PARENT 24 34
REMARK Flexibility Score: inf
ROOT
ATOM      1  C   UNL     1       2.072 -23.036  -3.545  1.00  0.00     0.017 C 
ATOM      2  C   UNL     1       3.587 -23.426  -3.449  1.00  0.00     0.014 C 
ATOM      3  C   UNL     1       1.491 -23.404  -4.945  1.00  0.00     0.014 C 
ATOM      4  C   UNL     1       1.750 -21.489  -3.260  1.00  0.00     0.030 C 
ATOM      5  C   UNL     1       4.408 -22.473  -2.602  1.00  0.00     0.004 C 
ATOM      6  C   UNL     1      -0.033 -23.177  -5.110  1.00  0.00     0.013 C 
ATOM      7  C   UNL     1       0.459 -20.971  -4.002  1.00  0.00    -0.063 C 
ATOM      8  C   UNL     1       3.001 -20.485  -3.307  1.00  0.00    -0.003 C 
ATOM      9  C   UNL     1       4.460 -21.071  -3.229  1.00  0.00    -0.011 C 
ATOM     10  C   UNL     1      -0.705 -21.952  -4.388  1.00  0.00    -0.006 C 
ATOM     11  C   UNL     1       0.377 -19.646  -4.359  1.00  0.00    -0.027 C 
ATOM     12  C   UNL     1       2.825 -19.340  -2.264  1.00  0.00     0.008 C 
ATOM     13  C   UNL     1       5.234 -21.002  -4.613  1.00  0.00     0.008 C 
ATOM     14  C   UNL     1      -1.309 -22.447  -3.047  1.00  0.00     0.017 C 
ATOM     15  C   UNL     1      -1.920 -21.293  -5.348  1.00  0.00    -0.020 C 
ATOM     16  C   UNL     1      -0.861 -19.037  -4.908  1.00  0.00     0.032 C 
ATOM     17  C   UNL     1      -1.351 -19.963  -6.018  1.00  0.00     0.006 C 
ATOM     18  C   UNL     1      -2.507 -22.172  -6.518  1.00  0.00     0.008 C 
ATOM     19  C   UNL     1      -3.190 -20.983  -4.452  1.00  0.00     0.012 C 
ATOM     20  C   UNL     1      -2.155 -19.320  -7.233  1.00  0.00    -0.025 C 
ATOM     21  C   UNL     1      -2.000 -21.860  -7.950  1.00  0.00     0.005 C 
ATOM     22  C   UNL     1      -2.121 -20.361  -8.424  1.00  0.00     0.003 C 
ATOM     23  C   UNL     1      -1.517 -17.961  -7.652  1.00  0.00     0.010 C 
ATOM     24  C   UNL     1      -3.625 -19.002  -6.847  1.00  0.00     0.012 C 
ATOM     25  C   UNL     1      -1.103 -20.006  -9.603  1.00  0.00    -0.006 C 
ATOM     26  C   UNL     1      -1.827 -17.523  -9.096  1.00  0.00     0.033 C 
ATOM     27  C   UNL     1      -1.368 -18.547 -10.144  1.00  0.00     0.120 C 
ATOM     28  C   UNL     1       0.396 -20.205  -9.196  1.00  0.00     0.014 C 
ATOM     29  C   UNL     1      -1.332 -20.980 -10.776  1.00  0.00     0.014 C 
ENDROOT
BRANCH   1  30
ATOM     30  C   UNL     1       1.494 -24.000  -2.493  1.00  0.00     0.048 C 
ATOM     31  O   UNL     1       0.982 -25.125  -2.822  1.00  0.00    -0.550 OA
ATOM     32  O   UNL     1       1.442 -23.632  -1.150  1.00  0.00    -0.550 OA
ENDBRANCH   1  30
BRANCH  27  33
ATOM     33  O   UNL     1      -0.268 -18.049 -10.886  1.00  0.00    -0.393 OA
ATOM     34  H   UNL     1      -0.428 -17.074 -11.073  1.00  0.00     0.210 HD
ENDBRANCH  27  33
TORSDOF 2
ENDMDL
MODEL 4
REMARK VINA RESULT:    -4.765      2.379      7.387
REMARK INTER + INTRA:          -5.306
REMARK INTER:                  -5.084
REMARK INTRA:                  -0.222
REMARK UNBOUND:                -0.124
REMARK SMILES C[C@H]1[C@H](C)CC[C@]2(C(=O)[O-])CC[C@@]3(C)C(=CC[C@@H]4[C@@]5(C)CC[C@@H](O)C(C)(C)[C@H]5CC[C@]43C)[C@H]12
REMARK SMILES IDX 7 1 6 2 11 3 33 4 5 5 12 6 15 7 2 8 3 9 13 10 16 11 1 12
REMARK SMILES IDX 4 13 14 14 31 15 17 16 18 17 30 18 32 19 19 20 29 21 28 22
REMARK SMILES IDX 21 23 20 24 25 25 22 26 23 27 26 28 27 29 8 30 9 31 10 32
REMARK SMILES IDX 24 33
REMARK H PARENT 24 34
REMARK Flexibility Score: inf
ROOT
ATOM      1  C   UNL     1       3.748 -21.592  -2.927  1.00  0.00     0.017 C 
ATOM      2  C   UNL     1       5.198 -21.009  -2.809  1.00  0.00     0.014 C 
ATOM      3  C   UNL     1       3.409 -21.943  -4.408  1.00  0.00     0.014 C 
ATOM      4  C   UNL     1       2.585 -20.642  -2.358  1.00  0.00     0.030 C 
ATOM      5  C   UNL     1       5.342 -19.949  -1.734  1.00  0.00     0.004 C 
ATOM      6  C   UNL     1       2.044 -22.645  -4.627  1.00  0.00     0.013 C 
ATOM      7  C   UNL     1       1.194 -20.862  -3.067  1.00  0.00    -0.063 C 
ATOM      8  C   UNL     1       2.982 -19.105  -2.117  1.00  0.00    -0.003 C 
ATOM      9  C   UNL     1       4.503 -18.705  -2.060  1.00  0.00    -0.011 C 
ATOM     10  C   UNL     1       0.824 -22.240  -3.720  1.00  0.00    -0.006 C 
ATOM     11  C   UNL     1       0.312 -19.811  -3.154  1.00  0.00    -0.027 C 
ATOM     12  C   UNL     1       2.228 -18.533  -0.879  1.00  0.00     0.008 C 
ATOM     13  C   UNL     1       4.986 -17.910  -3.346  1.00  0.00     0.008 C 
ATOM     14  C   UNL     1       0.728 -23.256  -2.551  1.00  0.00     0.017 C 
ATOM     15  C   UNL     1      -0.606 -22.262  -4.608  1.00  0.00    -0.020 C 
ATOM     16  C   UNL     1      -1.078 -19.966  -3.651  1.00  0.00     0.032 C 
ATOM     17  C   UNL     1      -0.992 -20.755  -4.955  1.00  0.00     0.006 C 
ATOM     18  C   UNL     1      -0.629 -23.059  -5.968  1.00  0.00     0.008 C 
ATOM     19  C   UNL     1      -1.745 -22.961  -3.755  1.00  0.00     0.012 C 
ATOM     20  C   UNL     1      -2.101 -20.491  -6.068  1.00  0.00    -0.025 C 
ATOM     21  C   UNL     1      -0.508 -22.225  -7.270  1.00  0.00     0.005 C 
ATOM     22  C   UNL     1      -1.532 -21.038  -7.439  1.00  0.00     0.003 C 
ATOM     23  C   UNL     1      -2.431 -18.970  -6.160  1.00  0.00     0.010 C 
ATOM     24  C   UNL     1      -3.439 -21.201  -5.726  1.00  0.00     0.012 C 
ATOM     25  C   UNL     1      -1.011 -19.917  -8.451  1.00  0.00    -0.006 C 
ATOM     26  C   UNL     1      -3.038 -18.525  -7.503  1.00  0.00     0.033 C 
ATOM     27  C   UNL     1      -2.131 -18.833  -8.703  1.00  0.00     0.120 C 
ATOM     28  C   UNL     1       0.333 -19.258  -7.991  1.00  0.00     0.014 C 
ATOM     29  C   UNL     1      -0.691 -20.573  -9.809  1.00  0.00     0.014 C 
ENDROOT
BRANCH   1  30
ATOM     30  C   UNL     1       3.933 -22.898  -2.132  1.00  0.00     0.048 C 
ATOM     31  O   UNL     1       3.655 -22.971  -0.886  1.00  0.00    -0.550 OA
ATOM     32  O   UNL     1       4.486 -24.023  -2.740  1.00  0.00    -0.550 OA
ENDBRANCH   1  30
BRANCH  27  33
ATOM     33  O   UNL     1      -1.600 -17.641  -9.253  1.00  0.00    -0.393 OA
ATOM     34  H   UNL     1      -1.065 -17.880 -10.071  1.00  0.00     0.210 HD
ENDBRANCH  27  33
TORSDOF 2
ENDMDL
MODEL 5
REMARK VINA RESULT:    -4.724      2.462      7.163
REMARK INTER + INTRA:          -5.262
REMARK INTER:                  -5.088
REMARK INTRA:                  -0.174
REMARK UNBOUND:                -0.124
REMARK SMILES C[C@H]1[C@H](C)CC[C@]2(C(=O)[O-])CC[C@@]3(C)C(=CC[C@@H]4[C@@]5(C)CC[C@@H](O)C(C)(C)[C@H]5CC[C@]43C)[C@H]12
REMARK SMILES IDX 7 1 6 2 11 3 33 4 5 5 12 6 15 7 2 8 3 9 13 10 16 11 1 12
REMARK SMILES IDX 4 13 14 14 31 15 17 16 18 17 30 18 32 19 19 20 29 21 28 22
REMARK SMILES IDX 21 23 20 24 25 25 22 26 23 27 26 28 27 29 8 30 9 31 10 32
REMARK SMILES IDX 24 33
REMARK H PARENT 24 34
REMARK Flexibility Score: inf
ROOT
ATOM      1  C   UNL     1       1.120 -21.575  -4.255  1.00  0.00     0.017 C 
ATOM      2  C   UNL     1       2.269 -20.603  -3.817  1.00  0.00     0.014 C 
ATOM      3  C   UNL     1       0.612 -21.224  -5.687  1.00  0.00     0.014 C 
ATOM      4  C   UNL     1      -0.147 -21.617  -3.270  1.00  0.00     0.030 C 
ATOM      5  C   UNL     1       2.267 -20.289  -2.333  1.00  0.00     0.004 C 
ATOM      6  C   UNL     1      -0.440 -22.201  -6.274  1.00  0.00     0.013 C 
ATOM      7  C   UNL     1      -1.495 -21.989  -3.999  1.00  0.00    -0.063 C 
ATOM      8  C   UNL     1      -0.263 -20.413  -2.215  1.00  0.00    -0.003 C 
ATOM      9  C   UNL     1       1.000 -19.520  -1.927  1.00  0.00    -0.011 C 
ATOM     10  C   UNL     1      -1.499 -22.852  -5.310  1.00  0.00    -0.006 C 
ATOM     11  C   UNL     1      -2.682 -21.506  -3.501  1.00  0.00    -0.027 C 
ATOM     12  C   UNL     1      -0.882 -20.917  -0.875  1.00  0.00     0.008 C 
ATOM     13  C   UNL     1       0.890 -18.065  -2.553  1.00  0.00     0.008 C 
ATOM     14  C   UNL     1      -0.983 -24.257  -4.899  1.00  0.00     0.017 C 
ATOM     15  C   UNL     1      -2.988 -22.998  -6.079  1.00  0.00    -0.020 C 
ATOM     16  C   UNL     1      -4.005 -21.937  -4.018  1.00  0.00     0.032 C 
ATOM     17  C   UNL     1      -3.936 -21.835  -5.540  1.00  0.00     0.006 C 
ATOM     18  C   UNL     1      -3.028 -22.919  -7.653  1.00  0.00     0.008 C 
ATOM     19  C   UNL     1      -3.604 -24.425  -5.769  1.00  0.00     0.012 C 
ATOM     20  C   UNL     1      -5.280 -21.520  -6.334  1.00  0.00    -0.025 C 
ATOM     21  C   UNL     1      -3.486 -21.574  -8.275  1.00  0.00     0.005 C 
ATOM     22  C   UNL     1      -4.867 -21.005  -7.772  1.00  0.00     0.003 C 
ATOM     23  C   UNL     1      -6.126 -20.454  -5.574  1.00  0.00     0.010 C 
ATOM     24  C   UNL     1      -6.183 -22.776  -6.458  1.00  0.00     0.012 C 
ATOM     25  C   UNL     1      -4.996 -19.427  -7.988  1.00  0.00    -0.006 C 
ATOM     26  C   UNL     1      -7.125 -19.679  -6.454  1.00  0.00     0.033 C 
ATOM     27  C   UNL     1      -6.448 -18.933  -7.613  1.00  0.00     0.120 C 
ATOM     28  C   UNL     1      -3.897 -18.614  -7.224  1.00  0.00     0.014 C 
ATOM     29  C   UNL     1      -4.771 -19.103  -9.479  1.00  0.00     0.014 C 
ENDROOT
BRANCH   1  30
ATOM     30  C   UNL     1       1.911 -22.895  -4.313  1.00  0.00     0.048 C 
ATOM     31  O   UNL     1       2.578 -23.233  -5.351  1.00  0.00    -0.550 OA
ATOM     32  O   UNL     1       1.856 -23.799  -3.254  1.00  0.00    -0.550 OA
ENDBRANCH   1  30
BRANCH  27  33
ATOM     33  O   UNL     1      -6.493 -17.532  -7.405  1.00  0.00    -0.393 OA
ATOM     34  H   UNL     1      -7.311 -17.170  -7.865  1.00  0.00     0.210 HD
ENDBRANCH  27  33
TORSDOF 2
ENDMDL
MODEL 6
REMARK VINA RESULT:    -4.391      1.834      7.478
REMARK INTER + INTRA:          -4.900
REMARK INTER:                  -4.677
REMARK INTRA:                  -0.222
REMARK UNBOUND:                -0.124
REMARK SMILES C[C@H]1[C@H](C)CC[C@]2(C(=O)[O-])CC[C@@]3(C)C(=CC[C@@H]4[C@@]5(C)CC[C@@H](O)C(C)(C)[C@H]5CC[C@]43C)[C@H]12
REMARK SMILES IDX 7 1 6 2 11 3 33 4 5 5 12 6 15 7 2 8 3 9 13 10 16 11 1 12
REMARK SMILES IDX 4 13 14 14 31 15 17 16 18 17 30 18 32 19 19 20 29 21 28 22
REMARK SMILES IDX 21 23 20 24 25 25 22 26 23 27 26 28 27 29 8 30 9 31 10 32
REMARK SMILES IDX 24 33
REMARK H PARENT 24 34
REMARK Flexibility Score: inf
ROOT
ATOM      1  C   UNL     1       0.371 -21.332  -2.386  1.00  0.00     0.017 C 
ATOM      2  C   UNL     1       0.181 -21.951  -0.959  1.00  0.00     0.014 C 
ATOM      3  C   UNL     1      -0.718 -20.254  -2.674  1.00  0.00     0.014 C 
ATOM      4  C   UNL     1       0.359 -22.391  -3.592  1.00  0.00     0.030 C 
ATOM      5  C   UNL     1       0.555 -23.419  -0.877  1.00  0.00     0.004 C 
ATOM      6  C   UNL     1      -0.552 -19.485  -4.009  1.00  0.00     0.013 C 
ATOM      7  C   UNL     1      -0.144 -21.780  -4.957  1.00  0.00    -0.063 C 
ATOM      8  C   UNL     1      -0.226 -23.846  -3.251  1.00  0.00    -0.003 C 
ATOM      9  C   UNL     1      -0.373 -24.281  -1.746  1.00  0.00    -0.011 C 
ATOM     10  C   UNL     1       0.006 -20.248  -5.266  1.00  0.00    -0.006 C 
ATOM     11  C   UNL     1      -0.768 -22.599  -5.868  1.00  0.00    -0.027 C 
ATOM     12  C   UNL     1       0.534 -24.944  -4.056  1.00  0.00     0.008 C 
ATOM     13  C   UNL     1      -1.882 -24.317  -1.253  1.00  0.00     0.008 C 
ATOM     14  C   UNL     1       1.532 -19.979  -5.361  1.00  0.00     0.017 C 
ATOM     15  C   UNL     1      -0.752 -19.714  -6.669  1.00  0.00    -0.020 C 
ATOM     16  C   UNL     1      -1.122 -22.152  -7.239  1.00  0.00     0.032 C 
ATOM     17  C   UNL     1      -1.831 -20.808  -7.093  1.00  0.00     0.006 C 
ATOM     18  C   UNL     1      -1.505 -18.329  -6.631  1.00  0.00     0.008 C 
ATOM     19  C   UNL     1       0.331 -19.509  -7.808  1.00  0.00     0.012 C 
ATOM     20  C   UNL     1      -2.928 -20.415  -8.179  1.00  0.00    -0.025 C 
ATOM     21  C   UNL     1      -3.050 -18.376  -6.500  1.00  0.00     0.005 C 
ATOM     22  C   UNL     1      -3.815 -19.262  -7.556  1.00  0.00     0.003 C 
ATOM     23  C   UNL     1      -3.795 -21.655  -8.554  1.00  0.00     0.010 C 
ATOM     24  C   UNL     1      -2.278 -19.929  -9.503  1.00  0.00     0.012 C 
ATOM     25  C   UNL     1      -5.257 -19.721  -7.043  1.00  0.00    -0.006 C 
ATOM     26  C   UNL     1      -5.179 -21.318  -9.139  1.00  0.00     0.033 C 
ATOM     27  C   UNL     1      -6.040 -20.472  -8.190  1.00  0.00     0.120 C 
ATOM     28  C   UNL     1      -5.195 -20.577  -5.733  1.00  0.00     0.014 C 
ATOM     29  C   UNL     1      -6.079 -18.472  -6.667  1.00  0.00     0.014 C 
ENDROOT
BRANCH   1  30
ATOM     30  C   UNL     1       1.728 -20.632  -2.181  1.00  0.00     0.048 C 
ATOM     31  O   UNL     1       2.830 -21.198  -2.500  1.00  0.00    -0.550 OA
ATOM     32  O   UNL     1       1.793 -19.383  -1.566  1.00  0.00    -0.550 OA
ENDBRANCH   1  30
BRANCH  27  33
ATOM     33  O   UNL     1      -7.124 -21.230  -7.681  1.00  0.00    -0.393 OA
ATOM     34  H   UNL     1      -7.690 -20.628  -7.107  1.00  0.00     0.210 HD
ENDBRANCH  27  33
TORSDOF 2
ENDMDL
MODEL 7
REMARK VINA RESULT:    -3.779      2.077      2.928
REMARK INTER + INTRA:          -4.234
REMARK INTER:                  -4.179
REMARK INTRA:                  -0.056
REMARK UNBOUND:                -0.124
REMARK SMILES C[C@H]1[C@H](C)CC[C@]2(C(=O)[O-])CC[C@@]3(C)C(=CC[C@@H]4[C@@]5(C)CC[C@@H](O)C(C)(C)[C@H]5CC[C@]43C)[C@H]12
REMARK SMILES IDX 7 1 6 2 11 3 33 4 5 5 12 6 15 7 2 8 3 9 13 10 16 11 1 12
REMARK SMILES IDX 4 13 14 14 31 15 17 16 18 17 30 18 32 19 19 20 29 21 28 22
REMARK SMILES IDX 21 23 20 24 25 25 22 26 23 27 26 28 27 29 8 30 9 31 10 32
REMARK SMILES IDX 24 33
REMARK H PARENT 24 34
REMARK Flexibility Score: inf
ROOT
ATOM      1  C   UNL     1      -2.217 -18.767  -7.687  1.00  0.00     0.017 C 
ATOM      2  C   UNL     1      -1.863 -17.692  -8.770  1.00  0.00     0.014 C 
ATOM      3  C   UNL     1      -1.464 -18.481  -6.352  1.00  0.00     0.014 C 
ATOM      4  C   UNL     1      -1.920 -20.286  -8.115  1.00  0.00     0.030 C 
ATOM      5  C   UNL     1      -1.822 -18.241 -10.183  1.00  0.00     0.004 C 
ATOM      6  C   UNL     1      -1.837 -19.412  -5.169  1.00  0.00     0.013 C 
ATOM      7  C   UNL     1      -1.606 -21.231  -6.893  1.00  0.00    -0.063 C 
ATOM      8  C   UNL     1      -0.959 -20.487  -9.385  1.00  0.00    -0.003 C 
ATOM      9  C   UNL     1      -0.696 -19.272 -10.350  1.00  0.00    -0.011 C 
ATOM     10  C   UNL     1      -2.168 -20.921  -5.460  1.00  0.00    -0.006 C 
ATOM     11  C   UNL     1      -0.784 -22.317  -7.079  1.00  0.00    -0.027 C 
ATOM     12  C   UNL     1      -1.392 -21.741 -10.206  1.00  0.00     0.008 C 
ATOM     13  C   UNL     1       0.767 -18.671 -10.208  1.00  0.00     0.008 C 
ATOM     14  C   UNL     1      -3.710 -21.069  -5.565  1.00  0.00     0.017 C 
ATOM     15  C   UNL     1      -1.587 -21.904  -4.224  1.00  0.00    -0.020 C 
ATOM     16  C   UNL     1      -0.568 -23.350  -6.035  1.00  0.00     0.032 C 
ATOM     17  C   UNL     1      -0.252 -22.605  -4.740  1.00  0.00     0.006 C 
ATOM     18  C   UNL     1      -1.241 -21.237  -2.839  1.00  0.00     0.008 C 
ATOM     19  C   UNL     1      -2.688 -22.981  -3.846  1.00  0.00     0.012 C 
ATOM     20  C   UNL     1       0.693 -23.318  -3.674  1.00  0.00    -0.025 C 
ATOM     21  C   UNL     1       0.259 -20.966  -2.548  1.00  0.00     0.005 C 
ATOM     22  C   UNL     1       1.233 -22.195  -2.699  1.00  0.00     0.003 C 
ATOM     23  C   UNL     1       1.865 -24.056  -4.390  1.00  0.00     0.010 C 
ATOM     24  C   UNL     1      -0.067 -24.403  -2.865  1.00  0.00     0.012 C 
ATOM     25  C   UNL     1       2.747 -21.751  -2.953  1.00  0.00    -0.006 C 
ATOM     26  C   UNL     1       3.103 -24.303  -3.509  1.00  0.00     0.033 C 
ATOM     27  C   UNL     1       3.703 -23.007  -2.944  1.00  0.00     0.120 C 
ATOM     28  C   UNL     1       2.924 -20.904  -4.258  1.00  0.00     0.014 C 
ATOM     29  C   UNL     1       3.198 -20.821  -1.808  1.00  0.00     0.014 C 
ENDROOT
BRANCH   1  30
ATOM     30  C   UNL     1      -3.713 -18.453  -7.496  1.00  0.00     0.048 C 
ATOM     31  O   UNL     1      -4.135 -17.778  -6.495  1.00  0.00    -0.550 OA
ATOM     32  O   UNL     1      -4.662 -18.968  -8.378  1.00  0.00    -0.550 OA
ENDBRANCH   1  30
BRANCH  27  33
ATOM     33  O   UNL     1       4.954 -22.725  -3.548  1.00  0.00    -0.393 OA
ATOM     34  H   UNL     1       5.460 -22.097  -2.947  1.00  0.00     0.210 HD
ENDBRANCH  27  33
TORSDOF 2
ENDMDL
