MODEL 1
REMARK VINA RESULT:    -4.612      0.000      0.000
REMARK INTER + INTRA:          -5.680
REMARK INTER:                  -5.421
REMARK INTRA:                  -0.259
REMARK UNBOUND:                -0.259
REMARK SMILES O=C([O-])C=Cc1ccc(O)c(O)c1
REMARK SMILES IDX 6 1 13 2 7 3 11 4 8 5 9 6 5 7 4 8 2 9 1 10 3 11 12 12 10 14
REMARK H PARENT 12 13 10 15
REMARK Flexibility Score: inf
ROOT
ATOM      1  C   UNL     1      -0.884 -15.167  -5.380  1.00  0.00    -0.022 A 
ATOM      2  C   UNL     1      -1.799 -15.239  -6.445  1.00  0.00     0.058 A 
ATOM      3  C   UNL     1       0.490 -15.191  -5.656  1.00  0.00     0.012 A 
ATOM      4  C   UNL     1      -1.346 -15.386  -7.764  1.00  0.00     0.157 A 
ATOM      5  C   UNL     1       0.945 -15.339  -6.968  1.00  0.00     0.051 A 
ATOM      6  C   UNL     1       0.034 -15.441  -8.025  1.00  0.00     0.157 A 
ENDROOT
BRANCH   1   7
ATOM      7  C   UNL     1      -1.340 -14.959  -3.991  1.00  0.00     0.010 C 
ATOM      8  C   UNL     1      -1.428 -13.772  -3.372  1.00  0.00     0.025 C 
BRANCH   8   9
ATOM      9  C   UNL     1      -1.273 -12.456  -4.020  1.00  0.00     0.064 C 
ATOM     10  O   UNL     1      -2.300 -11.803  -4.340  1.00  0.00    -0.545 OA
ATOM     11  O   UNL     1      -0.021 -11.951  -4.347  1.00  0.00    -0.545 OA
ENDBRANCH   8   9
ENDBRANCH   1   7
BRANCH   4  12
ATOM     12  O   UNL     1      -2.260 -15.473  -8.813  1.00  0.00    -0.504 OA
ATOM     13  H   UNL     1      -2.508 -14.663  -9.369  1.00  0.00     0.293 HD
ENDBRANCH   4  12
BRANCH   6  14
ATOM     14  O   UNL     1       0.516 -15.591  -9.325  1.00  0.00    -0.504 OA
ATOM     15  H   UNL     1      -0.015 -16.066 -10.045  1.00  0.00     0.293 HD
ENDBRANCH   6  14
TORSDOF 4
ENDMDL
MODEL 2
REMARK VINA RESULT:    -4.418      2.607      4.863
REMARK INTER + INTRA:          -5.452
REMARK INTER:                  -5.167
REMARK INTRA:                  -0.284
REMARK UNBOUND:                -0.259
REMARK SMILES O=C([O-])C=Cc1ccc(O)c(O)c1
REMARK SMILES IDX 6 1 13 2 7 3 11 4 8 5 9 6 5 7 4 8 2 9 1 10 3 11 12 12 10 14
REMARK H PARENT 12 13 10 15
REMARK Flexibility Score: inf
ROOT
ATOM      1  C   UNL     1       0.077 -16.374  -7.725  1.00  0.00    -0.022 A 
ATOM      2  C   UNL     1      -1.100 -15.735  -8.148  1.00  0.00     0.058 A 
ATOM      3  C   UNL     1       0.750 -15.892  -6.594  1.00  0.00     0.012 A 
ATOM      4  C   UNL     1      -1.570 -14.594  -7.480  1.00  0.00     0.157 A 
ATOM      5  C   UNL     1       0.285 -14.756  -5.927  1.00  0.00     0.051 A 
ATOM      6  C   UNL     1      -0.870 -14.101  -6.366  1.00  0.00     0.157 A 
ENDROOT
BRANCH   1   7
ATOM      7  C   UNL     1       0.559 -17.605  -8.383  1.00  0.00     0.010 C 
ATOM      8  C   UNL     1       0.205 -18.855  -8.047  1.00  0.00     0.025 C 
BRANCH   8   9
ATOM      9  C   UNL     1      -0.866 -19.215  -7.098  1.00  0.00     0.064 C 
ATOM     10  O   UNL     1      -2.036 -19.386  -7.528  1.00  0.00    -0.545 OA
ATOM     11  O   UNL     1      -0.626 -19.303  -5.732  1.00  0.00    -0.545 OA
ENDBRANCH   8   9
ENDBRANCH   1   7
BRANCH   4  12
ATOM     12  O   UNL     1      -2.730 -13.955  -7.916  1.00  0.00    -0.504 OA
ATOM     13  H   UNL     1      -2.695 -13.173  -8.560  1.00  0.00     0.293 HD
ENDBRANCH   4  12
BRANCH   6  14
ATOM     14  O   UNL     1      -1.309 -12.967  -5.683  1.00  0.00    -0.504 OA
ATOM     15  H   UNL     1      -0.786 -12.100  -5.686  1.00  0.00     0.293 HD
ENDBRANCH   6  14
TORSDOF 4
ENDMDL
MODEL 3
REMARK VINA RESULT:    -4.407      1.420      4.693
REMARK INTER + INTRA:          -5.439
REMARK INTER:                  -5.147
REMARK INTRA:                  -0.291
REMARK UNBOUND:                -0.259
REMARK SMILES O=C([O-])C=Cc1ccc(O)c(O)c1
REMARK SMILES IDX 6 1 13 2 7 3 11 4 8 5 9 6 5 7 4 8 2 9 1 10 3 11 12 12 10 14
REMARK H PARENT 12 13 10 15
REMARK Flexibility Score: inf
ROOT
ATOM      1  C   UNL     1      -1.298 -14.675  -5.052  1.00  0.00    -0.022 A 
ATOM      2  C   UNL     1      -2.588 -14.220  -4.732  1.00  0.00     0.058 A 
ATOM      3  C   UNL     1      -0.204 -13.817  -4.874  1.00  0.00     0.012 A 
ATOM      4  C   UNL     1      -2.788 -12.904  -4.289  1.00  0.00     0.157 A 
ATOM      5  C   UNL     1      -0.401 -12.506  -4.433  1.00  0.00     0.051 A 
ATOM      6  C   UNL     1      -1.688 -12.042  -4.143  1.00  0.00     0.157 A 
ENDROOT
BRANCH   1   7
ATOM      7  C   UNL     1      -1.060 -16.071  -5.470  1.00  0.00     0.010 C 
ATOM      8  C   UNL     1      -1.087 -16.519  -6.734  1.00  0.00     0.025 C 
BRANCH   8   9
ATOM      9  C   UNL     1      -1.168 -15.673  -7.940  1.00  0.00     0.064 C 
ATOM     10  O   UNL     1      -0.106 -15.323  -8.518  1.00  0.00    -0.545 OA
ATOM     11  O   UNL     1      -2.385 -15.197  -8.413  1.00  0.00    -0.545 OA
ENDBRANCH   8   9
ENDBRANCH   1   7
BRANCH   4  12
ATOM     12  O   UNL     1      -4.074 -12.455  -3.988  1.00  0.00    -0.504 OA
ATOM     13  H   UNL     1      -4.784 -13.081  -3.626  1.00  0.00     0.293 HD
ENDBRANCH   4  12
BRANCH   6  14
ATOM     14  O   UNL     1      -1.855 -10.728  -3.709  1.00  0.00    -0.504 OA
ATOM     15  H   UNL     1      -1.747  -9.937  -4.332  1.00  0.00     0.293 HD
ENDBRANCH   6  14
TORSDOF 4
ENDMDL
MODEL 4
REMARK VINA RESULT:    -4.275      3.040      4.764
REMARK INTER + INTRA:          -5.283
REMARK INTER:                  -4.996
REMARK INTRA:                  -0.288
REMARK UNBOUND:                -0.259
REMARK SMILES O=C([O-])C=Cc1ccc(O)c(O)c1
REMARK SMILES IDX 6 1 13 2 7 3 11 4 8 5 9 6 5 7 4 8 2 9 1 10 3 11 12 12 10 14
REMARK H PARENT 12 13 10 15
REMARK Flexibility Score: inf
ROOT
ATOM      1  C   UNL     1       0.223 -17.102  -7.856  1.00  0.00    -0.022 A 
ATOM      2  C   UNL     1      -1.005 -17.280  -8.514  1.00  0.00     0.058 A 
ATOM      3  C   UNL     1       0.459 -15.910  -7.157  1.00  0.00     0.012 A 
ATOM      4  C   UNL     1      -1.965 -16.257  -8.518  1.00  0.00     0.157 A 
ATOM      5  C   UNL     1      -0.495 -14.889  -7.159  1.00  0.00     0.051 A 
ATOM      6  C   UNL     1      -1.706 -15.055  -7.840  1.00  0.00     0.157 A 
ENDROOT
BRANCH   1   7
ATOM      7  C   UNL     1       1.225 -18.185  -7.796  1.00  0.00     0.010 C 
ATOM      8  C   UNL     1       1.339 -19.083  -6.806  1.00  0.00     0.025 C 
BRANCH   8   9
ATOM      9  C   UNL     1       0.376 -19.271  -5.705  1.00  0.00     0.064 C 
ATOM     10  O   UNL     1      -0.592 -20.059  -5.863  1.00  0.00    -0.545 OA
ATOM     11  O   UNL     1       0.474 -18.545  -4.524  1.00  0.00    -0.545 OA
ENDBRANCH   8   9
ENDBRANCH   1   7
BRANCH   4  12
ATOM     12  O   UNL     1      -3.176 -16.436  -9.187  1.00  0.00    -0.504 OA
ATOM     13  H   UNL     1      -4.043 -16.058  -8.824  1.00  0.00     0.293 HD
ENDBRANCH   4  12
BRANCH   6  14
ATOM     14  O   UNL     1      -2.638 -14.018  -7.829  1.00  0.00    -0.504 OA
ATOM     15  H   UNL     1      -3.412 -13.982  -8.481  1.00  0.00     0.293 HD
ENDBRANCH   6  14
TORSDOF 4
ENDMDL
MODEL 5
REMARK VINA RESULT:    -4.244      1.757      2.117
REMARK INTER + INTRA:          -5.248
REMARK INTER:                  -4.960
REMARK INTRA:                  -0.287
REMARK UNBOUND:                -0.259
REMARK SMILES O=C([O-])C=Cc1ccc(O)c(O)c1
REMARK SMILES IDX 6 1 13 2 7 3 11 4 8 5 9 6 5 7 4 8 2 9 1 10 3 11 12 12 10 14
REMARK H PARENT 12 13 10 15
REMARK Flexibility Score: inf
ROOT
ATOM      1  C   UNL     1      -0.661 -14.332  -6.397  1.00  0.00    -0.022 A 
ATOM      2  C   UNL     1      -1.806 -14.588  -7.170  1.00  0.00     0.058 A 
ATOM      3  C   UNL     1       0.498 -15.087  -6.619  1.00  0.00     0.012 A 
ATOM      4  C   UNL     1      -1.808 -15.622  -8.117  1.00  0.00     0.157 A 
ATOM      5  C   UNL     1       0.500 -16.118  -7.562  1.00  0.00     0.051 A 
ATOM      6  C   UNL     1      -0.650 -16.393  -8.310  1.00  0.00     0.157 A 
ENDROOT
BRANCH   1   7
ATOM      7  C   UNL     1      -0.622 -13.215  -5.432  1.00  0.00     0.010 C 
ATOM      8  C   UNL     1      -0.935 -13.302  -4.130  1.00  0.00     0.025 C 
BRANCH   8   9
ATOM      9  C   UNL     1      -1.184 -14.554  -3.391  1.00  0.00     0.064 C 
ATOM     10  O   UNL     1      -0.215 -15.168  -2.875  1.00  0.00    -0.545 OA
ATOM     11  O   UNL     1      -2.456 -15.109  -3.312  1.00  0.00    -0.545 OA
ENDBRANCH   8   9
ENDBRANCH   1   7
BRANCH   4  12
ATOM     12  O   UNL     1      -2.954 -15.880  -8.870  1.00  0.00    -0.504 OA
ATOM     13  H   UNL     1      -3.649 -16.551  -8.564  1.00  0.00     0.293 HD
ENDBRANCH   4  12
BRANCH   6  14
ATOM     14  O   UNL     1      -0.621 -17.431  -9.241  1.00  0.00    -0.504 OA
ATOM     15  H   UNL     1      -1.384 -17.597  -9.886  1.00  0.00     0.293 HD
ENDBRANCH   6  14
TORSDOF 4
ENDMDL
MODEL 6
REMARK VINA RESULT:    -4.212      2.659      3.918
REMARK INTER + INTRA:          -5.210
REMARK INTER:                  -4.923
REMARK INTRA:                  -0.286
REMARK UNBOUND:                -0.259
REMARK SMILES O=C([O-])C=Cc1ccc(O)c(O)c1
REMARK SMILES IDX 6 1 13 2 7 3 11 4 8 5 9 6 5 7 4 8 2 9 1 10 3 11 12 12 10 14
REMARK H PARENT 12 13 10 15
REMARK Flexibility Score: inf
ROOT
ATOM      1  C   UNL     1       0.858 -15.679  -6.357  1.00  0.00    -0.022 A 
ATOM      2  C   UNL     1       0.239 -16.350  -7.425  1.00  0.00     0.058 A 
ATOM      3  C   UNL     1       0.237 -14.550  -5.806  1.00  0.00     0.012 A 
ATOM      4  C   UNL     1      -0.959 -15.867  -7.970  1.00  0.00     0.157 A 
ATOM      5  C   UNL     1      -0.956 -14.065  -6.347  1.00  0.00     0.051 A 
ATOM      6  C   UNL     1      -1.556 -14.715  -7.431  1.00  0.00     0.157 A 
ENDROOT
BRANCH   1   7
ATOM      7  C   UNL     1       2.091 -16.201  -5.735  1.00  0.00     0.010 C 
ATOM      8  C   UNL     1       2.139 -17.051  -4.698  1.00  0.00     0.025 C 
BRANCH   8   9
ATOM      9  C   UNL     1       0.982 -17.761  -4.120  1.00  0.00     0.064 C 
ATOM     10  O   UNL     1       0.681 -18.903  -4.554  1.00  0.00    -0.545 OA
ATOM     11  O   UNL     1       0.175 -17.169  -3.155  1.00  0.00    -0.545 OA
ENDBRANCH   8   9
ENDBRANCH   1   7
BRANCH   4  12
ATOM     12  O   UNL     1      -1.559 -16.529  -9.041  1.00  0.00    -0.504 OA
ATOM     13  H   UNL     1      -2.098 -17.377  -8.906  1.00  0.00     0.293 HD
ENDBRANCH   4  12
BRANCH   6  14
ATOM     14  O   UNL     1      -2.745 -14.207  -7.953  1.00  0.00    -0.504 OA
ATOM     15  H   UNL     1      -3.568 -14.064  -7.380  1.00  0.00     0.293 HD
ENDBRANCH   6  14
TORSDOF 4
ENDMDL
MODEL 7
REMARK VINA RESULT:    -4.123      2.874      3.804
REMARK INTER + INTRA:          -5.106
REMARK INTER:                  -4.829
REMARK INTRA:                  -0.277
REMARK UNBOUND:                -0.259
REMARK SMILES O=C([O-])C=Cc1ccc(O)c(O)c1
REMARK SMILES IDX 6 1 13 2 7 3 11 4 8 5 9 6 5 7 4 8 2 9 1 10 3 11 12 12 10 14
REMARK H PARENT 12 13 10 15
REMARK Flexibility Score: inf
ROOT
ATOM      1  C   UNL     1       0.299 -16.135  -6.926  1.00  0.00    -0.022 A 
ATOM      2  C   UNL     1      -0.600 -15.057  -6.988  1.00  0.00     0.058 A 
ATOM      3  C   UNL     1       0.045 -17.283  -7.690  1.00  0.00     0.012 A 
ATOM      4  C   UNL     1      -1.766 -15.145  -7.763  1.00  0.00     0.157 A 
ATOM      5  C   UNL     1      -1.116 -17.374  -8.462  1.00  0.00     0.051 A 
ATOM      6  C   UNL     1      -2.026 -16.313  -8.500  1.00  0.00     0.157 A 
ENDROOT
BRANCH   1   7
ATOM      7  C   UNL     1       1.556 -16.041  -6.158  1.00  0.00     0.010 C 
ATOM      8  C   UNL     1       1.730 -16.467  -4.898  1.00  0.00     0.025 C 
BRANCH   8   9
ATOM      9  C   UNL     1       0.765 -17.271  -4.125  1.00  0.00     0.064 C 
ATOM     10  O   UNL     1       0.818 -18.526  -4.190  1.00  0.00    -0.545 OA
ATOM     11  O   UNL     1      -0.246 -16.673  -3.381  1.00  0.00    -0.545 OA
ENDBRANCH   8   9
ENDBRANCH   1   7
BRANCH   4  12
ATOM     12  O   UNL     1      -2.661 -14.077  -7.806  1.00  0.00    -0.504 OA
ATOM     13  H   UNL     1      -2.607 -13.312  -7.144  1.00  0.00     0.293 HD
ENDBRANCH   4  12
BRANCH   6  14
ATOM     14  O   UNL     1      -3.178 -16.433  -9.276  1.00  0.00    -0.504 OA
ATOM     15  H   UNL     1      -4.098 -16.536  -8.864  1.00  0.00     0.293 HD
ENDBRANCH   6  14
TORSDOF 4
ENDMDL
MODEL 8
REMARK VINA RESULT:    -4.120      1.539      2.339
REMARK INTER + INTRA:          -5.101
REMARK INTER:                  -4.816
REMARK INTRA:                  -0.285
REMARK UNBOUND:                -0.259
REMARK SMILES O=C([O-])C=Cc1ccc(O)c(O)c1
REMARK SMILES IDX 6 1 13 2 7 3 11 4 8 5 9 6 5 7 4 8 2 9 1 10 3 11 12 12 10 14
REMARK H PARENT 12 13 10 15
REMARK Flexibility Score: inf
ROOT
ATOM      1  C   UNL     1      -0.351 -16.077  -6.026  1.00  0.00    -0.022 A 
ATOM      2  C   UNL     1       0.340 -15.701  -7.189  1.00  0.00     0.058 A 
ATOM      3  C   UNL     1      -1.405 -16.996  -6.122  1.00  0.00     0.012 A 
ATOM      4  C   UNL     1      -0.052 -16.196  -8.442  1.00  0.00     0.157 A 
ATOM      5  C   UNL     1      -1.799 -17.491  -7.368  1.00  0.00     0.051 A 
ATOM      6  C   UNL     1      -1.130 -17.092  -8.530  1.00  0.00     0.157 A 
ENDROOT
BRANCH   1   7
ATOM      7  C   UNL     1       0.079 -15.608  -4.693  1.00  0.00     0.010 C 
ATOM      8  C   UNL     1      -0.286 -14.450  -4.123  1.00  0.00     0.025 C 
BRANCH   8   9
ATOM      9  C   UNL     1      -1.323 -13.534  -4.633  1.00  0.00     0.064 C 
ATOM     10  O   UNL     1      -0.979 -12.435  -5.139  1.00  0.00    -0.545 OA
ATOM     11  O   UNL     1      -2.676 -13.826  -4.504  1.00  0.00    -0.545 OA
ENDBRANCH   8   9
ENDBRANCH   1   7
BRANCH   4  12
ATOM     12  O   UNL     1       0.629 -15.805  -9.594  1.00  0.00    -0.504 OA
ATOM     13  H   UNL     1       0.292 -15.049 -10.179  1.00  0.00     0.293 HD
ENDBRANCH   4  12
BRANCH   6  14
ATOM     14  O   UNL     1      -1.547 -17.599  -9.761  1.00  0.00    -0.504 OA
ATOM     15  H   UNL     1      -2.430 -17.336 -10.181  1.00  0.00     0.293 HD
ENDBRANCH   6  14
TORSDOF 4
ENDMDL
MODEL 9
REMARK VINA RESULT:    -4.088      2.139      5.113
REMARK INTER + INTRA:          -5.064
REMARK INTER:                  -4.919
REMARK INTRA:                  -0.145
REMARK UNBOUND:                -0.259
REMARK SMILES O=C([O-])C=Cc1ccc(O)c(O)c1
REMARK SMILES IDX 6 1 13 2 7 3 11 4 8 5 9 6 5 7 4 8 2 9 1 10 3 11 12 12 10 14
REMARK H PARENT 12 13 10 15
REMARK Flexibility Score: inf
ROOT
ATOM      1  C   UNL     1      -0.163 -16.206  -7.597  1.00  0.00    -0.022 A 
ATOM      2  C   UNL     1       0.562 -16.548  -6.444  1.00  0.00     0.058 A 
ATOM      3  C   UNL     1      -0.711 -14.920  -7.706  1.00  0.00     0.012 A 
ATOM      4  C   UNL     1       0.694 -15.633  -5.389  1.00  0.00     0.157 A 
ATOM      5  C   UNL     1      -0.582 -14.006  -6.657  1.00  0.00     0.051 A 
ATOM      6  C   UNL     1       0.115 -14.357  -5.495  1.00  0.00     0.157 A 
ENDROOT
BRANCH   1   7
ATOM      7  C   UNL     1      -0.269 -17.135  -8.739  1.00  0.00     0.010 C 
ATOM      8  C   UNL     1      -1.390 -17.759  -9.132  1.00  0.00     0.025 C 
BRANCH   8   9
ATOM      9  C   UNL     1      -2.746 -17.485  -8.619  1.00  0.00     0.064 C 
ATOM     10  O   UNL     1      -3.205 -18.191  -7.684  1.00  0.00    -0.545 OA
ATOM     11  O   UNL     1      -3.555 -16.512  -9.193  1.00  0.00    -0.545 OA
ENDBRANCH   8   9
ENDBRANCH   1   7
BRANCH   4  12
ATOM     12  O   UNL     1       1.403 -15.985  -4.240  1.00  0.00    -0.504 OA
ATOM     13  H   UNL     1       2.216 -16.588  -4.283  1.00  0.00     0.293 HD
ENDBRANCH   4  12
BRANCH   6  14
ATOM     14  O   UNL     1       0.225 -13.427  -4.463  1.00  0.00    -0.504 OA
ATOM     15  H   UNL     1       1.098 -12.959  -4.249  1.00  0.00     0.293 HD
ENDBRANCH   6  14
TORSDOF 4
ENDMDL
