MODEL 1
REMARK VINA RESULT:    -3.591      0.000      0.000
REMARK INTER + INTRA:          -4.040
REMARK INTER:                  -4.220
REMARK INTRA:                   0.181
REMARK UNBOUND:                 0.181
REMARK SMILES O=c1c(O)c(-c2ccc(O)cc2)oc2cc(O)cc(O)c12
REMARK SMILES IDX 5 1 3 2 2 3 1 4 21 5 19 6 18 7 16 8 15 9 14 10 13 11 6 12
REMARK SMILES IDX 7 13 8 14 9 15 12 16 11 17 10 18 4 20 20 22 17 24
REMARK H PARENT 10 19 4 21 20 23 17 25
REMARK Flexibility Score: inf
ROOT
ATOM      1  C   UNL     1      10.624  35.618  80.967  1.00  0.00     0.180 A 
ATOM      2  C   UNL     1      11.252  35.745  79.716  1.00  0.00     0.208 A 
ATOM      3  C   UNL     1      10.458  35.923  78.572  1.00  0.00     0.238 A 
ATOM      4  O   UNL     1      11.029  36.113  77.466  1.00  0.00    -0.285 OA
ATOM      5  C   UNL     1       9.047  35.914  78.683  1.00  0.00     0.111 A 
ATOM      6  C   UNL     1       8.144  36.040  77.584  1.00  0.00     0.134 A 
ATOM      7  C   UNL     1       6.767  36.125  77.826  1.00  0.00     0.093 A 
ATOM      8  C   UNL     1       6.257  36.023  79.123  1.00  0.00     0.123 A 
ATOM      9  C   UNL     1       7.125  35.845  80.197  1.00  0.00     0.094 A 
ATOM     10  C   UNL     1       8.506  35.795  79.991  1.00  0.00     0.146 A 
ATOM     11  O   UNL     1       9.299  35.646  81.045  1.00  0.00    -0.452 OA
ENDROOT
BRANCH   1  12
ATOM     12  C   UNL     1      11.392  35.442  82.221  1.00  0.00     0.021 A 
ATOM     13  C   UNL     1      12.609  36.116  82.436  1.00  0.00     0.016 A 
ATOM     14  C   UNL     1      13.303  35.953  83.638  1.00  0.00     0.047 A 
ATOM     15  C   UNL     1      12.785  35.127  84.644  1.00  0.00     0.115 A 
ATOM     16  C   UNL     1      10.869  34.634  83.244  1.00  0.00     0.016 A 
ATOM     17  C   UNL     1      11.567  34.473  84.445  1.00  0.00     0.047 A 
BRANCH  15  18
ATOM     18  O   UNL     1      13.471  34.957  85.846  1.00  0.00    -0.508 OA
ATOM     19  H   UNL     1      12.980  34.878  86.728  1.00  0.00     0.293 HD
ENDBRANCH  15  18
ENDBRANCH   1  12
BRANCH   2  20
ATOM     20  O   UNL     1      12.643  35.676  79.617  1.00  0.00    -0.502 OA
ATOM     21  H   UNL     1      13.120  35.537  78.734  1.00  0.00     0.293 HD
ENDBRANCH   2  20
BRANCH   6  22
ATOM     22  O   UNL     1       8.540  36.062  76.243  1.00  0.00    -0.507 OA
ATOM     23  H   UNL     1       8.547  35.261  75.630  1.00  0.00     0.293 HD
ENDBRANCH   6  22
BRANCH   8  24
ATOM     24  O   UNL     1       4.884  36.091  79.354  1.00  0.00    -0.508 OA
ATOM     25  H   UNL     1       4.501  36.037  80.290  1.00  0.00     0.293 HD
ENDBRANCH   8  24
TORSDOF 5
ENDMDL
MODEL 2
REMARK VINA RESULT:    -3.044      1.433      6.454
REMARK INTER + INTRA:          -3.397
REMARK INTER:                  -3.900
REMARK INTRA:                   0.503
REMARK UNBOUND:                 0.181
REMARK SMILES O=c1c(O)c(-c2ccc(O)cc2)oc2cc(O)cc(O)c12
REMARK SMILES IDX 5 1 3 2 2 3 1 4 21 5 19 6 18 7 16 8 15 9 14 10 13 11 6 12
REMARK SMILES IDX 7 13 8 14 9 15 12 16 11 17 10 18 4 20 20 22 17 24
REMARK H PARENT 10 19 4 21 20 23 17 25
REMARK Flexibility Score: inf
ROOT
ATOM      1  C   UNL     1       9.643  36.033  79.764  1.00  0.00     0.180 A 
ATOM      2  C   UNL     1      10.967  36.039  79.292  1.00  0.00     0.208 A 
ATOM      3  C   UNL     1      12.020  35.983  80.219  1.00  0.00     0.238 A 
ATOM      4  O   UNL     1      13.200  35.912  79.787  1.00  0.00    -0.285 OA
ATOM      5  C   UNL     1      11.739  35.979  81.607  1.00  0.00     0.111 A 
ATOM      6  C   UNL     1      12.729  35.970  82.636  1.00  0.00     0.134 A 
ATOM      7  C   UNL     1      12.333  35.859  83.975  1.00  0.00     0.093 A 
ATOM      8  C   UNL     1      10.981  35.824  84.326  1.00  0.00     0.123 A 
ATOM      9  C   UNL     1      10.006  35.887  83.332  1.00  0.00     0.094 A 
ATOM     10  C   UNL     1      10.371  35.959  81.986  1.00  0.00     0.146 A 
ATOM     11  O   UNL     1       9.410  35.997  81.071  1.00  0.00    -0.452 OA
ENDROOT
BRANCH   1  12
ATOM     12  C   UNL     1       8.479  36.076  78.849  1.00  0.00     0.021 A 
ATOM     13  C   UNL     1       8.645  36.091  77.452  1.00  0.00     0.016 A 
ATOM     14  C   UNL     1       7.531  36.106  76.609  1.00  0.00     0.047 A 
ATOM     15  C   UNL     1       6.238  36.092  77.149  1.00  0.00     0.115 A 
ATOM     16  C   UNL     1       7.180  36.040  79.382  1.00  0.00     0.016 A 
ATOM     17  C   UNL     1       6.067  36.055  78.535  1.00  0.00     0.047 A 
BRANCH  15  18
ATOM     18  O   UNL     1       5.120  36.108  76.317  1.00  0.00    -0.508 OA
ATOM     19  H   UNL     1       4.477  35.327  76.280  1.00  0.00     0.293 HD
ENDBRANCH  15  18
ENDBRANCH   1  12
BRANCH   2  20
ATOM     20  O   UNL     1      11.224  36.119  77.922  1.00  0.00    -0.502 OA
ATOM     21  H   UNL     1      10.556  36.502  77.263  1.00  0.00     0.293 HD
ENDBRANCH   2  20
BRANCH   6  22
ATOM     22  O   UNL     1      14.103  36.090  82.403  1.00  0.00    -0.507 OA
ATOM     23  H   UNL     1      14.806  35.463  82.761  1.00  0.00     0.293 HD
ENDBRANCH   6  22
BRANCH   8  24
ATOM     24  O   UNL     1      10.595  35.731  85.661  1.00  0.00    -0.508 OA
ATOM     25  H   UNL     1      10.758  36.489  86.314  1.00  0.00     0.293 HD
ENDBRANCH   8  24
TORSDOF 5
ENDMDL
MODEL 3
REMARK VINA RESULT:    -2.357      0.154      1.063
REMARK INTER + INTRA:          -2.590
REMARK INTER:                  -2.965
REMARK INTRA:                   0.375
REMARK UNBOUND:                 0.181
REMARK SMILES O=c1c(O)c(-c2ccc(O)cc2)oc2cc(O)cc(O)c12
REMARK SMILES IDX 5 1 3 2 2 3 1 4 21 5 19 6 18 7 16 8 15 9 14 10 13 11 6 12
REMARK SMILES IDX 7 13 8 14 9 15 12 16 11 17 10 18 4 20 20 22 17 24
REMARK H PARENT 10 19 4 21 20 23 17 25
REMARK Flexibility Score: inf
ROOT
ATOM      1  C   UNL     1      10.596  35.718  80.922  1.00  0.00     0.180 A 
ATOM      2  C   UNL     1      11.251  35.816  79.683  1.00  0.00     0.208 A 
ATOM      3  C   UNL     1      10.482  35.961  78.517  1.00  0.00     0.238 A 
ATOM      4  O   UNL     1      11.076  36.125  77.419  1.00  0.00    -0.285 OA
ATOM      5  C   UNL     1       9.068  35.947  78.597  1.00  0.00     0.111 A 
ATOM      6  C   UNL     1       8.189  36.041  77.475  1.00  0.00     0.134 A 
ATOM      7  C   UNL     1       6.807  36.125  77.685  1.00  0.00     0.093 A 
ATOM      8  C   UNL     1       6.268  36.053  78.972  1.00  0.00     0.123 A 
ATOM      9  C   UNL     1       7.114  35.907  80.069  1.00  0.00     0.094 A 
ATOM     10  C   UNL     1       8.499  35.859  79.895  1.00  0.00     0.146 A 
ATOM     11  O   UNL     1       9.269  35.741  80.970  1.00  0.00    -0.452 OA
ENDROOT
BRANCH   1  12
ATOM     12  C   UNL     1      11.337  35.577  82.197  1.00  0.00     0.021 A 
ATOM     13  C   UNL     1      10.788  34.883  83.291  1.00  0.00     0.016 A 
ATOM     14  C   UNL     1      11.518  34.742  84.475  1.00  0.00     0.047 A 
ATOM     15  C   UNL     1      12.808  35.280  84.576  1.00  0.00     0.115 A 
ATOM     16  C   UNL     1      12.639  36.094  82.299  1.00  0.00     0.016 A 
ATOM     17  C   UNL     1      13.366  35.951  83.485  1.00  0.00     0.047 A 
BRANCH  15  18
ATOM     18  O   UNL     1      13.543  35.146  85.752  1.00  0.00    -0.508 OA
ATOM     19  H   UNL     1      13.728  34.237  86.160  1.00  0.00     0.293 HD
ENDBRANCH  15  18
ENDBRANCH   1  12
BRANCH   2  20
ATOM     20  O   UNL     1      12.644  35.751  79.616  1.00  0.00    -0.502 OA
ATOM     21  H   UNL     1      13.161  34.907  79.834  1.00  0.00     0.293 HD
ENDBRANCH   2  20
BRANCH   6  22
ATOM     22  O   UNL     1       8.615  36.031  76.143  1.00  0.00    -0.507 OA
ATOM     23  H   UNL     1       8.277  35.399  75.434  1.00  0.00     0.293 HD
ENDBRANCH   6  22
BRANCH   8  24
ATOM     24  O   UNL     1       4.891  36.120  79.171  1.00  0.00    -0.508 OA
ATOM     25  H   UNL     1       4.263  36.422  78.435  1.00  0.00     0.293 HD
ENDBRANCH   8  24
TORSDOF 5
ENDMDL
MODEL 4
REMARK VINA RESULT:    -2.349      2.967      5.374
REMARK INTER + INTRA:          -2.581
REMARK INTER:                  -3.164
REMARK INTRA:                   0.583
REMARK UNBOUND:                 0.181
REMARK SMILES O=c1c(O)c(-c2ccc(O)cc2)oc2cc(O)cc(O)c12
REMARK SMILES IDX 5 1 3 2 2 3 1 4 21 5 19 6 18 7 16 8 15 9 14 10 13 11 6 12
REMARK SMILES IDX 7 13 8 14 9 15 12 16 11 17 10 18 4 20 20 22 17 24
REMARK H PARENT 10 19 4 21 20 23 17 25
REMARK Flexibility Score: inf
ROOT
ATOM      1  C   UNL     1      12.255  36.093  78.924  1.00  0.00     0.180 A 
ATOM      2  C   UNL     1      11.037  36.064  78.223  1.00  0.00     0.208 A 
ATOM      3  C   UNL     1       9.834  36.049  78.948  1.00  0.00     0.238 A 
ATOM      4  O   UNL     1       8.747  36.100  78.316  1.00  0.00    -0.285 OA
ATOM      5  C   UNL     1       9.864  36.005  80.364  1.00  0.00     0.111 A 
ATOM      6  C   UNL     1       8.708  35.941  81.199  1.00  0.00     0.134 A 
ATOM      7  C   UNL     1       8.856  36.010  82.590  1.00  0.00     0.093 A 
ATOM      8  C   UNL     1      10.122  36.074  83.178  1.00  0.00     0.123 A 
ATOM      9  C   UNL     1      11.259  36.081  82.373  1.00  0.00     0.094 A 
ATOM     10  C   UNL     1      11.142  36.053  80.981  1.00  0.00     0.146 A 
ATOM     11  O   UNL     1      12.251  36.083  80.252  1.00  0.00    -0.452 OA
ENDROOT
BRANCH   1  12
ATOM     12  C   UNL     1      13.563  36.124  78.230  1.00  0.00     0.021 A 
ATOM     13  C   UNL     1      14.773  36.105  78.948  1.00  0.00     0.016 A 
ATOM     14  C   UNL     1      15.995  36.110  78.269  1.00  0.00     0.047 A 
ATOM     15  C   UNL     1      16.024  36.118  76.869  1.00  0.00     0.115 A 
ATOM     16  C   UNL     1      13.600  36.111  76.826  1.00  0.00     0.016 A 
ATOM     17  C   UNL     1      14.825  36.115  76.151  1.00  0.00     0.047 A 
BRANCH  15  18
ATOM     18  O   UNL     1      17.238  36.124  76.183  1.00  0.00    -0.508 OA
ATOM     19  H   UNL     1      17.694  36.990  75.923  1.00  0.00     0.293 HD
ENDBRANCH  15  18
ENDBRANCH   1  12
BRANCH   2  20
ATOM     20  O   UNL     1      11.029  36.031  76.827  1.00  0.00    -0.502 OA
ATOM     21  H   UNL     1      10.192  35.835  76.291  1.00  0.00     0.293 HD
ENDBRANCH   2  20
BRANCH   6  22
ATOM     22  O   UNL     1       7.403  35.787  80.721  1.00  0.00    -0.507 OA
ATOM     23  H   UNL     1       6.814  34.987  80.897  1.00  0.00     0.293 HD
ENDBRANCH   6  22
BRANCH   8  24
ATOM     24  O   UNL     1      10.261  36.124  84.563  1.00  0.00    -0.508 OA
ATOM     25  H   UNL     1       9.801  36.837  85.116  1.00  0.00     0.293 HD
ENDBRANCH   8  24
TORSDOF 5
ENDMDL
MODEL 5
REMARK VINA RESULT:    -1.609      2.157      4.369
REMARK INTER + INTRA:          -1.711
REMARK INTER:                  -2.145
REMARK INTRA:                   0.435
REMARK UNBOUND:                 0.181
REMARK SMILES O=c1c(O)c(-c2ccc(O)cc2)oc2cc(O)cc(O)c12
REMARK SMILES IDX 5 1 3 2 2 3 1 4 21 5 19 6 18 7 16 8 15 9 14 10 13 11 6 12
REMARK SMILES IDX 7 13 8 14 9 15 12 16 11 17 10 18 4 20 20 22 17 24
REMARK H PARENT 10 19 4 21 20 23 17 25
REMARK Flexibility Score: inf
ROOT
ATOM      1  C   UNL     1      10.849  35.782  81.038  1.00  0.00     0.180 A 
ATOM      2  C   UNL     1       9.827  35.735  80.074  1.00  0.00     0.208 A 
ATOM      3  C   UNL     1      10.172  35.779  78.714  1.00  0.00     0.238 A 
ATOM      4  O   UNL     1       9.259  35.660  77.856  1.00  0.00    -0.285 OA
ATOM      5  C   UNL     1      11.528  35.928  78.334  1.00  0.00     0.111 A 
ATOM      6  C   UNL     1      11.988  36.029  76.986  1.00  0.00     0.134 A 
ATOM      7  C   UNL     1      13.364  36.066  76.726  1.00  0.00     0.093 A 
ATOM      8  C   UNL     1      14.294  36.070  77.769  1.00  0.00     0.123 A 
ATOM      9  C   UNL     1      13.854  36.026  79.089  1.00  0.00     0.094 A 
ATOM     10  C   UNL     1      12.489  35.950  79.379  1.00  0.00     0.146 A 
ATOM     11  O   UNL     1      12.115  35.889  80.651  1.00  0.00    -0.452 OA
ENDROOT
BRANCH   1  12
ATOM     12  C   UNL     1      10.566  35.726  82.490  1.00  0.00     0.021 A 
ATOM     13  C   UNL     1      11.554  35.340  83.416  1.00  0.00     0.016 A 
ATOM     14  C   UNL     1      11.270  35.319  84.784  1.00  0.00     0.047 A 
ATOM     15  C   UNL     1      10.002  35.698  85.246  1.00  0.00     0.115 A 
ATOM     16  C   UNL     1       9.305  36.125  82.964  1.00  0.00     0.016 A 
ATOM     17  C   UNL     1       9.024  36.103  84.334  1.00  0.00     0.047 A 
BRANCH  15  18
ATOM     18  O   UNL     1       9.709  35.680  86.608  1.00  0.00    -0.508 OA
ATOM     19  H   UNL     1       9.175  36.422  87.044  1.00  0.00     0.293 HD
ENDBRANCH  15  18
ENDBRANCH   1  12
BRANCH   2  20
ATOM     20  O   UNL     1       8.489  35.665  80.470  1.00  0.00    -0.502 OA
ATOM     21  H   UNL     1       7.876  36.471  80.461  1.00  0.00     0.293 HD
ENDBRANCH   2  20
BRANCH   6  22
ATOM     22  O   UNL     1      11.144  36.122  75.875  1.00  0.00    -0.507 OA
ATOM     23  H   UNL     1      10.967  36.966  75.353  1.00  0.00     0.293 HD
ENDBRANCH   6  22
BRANCH   8  24
ATOM     24  O   UNL     1      15.661  36.125  77.502  1.00  0.00    -0.508 OA
ATOM     25  H   UNL     1      16.244  36.867  77.870  1.00  0.00     0.293 HD
ENDBRANCH   8  24
TORSDOF 5
ENDMDL
MODEL 6
REMARK VINA RESULT:    -1.090      1.570      3.530
REMARK INTER + INTRA:          -1.101
REMARK INTER:                  -1.387
REMARK INTRA:                   0.286
REMARK UNBOUND:                 0.181
REMARK SMILES O=c1c(O)c(-c2ccc(O)cc2)oc2cc(O)cc(O)c12
REMARK SMILES IDX 5 1 3 2 2 3 1 4 21 5 19 6 18 7 16 8 15 9 14 10 13 11 6 12
REMARK SMILES IDX 7 13 8 14 9 15 12 16 11 17 10 18 4 20 20 22 17 24
REMARK H PARENT 10 19 4 21 20 23 17 25
REMARK Flexibility Score: inf
ROOT
ATOM      1  C   UNL     1      11.041  35.418  81.473  1.00  0.00     0.180 A 
ATOM      2  C   UNL     1       9.654  35.427  81.248  1.00  0.00     0.208 A 
ATOM      3  C   UNL     1       9.178  35.572  79.935  1.00  0.00     0.238 A 
ATOM      4  O   UNL     1       7.937  35.503  79.732  1.00  0.00    -0.285 OA
ATOM      5  C   UNL     1      10.092  35.762  78.870  1.00  0.00     0.111 A 
ATOM      6  C   UNL     1       9.719  35.963  77.506  1.00  0.00     0.134 A 
ATOM      7  C   UNL     1      10.713  36.034  76.522  1.00  0.00     0.093 A 
ATOM      8  C   UNL     1      12.067  35.975  76.860  1.00  0.00     0.123 A 
ATOM      9  C   UNL     1      12.442  35.833  78.193  1.00  0.00     0.094 A 
ATOM     10  C   UNL     1      11.473  35.721  79.194  1.00  0.00     0.146 A 
ATOM     11  O   UNL     1      11.875  35.566  80.449  1.00  0.00    -0.452 OA
ENDROOT
BRANCH   1  12
ATOM     12  C   UNL     1      11.620  35.256  82.826  1.00  0.00     0.021 A 
ATOM     13  C   UNL     1      10.955  34.521  83.825  1.00  0.00     0.016 A 
ATOM     14  C   UNL     1      11.534  34.362  85.087  1.00  0.00     0.047 A 
ATOM     15  C   UNL     1      12.788  34.921  85.363  1.00  0.00     0.115 A 
ATOM     16  C   UNL     1      12.887  35.795  83.104  1.00  0.00     0.016 A 
ATOM     17  C   UNL     1      13.463  35.634  84.368  1.00  0.00     0.047 A 
BRANCH  15  18
ATOM     18  O   UNL     1      13.373  34.769  86.619  1.00  0.00    -0.508 OA
ATOM     19  H   UNL     1      13.387  33.874  87.091  1.00  0.00     0.293 HD
ENDBRANCH  15  18
ENDBRANCH   1  12
BRANCH   2  20
ATOM     20  O   UNL     1       8.767  35.314  82.321  1.00  0.00    -0.502 OA
ATOM     21  H   UNL     1       8.474  34.419  82.693  1.00  0.00     0.293 HD
ENDBRANCH   2  20
BRANCH   6  22
ATOM     22  O   UNL     1       8.400  36.125  77.070  1.00  0.00    -0.507 OA
ATOM     23  H   UNL     1       7.604  36.253  77.674  1.00  0.00     0.293 HD
ENDBRANCH   6  22
BRANCH   8  24
ATOM     24  O   UNL     1      13.050  36.063  75.876  1.00  0.00    -0.508 OA
ATOM     25  H   UNL     1      13.822  35.408  75.837  1.00  0.00     0.293 HD
ENDBRANCH   8  24
TORSDOF 5
ENDMDL
