MODEL 1
REMARK VINA RESULT:    -1.902      0.000      0.000
REMARK INTER + INTRA:          -5.917
REMARK INTER:                  -4.793
REMARK INTRA:                  -1.124
REMARK UNBOUND:                -1.124
REMARK SMILES CCCCCCCCCCCCCCCCCCCCCCCCCCCC(=O)[O-]
REMARK SMILES IDX 15 1 16 2 17 3 18 4 19 5 20 6 21 7 22 8 23 9 24 10 25 11
REMARK SMILES IDX 26 12 27 13 28 14 29 15 30 16 14 17 13 18 12 19 11 20 10 21
REMARK SMILES IDX 9 22 8 23 7 24 6 25 5 26 4 27 3 28 2 29 1 30
REMARK H PARENT
REMARK Flexibility Score: inf
ROOT
ATOM      1  C   UNL     1     -16.151  -6.290 -21.152  1.00  0.00     0.000 C 
ENDROOT
BRANCH   1   2
ATOM      2  C   UNL     1     -16.540  -7.354 -20.113  1.00  0.00     0.000 C 
BRANCH   2   3
ATOM      3  C   UNL     1     -15.793  -8.684 -20.322  1.00  0.00     0.000 C 
BRANCH   3   4
ATOM      4  C   UNL     1     -16.542  -9.889 -19.724  1.00  0.00     0.000 C 
BRANCH   4   5
ATOM      5  C   UNL     1     -16.307 -11.231 -20.446  1.00  0.00     0.000 C 
BRANCH   5   6
ATOM      6  C   UNL     1     -16.947 -12.444 -19.737  1.00  0.00     0.000 C 
BRANCH   6   7
ATOM      7  C   UNL     1     -16.906 -13.718 -20.601  1.00  0.00     0.000 C 
BRANCH   7   8
ATOM      8  C   UNL     1     -18.218 -13.959 -21.369  1.00  0.00     0.000 C 
BRANCH   8   9
ATOM      9  C   UNL     1     -18.685 -12.775 -22.237  1.00  0.00     0.000 C 
BRANCH   9  10
ATOM     10  C   UNL     1     -19.605 -13.209 -23.390  1.00  0.00     0.000 C 
BRANCH  10  11
ATOM     11  C   UNL     1     -18.796 -13.808 -24.547  1.00  0.00     0.000 C 
BRANCH  11  12
ATOM     12  C   UNL     1     -18.860 -12.900 -25.784  1.00  0.00     0.006 C 
BRANCH  12  13
ATOM     13  C   UNL     1     -17.593 -12.050 -25.953  1.00  0.00     0.053 C 
BRANCH  13  14
ATOM     14  C   UNL     1     -16.367 -12.789 -25.511  1.00  0.00     0.041 C 
ATOM     15  O   UNL     1     -15.805 -13.608 -26.286  1.00  0.00    -0.550 OA
ATOM     16  O   UNL     1     -15.864 -12.594 -24.230  1.00  0.00    -0.550 OA
ENDBRANCH  13  14
ENDBRANCH  12  13
ENDBRANCH  11  12
ENDBRANCH  10  11
ENDBRANCH   9  10
ENDBRANCH   8   9
ENDBRANCH   7   8
ENDBRANCH   6   7
ENDBRANCH   5   6
ENDBRANCH   4   5
ENDBRANCH   3   4
ENDBRANCH   2   3
ENDBRANCH   1   2
BRANCH   1  17
ATOM     17  C   UNL     1     -15.623  -5.002 -20.505  1.00  0.00     0.000 C 
BRANCH  17  18
ATOM     18  C   UNL     1     -15.601  -5.122 -18.972  1.00  0.00     0.000 C 
BRANCH  18  19
ATOM     19  C   UNL     1     -14.175  -5.108 -18.402  1.00  0.00     0.000 C 
BRANCH  19  20
ATOM     20  C   UNL     1     -14.023  -6.011 -17.164  1.00  0.00     0.000 C 
BRANCH  20  21
ATOM     21  C   UNL     1     -13.972  -5.210 -15.853  1.00  0.00     0.000 C 
BRANCH  21  22
ATOM     22  C   UNL     1     -14.761  -3.893 -15.942  1.00  0.00    -0.000 C 
BRANCH  22  23
ATOM     23  C   UNL     1     -13.846  -2.657 -15.970  1.00  0.00    -0.000 C 
BRANCH  23  24
ATOM     24  C   UNL     1     -13.597  -2.048 -14.573  1.00  0.00    -0.000 C 
BRANCH  24  25
ATOM     25  C   UNL     1     -14.283  -2.857 -13.458  1.00  0.00    -0.000 C 
BRANCH  25  26
ATOM     26  C   UNL     1     -13.269  -3.625 -12.584  1.00  0.00    -0.000 C 
BRANCH  26  27
ATOM     27  C   UNL     1     -13.232  -3.152 -11.119  1.00  0.00    -0.000 C 
BRANCH  27  28
ATOM     28  C   UNL     1     -14.242  -3.886 -10.224  1.00  0.00    -0.000 C 
BRANCH  28  29
ATOM     29  C   UNL     1     -13.573  -4.591  -9.035  1.00  0.00    -0.003 C 
ATOM     30  C   UNL     1     -13.910  -6.081  -8.966  1.00  0.00     0.004 C 
ENDBRANCH  28  29
ENDBRANCH  27  28
ENDBRANCH  26  27
ENDBRANCH  25  26
ENDBRANCH  24  25
ENDBRANCH  23  24
ENDBRANCH  22  23
ENDBRANCH  21  22
ENDBRANCH  20  21
ENDBRANCH  19  20
ENDBRANCH  18  19
ENDBRANCH  17  18
ENDBRANCH   1  17
TORSDOF 26
ENDMDL
MODEL 2
REMARK VINA RESULT:    -1.872      1.564      2.781
REMARK INTER + INTRA:          -5.841
REMARK INTER:                  -4.750
REMARK INTRA:                  -1.091
REMARK UNBOUND:                -1.124
REMARK SMILES CCCCCCCCCCCCCCCCCCCCCCCCCCCC(=O)[O-]
REMARK SMILES IDX 15 1 16 2 17 3 18 4 19 5 20 6 21 7 22 8 23 9 24 10 25 11
REMARK SMILES IDX 26 12 27 13 28 14 29 15 30 16 14 17 13 18 12 19 11 20 10 21
REMARK SMILES IDX 9 22 8 23 7 24 6 25 5 26 4 27 3 28 2 29 1 30
REMARK H PARENT
REMARK Flexibility Score: inf
ROOT
ATOM      1  C   UNL     1     -15.769  -7.590 -20.429  1.00  0.00     0.000 C 
ENDROOT
BRANCH   1   2
ATOM      2  C   UNL     1     -16.608  -8.722 -19.815  1.00  0.00     0.000 C 
BRANCH   2   3
ATOM      3  C   UNL     1     -16.105 -10.118 -20.225  1.00  0.00     0.000 C 
BRANCH   3   4
ATOM      4  C   UNL     1     -17.056 -11.247 -19.789  1.00  0.00     0.000 C 
BRANCH   4   5
ATOM      5  C   UNL     1     -16.366 -12.555 -19.355  1.00  0.00     0.000 C 
BRANCH   5   6
ATOM      6  C   UNL     1     -17.224 -13.819 -19.575  1.00  0.00     0.000 C 
BRANCH   6   7
ATOM      7  C   UNL     1     -17.448 -14.125 -21.068  1.00  0.00     0.000 C 
BRANCH   7   8
ATOM      8  C   UNL     1     -18.930 -14.047 -21.477  1.00  0.00     0.000 C 
BRANCH   8   9
ATOM      9  C   UNL     1     -19.381 -12.677 -22.018  1.00  0.00     0.000 C 
BRANCH   9  10
ATOM     10  C   UNL     1     -19.756 -12.721 -23.508  1.00  0.00     0.000 C 
BRANCH  10  11
ATOM     11  C   UNL     1     -19.070 -13.894 -24.217  1.00  0.00     0.000 C 
BRANCH  11  12
ATOM     12  C   UNL     1     -18.486 -13.449 -25.567  1.00  0.00     0.006 C 
BRANCH  12  13
ATOM     13  C   UNL     1     -17.030 -13.899 -25.752  1.00  0.00     0.053 C 
BRANCH  13  14
ATOM     14  C   UNL     1     -16.073 -12.979 -25.057  1.00  0.00     0.041 C 
ATOM     15  O   UNL     1     -14.929 -12.769 -25.541  1.00  0.00    -0.550 OA
ATOM     16  O   UNL     1     -16.436 -12.378 -23.858  1.00  0.00    -0.550 OA
ENDBRANCH  13  14
ENDBRANCH  12  13
ENDBRANCH  11  12
ENDBRANCH  10  11
ENDBRANCH   9  10
ENDBRANCH   8   9
ENDBRANCH   7   8
ENDBRANCH   6   7
ENDBRANCH   5   6
ENDBRANCH   4   5
ENDBRANCH   3   4
ENDBRANCH   2   3
ENDBRANCH   1   2
BRANCH   1  17
ATOM     17  C   UNL     1     -16.635  -6.511 -21.094  1.00  0.00     0.000 C 
BRANCH  17  18
ATOM     18  C   UNL     1     -16.226  -5.106 -20.623  1.00  0.00     0.000 C 
BRANCH  18  19
ATOM     19  C   UNL     1     -15.432  -5.135 -19.308  1.00  0.00     0.000 C 
BRANCH  19  20
ATOM     20  C   UNL     1     -13.966  -5.558 -19.510  1.00  0.00     0.000 C 
BRANCH  20  21
ATOM     21  C   UNL     1     -13.389  -6.287 -18.286  1.00  0.00     0.000 C 
BRANCH  21  22
ATOM     22  C   UNL     1     -14.165  -5.969 -16.997  1.00  0.00    -0.000 C 
BRANCH  22  23
ATOM     23  C   UNL     1     -13.971  -7.040 -15.911  1.00  0.00    -0.000 C 
BRANCH  23  24
ATOM     24  C   UNL     1     -14.175  -6.504 -14.478  1.00  0.00    -0.000 C 
BRANCH  24  25
ATOM     25  C   UNL     1     -14.348  -4.976 -14.451  1.00  0.00    -0.000 C 
BRANCH  25  26
ATOM     26  C   UNL     1     -13.945  -4.365 -13.091  1.00  0.00    -0.000 C 
BRANCH  26  27
ATOM     27  C   UNL     1     -13.580  -2.871 -13.167  1.00  0.00    -0.000 C 
BRANCH  27  28
ATOM     28  C   UNL     1     -14.702  -2.009 -13.765  1.00  0.00    -0.000 C 
BRANCH  28  29
ATOM     29  C   UNL     1     -14.202  -1.081 -14.882  1.00  0.00    -0.003 C 
ATOM     30  C   UNL     1     -13.418  -1.827 -15.962  1.00  0.00     0.004 C 
ENDBRANCH  28  29
ENDBRANCH  27  28
ENDBRANCH  26  27
ENDBRANCH  25  26
ENDBRANCH  24  25
ENDBRANCH  23  24
ENDBRANCH  22  23
ENDBRANCH  21  22
ENDBRANCH  20  21
ENDBRANCH  19  20
ENDBRANCH  18  19
ENDBRANCH  17  18
ENDBRANCH   1  17
TORSDOF 26
ENDMDL
MODEL 3
REMARK VINA RESULT:    -1.551      1.086      1.950
REMARK INTER + INTRA:          -5.033
REMARK INTER:                  -4.262
REMARK INTRA:                  -0.771
REMARK UNBOUND:                -1.124
REMARK SMILES CCCCCCCCCCCCCCCCCCCCCCCCCCCC(=O)[O-]
REMARK SMILES IDX 15 1 16 2 17 3 18 4 19 5 20 6 21 7 22 8 23 9 24 10 25 11
REMARK SMILES IDX 26 12 27 13 28 14 29 15 30 16 14 17 13 18 12 19 11 20 10 21
REMARK SMILES IDX 9 22 8 23 7 24 6 25 5 26 4 27 3 28 2 29 1 30
REMARK H PARENT
REMARK Flexibility Score: inf
ROOT
ATOM      1  C   UNL     1     -16.900  -5.932 -21.338  1.00  0.00     0.000 C 
ENDROOT
BRANCH   1   2
ATOM      2  C   UNL     1     -16.853  -7.165 -20.423  1.00  0.00     0.000 C 
BRANCH   2   3
ATOM      3  C   UNL     1     -15.511  -7.916 -20.512  1.00  0.00     0.000 C 
BRANCH   3   4
ATOM      4  C   UNL     1     -15.580  -9.333 -19.917  1.00  0.00     0.000 C 
BRANCH   4   5
ATOM      5  C   UNL     1     -16.899 -10.089 -20.174  1.00  0.00     0.000 C 
BRANCH   5   6
ATOM      6  C   UNL     1     -16.944 -11.501 -19.553  1.00  0.00     0.000 C 
BRANCH   6   7
ATOM      7  C   UNL     1     -16.046 -12.502 -20.303  1.00  0.00     0.000 C 
BRANCH   7   8
ATOM      8  C   UNL     1     -16.581 -13.944 -20.242  1.00  0.00     0.000 C 
BRANCH   8   9
ATOM      9  C   UNL     1     -18.014 -14.125 -20.780  1.00  0.00     0.000 C 
BRANCH   9  10
ATOM     10  C   UNL     1     -18.087 -14.051 -22.314  1.00  0.00     0.000 C 
BRANCH  10  11
ATOM     11  C   UNL     1     -18.436 -12.634 -22.784  1.00  0.00     0.000 C 
BRANCH  11  12
ATOM     12  C   UNL     1     -19.457 -12.676 -23.932  1.00  0.00     0.006 C 
BRANCH  12  13
ATOM     13  C   UNL     1     -18.860 -13.250 -25.224  1.00  0.00     0.053 C 
BRANCH  13  14
ATOM     14  C   UNL     1     -17.798 -12.357 -25.789  1.00  0.00     0.041 C 
ATOM     15  O   UNL     1     -16.753 -12.117 -25.128  1.00  0.00    -0.550 OA
ATOM     16  O   UNL     1     -17.979 -11.766 -27.033  1.00  0.00    -0.550 OA
ENDBRANCH  13  14
ENDBRANCH  12  13
ENDBRANCH  11  12
ENDBRANCH  10  11
ENDBRANCH   9  10
ENDBRANCH   8   9
ENDBRANCH   7   8
ENDBRANCH   6   7
ENDBRANCH   5   6
ENDBRANCH   4   5
ENDBRANCH   3   4
ENDBRANCH   2   3
ENDBRANCH   1   2
BRANCH   1  17
ATOM     17  C   UNL     1     -16.569  -4.632 -20.591  1.00  0.00     0.000 C 
BRANCH  17  18
ATOM     18  C   UNL     1     -15.714  -4.913 -19.345  1.00  0.00     0.000 C 
BRANCH  18  19
ATOM     19  C   UNL     1     -14.228  -5.107 -19.684  1.00  0.00     0.000 C 
BRANCH  19  20
ATOM     20  C   UNL     1     -13.449  -5.806 -18.556  1.00  0.00     0.000 C 
BRANCH  20  21
ATOM     21  C   UNL     1     -14.360  -6.262 -17.405  1.00  0.00     0.000 C 
BRANCH  21  22
ATOM     22  C   UNL     1     -13.563  -6.796 -16.204  1.00  0.00    -0.000 C 
BRANCH  22  23
ATOM     23  C   UNL     1     -14.362  -6.740 -14.892  1.00  0.00    -0.000 C 
BRANCH  23  24
ATOM     24  C   UNL     1     -14.006  -5.525 -14.008  1.00  0.00    -0.000 C 
BRANCH  24  25
ATOM     25  C   UNL     1     -14.411  -4.194 -14.666  1.00  0.00    -0.000 C 
BRANCH  25  26
ATOM     26  C   UNL     1     -14.032  -2.974 -13.798  1.00  0.00    -0.000 C 
BRANCH  26  27
ATOM     27  C   UNL     1     -13.388  -3.349 -12.450  1.00  0.00    -0.000 C 
BRANCH  27  28
ATOM     28  C   UNL     1     -14.422  -3.667 -11.359  1.00  0.00    -0.000 C 
BRANCH  28  29
ATOM     29  C   UNL     1     -13.824  -3.613  -9.946  1.00  0.00    -0.003 C 
ATOM     30  C   UNL     1     -13.480  -4.998  -9.397  1.00  0.00     0.004 C 
ENDBRANCH  28  29
ENDBRANCH  27  28
ENDBRANCH  26  27
ENDBRANCH  25  26
ENDBRANCH  24  25
ENDBRANCH  23  24
ENDBRANCH  22  23
ENDBRANCH  21  22
ENDBRANCH  20  21
ENDBRANCH  19  20
ENDBRANCH  18  19
ENDBRANCH  17  18
ENDBRANCH   1  17
TORSDOF 26
ENDMDL
MODEL 4
REMARK VINA RESULT:    -1.240      1.290      2.089
REMARK INTER + INTRA:          -4.249
REMARK INTER:                  -4.181
REMARK INTRA:                  -0.068
REMARK UNBOUND:                -1.124
REMARK SMILES CCCCCCCCCCCCCCCCCCCCCCCCCCCC(=O)[O-]
REMARK SMILES IDX 15 1 16 2 17 3 18 4 19 5 20 6 21 7 22 8 23 9 24 10 25 11
REMARK SMILES IDX 26 12 27 13 28 14 29 15 30 16 14 17 13 18 12 19 11 20 10 21
REMARK SMILES IDX 9 22 8 23 7 24 6 25 5 26 4 27 3 28 2 29 1 30
REMARK H PARENT
REMARK Flexibility Score: inf
ROOT
ATOM      1  C   UNL     1     -14.708  -5.518 -20.417  1.00  0.00     0.000 C 
ENDROOT
BRANCH   1   2
ATOM      2  C   UNL     1     -16.200  -5.595 -20.057  1.00  0.00     0.000 C 
BRANCH   2   3
ATOM      3  C   UNL     1     -16.849  -6.916 -20.511  1.00  0.00     0.000 C 
BRANCH   3   4
ATOM      4  C   UNL     1     -15.861  -8.095 -20.515  1.00  0.00     0.000 C 
BRANCH   4   5
ATOM      5  C   UNL     1     -16.194  -9.233 -19.529  1.00  0.00     0.000 C 
BRANCH   5   6
ATOM      6  C   UNL     1     -17.020 -10.379 -20.151  1.00  0.00     0.000 C 
BRANCH   6   7
ATOM      7  C   UNL     1     -16.137 -11.551 -20.621  1.00  0.00     0.000 C 
BRANCH   7   8
ATOM      8  C   UNL     1     -16.311 -12.812 -19.756  1.00  0.00     0.000 C 
BRANCH   8   9
ATOM      9  C   UNL     1     -16.979 -14.001 -20.473  1.00  0.00     0.000 C 
BRANCH   9  10
ATOM     10  C   UNL     1     -18.416 -13.692 -20.923  1.00  0.00     0.000 C 
BRANCH  10  11
ATOM     11  C   UNL     1     -18.592 -13.947 -22.425  1.00  0.00     0.000 C 
BRANCH  11  12
ATOM     12  C   UNL     1     -18.239 -12.690 -23.236  1.00  0.00     0.006 C 
BRANCH  12  13
ATOM     13  C   UNL     1     -17.331 -13.002 -24.434  1.00  0.00     0.053 C 
BRANCH  13  14
ATOM     14  C   UNL     1     -17.916 -12.498 -25.718  1.00  0.00     0.041 C 
ATOM     15  O   UNL     1     -17.192 -11.888 -26.549  1.00  0.00    -0.550 OA
ATOM     16  O   UNL     1     -19.268 -12.679 -25.982  1.00  0.00    -0.550 OA
ENDBRANCH  13  14
ENDBRANCH  12  13
ENDBRANCH  11  12
ENDBRANCH  10  11
ENDBRANCH   9  10
ENDBRANCH   8   9
ENDBRANCH   7   8
ENDBRANCH   6   7
ENDBRANCH   5   6
ENDBRANCH   4   5
ENDBRANCH   3   4
ENDBRANCH   2   3
ENDBRANCH   1   2
BRANCH   1  17
ATOM     17  C   UNL     1     -13.835  -5.115 -19.220  1.00  0.00     0.000 C 
BRANCH  17  18
ATOM     18  C   UNL     1     -13.637  -6.296 -18.257  1.00  0.00     0.000 C 
BRANCH  18  19
ATOM     19  C   UNL     1     -14.050  -5.956 -16.817  1.00  0.00     0.000 C 
BRANCH  19  20
ATOM     20  C   UNL     1     -13.755  -7.100 -15.830  1.00  0.00     0.000 C 
BRANCH  20  21
ATOM     21  C   UNL     1     -14.541  -6.964 -14.517  1.00  0.00     0.000 C 
BRANCH  21  22
ATOM     22  C   UNL     1     -14.287  -5.617 -13.821  1.00  0.00    -0.000 C 
BRANCH  22  23
ATOM     23  C   UNL     1     -14.400  -4.423 -14.783  1.00  0.00    -0.000 C 
BRANCH  23  24
ATOM     24  C   UNL     1     -14.568  -3.068 -14.063  1.00  0.00    -0.000 C 
BRANCH  24  25
ATOM     25  C   UNL     1     -13.246  -2.569 -13.455  1.00  0.00    -0.000 C 
BRANCH  25  26
ATOM     26  C   UNL     1     -12.920  -3.262 -12.114  1.00  0.00    -0.000 C 
BRANCH  26  27
ATOM     27  C   UNL     1     -14.153  -3.863 -11.413  1.00  0.00    -0.000 C 
BRANCH  27  28
ATOM     28  C   UNL     1     -14.444  -3.215 -10.051  1.00  0.00    -0.000 C 
BRANCH  28  29
ATOM     29  C   UNL     1     -14.359  -4.218  -8.890  1.00  0.00    -0.003 C 
ATOM     30  C   UNL     1     -14.006  -5.631  -9.357  1.00  0.00     0.004 C 
ENDBRANCH  28  29
ENDBRANCH  27  28
ENDBRANCH  26  27
ENDBRANCH  25  26
ENDBRANCH  24  25
ENDBRANCH  23  24
ENDBRANCH  22  23
ENDBRANCH  21  22
ENDBRANCH  20  21
ENDBRANCH  19  20
ENDBRANCH  18  19
ENDBRANCH  17  18
ENDBRANCH   1  17
TORSDOF 26
ENDMDL
MODEL 5
REMARK VINA RESULT:    -0.453      1.396      2.739
REMARK INTER + INTRA:          -2.265
REMARK INTER:                  -1.005
REMARK INTRA:                  -1.260
REMARK UNBOUND:                -1.124
REMARK SMILES CCCCCCCCCCCCCCCCCCCCCCCCCCCC(=O)[O-]
REMARK SMILES IDX 15 1 16 2 17 3 18 4 19 5 20 6 21 7 22 8 23 9 24 10 25 11
REMARK SMILES IDX 26 12 27 13 28 14 29 15 30 16 14 17 13 18 12 19 11 20 10 21
REMARK SMILES IDX 9 22 8 23 7 24 6 25 5 26 4 27 3 28 2 29 1 30
REMARK H PARENT
REMARK Flexibility Score: inf
ROOT
ATOM      1  C   UNL     1     -16.306  -5.467 -20.960  1.00  0.00     0.000 C 
ENDROOT
BRANCH   1   2
ATOM      2  C   UNL     1     -16.871  -6.834 -20.543  1.00  0.00     0.000 C 
BRANCH   2   3
ATOM      3  C   UNL     1     -15.776  -7.909 -20.410  1.00  0.00     0.000 C 
BRANCH   3   4
ATOM      4  C   UNL     1     -16.283  -9.197 -19.737  1.00  0.00     0.000 C 
BRANCH   4   5
ATOM      5  C   UNL     1     -16.038 -10.493 -20.533  1.00  0.00     0.000 C 
BRANCH   5   6
ATOM      6  C   UNL     1     -17.151 -11.550 -20.369  1.00  0.00     0.000 C 
BRANCH   6   7
ATOM      7  C   UNL     1     -16.645 -12.834 -19.684  1.00  0.00     0.000 C 
BRANCH   7   8
ATOM      8  C   UNL     1     -17.401 -14.093 -20.147  1.00  0.00     0.000 C 
BRANCH   8   9
ATOM      9  C   UNL     1     -17.790 -14.102 -21.638  1.00  0.00     0.000 C 
BRANCH   9  10
ATOM     10  C   UNL     1     -19.167 -13.470 -21.897  1.00  0.00     0.000 C 
BRANCH  10  11
ATOM     11  C   UNL     1     -19.637 -13.739 -23.332  1.00  0.00     0.000 C 
BRANCH  11  12
ATOM     12  C   UNL     1     -18.470 -13.605 -24.322  1.00  0.00     0.006 C 
BRANCH  12  13
ATOM     13  C   UNL     1     -18.894 -12.944 -25.641  1.00  0.00     0.053 C 
BRANCH  13  14
ATOM     14  C   UNL     1     -17.756 -12.215 -26.287  1.00  0.00     0.041 C 
ATOM     15  O   UNL     1     -17.968 -11.437 -27.255  1.00  0.00    -0.550 OA
ATOM     16  O   UNL     1     -16.457 -12.422 -25.839  1.00  0.00    -0.550 OA
ENDBRANCH  13  14
ENDBRANCH  12  13
ENDBRANCH  11  12
ENDBRANCH  10  11
ENDBRANCH   9  10
ENDBRANCH   8   9
ENDBRANCH   7   8
ENDBRANCH   6   7
ENDBRANCH   5   6
ENDBRANCH   4   5
ENDBRANCH   3   4
ENDBRANCH   2   3
ENDBRANCH   1   2
BRANCH   1  17
ATOM     17  C   UNL     1     -16.318  -4.451 -19.810  1.00  0.00     0.000 C 
BRANCH  17  18
ATOM     18  C   UNL     1     -15.421  -4.916 -18.652  1.00  0.00     0.000 C 
BRANCH  18  19
ATOM     19  C   UNL     1     -14.009  -5.301 -19.120  1.00  0.00     0.000 C 
BRANCH  19  20
ATOM     20  C   UNL     1     -13.299  -6.251 -18.139  1.00  0.00     0.000 C 
BRANCH  20  21
ATOM     21  C   UNL     1     -14.177  -6.618 -16.933  1.00  0.00     0.000 C 
BRANCH  21  22
ATOM     22  C   UNL     1     -13.451  -6.405 -15.594  1.00  0.00    -0.000 C 
BRANCH  22  23
ATOM     23  C   UNL     1     -14.422  -6.145 -14.430  1.00  0.00    -0.000 C 
BRANCH  23  24
ATOM     24  C   UNL     1     -14.433  -4.676 -13.958  1.00  0.00    -0.000 C 
BRANCH  24  25
ATOM     25  C   UNL     1     -14.102  -4.547 -12.460  1.00  0.00    -0.000 C 
BRANCH  25  26
ATOM     26  C   UNL     1     -12.932  -3.574 -12.201  1.00  0.00    -0.000 C 
BRANCH  26  27
ATOM     27  C   UNL     1     -13.142  -2.176 -12.812  1.00  0.00    -0.000 C 
BRANCH  27  28
ATOM     28  C   UNL     1     -12.875  -2.137 -14.325  1.00  0.00    -0.000 C 
BRANCH  28  29
ATOM     29  C   UNL     1     -13.962  -1.372 -15.095  1.00  0.00    -0.003 C 
ATOM     30  C   UNL     1     -14.260  -1.989 -16.462  1.00  0.00     0.004 C 
ENDBRANCH  28  29
ENDBRANCH  27  28
ENDBRANCH  26  27
ENDBRANCH  25  26
ENDBRANCH  24  25
ENDBRANCH  23  24
ENDBRANCH  22  23
ENDBRANCH  21  22
ENDBRANCH  20  21
ENDBRANCH  19  20
ENDBRANCH  18  19
ENDBRANCH  17  18
ENDBRANCH   1  17
TORSDOF 26
ENDMDL
MODEL 6
REMARK VINA RESULT:    -0.359      4.646     12.500
REMARK INTER + INTRA:          -2.028
REMARK INTER:                  -1.730
REMARK INTRA:                  -0.298
REMARK UNBOUND:                -1.124
REMARK SMILES CCCCCCCCCCCCCCCCCCCCCCCCCCCC(=O)[O-]
REMARK SMILES IDX 15 1 16 2 17 3 18 4 19 5 20 6 21 7 22 8 23 9 24 10 25 11
REMARK SMILES IDX 26 12 27 13 28 14 29 15 30 16 14 17 13 18 12 19 11 20 10 21
REMARK SMILES IDX 9 22 8 23 7 24 6 25 5 26 4 27 3 28 2 29 1 30
REMARK H PARENT
REMARK Flexibility Score: inf
ROOT
ATOM      1  C   UNL     1     -17.009  -5.871 -21.585  1.00  0.00     0.000 C 
ENDROOT
BRANCH   1   2
ATOM      2  C   UNL     1     -16.504  -4.625 -20.841  1.00  0.00     0.000 C 
BRANCH   2   3
ATOM      3  C   UNL     1     -16.757  -4.700 -19.324  1.00  0.00     0.000 C 
BRANCH   3   4
ATOM      4  C   UNL     1     -15.456  -4.741 -18.504  1.00  0.00     0.000 C 
BRANCH   4   5
ATOM      5  C   UNL     1     -14.190  -5.115 -19.300  1.00  0.00     0.000 C 
BRANCH   5   6
ATOM      6  C   UNL     1     -13.619  -6.506 -18.951  1.00  0.00     0.000 C 
BRANCH   6   7
ATOM      7  C   UNL     1     -13.116  -6.587 -17.497  1.00  0.00     0.000 C 
BRANCH   7   8
ATOM      8  C   UNL     1     -14.107  -5.976 -16.490  1.00  0.00     0.000 C 
BRANCH   8   9
ATOM      9  C   UNL     1     -14.250  -6.758 -15.170  1.00  0.00     0.000 C 
BRANCH   9  10
ATOM     10  C   UNL     1     -14.243  -5.844 -13.934  1.00  0.00     0.000 C 
BRANCH  10  11
ATOM     11  C   UNL     1     -14.282  -4.365 -14.339  1.00  0.00     0.000 C 
BRANCH  11  12
ATOM     12  C   UNL     1     -13.697  -3.480 -13.228  1.00  0.00     0.006 C 
BRANCH  12  13
ATOM     13  C   UNL     1     -14.586  -3.447 -11.977  1.00  0.00     0.053 C 
BRANCH  13  14
ATOM     14  C   UNL     1     -13.801  -3.723 -10.731  1.00  0.00     0.041 C 
ATOM     15  O   UNL     1     -12.931  -2.903 -10.334  1.00  0.00    -0.550 OA
ATOM     16  O   UNL     1     -14.012  -4.901 -10.026  1.00  0.00    -0.550 OA
ENDBRANCH  13  14
ENDBRANCH  12  13
ENDBRANCH  11  12
ENDBRANCH  10  11
ENDBRANCH   9  10
ENDBRANCH   8   9
ENDBRANCH   7   8
ENDBRANCH   6   7
ENDBRANCH   5   6
ENDBRANCH   4   5
ENDBRANCH   3   4
ENDBRANCH   2   3
ENDBRANCH   1   2
BRANCH   1  17
ATOM     17  C   UNL     1     -17.044  -7.117 -20.689  1.00  0.00     0.000 C 
BRANCH  17  18
ATOM     18  C   UNL     1     -15.659  -7.777 -20.607  1.00  0.00     0.000 C 
BRANCH  18  19
ATOM     19  C   UNL     1     -15.680  -9.090 -19.809  1.00  0.00     0.000 C 
BRANCH  19  20
ATOM     20  C   UNL     1     -16.817 -10.031 -20.248  1.00  0.00     0.000 C 
BRANCH  20  21
ATOM     21  C   UNL     1     -16.755 -11.397 -19.547  1.00  0.00     0.000 C 
BRANCH  21  22
ATOM     22  C   UNL     1     -16.332 -12.526 -20.502  1.00  0.00    -0.000 C 
BRANCH  22  23
ATOM     23  C   UNL     1     -17.065 -13.847 -20.217  1.00  0.00    -0.000 C 
BRANCH  23  24
ATOM     24  C   UNL     1     -18.309 -14.063 -21.105  1.00  0.00    -0.000 C 
BRANCH  24  25
ATOM     25  C   UNL     1     -18.894 -12.733 -21.613  1.00  0.00    -0.000 C 
BRANCH  25  26
ATOM     26  C   UNL     1     -19.490 -12.860 -23.031  1.00  0.00    -0.000 C 
BRANCH  26  27
ATOM     27  C   UNL     1     -18.456 -13.251 -24.104  1.00  0.00    -0.000 C 
BRANCH  27  28
ATOM     28  C   UNL     1     -19.049 -13.295 -25.521  1.00  0.00    -0.000 C 
BRANCH  28  29
ATOM     29  C   UNL     1     -18.273 -12.415 -26.512  1.00  0.00    -0.003 C 
ATOM     30  C   UNL     1     -17.034 -11.774 -25.887  1.00  0.00     0.004 C 
ENDBRANCH  28  29
ENDBRANCH  27  28
ENDBRANCH  26  27
ENDBRANCH  25  26
ENDBRANCH  24  25
ENDBRANCH  23  24
ENDBRANCH  22  23
ENDBRANCH  21  22
ENDBRANCH  20  21
ENDBRANCH  19  20
ENDBRANCH  18  19
ENDBRANCH  17  18
ENDBRANCH   1  17
TORSDOF 26
ENDMDL
MODEL 7
REMARK VINA RESULT:    -0.109      1.543      3.119
REMARK INTER + INTRA:          -1.399
REMARK INTER:                  -0.462
REMARK INTRA:                  -0.937
REMARK UNBOUND:                -1.124
REMARK SMILES CCCCCCCCCCCCCCCCCCCCCCCCCCCC(=O)[O-]
REMARK SMILES IDX 15 1 16 2 17 3 18 4 19 5 20 6 21 7 22 8 23 9 24 10 25 11
REMARK SMILES IDX 26 12 27 13 28 14 29 15 30 16 14 17 13 18 12 19 11 20 10 21
REMARK SMILES IDX 9 22 8 23 7 24 6 25 5 26 4 27 3 28 2 29 1 30
REMARK H PARENT
REMARK Flexibility Score: inf
ROOT
ATOM      1  C   UNL     1     -15.252  -5.930 -19.808  1.00  0.00     0.000 C 
ENDROOT
BRANCH   1   2
ATOM      2  C   UNL     1     -15.469  -7.232 -20.596  1.00  0.00     0.000 C 
BRANCH   2   3
ATOM      3  C   UNL     1     -16.153  -8.324 -19.753  1.00  0.00     0.000 C 
BRANCH   3   4
ATOM      4  C   UNL     1     -15.858  -9.745 -20.265  1.00  0.00     0.000 C 
BRANCH   4   5
ATOM      5  C   UNL     1     -16.975 -10.777 -20.014  1.00  0.00     0.000 C 
BRANCH   5   6
ATOM      6  C   UNL     1     -16.822 -11.557 -18.691  1.00  0.00     0.000 C 
BRANCH   6   7
ATOM      7  C   UNL     1     -16.621 -13.067 -18.919  1.00  0.00     0.000 C 
BRANCH   7   8
ATOM      8  C   UNL     1     -17.679 -13.675 -19.857  1.00  0.00     0.000 C 
BRANCH   8   9
ATOM      9  C   UNL     1     -17.176 -13.994 -21.278  1.00  0.00     0.000 C 
BRANCH   9  10
ATOM     10  C   UNL     1     -17.162 -12.761 -22.195  1.00  0.00     0.000 C 
BRANCH  10  11
ATOM     11  C   UNL     1     -18.506 -12.591 -22.915  1.00  0.00     0.000 C 
BRANCH  11  12
ATOM     12  C   UNL     1     -18.810 -13.813 -23.795  1.00  0.00     0.006 C 
BRANCH  12  13
ATOM     13  C   UNL     1     -17.985 -13.820 -25.090  1.00  0.00     0.053 C 
BRANCH  13  14
ATOM     14  C   UNL     1     -18.337 -12.667 -25.979  1.00  0.00     0.041 C 
ATOM     15  O   UNL     1     -19.517 -12.525 -26.398  1.00  0.00    -0.550 OA
ATOM     16  O   UNL     1     -17.354 -11.766 -26.367  1.00  0.00    -0.550 OA
ENDBRANCH  13  14
ENDBRANCH  12  13
ENDBRANCH  11  12
ENDBRANCH  10  11
ENDBRANCH   9  10
ENDBRANCH   8   9
ENDBRANCH   7   8
ENDBRANCH   6   7
ENDBRANCH   5   6
ENDBRANCH   4   5
ENDBRANCH   3   4
ENDBRANCH   2   3
ENDBRANCH   1   2
BRANCH   1  17
ATOM     17  C   UNL     1     -13.910  -5.909 -19.065  1.00  0.00     0.000 C 
BRANCH  17  18
ATOM     18  C   UNL     1     -14.119  -5.768 -17.549  1.00  0.00     0.000 C 
BRANCH  18  19
ATOM     19  C   UNL     1     -13.649  -7.007 -16.772  1.00  0.00     0.000 C 
BRANCH  19  20
ATOM     20  C   UNL     1     -14.104  -6.993 -15.302  1.00  0.00     0.000 C 
BRANCH  20  21
ATOM     21  C   UNL     1     -13.526  -5.804 -14.518  1.00  0.00     0.000 C 
BRANCH  21  22
ATOM     22  C   UNL     1     -14.422  -5.392 -13.338  1.00  0.00    -0.000 C 
BRANCH  22  23
ATOM     23  C   UNL     1     -13.706  -4.454 -12.352  1.00  0.00    -0.000 C 
BRANCH  23  24
ATOM     24  C   UNL     1     -14.625  -3.360 -11.768  1.00  0.00    -0.000 C 
BRANCH  24  25
ATOM     25  C   UNL     1     -15.855  -3.103 -12.658  1.00  0.00    -0.000 C 
BRANCH  25  26
ATOM     26  C   UNL     1     -15.559  -2.089 -13.784  1.00  0.00    -0.000 C 
BRANCH  26  27
ATOM     27  C   UNL     1     -15.054  -2.739 -15.085  1.00  0.00    -0.000 C 
BRANCH  27  28
ATOM     28  C   UNL     1     -13.674  -2.221 -15.519  1.00  0.00    -0.000 C 
BRANCH  28  29
ATOM     29  C   UNL     1     -12.971  -1.420 -14.412  1.00  0.00    -0.003 C 
ATOM     30  C   UNL     1     -13.597  -0.043 -14.192  1.00  0.00     0.004 C 
ENDBRANCH  28  29
ENDBRANCH  27  28
ENDBRANCH  26  27
ENDBRANCH  25  26
ENDBRANCH  24  25
ENDBRANCH  23  24
ENDBRANCH  22  23
ENDBRANCH  21  22
ENDBRANCH  20  21
ENDBRANCH  19  20
ENDBRANCH  18  19
ENDBRANCH  17  18
ENDBRANCH   1  17
TORSDOF 26
ENDMDL
MODEL 8
REMARK VINA RESULT:     0.320      4.546     13.346
REMARK INTER + INTRA:          -0.317
REMARK INTER:                   1.156
REMARK INTRA:                  -1.473
REMARK UNBOUND:                -1.124
REMARK SMILES CCCCCCCCCCCCCCCCCCCCCCCCCCCC(=O)[O-]
REMARK SMILES IDX 15 1 16 2 17 3 18 4 19 5 20 6 21 7 22 8 23 9 24 10 25 11
REMARK SMILES IDX 26 12 27 13 28 14 29 15 30 16 14 17 13 18 12 19 11 20 10 21
REMARK SMILES IDX 9 22 8 23 7 24 6 25 5 26 4 27 3 28 2 29 1 30
REMARK H PARENT
REMARK Flexibility Score: inf
ROOT
ATOM      1  C   UNL     1     -15.652 -12.265 -20.895  1.00  0.00     0.000 C 
ENDROOT
BRANCH   1   2
ATOM      2  C   UNL     1     -15.317 -10.909 -20.252  1.00  0.00     0.000 C 
BRANCH   2   3
ATOM      3  C   UNL     1     -16.521  -9.949 -20.239  1.00  0.00     0.000 C 
BRANCH   3   4
ATOM      4  C   UNL     1     -16.178  -8.570 -19.649  1.00  0.00     0.000 C 
BRANCH   4   5
ATOM      5  C   UNL     1     -15.167  -7.740 -20.464  1.00  0.00     0.000 C 
BRANCH   5   6
ATOM      6  C   UNL     1     -15.127  -6.246 -20.079  1.00  0.00     0.000 C 
BRANCH   6   7
ATOM      7  C   UNL     1     -14.327  -5.992 -18.788  1.00  0.00     0.000 C 
BRANCH   7   8
ATOM      8  C   UNL     1     -15.030  -5.008 -17.836  1.00  0.00     0.000 C 
BRANCH   8   9
ATOM      9  C   UNL     1     -14.180  -4.554 -16.634  1.00  0.00     0.000 C 
BRANCH   9  10
ATOM     10  C   UNL     1     -14.612  -3.186 -16.082  1.00  0.00     0.000 C 
BRANCH  10  11
ATOM     11  C   UNL     1     -13.641  -2.693 -15.002  1.00  0.00     0.000 C 
BRANCH  11  12
ATOM     12  C   UNL     1     -13.558  -3.700 -13.844  1.00  0.00     0.006 C 
BRANCH  12  13
ATOM     13  C   UNL     1     -13.046  -3.058 -12.547  1.00  0.00     0.053 C 
BRANCH  13  14
ATOM     14  C   UNL     1     -13.779  -3.574 -11.346  1.00  0.00     0.041 C 
ATOM     15  O   UNL     1     -15.038  -3.583 -11.327  1.00  0.00    -0.550 OA
ATOM     16  O   UNL     1     -13.068  -4.015 -10.237  1.00  0.00    -0.550 OA
ENDBRANCH  13  14
ENDBRANCH  12  13
ENDBRANCH  11  12
ENDBRANCH  10  11
ENDBRANCH   9  10
ENDBRANCH   8   9
ENDBRANCH   7   8
ENDBRANCH   6   7
ENDBRANCH   5   6
ENDBRANCH   4   5
ENDBRANCH   3   4
ENDBRANCH   2   3
ENDBRANCH   1   2
BRANCH   1  17
ATOM     17  C   UNL     1     -15.913 -13.361 -19.852  1.00  0.00     0.000 C 
BRANCH  17  18
ATOM     18  C   UNL     1     -17.357 -13.881 -19.947  1.00  0.00     0.000 C 
BRANCH  18  19
ATOM     19  C   UNL     1     -17.799 -14.125 -21.398  1.00  0.00     0.000 C 
BRANCH  19  20
ATOM     20  C   UNL     1     -19.193 -13.544 -21.697  1.00  0.00     0.000 C 
BRANCH  20  21
ATOM     21  C   UNL     1     -19.222 -12.717 -22.992  1.00  0.00     0.000 C 
BRANCH  21  22
ATOM     22  C   UNL     1     -18.952 -13.575 -24.239  1.00  0.00    -0.000 C 
BRANCH  22  23
ATOM     23  C   UNL     1     -17.567 -13.309 -24.851  1.00  0.00    -0.000 C 
BRANCH  23  24
ATOM     24  C   UNL     1     -17.609 -12.380 -26.084  1.00  0.00    -0.000 C 
BRANCH  24  25
ATOM     25  C   UNL     1     -16.298 -12.429 -26.889  1.00  0.00    -0.000 C 
BRANCH  25  26
ATOM     26  C   UNL     1     -15.426 -13.647 -26.514  1.00  0.00    -0.000 C 
BRANCH  26  27
ATOM     27  C   UNL     1     -14.236 -13.872 -27.465  1.00  0.00    -0.000 C 
BRANCH  27  28
ATOM     28  C   UNL     1     -12.877 -13.618 -26.796  1.00  0.00    -0.000 C 
BRANCH  28  29
ATOM     29  C   UNL     1     -12.942 -12.513 -25.730  1.00  0.00    -0.003 C 
ATOM     30  C   UNL     1     -13.040 -13.070 -24.309  1.00  0.00     0.004 C 
ENDBRANCH  28  29
ENDBRANCH  27  28
ENDBRANCH  26  27
ENDBRANCH  25  26
ENDBRANCH  24  25
ENDBRANCH  23  24
ENDBRANCH  22  23
ENDBRANCH  21  22
ENDBRANCH  20  21
ENDBRANCH  19  20
ENDBRANCH  18  19
ENDBRANCH  17  18
ENDBRANCH   1  17
TORSDOF 26
ENDMDL
MODEL 9
REMARK VINA RESULT:     0.516      2.435      4.696
REMARK INTER + INTRA:           0.177
REMARK INTER:                   1.404
REMARK INTRA:                  -1.227
REMARK UNBOUND:                -1.124
REMARK SMILES CCCCCCCCCCCCCCCCCCCCCCCCCCCC(=O)[O-]
REMARK SMILES IDX 15 1 16 2 17 3 18 4 19 5 20 6 21 7 22 8 23 9 24 10 25 11
REMARK SMILES IDX 26 12 27 13 28 14 29 15 30 16 14 17 13 18 12 19 11 20 10 21
REMARK SMILES IDX 9 22 8 23 7 24 6 25 5 26 4 27 3 28 2 29 1 30
REMARK H PARENT
REMARK Flexibility Score: inf
ROOT
ATOM      1  C   UNL     1     -17.036  -5.497 -24.678  1.00  0.00     0.000 C 
ENDROOT
BRANCH   1   2
ATOM      2  C   UNL     1     -17.960  -6.099 -25.749  1.00  0.00     0.000 C 
BRANCH   2   3
ATOM      3  C   UNL     1     -17.194  -6.954 -26.775  1.00  0.00     0.000 C 
BRANCH   3   4
ATOM      4  C   UNL     1     -18.094  -7.978 -27.489  1.00  0.00     0.000 C 
BRANCH   4   5
ATOM      5  C   UNL     1     -17.503  -9.396 -27.616  1.00  0.00     0.000 C 
BRANCH   5   6
ATOM      6  C   UNL     1     -18.549 -10.524 -27.500  1.00  0.00     0.000 C 
BRANCH   6   7
ATOM      7  C   UNL     1     -17.946 -11.831 -26.952  1.00  0.00     0.000 C 
BRANCH   7   8
ATOM      8  C   UNL     1     -18.942 -12.634 -26.094  1.00  0.00     0.000 C 
BRANCH   8   9
ATOM      9  C   UNL     1     -18.327 -13.824 -25.334  1.00  0.00     0.000 C 
BRANCH   9  10
ATOM     10  C   UNL     1     -19.020 -14.092 -23.988  1.00  0.00     0.000 C 
BRANCH  10  11
ATOM     11  C   UNL     1     -19.181 -12.798 -23.182  1.00  0.00     0.000 C 
BRANCH  11  12
ATOM     12  C   UNL     1     -17.840 -12.367 -22.568  1.00  0.00     0.006 C 
BRANCH  12  13
ATOM     13  C   UNL     1     -17.160 -13.504 -21.793  1.00  0.00     0.053 C 
BRANCH  13  14
ATOM     14  C   UNL     1     -17.036 -13.184 -20.335  1.00  0.00     0.041 C 
ATOM     15  O   UNL     1     -16.433 -12.143 -19.962  1.00  0.00    -0.550 OA
ATOM     16  O   UNL     1     -17.563 -14.055 -19.388  1.00  0.00    -0.550 OA
ENDBRANCH  13  14
ENDBRANCH  12  13
ENDBRANCH  11  12
ENDBRANCH  10  11
ENDBRANCH   9  10
ENDBRANCH   8   9
ENDBRANCH   7   8
ENDBRANCH   6   7
ENDBRANCH   5   6
ENDBRANCH   4   5
ENDBRANCH   3   4
ENDBRANCH   2   3
ENDBRANCH   1   2
BRANCH   1  17
ATOM     17  C   UNL     1     -17.810  -4.718 -23.605  1.00  0.00     0.000 C 
BRANCH  17  18
ATOM     18  C   UNL     1     -17.797  -5.466 -22.262  1.00  0.00     0.000 C 
BRANCH  18  19
ATOM     19  C   UNL     1     -16.829  -4.837 -21.249  1.00  0.00     0.000 C 
BRANCH  19  20
ATOM     20  C   UNL     1     -15.962  -5.886 -20.528  1.00  0.00     0.000 C 
BRANCH  20  21
ATOM     21  C   UNL     1     -14.863  -5.248 -19.663  1.00  0.00     0.000 C 
BRANCH  21  22
ATOM     22  C   UNL     1     -14.099  -6.290 -18.828  1.00  0.00    -0.000 C 
BRANCH  22  23
ATOM     23  C   UNL     1     -14.088  -5.952 -17.329  1.00  0.00    -0.000 C 
BRANCH  23  24
ATOM     24  C   UNL     1     -14.505  -4.496 -17.025  1.00  0.00    -0.000 C 
BRANCH  24  25
ATOM     25  C   UNL     1     -14.471  -4.188 -15.517  1.00  0.00    -0.000 C 
BRANCH  25  26
ATOM     26  C   UNL     1     -14.137  -2.708 -15.230  1.00  0.00    -0.000 C 
BRANCH  26  27
ATOM     27  C   UNL     1     -13.305  -2.498 -13.952  1.00  0.00    -0.000 C 
BRANCH  27  28
ATOM     28  C   UNL     1     -13.575  -3.564 -12.878  1.00  0.00    -0.000 C 
BRANCH  28  29
ATOM     29  C   UNL     1     -13.027  -3.165 -11.500  1.00  0.00    -0.003 C 
ATOM     30  C   UNL     1     -13.812  -3.792 -10.348  1.00  0.00     0.004 C 
ENDBRANCH  28  29
ENDBRANCH  27  28
ENDBRANCH  26  27
ENDBRANCH  25  26
ENDBRANCH  24  25
ENDBRANCH  23  24
ENDBRANCH  22  23
ENDBRANCH  21  22
ENDBRANCH  20  21
ENDBRANCH  19  20
ENDBRANCH  18  19
ENDBRANCH  17  18
ENDBRANCH   1  17
TORSDOF 26
ENDMDL
