MODEL 1
REMARK VINA RESULT:    -3.337      0.000      0.000
REMARK INTER + INTRA:         -11.738
REMARK INTER:                  -8.799
REMARK INTRA:                  -2.939
REMARK UNBOUND:                -2.939
REMARK SMILES CCCCCCCCCCCCCCCCCCCCCCCCCCCCCC(=O)[O-]
REMARK SMILES IDX 16 1 17 2 18 3 19 4 20 5 21 6 22 7 23 8 24 9 25 10 26 11
REMARK SMILES IDX 27 12 28 13 29 14 30 15 31 16 32 17 15 18 14 19 13 20 12 21
REMARK SMILES IDX 11 22 10 23 9 24 8 25 7 26 6 27 5 28 4 29 3 30 2 31 1 32
REMARK H PARENT
REMARK Flexibility Score: inf
ROOT
ATOM      1  C   UNL     1      21.714  12.967  18.957  1.00  0.00     0.000 C 
ENDROOT
BRANCH   1   2
ATOM      2  C   UNL     1      21.391  13.091  17.454  1.00  0.00     0.000 C 
BRANCH   2   3
ATOM      3  C   UNL     1      20.196  12.248  16.964  1.00  0.00     0.000 C 
BRANCH   3   4
ATOM      4  C   UNL     1      20.260  10.756  17.335  1.00  0.00     0.000 C 
BRANCH   4   5
ATOM      5  C   UNL     1      19.222  10.358  18.397  1.00  0.00     0.000 C 
BRANCH   5   6
ATOM      6  C   UNL     1      18.084   9.536  17.767  1.00  0.00     0.000 C 
BRANCH   6   7
ATOM      7  C   UNL     1      18.314   9.247  16.276  1.00  0.00     0.000 C 
BRANCH   7   8
ATOM      8  C   UNL     1      18.350   7.742  15.963  1.00  0.00     0.000 C 
BRANCH   8   9
ATOM      9  C   UNL     1      19.576   7.046  16.576  1.00  0.00     0.000 C 
BRANCH   9  10
ATOM     10  C   UNL     1      20.812   7.098  15.658  1.00  0.00     0.000 C 
BRANCH  10  11
ATOM     11  C   UNL     1      22.113   6.754  16.402  1.00  0.00     0.000 C 
BRANCH  11  12
ATOM     12  C   UNL     1      22.724   7.974  17.112  1.00  0.00     0.000 C 
BRANCH  12  13
ATOM     13  C   UNL     1      24.253   7.879  17.244  1.00  0.00     0.006 C 
BRANCH  13  14
ATOM     14  C   UNL     1      24.702   7.593  18.684  1.00  0.00     0.053 C 
BRANCH  14  15
ATOM     15  C   UNL     1      26.190   7.705  18.799  1.00  0.00     0.041 C 
ATOM     16  O   UNL     1      26.900   6.668  18.885  1.00  0.00    -0.550 OA
ATOM     17  O   UNL     1      26.787   8.956  18.866  1.00  0.00    -0.550 OA
ENDBRANCH  14  15
ENDBRANCH  13  14
ENDBRANCH  12  13
ENDBRANCH  11  12
ENDBRANCH  10  11
ENDBRANCH   9  10
ENDBRANCH   8   9
ENDBRANCH   7   8
ENDBRANCH   6   7
ENDBRANCH   5   6
ENDBRANCH   4   5
ENDBRANCH   3   4
ENDBRANCH   2   3
ENDBRANCH   1   2
BRANCH   1  18
ATOM     18  C   UNL     1      20.988  13.973  19.874  1.00  0.00     0.000 C 
BRANCH  18  19
ATOM     19  C   UNL     1      19.627  13.495  20.408  1.00  0.00     0.000 C 
BRANCH  19  20
ATOM     20  C   UNL     1      18.438  14.130  19.665  1.00  0.00     0.000 C 
BRANCH  20  21
ATOM     21  C   UNL     1      18.750  15.558  19.181  1.00  0.00     0.000 C 
BRANCH  21  22
ATOM     22  C   UNL     1      18.070  16.679  19.997  1.00  0.00     0.000 C 
BRANCH  22  23
ATOM     23  C   UNL     1      19.011  17.488  20.915  1.00  0.00     0.000 C 
BRANCH  23  24
ATOM     24  C   UNL     1      20.414  17.750  20.334  1.00  0.00    -0.000 C 
BRANCH  24  25
ATOM     25  C   UNL     1      20.959  19.139  20.713  1.00  0.00    -0.000 C 
BRANCH  25  26
ATOM     26  C   UNL     1      21.041  20.082  19.500  1.00  0.00    -0.000 C 
BRANCH  26  27
ATOM     27  C   UNL     1      22.395  20.811  19.423  1.00  0.00    -0.000 C 
BRANCH  27  28
ATOM     28  C   UNL     1      22.376  22.184  20.121  1.00  0.00    -0.000 C 
BRANCH  28  29
ATOM     29  C   UNL     1      23.027  23.306  19.284  1.00  0.00    -0.000 C 
BRANCH  29  30
ATOM     30  C   UNL     1      21.979  24.207  18.606  1.00  0.00    -0.000 C 
BRANCH  30  31
ATOM     31  C   UNL     1      20.630  24.200  19.337  1.00  0.00    -0.003 C 
ATOM     32  C   UNL     1      19.504  23.598  18.497  1.00  0.00     0.004 C 
ENDBRANCH  30  31
ENDBRANCH  29  30
ENDBRANCH  28  29
ENDBRANCH  27  28
ENDBRANCH  26  27
ENDBRANCH  25  26
ENDBRANCH  24  25
ENDBRANCH  23  24
ENDBRANCH  22  23
ENDBRANCH  21  22
ENDBRANCH  20  21
ENDBRANCH  19  20
ENDBRANCH  18  19
ENDBRANCH   1  18
TORSDOF 28
ENDMDL
MODEL 2
REMARK VINA RESULT:    -3.236      3.644     11.534
REMARK INTER + INTRA:         -11.472
REMARK INTER:                  -7.639
REMARK INTRA:                  -3.834
REMARK UNBOUND:                -2.939
REMARK SMILES CCCCCCCCCCCCCCCCCCCCCCCCCCCCCC(=O)[O-]
REMARK SMILES IDX 16 1 17 2 18 3 19 4 20 5 21 6 22 7 23 8 24 9 25 10 26 11
REMARK SMILES IDX 27 12 28 13 29 14 30 15 31 16 32 17 15 18 14 19 13 20 12 21
REMARK SMILES IDX 11 22 10 23 9 24 8 25 7 26 6 27 5 28 4 29 3 30 2 31 1 32
REMARK H PARENT
REMARK Flexibility Score: inf
ROOT
ATOM      1  C   UNL     1      21.417  10.024  19.013  1.00  0.00     0.000 C 
ENDROOT
BRANCH   1   2
ATOM      2  C   UNL     1      21.631  10.261  17.503  1.00  0.00     0.000 C 
BRANCH   2   3
ATOM      3  C   UNL     1      21.237  11.662  16.992  1.00  0.00     0.000 C 
BRANCH   3   4
ATOM      4  C   UNL     1      20.596  12.580  18.048  1.00  0.00     0.000 C 
BRANCH   4   5
ATOM      5  C   UNL     1      19.060  12.518  18.041  1.00  0.00     0.000 C 
BRANCH   5   6
ATOM      6  C   UNL     1      18.492  12.884  19.424  1.00  0.00     0.000 C 
BRANCH   6   7
ATOM      7  C   UNL     1      19.588  13.077  20.484  1.00  0.00     0.000 C 
BRANCH   7   8
ATOM      8  C   UNL     1      19.576  14.488  21.096  1.00  0.00     0.000 C 
BRANCH   8   9
ATOM      9  C   UNL     1      19.278  15.578  20.052  1.00  0.00     0.000 C 
BRANCH   9  10
ATOM     10  C   UNL     1      18.589  16.813  20.661  1.00  0.00     0.000 C 
BRANCH  10  11
ATOM     11  C   UNL     1      19.595  17.884  21.117  1.00  0.00     0.000 C 
BRANCH  11  12
ATOM     12  C   UNL     1      19.067  19.314  20.908  1.00  0.00     0.000 C 
BRANCH  12  13
ATOM     13  C   UNL     1      19.988  20.161  20.014  1.00  0.00     0.006 C 
BRANCH  13  14
ATOM     14  C   UNL     1      21.382  19.541  19.853  1.00  0.00     0.053 C 
BRANCH  14  15
ATOM     15  C   UNL     1      22.230  20.390  18.959  1.00  0.00     0.041 C 
ATOM     16  O   UNL     1      22.721  19.909  17.903  1.00  0.00    -0.550 OA
ATOM     17  O   UNL     1      22.523  21.698  19.319  1.00  0.00    -0.550 OA
ENDBRANCH  14  15
ENDBRANCH  13  14
ENDBRANCH  12  13
ENDBRANCH  11  12
ENDBRANCH  10  11
ENDBRANCH   9  10
ENDBRANCH   8   9
ENDBRANCH   7   8
ENDBRANCH   6   7
ENDBRANCH   5   6
ENDBRANCH   4   5
ENDBRANCH   3   4
ENDBRANCH   2   3
ENDBRANCH   1   2
BRANCH   1  18
ATOM     18  C   UNL     1      22.639   9.467  19.773  1.00  0.00     0.000 C 
BRANCH  18  19
ATOM     19  C   UNL     1      22.576   7.960  20.079  1.00  0.00     0.000 C 
BRANCH  19  20
ATOM     20  C   UNL     1      23.779   7.186  19.514  1.00  0.00     0.000 C 
BRANCH  20  21
ATOM     21  C   UNL     1      25.013   8.087  19.321  1.00  0.00     0.000 C 
BRANCH  21  22
ATOM     22  C   UNL     1      25.720   7.932  17.957  1.00  0.00     0.000 C 
BRANCH  22  23
ATOM     23  C   UNL     1      24.781   7.864  16.734  1.00  0.00     0.000 C 
BRANCH  23  24
ATOM     24  C   UNL     1      25.167   6.808  15.681  1.00  0.00    -0.000 C 
BRANCH  24  25
ATOM     25  C   UNL     1      23.982   5.909  15.286  1.00  0.00    -0.000 C 
BRANCH  25  26
ATOM     26  C   UNL     1      23.428   5.117  16.482  1.00  0.00    -0.000 C 
BRANCH  26  27
ATOM     27  C   UNL     1      21.889   5.146  16.535  1.00  0.00    -0.000 C 
BRANCH  27  28
ATOM     28  C   UNL     1      21.327   6.552  16.814  1.00  0.00    -0.000 C 
BRANCH  28  29
ATOM     29  C   UNL     1      20.576   7.161  15.611  1.00  0.00    -0.000 C 
BRANCH  29  30
ATOM     30  C   UNL     1      19.048   7.107  15.794  1.00  0.00    -0.000 C 
BRANCH  30  31
ATOM     31  C   UNL     1      18.539   8.121  16.828  1.00  0.00    -0.003 C 
ATOM     32  C   UNL     1      18.264   9.497  16.223  1.00  0.00     0.004 C 
ENDBRANCH  30  31
ENDBRANCH  29  30
ENDBRANCH  28  29
ENDBRANCH  27  28
ENDBRANCH  26  27
ENDBRANCH  25  26
ENDBRANCH  24  25
ENDBRANCH  23  24
ENDBRANCH  22  23
ENDBRANCH  21  22
ENDBRANCH  20  21
ENDBRANCH  19  20
ENDBRANCH  18  19
ENDBRANCH   1  18
TORSDOF 28
ENDMDL
MODEL 3
REMARK VINA RESULT:    -3.211      4.395     11.898
REMARK INTER + INTRA:         -11.407
REMARK INTER:                  -8.277
REMARK INTRA:                  -3.130
REMARK UNBOUND:                -2.939
REMARK SMILES CCCCCCCCCCCCCCCCCCCCCCCCCCCCCC(=O)[O-]
REMARK SMILES IDX 16 1 17 2 18 3 19 4 20 5 21 6 22 7 23 8 24 9 25 10 26 11
REMARK SMILES IDX 27 12 28 13 29 14 30 15 31 16 32 17 15 18 14 19 13 20 12 21
REMARK SMILES IDX 11 22 10 23 9 24 8 25 7 26 6 27 5 28 4 29 3 30 2 31 1 32
REMARK H PARENT
REMARK Flexibility Score: inf
ROOT
ATOM      1  C   UNL     1      18.251  10.210  16.329  1.00  0.00     0.000 C 
ENDROOT
BRANCH   1   2
ATOM      2  C   UNL     1      18.331  11.708  16.693  1.00  0.00     0.000 C 
BRANCH   2   3
ATOM      3  C   UNL     1      19.604  12.134  17.453  1.00  0.00     0.000 C 
BRANCH   3   4
ATOM      4  C   UNL     1      19.350  12.867  18.783  1.00  0.00     0.000 C 
BRANCH   4   5
ATOM      5  C   UNL     1      18.017  13.630  18.800  1.00  0.00     0.000 C 
BRANCH   5   6
ATOM      6  C   UNL     1      18.243  15.118  19.123  1.00  0.00     0.000 C 
BRANCH   6   7
ATOM      7  C   UNL     1      19.728  15.468  19.303  1.00  0.00     0.000 C 
BRANCH   7   8
ATOM      8  C   UNL     1      20.048  15.978  20.718  1.00  0.00     0.000 C 
BRANCH   8   9
ATOM      9  C   UNL     1      20.717  17.363  20.704  1.00  0.00     0.000 C 
BRANCH   9  10
ATOM     10  C   UNL     1      19.702  18.513  20.574  1.00  0.00     0.000 C 
BRANCH  10  11
ATOM     11  C   UNL     1      20.341  19.805  20.039  1.00  0.00     0.000 C 
BRANCH  11  12
ATOM     12  C   UNL     1      21.715  19.557  19.392  1.00  0.00     0.000 C 
BRANCH  12  13
ATOM     13  C   UNL     1      22.326  20.833  18.789  1.00  0.00     0.006 C 
BRANCH  13  14
ATOM     14  C   UNL     1      22.143  22.057  19.697  1.00  0.00     0.053 C 
BRANCH  14  15
ATOM     15  C   UNL     1      21.624  23.218  18.909  1.00  0.00     0.041 C 
ATOM     16  O   UNL     1      20.415  23.258  18.557  1.00  0.00    -0.550 OA
ATOM     17  O   UNL     1      22.488  24.232  18.517  1.00  0.00    -0.550 OA
ENDBRANCH  14  15
ENDBRANCH  13  14
ENDBRANCH  12  13
ENDBRANCH  11  12
ENDBRANCH  10  11
ENDBRANCH   9  10
ENDBRANCH   8   9
ENDBRANCH   7   8
ENDBRANCH   6   7
ENDBRANCH   5   6
ENDBRANCH   4   5
ENDBRANCH   3   4
ENDBRANCH   2   3
ENDBRANCH   1   2
BRANCH   1  18
ATOM     18  C   UNL     1      18.041   9.252  17.520  1.00  0.00     0.000 C 
BRANCH  18  19
ATOM     19  C   UNL     1      18.664   7.856  17.343  1.00  0.00     0.000 C 
BRANCH  19  20
ATOM     20  C   UNL     1      19.166   7.604  15.911  1.00  0.00     0.000 C 
BRANCH  20  21
ATOM     21  C   UNL     1      20.697   7.447  15.850  1.00  0.00     0.000 C 
BRANCH  21  22
ATOM     22  C   UNL     1      21.240   6.155  16.499  1.00  0.00     0.000 C 
BRANCH  22  23
ATOM     23  C   UNL     1      22.354   5.439  15.707  1.00  0.00     0.000 C 
BRANCH  23  24
ATOM     24  C   UNL     1      23.729   5.413  16.402  1.00  0.00    -0.000 C 
BRANCH  24  25
ATOM     25  C   UNL     1      24.685   6.489  15.858  1.00  0.00    -0.000 C 
BRANCH  25  26
ATOM     26  C   UNL     1      25.797   6.842  16.861  1.00  0.00    -0.000 C 
BRANCH  26  27
ATOM     27  C   UNL     1      25.337   6.671  18.321  1.00  0.00    -0.000 C 
BRANCH  27  28
ATOM     28  C   UNL     1      25.657   7.898  19.195  1.00  0.00    -0.000 C 
BRANCH  28  29
ATOM     29  C   UNL     1      24.398   8.632  19.704  1.00  0.00    -0.000 C 
BRANCH  29  30
ATOM     30  C   UNL     1      23.207   8.479  18.739  1.00  0.00    -0.000 C 
BRANCH  30  31
ATOM     31  C   UNL     1      21.884   8.216  19.470  1.00  0.00    -0.003 C 
ATOM     32  C   UNL     1      21.060   9.486  19.679  1.00  0.00     0.004 C 
ENDBRANCH  30  31
ENDBRANCH  29  30
ENDBRANCH  28  29
ENDBRANCH  27  28
ENDBRANCH  26  27
ENDBRANCH  25  26
ENDBRANCH  24  25
ENDBRANCH  23  24
ENDBRANCH  22  23
ENDBRANCH  21  22
ENDBRANCH  20  21
ENDBRANCH  19  20
ENDBRANCH  18  19
ENDBRANCH   1  18
TORSDOF 28
ENDMDL
MODEL 4
REMARK VINA RESULT:    -3.201      4.517     12.562
REMARK INTER + INTRA:         -11.378
REMARK INTER:                  -8.154
REMARK INTRA:                  -3.224
REMARK UNBOUND:                -2.939
REMARK SMILES CCCCCCCCCCCCCCCCCCCCCCCCCCCCCC(=O)[O-]
REMARK SMILES IDX 16 1 17 2 18 3 19 4 20 5 21 6 22 7 23 8 24 9 25 10 26 11
REMARK SMILES IDX 27 12 28 13 29 14 30 15 31 16 32 17 15 18 14 19 13 20 12 21
REMARK SMILES IDX 11 22 10 23 9 24 8 25 7 26 6 27 5 28 4 29 3 30 2 31 1 32
REMARK H PARENT
REMARK Flexibility Score: inf
ROOT
ATOM      1  C   UNL     1      19.543  12.052  17.278  1.00  0.00     0.000 C 
ENDROOT
BRANCH   1   2
ATOM      2  C   UNL     1      19.482  12.670  18.690  1.00  0.00     0.000 C 
BRANCH   2   3
ATOM      3  C   UNL     1      20.796  12.607  19.496  1.00  0.00     0.000 C 
BRANCH   3   4
ATOM      4  C   UNL     1      21.236  13.942  20.123  1.00  0.00     0.000 C 
BRANCH   4   5
ATOM      5  C   UNL     1      20.058  14.766  20.666  1.00  0.00     0.000 C 
BRANCH   5   6
ATOM      6  C   UNL     1      19.994  16.144  19.984  1.00  0.00     0.000 C 
BRANCH   6   7
ATOM      7  C   UNL     1      20.758  17.227  20.761  1.00  0.00     0.000 C 
BRANCH   7   8
ATOM      8  C   UNL     1      20.051  18.592  20.724  1.00  0.00     0.000 C 
BRANCH   8   9
ATOM      9  C   UNL     1      21.045  19.765  20.660  1.00  0.00     0.000 C 
BRANCH   9  10
ATOM     10  C   UNL     1      21.513  20.071  19.225  1.00  0.00     0.000 C 
BRANCH  10  11
ATOM     11  C   UNL     1      22.732  21.008  19.191  1.00  0.00     0.000 C 
BRANCH  11  12
ATOM     12  C   UNL     1      22.710  22.043  20.328  1.00  0.00     0.000 C 
BRANCH  12  13
ATOM     13  C   UNL     1      22.440  23.471  19.825  1.00  0.00     0.006 C 
BRANCH  13  14
ATOM     14  C   UNL     1      21.738  23.491  18.462  1.00  0.00     0.053 C 
BRANCH  14  15
ATOM     15  C   UNL     1      20.277  23.770  18.631  1.00  0.00     0.041 C 
ATOM     16  O   UNL     1      19.621  24.308  17.700  1.00  0.00    -0.550 OA
ATOM     17  O   UNL     1      19.653  23.485  19.838  1.00  0.00    -0.550 OA
ENDBRANCH  14  15
ENDBRANCH  13  14
ENDBRANCH  12  13
ENDBRANCH  11  12
ENDBRANCH  10  11
ENDBRANCH   9  10
ENDBRANCH   8   9
ENDBRANCH   7   8
ENDBRANCH   6   7
ENDBRANCH   5   6
ENDBRANCH   4   5
ENDBRANCH   3   4
ENDBRANCH   2   3
ENDBRANCH   1   2
BRANCH   1  18
ATOM     18  C   UNL     1      18.527  10.923  17.007  1.00  0.00     0.000 C 
BRANCH  18  19
ATOM     19  C   UNL     1      19.132   9.510  16.944  1.00  0.00     0.000 C 
BRANCH  19  20
ATOM     20  C   UNL     1      19.969   9.164  18.188  1.00  0.00     0.000 C 
BRANCH  20  21
ATOM     21  C   UNL     1      21.480   9.157  17.891  1.00  0.00     0.000 C 
BRANCH  21  22
ATOM     22  C   UNL     1      22.384   9.291  19.135  1.00  0.00     0.000 C 
BRANCH  22  23
ATOM     23  C   UNL     1      22.598   7.990  19.936  1.00  0.00     0.000 C 
BRANCH  23  24
ATOM     24  C   UNL     1      24.067   7.547  20.071  1.00  0.00    -0.000 C 
BRANCH  24  25
ATOM     25  C   UNL     1      25.056   8.652  19.660  1.00  0.00    -0.000 C 
BRANCH  25  26
ATOM     26  C   UNL     1      26.334   8.082  19.020  1.00  0.00    -0.000 C 
BRANCH  26  27
ATOM     27  C   UNL     1      26.024   7.170  17.819  1.00  0.00    -0.000 C 
BRANCH  27  28
ATOM     28  C   UNL     1      25.106   7.841  16.780  1.00  0.00    -0.000 C 
BRANCH  28  29
ATOM     29  C   UNL     1      23.956   6.930  16.301  1.00  0.00    -0.000 C 
BRANCH  29  30
ATOM     30  C   UNL     1      23.973   5.558  16.999  1.00  0.00    -0.000 C 
BRANCH  30  31
ATOM     31  C   UNL     1      22.575   5.096  17.433  1.00  0.00    -0.003 C 
ATOM     32  C   UNL     1      21.456   5.783  16.652  1.00  0.00     0.004 C 
ENDBRANCH  30  31
ENDBRANCH  29  30
ENDBRANCH  28  29
ENDBRANCH  27  28
ENDBRANCH  26  27
ENDBRANCH  25  26
ENDBRANCH  24  25
ENDBRANCH  23  24
ENDBRANCH  22  23
ENDBRANCH  21  22
ENDBRANCH  20  21
ENDBRANCH  19  20
ENDBRANCH  18  19
ENDBRANCH   1  18
TORSDOF 28
ENDMDL
MODEL 5
REMARK VINA RESULT:    -3.158      1.858      3.329
REMARK INTER + INTRA:         -11.265
REMARK INTER:                  -8.415
REMARK INTRA:                  -2.850
REMARK UNBOUND:                -2.939
REMARK SMILES CCCCCCCCCCCCCCCCCCCCCCCCCCCCCC(=O)[O-]
REMARK SMILES IDX 16 1 17 2 18 3 19 4 20 5 21 6 22 7 23 8 24 9 25 10 26 11
REMARK SMILES IDX 27 12 28 13 29 14 30 15 31 16 32 17 15 18 14 19 13 20 12 21
REMARK SMILES IDX 11 22 10 23 9 24 8 25 7 26 6 27 5 28 4 29 3 30 2 31 1 32
REMARK H PARENT
REMARK Flexibility Score: inf
ROOT
ATOM      1  C   UNL     1      21.212  11.948  16.995  1.00  0.00     0.000 C 
ENDROOT
BRANCH   1   2
ATOM      2  C   UNL     1      19.920  11.130  17.199  1.00  0.00     0.000 C 
BRANCH   2   3
ATOM      3  C   UNL     1      20.096   9.598  17.164  1.00  0.00     0.000 C 
BRANCH   3   4
ATOM      4  C   UNL     1      20.436   8.953  18.520  1.00  0.00     0.000 C 
BRANCH   4   5
ATOM      5  C   UNL     1      19.917   9.766  19.716  1.00  0.00     0.000 C 
BRANCH   5   6
ATOM      6  C   UNL     1      20.924   9.734  20.878  1.00  0.00     0.000 C 
BRANCH   6   7
ATOM      7  C   UNL     1      21.811  10.988  20.931  1.00  0.00     0.000 C 
BRANCH   7   8
ATOM      8  C   UNL     1      23.309  10.658  20.826  1.00  0.00     0.000 C 
BRANCH   8   9
ATOM      9  C   UNL     1      23.564   9.161  20.580  1.00  0.00     0.000 C 
BRANCH   9  10
ATOM     10  C   UNL     1      24.821   8.903  19.729  1.00  0.00     0.000 C 
BRANCH  10  11
ATOM     11  C   UNL     1      25.797   7.923  20.402  1.00  0.00     0.000 C 
BRANCH  11  12
ATOM     12  C   UNL     1      26.652   7.151  19.383  1.00  0.00     0.000 C 
BRANCH  12  13
ATOM     13  C   UNL     1      25.802   6.392  18.350  1.00  0.00     0.006 C 
BRANCH  13  14
ATOM     14  C   UNL     1      26.088   6.841  16.911  1.00  0.00     0.053 C 
BRANCH  14  15
ATOM     15  C   UNL     1      24.815   6.926  16.128  1.00  0.00     0.041 C 
ATOM     16  O   UNL     1      24.741   6.419  14.978  1.00  0.00    -0.550 OA
ATOM     17  O   UNL     1      23.726   7.611  16.649  1.00  0.00    -0.550 OA
ENDBRANCH  14  15
ENDBRANCH  13  14
ENDBRANCH  12  13
ENDBRANCH  11  12
ENDBRANCH  10  11
ENDBRANCH   9  10
ENDBRANCH   8   9
ENDBRANCH   7   8
ENDBRANCH   6   7
ENDBRANCH   5   6
ENDBRANCH   4   5
ENDBRANCH   3   4
ENDBRANCH   2   3
ENDBRANCH   1   2
BRANCH   1  18
ATOM     18  C   UNL     1      21.444  13.081  18.016  1.00  0.00     0.000 C 
BRANCH  18  19
ATOM     19  C   UNL     1      20.169  13.603  18.702  1.00  0.00     0.000 C 
BRANCH  19  20
ATOM     20  C   UNL     1      20.469  14.490  19.923  1.00  0.00     0.000 C 
BRANCH  20  21
ATOM     21  C   UNL     1      19.468  15.653  20.058  1.00  0.00     0.000 C 
BRANCH  21  22
ATOM     22  C   UNL     1      20.004  16.881  20.824  1.00  0.00     0.000 C 
BRANCH  22  23
ATOM     23  C   UNL     1      19.309  18.218  20.493  1.00  0.00     0.000 C 
BRANCH  23  24
ATOM     24  C   UNL     1      20.001  19.468  21.069  1.00  0.00    -0.000 C 
BRANCH  24  25
ATOM     25  C   UNL     1      20.608  20.362  19.974  1.00  0.00    -0.000 C 
BRANCH  25  26
ATOM     26  C   UNL     1      22.095  20.668  20.228  1.00  0.00    -0.000 C 
BRANCH  26  27
ATOM     27  C   UNL     1      22.676  21.634  19.181  1.00  0.00    -0.000 C 
BRANCH  27  28
ATOM     28  C   UNL     1      22.851  23.066  19.721  1.00  0.00    -0.000 C 
BRANCH  28  29
ATOM     29  C   UNL     1      22.173  24.139  18.843  1.00  0.00    -0.000 C 
BRANCH  29  30
ATOM     30  C   UNL     1      20.966  23.576  18.068  1.00  0.00    -0.000 C 
BRANCH  30  31
ATOM     31  C   UNL     1      19.676  24.366  18.326  1.00  0.00    -0.003 C 
ATOM     32  C   UNL     1      19.223  24.301  19.784  1.00  0.00     0.004 C 
ENDBRANCH  30  31
ENDBRANCH  29  30
ENDBRANCH  28  29
ENDBRANCH  27  28
ENDBRANCH  26  27
ENDBRANCH  25  26
ENDBRANCH  24  25
ENDBRANCH  23  24
ENDBRANCH  22  23
ENDBRANCH  21  22
ENDBRANCH  20  21
ENDBRANCH  19  20
ENDBRANCH  18  19
ENDBRANCH   1  18
TORSDOF 28
ENDMDL
MODEL 6
REMARK VINA RESULT:    -3.140      3.713     10.882
REMARK INTER + INTRA:         -11.217
REMARK INTER:                  -6.927
REMARK INTRA:                  -4.290
REMARK UNBOUND:                -2.939
REMARK SMILES CCCCCCCCCCCCCCCCCCCCCCCCCCCCCC(=O)[O-]
REMARK SMILES IDX 16 1 17 2 18 3 19 4 20 5 21 6 22 7 23 8 24 9 25 10 26 11
REMARK SMILES IDX 27 12 28 13 29 14 30 15 31 16 32 17 15 18 14 19 13 20 12 21
REMARK SMILES IDX 11 22 10 23 9 24 8 25 7 26 6 27 5 28 4 29 3 30 2 31 1 32
REMARK H PARENT
REMARK Flexibility Score: inf
ROOT
ATOM      1  C   UNL     1      21.753  10.442  19.330  1.00  0.00     0.000 C 
ENDROOT
BRANCH   1   2
ATOM      2  C   UNL     1      21.444  10.169  17.842  1.00  0.00     0.000 C 
BRANCH   2   3
ATOM      3  C   UNL     1      21.268  11.426  16.964  1.00  0.00     0.000 C 
BRANCH   3   4
ATOM      4  C   UNL     1      20.233  12.439  17.484  1.00  0.00     0.000 C 
BRANCH   4   5
ATOM      5  C   UNL     1      18.785  11.951  17.325  1.00  0.00     0.000 C 
BRANCH   5   6
ATOM      6  C   UNL     1      18.165  11.621  18.694  1.00  0.00     0.000 C 
BRANCH   6   7
ATOM      7  C   UNL     1      17.923  12.872  19.553  1.00  0.00     0.000 C 
BRANCH   7   8
ATOM      8  C   UNL     1      19.021  13.084  20.610  1.00  0.00     0.000 C 
BRANCH   8   9
ATOM      9  C   UNL     1      19.582  14.516  20.592  1.00  0.00     0.000 C 
BRANCH   9  10
ATOM     10  C   UNL     1      18.989  15.374  19.458  1.00  0.00     0.000 C 
BRANCH  10  11
ATOM     11  C   UNL     1      18.234  16.606  19.986  1.00  0.00     0.000 C 
BRANCH  11  12
ATOM     12  C   UNL     1      19.029  17.367  21.061  1.00  0.00     0.000 C 
BRANCH  12  13
ATOM     13  C   UNL     1      19.568  18.716  20.556  1.00  0.00     0.006 C 
BRANCH  13  14
ATOM     14  C   UNL     1      21.042  18.640  20.136  1.00  0.00     0.053 C 
BRANCH  14  15
ATOM     15  C   UNL     1      21.450  19.896  19.434  1.00  0.00     0.041 C 
ATOM     16  O   UNL     1      22.365  19.872  18.569  1.00  0.00    -0.550 OA
ATOM     17  O   UNL     1      20.856  21.104  19.774  1.00  0.00    -0.550 OA
ENDBRANCH  14  15
ENDBRANCH  13  14
ENDBRANCH  12  13
ENDBRANCH  11  12
ENDBRANCH  10  11
ENDBRANCH   9  10
ENDBRANCH   8   9
ENDBRANCH   7   8
ENDBRANCH   6   7
ENDBRANCH   5   6
ENDBRANCH   4   5
ENDBRANCH   3   4
ENDBRANCH   2   3
ENDBRANCH   1   2
BRANCH   1  18
ATOM     18  C   UNL     1      20.907   9.635  20.337  1.00  0.00     0.000 C 
BRANCH  18  19
ATOM     19  C   UNL     1      21.210   8.127  20.374  1.00  0.00     0.000 C 
BRANCH  19  20
ATOM     20  C   UNL     1      20.068   7.275  19.793  1.00  0.00     0.000 C 
BRANCH  20  21
ATOM     21  C   UNL     1      18.829   8.121  19.446  1.00  0.00     0.000 C 
BRANCH  21  22
ATOM     22  C   UNL     1      18.018   7.612  18.235  1.00  0.00     0.000 C 
BRANCH  22  23
ATOM     23  C   UNL     1      18.385   8.254  16.880  1.00  0.00     0.000 C 
BRANCH  23  24
ATOM     24  C   UNL     1      18.846   7.261  15.797  1.00  0.00    -0.000 C 
BRANCH  24  25
ATOM     25  C   UNL     1      20.290   7.523  15.334  1.00  0.00    -0.000 C 
BRANCH  25  26
ATOM     26  C   UNL     1      21.330   6.982  16.330  1.00  0.00    -0.000 C 
BRANCH  26  27
ATOM     27  C   UNL     1      22.474   6.232  15.626  1.00  0.00    -0.000 C 
BRANCH  27  28
ATOM     28  C   UNL     1      23.791   6.263  16.424  1.00  0.00    -0.000 C 
BRANCH  28  29
ATOM     29  C   UNL     1      24.000   7.576  17.208  1.00  0.00    -0.000 C 
BRANCH  29  30
ATOM     30  C   UNL     1      24.770   7.351  18.522  1.00  0.00    -0.000 C 
BRANCH  30  31
ATOM     31  C   UNL     1      25.967   8.299  18.677  1.00  0.00    -0.003 C 
ATOM     32  C   UNL     1      26.899   7.895  19.820  1.00  0.00     0.004 C 
ENDBRANCH  30  31
ENDBRANCH  29  30
ENDBRANCH  28  29
ENDBRANCH  27  28
ENDBRANCH  26  27
ENDBRANCH  25  26
ENDBRANCH  24  25
ENDBRANCH  23  24
ENDBRANCH  22  23
ENDBRANCH  21  22
ENDBRANCH  20  21
ENDBRANCH  19  20
ENDBRANCH  18  19
ENDBRANCH   1  18
TORSDOF 28
ENDMDL
MODEL 7
REMARK VINA RESULT:    -3.053      1.917      2.547
REMARK INTER + INTRA:         -10.989
REMARK INTER:                  -7.932
REMARK INTRA:                  -3.057
REMARK UNBOUND:                -2.939
REMARK SMILES CCCCCCCCCCCCCCCCCCCCCCCCCCCCCC(=O)[O-]
REMARK SMILES IDX 16 1 17 2 18 3 19 4 20 5 21 6 22 7 23 8 24 9 25 10 26 11
REMARK SMILES IDX 27 12 28 13 29 14 30 15 31 16 32 17 15 18 14 19 13 20 12 21
REMARK SMILES IDX 11 22 10 23 9 24 8 25 7 26 6 27 5 28 4 29 3 30 2 31 1 32
REMARK H PARENT
REMARK Flexibility Score: inf
ROOT
ATOM      1  C   UNL     1      21.355  10.970  18.834  1.00  0.00     0.000 C 
ENDROOT
BRANCH   1   2
ATOM      2  C   UNL     1      20.434  10.050  19.663  1.00  0.00     0.000 C 
BRANCH   2   3
ATOM      3  C   UNL     1      18.931  10.389  19.597  1.00  0.00     0.000 C 
BRANCH   3   4
ATOM      4  C   UNL     1      18.354  10.504  18.175  1.00  0.00     0.000 C 
BRANCH   4   5
ATOM      5  C   UNL     1      18.199   9.143  17.480  1.00  0.00     0.000 C 
BRANCH   5   6
ATOM      6  C   UNL     1      19.119   9.047  16.251  1.00  0.00     0.000 C 
BRANCH   6   7
ATOM      7  C   UNL     1      19.523   7.602  15.921  1.00  0.00     0.000 C 
BRANCH   7   8
ATOM      8  C   UNL     1      18.865   6.576  16.859  1.00  0.00     0.000 C 
BRANCH   8   9
ATOM      9  C   UNL     1      19.899   5.750  17.642  1.00  0.00     0.000 C 
BRANCH   9  10
ATOM     10  C   UNL     1      20.696   6.597  18.652  1.00  0.00     0.000 C 
BRANCH  10  11
ATOM     11  C   UNL     1      22.150   6.120  18.802  1.00  0.00     0.000 C 
BRANCH  11  12
ATOM     12  C   UNL     1      23.159   7.107  18.188  1.00  0.00     0.000 C 
BRANCH  12  13
ATOM     13  C   UNL     1      24.116   6.433  17.191  1.00  0.00     0.006 C 
BRANCH  13  14
ATOM     14  C   UNL     1      23.379   5.548  16.177  1.00  0.00     0.053 C 
BRANCH  14  15
ATOM     15  C   UNL     1      23.986   5.697  14.817  1.00  0.00     0.041 C 
ATOM     16  O   UNL     1      23.402   5.226  13.805  1.00  0.00    -0.550 OA
ATOM     17  O   UNL     1      25.225   6.308  14.674  1.00  0.00    -0.550 OA
ENDBRANCH  14  15
ENDBRANCH  13  14
ENDBRANCH  12  13
ENDBRANCH  11  12
ENDBRANCH  10  11
ENDBRANCH   9  10
ENDBRANCH   8   9
ENDBRANCH   7   8
ENDBRANCH   6   7
ENDBRANCH   5   6
ENDBRANCH   4   5
ENDBRANCH   3   4
ENDBRANCH   2   3
ENDBRANCH   1   2
BRANCH   1  18
ATOM     18  C   UNL     1      21.335  12.459  19.236  1.00  0.00     0.000 C 
BRANCH  18  19
ATOM     19  C   UNL     1      20.645  13.391  18.226  1.00  0.00     0.000 C 
BRANCH  19  20
ATOM     20  C   UNL     1      19.976  14.605  18.893  1.00  0.00     0.000 C 
BRANCH  20  21
ATOM     21  C   UNL     1      20.525  14.867  20.309  1.00  0.00     0.000 C 
BRANCH  21  22
ATOM     22  C   UNL     1      19.817  16.004  21.076  1.00  0.00     0.000 C 
BRANCH  22  23
ATOM     23  C   UNL     1      20.351  17.423  20.789  1.00  0.00     0.000 C 
BRANCH  23  24
ATOM     24  C   UNL     1      19.265  18.483  20.528  1.00  0.00    -0.000 C 
BRANCH  24  25
ATOM     25  C   UNL     1      19.835  19.911  20.475  1.00  0.00    -0.000 C 
BRANCH  25  26
ATOM     26  C   UNL     1      21.163  19.981  19.702  1.00  0.00    -0.000 C 
BRANCH  26  27
ATOM     27  C   UNL     1      22.151  20.979  20.332  1.00  0.00    -0.000 C 
BRANCH  27  28
ATOM     28  C   UNL     1      22.831  21.886  19.290  1.00  0.00    -0.000 C 
BRANCH  28  29
ATOM     29  C   UNL     1      22.737  23.388  19.629  1.00  0.00    -0.000 C 
BRANCH  29  30
ATOM     30  C   UNL     1      21.989  24.182  18.542  1.00  0.00    -0.000 C 
BRANCH  30  31
ATOM     31  C   UNL     1      20.592  23.618  18.251  1.00  0.00    -0.003 C 
ATOM     32  C   UNL     1      19.653  23.713  19.452  1.00  0.00     0.004 C 
ENDBRANCH  30  31
ENDBRANCH  29  30
ENDBRANCH  28  29
ENDBRANCH  27  28
ENDBRANCH  26  27
ENDBRANCH  25  26
ENDBRANCH  24  25
ENDBRANCH  23  24
ENDBRANCH  22  23
ENDBRANCH  21  22
ENDBRANCH  20  21
ENDBRANCH  19  20
ENDBRANCH  18  19
ENDBRANCH   1  18
TORSDOF 28
ENDMDL
MODEL 8
REMARK VINA RESULT:    -2.998      1.350      2.110
REMARK INTER + INTRA:         -10.843
REMARK INTER:                  -8.160
REMARK INTRA:                  -2.683
REMARK UNBOUND:                -2.939
REMARK SMILES CCCCCCCCCCCCCCCCCCCCCCCCCCCCCC(=O)[O-]
REMARK SMILES IDX 16 1 17 2 18 3 19 4 20 5 21 6 22 7 23 8 24 9 25 10 26 11
REMARK SMILES IDX 27 12 28 13 29 14 30 15 31 16 32 17 15 18 14 19 13 20 12 21
REMARK SMILES IDX 11 22 10 23 9 24 8 25 7 26 6 27 5 28 4 29 3 30 2 31 1 32
REMARK H PARENT
REMARK Flexibility Score: inf
ROOT
ATOM      1  C   UNL     1      23.114  13.499  20.188  1.00  0.00     0.000 C 
ENDROOT
BRANCH   1   2
ATOM      2  C   UNL     1      23.384  12.085  20.742  1.00  0.00     0.000 C 
BRANCH   2   3
ATOM      3  C   UNL     1      22.156  11.154  20.805  1.00  0.00     0.000 C 
BRANCH   3   4
ATOM      4  C   UNL     1      21.606  10.713  19.436  1.00  0.00     0.000 C 
BRANCH   4   5
ATOM      5  C   UNL     1      20.071  10.672  19.393  1.00  0.00     0.000 C 
BRANCH   5   6
ATOM      6  C   UNL     1      19.567  10.558  17.943  1.00  0.00     0.000 C 
BRANCH   6   7
ATOM      7  C   UNL     1      18.720   9.298  17.706  1.00  0.00     0.000 C 
BRANCH   7   8
ATOM      8  C   UNL     1      18.673   8.888  16.224  1.00  0.00     0.000 C 
BRANCH   8   9
ATOM      9  C   UNL     1      20.013   8.314  15.733  1.00  0.00     0.000 C 
BRANCH   9  10
ATOM     10  C   UNL     1      20.649   7.340  16.742  1.00  0.00     0.000 C 
BRANCH  10  11
ATOM     11  C   UNL     1      22.172   7.523  16.856  1.00  0.00     0.000 C 
BRANCH  11  12
ATOM     12  C   UNL     1      22.954   6.417  16.126  1.00  0.00     0.000 C 
BRANCH  12  13
ATOM     13  C   UNL     1      24.474   6.650  16.152  1.00  0.00     0.006 C 
BRANCH  13  14
ATOM     14  C   UNL     1      24.855   7.959  16.855  1.00  0.00     0.053 C 
BRANCH  14  15
ATOM     15  C   UNL     1      25.919   7.712  17.878  1.00  0.00     0.041 C 
ATOM     16  O   UNL     1      26.518   6.605  17.917  1.00  0.00    -0.550 OA
ATOM     17  O   UNL     1      26.211   8.686  18.823  1.00  0.00    -0.550 OA
ENDBRANCH  14  15
ENDBRANCH  13  14
ENDBRANCH  12  13
ENDBRANCH  11  12
ENDBRANCH  10  11
ENDBRANCH   9  10
ENDBRANCH   8   9
ENDBRANCH   7   8
ENDBRANCH   6   7
ENDBRANCH   5   6
ENDBRANCH   4   5
ENDBRANCH   3   4
ENDBRANCH   2   3
ENDBRANCH   1   2
BRANCH   1  18
ATOM     18  C   UNL     1      21.915  14.237  20.820  1.00  0.00     0.000 C 
BRANCH  18  19
ATOM     19  C   UNL     1      20.725  14.467  19.872  1.00  0.00     0.000 C 
BRANCH  19  20
ATOM     20  C   UNL     1      19.662  15.406  20.466  1.00  0.00     0.000 C 
BRANCH  20  21
ATOM     21  C   UNL     1      20.224  16.809  20.762  1.00  0.00     0.000 C 
BRANCH  21  22
ATOM     22  C   UNL     1      19.157  17.916  20.904  1.00  0.00     0.000 C 
BRANCH  22  23
ATOM     23  C   UNL     1      19.568  19.300  20.358  1.00  0.00     0.000 C 
BRANCH  23  24
ATOM     24  C   UNL     1      21.080  19.481  20.124  1.00  0.00    -0.000 C 
BRANCH  24  25
ATOM     25  C   UNL     1      21.568  20.894  20.490  1.00  0.00    -0.000 C 
BRANCH  25  26
ATOM     26  C   UNL     1      22.759  21.340  19.625  1.00  0.00    -0.000 C 
BRANCH  26  27
ATOM     27  C   UNL     1      22.727  22.851  19.329  1.00  0.00    -0.000 C 
BRANCH  27  28
ATOM     28  C   UNL     1      21.539  23.261  18.439  1.00  0.00    -0.000 C 
BRANCH  28  29
ATOM     29  C   UNL     1      20.565  24.238  19.131  1.00  0.00    -0.000 C 
BRANCH  29  30
ATOM     30  C   UNL     1      19.109  24.021  18.680  1.00  0.00    -0.000 C 
BRANCH  30  31
ATOM     31  C   UNL     1      18.499  22.733  19.248  1.00  0.00    -0.003 C 
ATOM     32  C   UNL     1      18.303  22.787  20.763  1.00  0.00     0.004 C 
ENDBRANCH  30  31
ENDBRANCH  29  30
ENDBRANCH  28  29
ENDBRANCH  27  28
ENDBRANCH  26  27
ENDBRANCH  25  26
ENDBRANCH  24  25
ENDBRANCH  23  24
ENDBRANCH  22  23
ENDBRANCH  21  22
ENDBRANCH  20  21
ENDBRANCH  19  20
ENDBRANCH  18  19
ENDBRANCH   1  18
TORSDOF 28
ENDMDL
MODEL 9
REMARK VINA RESULT:    -2.993      4.577     12.741
REMARK INTER + INTRA:         -10.831
REMARK INTER:                  -8.315
REMARK INTRA:                  -2.517
REMARK UNBOUND:                -2.939
REMARK SMILES CCCCCCCCCCCCCCCCCCCCCCCCCCCCCC(=O)[O-]
REMARK SMILES IDX 16 1 17 2 18 3 19 4 20 5 21 6 22 7 23 8 24 9 25 10 26 11
REMARK SMILES IDX 27 12 28 13 29 14 30 15 31 16 32 17 15 18 14 19 13 20 12 21
REMARK SMILES IDX 11 22 10 23 9 24 8 25 7 26 6 27 5 28 4 29 3 30 2 31 1 32
REMARK H PARENT
REMARK Flexibility Score: inf
ROOT
ATOM      1  C   UNL     1      19.450  12.313  17.586  1.00  0.00     0.000 C 
ENDROOT
BRANCH   1   2
ATOM      2  C   UNL     1      19.173  12.695  19.055  1.00  0.00     0.000 C 
BRANCH   2   3
ATOM      3  C   UNL     1      20.415  12.749  19.969  1.00  0.00     0.000 C 
BRANCH   3   4
ATOM      4  C   UNL     1      20.924  14.166  20.287  1.00  0.00     0.000 C 
BRANCH   4   5
ATOM      5  C   UNL     1      19.819  15.096  20.811  1.00  0.00     0.000 C 
BRANCH   5   6
ATOM      6  C   UNL     1      19.908  16.481  20.145  1.00  0.00     0.000 C 
BRANCH   6   7
ATOM      7  C   UNL     1      20.432  17.566  21.099  1.00  0.00     0.000 C 
BRANCH   7   8
ATOM      8  C   UNL     1      19.896  18.966  20.754  1.00  0.00     0.000 C 
BRANCH   8   9
ATOM      9  C   UNL     1      21.024  19.988  20.536  1.00  0.00     0.000 C 
BRANCH   9  10
ATOM     10  C   UNL     1      21.728  19.818  19.177  1.00  0.00     0.000 C 
BRANCH  10  11
ATOM     11  C   UNL     1      22.745  20.937  18.897  1.00  0.00     0.000 C 
BRANCH  11  12
ATOM     12  C   UNL     1      22.651  22.085  19.916  1.00  0.00     0.000 C 
BRANCH  12  13
ATOM     13  C   UNL     1      22.563  23.467  19.245  1.00  0.00     0.006 C 
BRANCH  13  14
ATOM     14  C   UNL     1      21.360  23.585  18.300  1.00  0.00     0.053 C 
BRANCH  14  15
ATOM     15  C   UNL     1      20.090  23.699  19.084  1.00  0.00     0.041 C 
ATOM     16  O   UNL     1      18.982  23.450  18.539  1.00  0.00    -0.550 OA
ATOM     17  O   UNL     1      20.126  24.132  20.402  1.00  0.00    -0.550 OA
ENDBRANCH  14  15
ENDBRANCH  13  14
ENDBRANCH  12  13
ENDBRANCH  11  12
ENDBRANCH  10  11
ENDBRANCH   9  10
ENDBRANCH   8   9
ENDBRANCH   7   8
ENDBRANCH   6   7
ENDBRANCH   5   6
ENDBRANCH   4   5
ENDBRANCH   3   4
ENDBRANCH   2   3
ENDBRANCH   1   2
BRANCH   1  18
ATOM     18  C   UNL     1      18.251  11.713  16.823  1.00  0.00     0.000 C 
BRANCH  18  19
ATOM     19  C   UNL     1      18.352  10.202  16.548  1.00  0.00     0.000 C 
BRANCH  19  20
ATOM     20  C   UNL     1      19.282   9.476  17.535  1.00  0.00     0.000 C 
BRANCH  20  21
ATOM     21  C   UNL     1      20.546   8.928  16.849  1.00  0.00     0.000 C 
BRANCH  21  22
ATOM     22  C   UNL     1      21.663   8.479  17.815  1.00  0.00     0.000 C 
BRANCH  22  23
ATOM     23  C   UNL     1      21.232   7.461  18.892  1.00  0.00     0.000 C 
BRANCH  23  24
ATOM     24  C   UNL     1      20.537   6.199  18.348  1.00  0.00    -0.000 C 
BRANCH  24  25
ATOM     25  C   UNL     1      21.517   5.239  17.653  1.00  0.00    -0.000 C 
BRANCH  25  26
ATOM     26  C   UNL     1      21.434   5.330  16.119  1.00  0.00    -0.000 C 
BRANCH  26  27
ATOM     27  C   UNL     1      22.818   5.522  15.473  1.00  0.00    -0.000 C 
BRANCH  27  28
ATOM     28  C   UNL     1      23.928   5.791  16.506  1.00  0.00    -0.000 C 
BRANCH  28  29
ATOM     29  C   UNL     1      24.689   7.110  16.256  1.00  0.00    -0.000 C 
BRANCH  29  30
ATOM     30  C   UNL     1      26.089   7.101  16.898  1.00  0.00    -0.000 C 
BRANCH  30  31
ATOM     31  C   UNL     1      26.038   7.042  18.430  1.00  0.00    -0.003 C 
ATOM     32  C   UNL     1      25.175   8.147  19.038  1.00  0.00     0.004 C 
ENDBRANCH  30  31
ENDBRANCH  29  30
ENDBRANCH  28  29
ENDBRANCH  27  28
ENDBRANCH  26  27
ENDBRANCH  25  26
ENDBRANCH  24  25
ENDBRANCH  23  24
ENDBRANCH  22  23
ENDBRANCH  21  22
ENDBRANCH  20  21
ENDBRANCH  19  20
ENDBRANCH  18  19
ENDBRANCH   1  18
TORSDOF 28
ENDMDL
