MODEL 1
REMARK VINA RESULT:    -4.498      0.000      0.000
REMARK INTER + INTRA:         -10.347
REMARK INTER:                  -8.705
REMARK INTRA:                  -1.642
REMARK UNBOUND:                -1.642
REMARK SMILES CCCCCCCCCCCCCCCCCC(=O)[O-]
REMARK SMILES IDX 10 1 11 2 12 3 13 4 14 5 15 6 16 7 17 8 18 9 19 10 20 11
REMARK SMILES IDX 9 12 8 13 7 14 6 15 5 16 4 17 3 18 2 19 1 20
REMARK H PARENT
REMARK Flexibility Score: inf
ROOT
ATOM      1  C   UNL     1       5.682  -3.286  -4.986  1.00  0.00     0.000 C 
ENDROOT
BRANCH   1   2
ATOM      2  C   UNL     1       6.933  -3.817  -4.251  1.00  0.00     0.000 C 
BRANCH   2   3
ATOM      3  C   UNL     1       7.584  -2.742  -3.364  1.00  0.00     0.000 C 
BRANCH   3   4
ATOM      4  C   UNL     1       7.723  -3.198  -1.896  1.00  0.00     0.000 C 
BRANCH   4   5
ATOM      5  C   UNL     1       7.101  -2.219  -0.885  1.00  0.00     0.000 C 
BRANCH   5   6
ATOM      6  C   UNL     1       6.205  -1.165  -1.548  1.00  0.00     0.000 C 
BRANCH   6   7
ATOM      7  C   UNL     1       5.635  -0.192  -0.509  1.00  0.00     0.006 C 
BRANCH   7   8
ATOM      8  C   UNL     1       6.571  -0.069   0.698  1.00  0.00     0.053 C 
BRANCH   8   9
ATOM      9  C   UNL     1       5.828   0.444   1.890  1.00  0.00     0.041 C 
ATOM     10  O   UNL     1       5.273  -0.359   2.685  1.00  0.00    -0.550 OA
ATOM     11  O   UNL     1       5.783   1.809   2.147  1.00  0.00    -0.550 OA
ENDBRANCH   8   9
ENDBRANCH   7   8
ENDBRANCH   6   7
ENDBRANCH   5   6
ENDBRANCH   4   5
ENDBRANCH   3   4
ENDBRANCH   2   3
ENDBRANCH   1   2
BRANCH   1  12
ATOM     12  C   UNL     1       5.827  -1.836  -5.476  1.00  0.00     0.000 C 
BRANCH  12  13
ATOM     13  C   UNL     1       4.693  -0.927  -4.975  1.00  0.00    -0.000 C 
BRANCH  13  14
ATOM     14  C   UNL     1       3.695  -1.662  -4.062  1.00  0.00    -0.000 C 
BRANCH  14  15
ATOM     15  C   UNL     1       2.313  -1.950  -4.687  1.00  0.00    -0.000 C 
BRANCH  15  16
ATOM     16  C   UNL     1       2.155  -3.351  -5.306  1.00  0.00    -0.000 C 
BRANCH  16  17
ATOM     17  C   UNL     1       1.782  -4.457  -4.299  1.00  0.00    -0.000 C 
BRANCH  17  18
ATOM     18  C   UNL     1       1.036  -3.931  -3.052  1.00  0.00    -0.000 C 
BRANCH  18  19
ATOM     19  C   UNL     1       0.227  -5.009  -2.311  1.00  0.00    -0.003 C 
ATOM     20  C   UNL     1       1.080  -6.218  -1.921  1.00  0.00     0.004 C 
ENDBRANCH  18  19
ENDBRANCH  17  18
ENDBRANCH  16  17
ENDBRANCH  15  16
ENDBRANCH  14  15
ENDBRANCH  13  14
ENDBRANCH  12  13
ENDBRANCH   1  12
TORSDOF 16
ENDMDL
MODEL 2
REMARK VINA RESULT:    -4.438      1.055      1.800
REMARK INTER + INTRA:         -10.231
REMARK INTER:                  -8.842
REMARK INTRA:                  -1.389
REMARK UNBOUND:                -1.642
REMARK SMILES CCCCCCCCCCCCCCCCCC(=O)[O-]
REMARK SMILES IDX 10 1 11 2 12 3 13 4 14 5 15 6 16 7 17 8 18 9 19 10 20 11
REMARK SMILES IDX 9 12 8 13 7 14 6 15 5 16 4 17 3 18 2 19 1 20
REMARK H PARENT
REMARK Flexibility Score: inf
ROOT
ATOM      1  C   UNL     1       5.125  -0.708  -4.762  1.00  0.00     0.000 C 
ENDROOT
BRANCH   1   2
ATOM      2  C   UNL     1       5.504  -1.107  -3.318  1.00  0.00     0.000 C 
BRANCH   2   3
ATOM      3  C   UNL     1       6.344  -2.395  -3.274  1.00  0.00     0.000 C 
BRANCH   3   4
ATOM      4  C   UNL     1       7.498  -2.308  -2.253  1.00  0.00     0.000 C 
BRANCH   4   5
ATOM      5  C   UNL     1       7.025  -2.088  -0.805  1.00  0.00     0.000 C 
BRANCH   5   6
ATOM      6  C   UNL     1       7.942  -1.148  -0.013  1.00  0.00     0.000 C 
BRANCH   6   7
ATOM      7  C   UNL     1       7.392   0.283  -0.005  1.00  0.00     0.006 C 
BRANCH   7   8
ATOM      8  C   UNL     1       5.874   0.286   0.200  1.00  0.00     0.053 C 
BRANCH   8   9
ATOM      9  C   UNL     1       5.535   0.592   1.624  1.00  0.00     0.041 C 
ATOM     10  O   UNL     1       5.254  -0.340   2.422  1.00  0.00    -0.550 OA
ATOM     11  O   UNL     1       5.570   1.903   2.081  1.00  0.00    -0.550 OA
ENDBRANCH   8   9
ENDBRANCH   7   8
ENDBRANCH   6   7
ENDBRANCH   5   6
ENDBRANCH   4   5
ENDBRANCH   3   4
ENDBRANCH   2   3
ENDBRANCH   1   2
BRANCH   1  12
ATOM     12  C   UNL     1       4.005  -1.573  -5.363  1.00  0.00     0.000 C 
BRANCH  12  13
ATOM     13  C   UNL     1       2.649  -1.347  -4.674  1.00  0.00    -0.000 C 
BRANCH  13  14
ATOM     14  C   UNL     1       2.175  -2.569  -3.867  1.00  0.00    -0.000 C 
BRANCH  14  15
ATOM     15  C   UNL     1       2.374  -3.936  -4.555  1.00  0.00    -0.000 C 
BRANCH  15  16
ATOM     16  C   UNL     1       1.502  -5.079  -4.003  1.00  0.00    -0.000 C 
BRANCH  16  17
ATOM     17  C   UNL     1       0.528  -4.659  -2.886  1.00  0.00    -0.000 C 
BRANCH  17  18
ATOM     18  C   UNL     1       0.887  -5.242  -1.501  1.00  0.00    -0.000 C 
BRANCH  18  19
ATOM     19  C   UNL     1       0.585  -6.744  -1.363  1.00  0.00    -0.003 C 
ATOM     20  C   UNL     1       1.854  -7.595  -1.295  1.00  0.00     0.004 C 
ENDBRANCH  18  19
ENDBRANCH  17  18
ENDBRANCH  16  17
ENDBRANCH  15  16
ENDBRANCH  14  15
ENDBRANCH  13  14
ENDBRANCH  12  13
ENDBRANCH   1  12
TORSDOF 16
ENDMDL
MODEL 3
REMARK VINA RESULT:    -4.298      1.403      3.230
REMARK INTER + INTRA:          -9.960
REMARK INTER:                  -8.620
REMARK INTRA:                  -1.339
REMARK UNBOUND:                -1.642
REMARK SMILES CCCCCCCCCCCCCCCCCC(=O)[O-]
REMARK SMILES IDX 10 1 11 2 12 3 13 4 14 5 15 6 16 7 17 8 18 9 19 10 20 11
REMARK SMILES IDX 9 12 8 13 7 14 6 15 5 16 4 17 3 18 2 19 1 20
REMARK H PARENT
REMARK Flexibility Score: inf
ROOT
ATOM      1  C   UNL     1       2.265  -2.587  -3.900  1.00  0.00     0.000 C 
ENDROOT
BRANCH   1   2
ATOM      2  C   UNL     1       3.022  -1.335  -4.396  1.00  0.00     0.000 C 
BRANCH   2   3
ATOM      3  C   UNL     1       4.475  -1.655  -4.790  1.00  0.00     0.000 C 
BRANCH   3   4
ATOM      4  C   UNL     1       5.498  -0.854  -3.957  1.00  0.00     0.000 C 
BRANCH   4   5
ATOM      5  C   UNL     1       5.300  -0.995  -2.437  1.00  0.00     0.000 C 
BRANCH   5   6
ATOM      6  C   UNL     1       6.516  -1.608  -1.731  1.00  0.00     0.000 C 
BRANCH   6   7
ATOM      7  C   UNL     1       6.560  -1.200  -0.254  1.00  0.00     0.006 C 
BRANCH   7   8
ATOM      8  C   UNL     1       5.589  -0.049   0.027  1.00  0.00     0.053 C 
BRANCH   8   9
ATOM      9  C   UNL     1       5.708   0.407   1.446  1.00  0.00     0.041 C 
ATOM     10  O   UNL     1       5.282  -0.318   2.382  1.00  0.00    -0.550 OA
ATOM     11  O   UNL     1       6.326   1.616   1.738  1.00  0.00    -0.550 OA
ENDBRANCH   8   9
ENDBRANCH   7   8
ENDBRANCH   6   7
ENDBRANCH   5   6
ENDBRANCH   4   5
ENDBRANCH   3   4
ENDBRANCH   2   3
ENDBRANCH   1   2
BRANCH   1  12
ATOM     12  C   UNL     1       2.705  -3.886  -4.595  1.00  0.00     0.000 C 
BRANCH  12  13
ATOM     13  C   UNL     1       1.578  -4.523  -5.424  1.00  0.00    -0.000 C 
BRANCH  13  14
ATOM     14  C   UNL     1       0.953  -5.753  -4.741  1.00  0.00    -0.000 C 
BRANCH  14  15
ATOM     15  C   UNL     1      -0.500  -5.572  -4.251  1.00  0.00    -0.000 C 
BRANCH  15  16
ATOM     16  C   UNL     1      -0.676  -5.555  -2.721  1.00  0.00    -0.000 C 
BRANCH  16  17
ATOM     17  C   UNL     1       0.558  -5.063  -1.940  1.00  0.00    -0.000 C 
BRANCH  17  18
ATOM     18  C   UNL     1       1.111  -6.103  -0.939  1.00  0.00    -0.000 C 
BRANCH  18  19
ATOM     19  C   UNL     1       1.210  -7.526  -1.513  1.00  0.00    -0.003 C 
ATOM     20  C   UNL     1       2.409  -8.300  -0.962  1.00  0.00     0.004 C 
ENDBRANCH  18  19
ENDBRANCH  17  18
ENDBRANCH  16  17
ENDBRANCH  15  16
ENDBRANCH  14  15
ENDBRANCH  13  14
ENDBRANCH  12  13
ENDBRANCH   1  12
TORSDOF 16
ENDMDL
MODEL 4
REMARK VINA RESULT:    -4.211      1.453      3.058
REMARK INTER + INTRA:          -9.791
REMARK INTER:                  -7.871
REMARK INTRA:                  -1.920
REMARK UNBOUND:                -1.642
REMARK SMILES CCCCCCCCCCCCCCCCCC(=O)[O-]
REMARK SMILES IDX 10 1 11 2 12 3 13 4 14 5 15 6 16 7 17 8 18 9 19 10 20 11
REMARK SMILES IDX 9 12 8 13 7 14 6 15 5 16 4 17 3 18 2 19 1 20
REMARK H PARENT
REMARK Flexibility Score: inf
ROOT
ATOM      1  C   UNL     1       7.969  -2.805  -2.778  1.00  0.00     0.000 C 
ENDROOT
BRANCH   1   2
ATOM      2  C   UNL     1       7.894  -3.200  -1.287  1.00  0.00     0.000 C 
BRANCH   2   3
ATOM      3  C   UNL     1       7.139  -2.155  -0.448  1.00  0.00     0.000 C 
BRANCH   3   4
ATOM      4  C   UNL     1       6.556  -1.018  -1.313  1.00  0.00     0.000 C 
BRANCH   4   5
ATOM      5  C   UNL     1       5.414  -0.246  -0.628  1.00  0.00     0.000 C 
BRANCH   5   6
ATOM      6  C   UNL     1       5.739   0.141   0.821  1.00  0.00     0.000 C 
BRANCH   6   7
ATOM      7  C   UNL     1       6.521   1.458   0.877  1.00  0.00     0.006 C 
BRANCH   7   8
ATOM      8  C   UNL     1       5.656   2.631   0.406  1.00  0.00     0.053 C 
BRANCH   8   9
ATOM      9  C   UNL     1       4.768   3.107   1.511  1.00  0.00     0.041 C 
ATOM     10  O   UNL     1       5.161   3.060   2.706  1.00  0.00    -0.550 OA
ATOM     11  O   UNL     1       3.520   3.643   1.218  1.00  0.00    -0.550 OA
ENDBRANCH   8   9
ENDBRANCH   7   8
ENDBRANCH   6   7
ENDBRANCH   5   6
ENDBRANCH   4   5
ENDBRANCH   3   4
ENDBRANCH   2   3
ENDBRANCH   1   2
BRANCH   1  12
ATOM     12  C   UNL     1       7.350  -3.849  -3.722  1.00  0.00     0.000 C 
BRANCH  12  13
ATOM     13  C   UNL     1       6.106  -3.321  -4.453  1.00  0.00    -0.000 C 
BRANCH  13  14
ATOM     14  C   UNL     1       6.264  -1.866  -4.931  1.00  0.00    -0.000 C 
BRANCH  14  15
ATOM     15  C   UNL     1       4.999  -0.989  -4.815  1.00  0.00    -0.000 C 
BRANCH  15  16
ATOM     16  C   UNL     1       3.949  -1.486  -3.804  1.00  0.00    -0.000 C 
BRANCH  16  17
ATOM     17  C   UNL     1       2.524  -1.621  -4.374  1.00  0.00    -0.000 C 
BRANCH  17  18
ATOM     18  C   UNL     1       2.488  -2.150  -5.827  1.00  0.00    -0.000 C 
BRANCH  18  19
ATOM     19  C   UNL     1       2.148  -3.646  -5.933  1.00  0.00    -0.003 C 
ATOM     20  C   UNL     1       1.695  -4.242  -4.599  1.00  0.00     0.004 C 
ENDBRANCH  18  19
ENDBRANCH  17  18
ENDBRANCH  16  17
ENDBRANCH  15  16
ENDBRANCH  14  15
ENDBRANCH  13  14
ENDBRANCH  12  13
ENDBRANCH   1  12
TORSDOF 16
ENDMDL
MODEL 5
REMARK VINA RESULT:    -4.146      1.309      2.221
REMARK INTER + INTRA:          -9.666
REMARK INTER:                  -8.265
REMARK INTRA:                  -1.401
REMARK UNBOUND:                -1.642
REMARK SMILES CCCCCCCCCCCCCCCCCC(=O)[O-]
REMARK SMILES IDX 10 1 11 2 12 3 13 4 14 5 15 6 16 7 17 8 18 9 19 10 20 11
REMARK SMILES IDX 9 12 8 13 7 14 6 15 5 16 4 17 3 18 2 19 1 20
REMARK H PARENT
REMARK Flexibility Score: inf
ROOT
ATOM      1  C   UNL     1       4.709  -2.016  -6.052  1.00  0.00     0.000 C 
ENDROOT
BRANCH   1   2
ATOM      2  C   UNL     1       5.340  -3.316  -5.505  1.00  0.00     0.000 C 
BRANCH   2   3
ATOM      3  C   UNL     1       6.282  -3.048  -4.319  1.00  0.00     0.000 C 
BRANCH   3   4
ATOM      4  C   UNL     1       6.251  -1.573  -3.865  1.00  0.00     0.000 C 
BRANCH   4   5
ATOM      5  C   UNL     1       5.564  -1.361  -2.504  1.00  0.00     0.000 C 
BRANCH   5   6
ATOM      6  C   UNL     1       6.146  -0.177  -1.721  1.00  0.00     0.000 C 
BRANCH   6   7
ATOM      7  C   UNL     1       5.440  -0.010  -0.370  1.00  0.00     0.006 C 
BRANCH   7   8
ATOM      8  C   UNL     1       5.974   1.215   0.380  1.00  0.00     0.053 C 
BRANCH   8   9
ATOM      9  C   UNL     1       5.697   1.098   1.845  1.00  0.00     0.041 C 
ATOM     10  O   UNL     1       5.716   2.122   2.577  1.00  0.00    -0.550 OA
ATOM     11  O   UNL     1       5.378  -0.137   2.396  1.00  0.00    -0.550 OA
ENDBRANCH   8   9
ENDBRANCH   7   8
ENDBRANCH   6   7
ENDBRANCH   5   6
ENDBRANCH   4   5
ENDBRANCH   3   4
ENDBRANCH   2   3
ENDBRANCH   1   2
BRANCH   1  12
ATOM     12  C   UNL     1       3.171  -2.034  -6.055  1.00  0.00     0.000 C 
BRANCH  12  13
ATOM     13  C   UNL     1       2.572  -1.501  -4.743  1.00  0.00    -0.000 C 
BRANCH  13  14
ATOM     14  C   UNL     1       2.205  -2.621  -3.753  1.00  0.00    -0.000 C 
BRANCH  14  15
ATOM     15  C   UNL     1       1.480  -3.838  -4.367  1.00  0.00    -0.000 C 
BRANCH  15  16
ATOM     16  C   UNL     1       1.575  -5.138  -3.546  1.00  0.00    -0.000 C 
BRANCH  16  17
ATOM     17  C   UNL     1       0.708  -5.155  -2.272  1.00  0.00    -0.000 C 
BRANCH  17  18
ATOM     18  C   UNL     1      -0.693  -4.533  -2.469  1.00  0.00    -0.000 C 
BRANCH  18  19
ATOM     19  C   UNL     1      -1.705  -5.482  -3.134  1.00  0.00    -0.003 C 
ATOM     20  C   UNL     1      -3.117  -5.325  -2.568  1.00  0.00     0.004 C 
ENDBRANCH  18  19
ENDBRANCH  17  18
ENDBRANCH  16  17
ENDBRANCH  15  16
ENDBRANCH  14  15
ENDBRANCH  13  14
ENDBRANCH  12  13
ENDBRANCH   1  12
TORSDOF 16
ENDMDL
MODEL 6
REMARK VINA RESULT:    -4.142      1.328      3.109
REMARK INTER + INTRA:          -9.658
REMARK INTER:                  -8.018
REMARK INTRA:                  -1.639
REMARK UNBOUND:                -1.642
REMARK SMILES CCCCCCCCCCCCCCCCCC(=O)[O-]
REMARK SMILES IDX 10 1 11 2 12 3 13 4 14 5 15 6 16 7 17 8 18 9 19 10 20 11
REMARK SMILES IDX 9 12 8 13 7 14 6 15 5 16 4 17 3 18 2 19 1 20
REMARK H PARENT
REMARK Flexibility Score: inf
ROOT
ATOM      1  C   UNL     1       2.486  -2.103  -3.766  1.00  0.00     0.000 C 
ENDROOT
BRANCH   1   2
ATOM      2  C   UNL     1       3.048  -1.406  -5.024  1.00  0.00     0.000 C 
BRANCH   2   3
ATOM      3  C   UNL     1       4.527  -1.017  -4.860  1.00  0.00     0.000 C 
BRANCH   3   4
ATOM      4  C   UNL     1       5.359  -2.140  -4.204  1.00  0.00     0.000 C 
BRANCH   4   5
ATOM      5  C   UNL     1       6.170  -1.672  -2.982  1.00  0.00     0.000 C 
BRANCH   5   6
ATOM      6  C   UNL     1       5.337  -0.847  -1.993  1.00  0.00     0.000 C 
BRANCH   6   7
ATOM      7  C   UNL     1       6.238  -0.065  -1.030  1.00  0.00     0.006 C 
BRANCH   7   8
ATOM      8  C   UNL     1       6.258  -0.717   0.355  1.00  0.00     0.053 C 
BRANCH   8   9
ATOM      9  C   UNL     1       5.642   0.189   1.373  1.00  0.00     0.041 C 
ATOM     10  O   UNL     1       5.379  -0.241   2.527  1.00  0.00    -0.550 OA
ATOM     11  O   UNL     1       5.396   1.520   1.061  1.00  0.00    -0.550 OA
ENDBRANCH   8   9
ENDBRANCH   7   8
ENDBRANCH   6   7
ENDBRANCH   5   6
ENDBRANCH   4   5
ENDBRANCH   3   4
ENDBRANCH   2   3
ENDBRANCH   1   2
BRANCH   1  12
ATOM     12  C   UNL     1       1.862  -3.479  -4.053  1.00  0.00     0.000 C 
BRANCH  12  13
ATOM     13  C   UNL     1       1.983  -3.885  -5.531  1.00  0.00    -0.000 C 
BRANCH  13  14
ATOM     14  C   UNL     1       2.072  -5.409  -5.729  1.00  0.00    -0.000 C 
BRANCH  14  15
ATOM     15  C   UNL     1       2.688  -6.196  -4.552  1.00  0.00    -0.000 C 
BRANCH  15  16
ATOM     16  C   UNL     1       1.712  -7.120  -3.801  1.00  0.00    -0.000 C 
BRANCH  16  17
ATOM     17  C   UNL     1       1.522  -6.774  -2.311  1.00  0.00    -0.000 C 
BRANCH  17  18
ATOM     18  C   UNL     1       0.085  -6.321  -1.961  1.00  0.00    -0.000 C 
BRANCH  18  19
ATOM     19  C   UNL     1      -0.743  -5.884  -3.181  1.00  0.00    -0.003 C 
ATOM     20  C   UNL     1      -2.020  -5.140  -2.789  1.00  0.00     0.004 C 
ENDBRANCH  18  19
ENDBRANCH  17  18
ENDBRANCH  16  17
ENDBRANCH  15  16
ENDBRANCH  14  15
ENDBRANCH  13  14
ENDBRANCH  12  13
ENDBRANCH   1  12
TORSDOF 16
ENDMDL
MODEL 7
REMARK VINA RESULT:    -4.108      1.274      2.105
REMARK INTER + INTRA:          -9.591
REMARK INTER:                  -7.413
REMARK INTRA:                  -2.178
REMARK UNBOUND:                -1.642
REMARK SMILES CCCCCCCCCCCCCCCCCC(=O)[O-]
REMARK SMILES IDX 10 1 11 2 12 3 13 4 14 5 15 6 16 7 17 8 18 9 19 10 20 11
REMARK SMILES IDX 9 12 8 13 7 14 6 15 5 16 4 17 3 18 2 19 1 20
REMARK H PARENT
REMARK Flexibility Score: inf
ROOT
ATOM      1  C   UNL     1       7.709  -4.045  -3.856  1.00  0.00     0.000 C 
ENDROOT
BRANCH   1   2
ATOM      2  C   UNL     1       8.494  -2.726  -3.690  1.00  0.00     0.000 C 
BRANCH   2   3
ATOM      3  C   UNL     1       8.834  -2.434  -2.218  1.00  0.00     0.000 C 
BRANCH   3   4
ATOM      4  C   UNL     1       7.930  -3.215  -1.242  1.00  0.00     0.000 C 
BRANCH   4   5
ATOM      5  C   UNL     1       7.060  -2.311  -0.350  1.00  0.00     0.000 C 
BRANCH   5   6
ATOM      6  C   UNL     1       6.953  -0.875  -0.880  1.00  0.00     0.000 C 
BRANCH   6   7
ATOM      7  C   UNL     1       5.544  -0.311  -0.664  1.00  0.00     0.006 C 
BRANCH   7   8
ATOM      8  C   UNL     1       5.584   0.947   0.209  1.00  0.00     0.053 C 
BRANCH   8   9
ATOM      9  C   UNL     1       5.999   0.606   1.605  1.00  0.00     0.041 C 
ATOM     10  O   UNL     1       7.001   1.166   2.122  1.00  0.00    -0.550 OA
ATOM     11  O   UNL     1       5.256  -0.300   2.350  1.00  0.00    -0.550 OA
ENDBRANCH   8   9
ENDBRANCH   7   8
ENDBRANCH   6   7
ENDBRANCH   5   6
ENDBRANCH   4   5
ENDBRANCH   3   4
ENDBRANCH   2   3
ENDBRANCH   1   2
BRANCH   1  12
ATOM     12  C   UNL     1       6.338  -3.863  -4.529  1.00  0.00     0.000 C 
BRANCH  12  13
ATOM     13  C   UNL     1       6.091  -2.415  -4.981  1.00  0.00    -0.000 C 
BRANCH  13  14
ATOM     14  C   UNL     1       5.036  -1.691  -4.124  1.00  0.00    -0.000 C 
BRANCH  14  15
ATOM     15  C   UNL     1       3.976  -0.893  -4.913  1.00  0.00    -0.000 C 
BRANCH  15  16
ATOM     16  C   UNL     1       2.596  -1.568  -5.020  1.00  0.00    -0.000 C 
BRANCH  16  17
ATOM     17  C   UNL     1       2.220  -2.451  -3.814  1.00  0.00    -0.000 C 
BRANCH  17  18
ATOM     18  C   UNL     1       1.775  -3.878  -4.208  1.00  0.00    -0.000 C 
BRANCH  18  19
ATOM     19  C   UNL     1       2.049  -4.230  -5.680  1.00  0.00    -0.003 C 
ATOM     20  C   UNL     1       3.201  -5.223  -5.842  1.00  0.00     0.004 C 
ENDBRANCH  18  19
ENDBRANCH  17  18
ENDBRANCH  16  17
ENDBRANCH  15  16
ENDBRANCH  14  15
ENDBRANCH  13  14
ENDBRANCH  12  13
ENDBRANCH   1  12
TORSDOF 16
ENDMDL
MODEL 8
REMARK VINA RESULT:    -4.090      1.618      3.128
REMARK INTER + INTRA:          -9.557
REMARK INTER:                  -6.935
REMARK INTRA:                  -2.622
REMARK UNBOUND:                -1.642
REMARK SMILES CCCCCCCCCCCCCCCCCC(=O)[O-]
REMARK SMILES IDX 10 1 11 2 12 3 13 4 14 5 15 6 16 7 17 8 18 9 19 10 20 11
REMARK SMILES IDX 9 12 8 13 7 14 6 15 5 16 4 17 3 18 2 19 1 20
REMARK H PARENT
REMARK Flexibility Score: inf
ROOT
ATOM      1  C   UNL     1       6.418  -1.561  -4.604  1.00  0.00     0.000 C 
ENDROOT
BRANCH   1   2
ATOM      2  C   UNL     1       6.323  -3.056  -4.230  1.00  0.00     0.000 C 
BRANCH   2   3
ATOM      3  C   UNL     1       7.413  -3.473  -3.228  1.00  0.00     0.000 C 
BRANCH   3   4
ATOM      4  C   UNL     1       7.787  -2.331  -2.259  1.00  0.00     0.000 C 
BRANCH   4   5
ATOM      5  C   UNL     1       7.267  -2.543  -0.826  1.00  0.00     0.000 C 
BRANCH   5   6
ATOM      6  C   UNL     1       6.920  -1.228  -0.116  1.00  0.00     0.000 C 
BRANCH   6   7
ATOM      7  C   UNL     1       5.736  -0.530  -0.796  1.00  0.00     0.006 C 
BRANCH   7   8
ATOM      8  C   UNL     1       6.137   0.855  -1.312  1.00  0.00     0.053 C 
BRANCH   8   9
ATOM      9  C   UNL     1       6.206   1.837  -0.186  1.00  0.00     0.041 C 
ATOM     10  O   UNL     1       7.067   2.756  -0.199  1.00  0.00    -0.550 OA
ATOM     11  O   UNL     1       5.294   1.763   0.859  1.00  0.00    -0.550 OA
ENDBRANCH   8   9
ENDBRANCH   7   8
ENDBRANCH   6   7
ENDBRANCH   5   6
ENDBRANCH   4   5
ENDBRANCH   3   4
ENDBRANCH   2   3
ENDBRANCH   1   2
BRANCH   1  12
ATOM     12  C   UNL     1       5.066  -0.829  -4.552  1.00  0.00     0.000 C 
BRANCH  12  13
ATOM     13  C   UNL     1       4.055  -1.522  -3.625  1.00  0.00    -0.000 C 
BRANCH  13  14
ATOM     14  C   UNL     1       2.648  -1.626  -4.244  1.00  0.00    -0.000 C 
BRANCH  14  15
ATOM     15  C   UNL     1       1.868  -2.914  -3.903  1.00  0.00    -0.000 C 
BRANCH  15  16
ATOM     16  C   UNL     1       2.347  -4.182  -4.635  1.00  0.00    -0.000 C 
BRANCH  16  17
ATOM     17  C   UNL     1       2.326  -4.079  -6.172  1.00  0.00    -0.000 C 
BRANCH  17  18
ATOM     18  C   UNL     1       3.734  -3.976  -6.803  1.00  0.00    -0.000 C 
BRANCH  18  19
ATOM     19  C   UNL     1       3.954  -2.692  -7.622  1.00  0.00    -0.003 C 
ATOM     20  C   UNL     1       5.403  -2.530  -8.081  1.00  0.00     0.004 C 
ENDBRANCH  18  19
ENDBRANCH  17  18
ENDBRANCH  16  17
ENDBRANCH  15  16
ENDBRANCH  14  15
ENDBRANCH  13  14
ENDBRANCH  12  13
ENDBRANCH   1  12
TORSDOF 16
ENDMDL
MODEL 9
REMARK VINA RESULT:    -4.022      1.673      2.865
REMARK INTER + INTRA:          -9.426
REMARK INTER:                  -7.886
REMARK INTRA:                  -1.540
REMARK UNBOUND:                -1.642
REMARK SMILES CCCCCCCCCCCCCCCCCC(=O)[O-]
REMARK SMILES IDX 10 1 11 2 12 3 13 4 14 5 15 6 16 7 17 8 18 9 19 10 20 11
REMARK SMILES IDX 9 12 8 13 7 14 6 15 5 16 4 17 3 18 2 19 1 20
REMARK H PARENT
REMARK Flexibility Score: inf
ROOT
ATOM      1  C   UNL     1       5.692  -0.931  -3.173  1.00  0.00     0.000 C 
ENDROOT
BRANCH   1   2
ATOM      2  C   UNL     1       5.588  -0.700  -1.649  1.00  0.00     0.000 C 
BRANCH   2   3
ATOM      3  C   UNL     1       6.694  -1.438  -0.875  1.00  0.00     0.000 C 
BRANCH   3   4
ATOM      4  C   UNL     1       7.166  -0.651   0.366  1.00  0.00     0.000 C 
BRANCH   4   5
ATOM      5  C   UNL     1       6.033  -0.319   1.354  1.00  0.00     0.000 C 
BRANCH   5   6
ATOM      6  C   UNL     1       6.195   1.060   2.006  1.00  0.00     0.000 C 
BRANCH   6   7
ATOM      7  C   UNL     1       6.441   2.145   0.951  1.00  0.00     0.006 C 
BRANCH   7   8
ATOM      8  C   UNL     1       5.132   2.838   0.562  1.00  0.00     0.053 C 
BRANCH   8   9
ATOM      9  C   UNL     1       4.576   3.604   1.720  1.00  0.00     0.041 C 
ATOM     10  O   UNL     1       3.444   3.313   2.187  1.00  0.00    -0.550 OA
ATOM     11  O   UNL     1       5.326   4.613   2.310  1.00  0.00    -0.550 OA
ENDBRANCH   8   9
ENDBRANCH   7   8
ENDBRANCH   6   7
ENDBRANCH   5   6
ENDBRANCH   4   5
ENDBRANCH   3   4
ENDBRANCH   2   3
ENDBRANCH   1   2
BRANCH   1  12
ATOM     12  C   UNL     1       6.382  -2.253  -3.548  1.00  0.00     0.000 C 
BRANCH  12  13
ATOM     13  C   UNL     1       5.768  -2.906  -4.796  1.00  0.00    -0.000 C 
BRANCH  13  14
ATOM     14  C   UNL     1       5.072  -1.892  -5.723  1.00  0.00    -0.000 C 
BRANCH  14  15
ATOM     15  C   UNL     1       3.599  -2.206  -6.060  1.00  0.00    -0.000 C 
BRANCH  15  16
ATOM     16  C   UNL     1       2.560  -1.522  -5.152  1.00  0.00    -0.000 C 
BRANCH  16  17
ATOM     17  C   UNL     1       2.281  -2.262  -3.830  1.00  0.00    -0.000 C 
BRANCH  17  18
ATOM     18  C   UNL     1       1.884  -3.744  -4.023  1.00  0.00    -0.000 C 
BRANCH  18  19
ATOM     19  C   UNL     1       0.752  -4.210  -3.091  1.00  0.00    -0.003 C 
ATOM     20  C   UNL     1       0.144  -5.544  -3.526  1.00  0.00     0.004 C 
ENDBRANCH  18  19
ENDBRANCH  17  18
ENDBRANCH  16  17
ENDBRANCH  15  16
ENDBRANCH  14  15
ENDBRANCH  13  14
ENDBRANCH  12  13
ENDBRANCH   1  12
TORSDOF 16
ENDMDL
