MODEL 1
REMARK VINA RESULT:    -5.219      0.000      0.000
REMARK INTER + INTRA:          -6.133
REMARK INTER:                  -5.982
REMARK INTRA:                  -0.151
REMARK UNBOUND:                -0.151
REMARK SMILES O=C([O-])C=Cc1ccc(O)cc1
REMARK SMILES IDX 6 1 7 2 12 3 8 4 11 5 9 6 5 7 4 8 2 9 1 10 3 11 10 12
REMARK H PARENT 10 13
REMARK Flexibility Score: inf
ROOT
ATOM      1  C   UNL     1       1.350 -20.038  -5.789  1.00  0.00    -0.025 A 
ATOM      2  C   UNL     1       1.913 -20.288  -7.058  1.00  0.00     0.012 A 
ATOM      3  C   UNL     1       0.552 -21.031  -5.195  1.00  0.00     0.012 A 
ATOM      4  C   UNL     1       1.658 -21.492  -7.720  1.00  0.00     0.047 A 
ATOM      5  C   UNL     1       0.299 -22.234  -5.862  1.00  0.00     0.047 A 
ATOM      6  C   UNL     1       0.850 -22.468  -7.125  1.00  0.00     0.115 A 
ENDROOT
BRANCH   1   7
ATOM      7  C   UNL     1       1.597 -18.782  -5.038  1.00  0.00     0.010 C 
ATOM      8  C   UNL     1       1.252 -18.600  -3.755  1.00  0.00     0.025 C 
BRANCH   8   9
ATOM      9  C   UNL     1       1.525 -17.344  -3.038  1.00  0.00     0.064 C 
ATOM     10  O   UNL     1       0.971 -16.265  -3.380  1.00  0.00    -0.545 OA
ATOM     11  O   UNL     1       2.407 -17.348  -1.966  1.00  0.00    -0.545 OA
ENDBRANCH   8   9
ENDBRANCH   1   7
BRANCH   6  12
ATOM     12  O   UNL     1       0.589 -23.671  -7.777  1.00  0.00    -0.508 OA
ATOM     13  H   UNL     1       0.785 -23.791  -8.764  1.00  0.00     0.293 HD
ENDBRANCH   6  12
TORSDOF 3
ENDMDL
MODEL 2
REMARK VINA RESULT:    -5.178     10.200     10.973
REMARK INTER + INTRA:          -6.086
REMARK INTER:                  -5.933
REMARK INTRA:                  -0.153
REMARK UNBOUND:                -0.151
REMARK SMILES O=C([O-])C=Cc1ccc(O)cc1
REMARK SMILES IDX 6 1 7 2 12 3 8 4 11 5 9 6 5 7 4 8 2 9 1 10 3 11 10 12
REMARK H PARENT 10 13
REMARK Flexibility Score: inf
ROOT
ATOM      1  C   UNL     1      -6.728 -26.588  -2.892  1.00  0.00    -0.025 A 
ATOM      2  C   UNL     1      -5.448 -27.171  -3.004  1.00  0.00     0.012 A 
ATOM      3  C   UNL     1      -7.849 -27.335  -3.294  1.00  0.00     0.012 A 
ATOM      4  C   UNL     1      -5.300 -28.458  -3.530  1.00  0.00     0.047 A 
ATOM      5  C   UNL     1      -7.696 -28.621  -3.820  1.00  0.00     0.047 A 
ATOM      6  C   UNL     1      -6.423 -29.185  -3.942  1.00  0.00     0.115 A 
ENDROOT
BRANCH   1   7
ATOM      7  C   UNL     1      -6.942 -25.231  -2.330  1.00  0.00     0.010 C 
ATOM      8  C   UNL     1      -8.146 -24.654  -2.214  1.00  0.00     0.025 C 
BRANCH   8   9
ATOM      9  C   UNL     1      -8.321 -23.310  -1.640  1.00  0.00     0.064 C 
ATOM     10  O   UNL     1      -9.423 -22.950  -1.146  1.00  0.00    -0.545 OA
ATOM     11  O   UNL     1      -7.253 -22.423  -1.641  1.00  0.00    -0.545 OA
ENDBRANCH   8   9
ENDBRANCH   1   7
BRANCH   6  12
ATOM     12  O   UNL     1      -6.286 -30.468  -4.468  1.00  0.00    -0.508 OA
ATOM     13  H   UNL     1      -6.044 -30.617  -5.440  1.00  0.00     0.293 HD
ENDBRANCH   6  12
TORSDOF 3
ENDMDL
MODEL 3
REMARK VINA RESULT:    -5.177      0.127      1.403
REMARK INTER + INTRA:          -6.085
REMARK INTER:                  -5.946
REMARK INTRA:                  -0.139
REMARK UNBOUND:                -0.151
REMARK SMILES O=C([O-])C=Cc1ccc(O)cc1
REMARK SMILES IDX 6 1 7 2 12 3 8 4 11 5 9 6 5 7 4 8 2 9 1 10 3 11 10 12
REMARK H PARENT 10 13
REMARK Flexibility Score: inf
ROOT
ATOM      1  C   UNL     1       1.322 -20.085  -5.736  1.00  0.00    -0.025 A 
ATOM      2  C   UNL     1       0.525 -21.091  -5.151  1.00  0.00     0.012 A 
ATOM      3  C   UNL     1       1.845 -20.299  -7.024  1.00  0.00     0.012 A 
ATOM      4  C   UNL     1       0.283 -22.287  -5.832  1.00  0.00     0.047 A 
ATOM      5  C   UNL     1       1.600 -21.498  -7.700  1.00  0.00     0.047 A 
ATOM      6  C   UNL     1       0.821 -22.496  -7.107  1.00  0.00     0.115 A 
ENDROOT
BRANCH   1   7
ATOM      7  C   UNL     1       1.601 -18.792  -5.063  1.00  0.00     0.010 C 
ATOM      8  C   UNL     1       1.272 -18.529  -3.790  1.00  0.00     0.025 C 
BRANCH   8   9
ATOM      9  C   UNL     1       1.576 -17.238  -3.151  1.00  0.00     0.064 C 
ATOM     10  O   UNL     1       1.147 -16.155  -3.632  1.00  0.00    -0.545 OA
ATOM     11  O   UNL     1       2.348 -17.212  -1.998  1.00  0.00    -0.545 OA
ENDBRANCH   8   9
ENDBRANCH   1   7
BRANCH   6  12
ATOM     12  O   UNL     1       0.586 -23.685  -7.793  1.00  0.00    -0.508 OA
ATOM     13  H   UNL     1       1.324 -24.156  -8.303  1.00  0.00     0.293 HD
ENDBRANCH   6  12
TORSDOF 3
ENDMDL
MODEL 4
REMARK VINA RESULT:    -4.718      1.514      1.854
REMARK INTER + INTRA:          -5.558
REMARK INTER:                  -5.425
REMARK INTRA:                  -0.134
REMARK UNBOUND:                -0.151
REMARK SMILES O=C([O-])C=Cc1ccc(O)cc1
REMARK SMILES IDX 6 1 7 2 12 3 8 4 11 5 9 6 5 7 4 8 2 9 1 10 3 11 10 12
REMARK H PARENT 10 13
REMARK Flexibility Score: inf
ROOT
ATOM      1  C   UNL     1       1.665 -19.957  -6.066  1.00  0.00    -0.025 A 
ATOM      2  C   UNL     1       2.132 -20.366  -7.332  1.00  0.00     0.012 A 
ATOM      3  C   UNL     1       0.832 -20.824  -5.339  1.00  0.00     0.012 A 
ATOM      4  C   UNL     1       1.749 -21.602  -7.862  1.00  0.00     0.047 A 
ATOM      5  C   UNL     1       0.451 -22.059  -5.873  1.00  0.00     0.047 A 
ATOM      6  C   UNL     1       0.906 -22.451  -7.135  1.00  0.00     0.115 A 
ENDROOT
BRANCH   1   7
ATOM      7  C   UNL     1       2.050 -18.662  -5.452  1.00  0.00     0.010 C 
ATOM      8  C   UNL     1       1.841 -17.471  -6.032  1.00  0.00     0.025 C 
BRANCH   8   9
ATOM      9  C   UNL     1       2.226 -16.204  -5.387  1.00  0.00     0.064 C 
ATOM     10  O   UNL     1       3.218 -16.142  -4.612  1.00  0.00    -0.545 OA
ATOM     11  O   UNL     1       1.483 -15.058  -5.638  1.00  0.00    -0.545 OA
ENDBRANCH   8   9
ENDBRANCH   1   7
BRANCH   6  12
ATOM     12  O   UNL     1       0.518 -23.684  -7.654  1.00  0.00    -0.508 OA
ATOM     13  H   UNL     1      -0.385 -24.088  -7.438  1.00  0.00     0.293 HD
ENDBRANCH   6  12
TORSDOF 3
ENDMDL
MODEL 5
REMARK VINA RESULT:    -4.659      1.622      2.339
REMARK INTER + INTRA:          -5.491
REMARK INTER:                  -5.356
REMARK INTRA:                  -0.135
REMARK UNBOUND:                -0.151
REMARK SMILES O=C([O-])C=Cc1ccc(O)cc1
REMARK SMILES IDX 6 1 7 2 12 3 8 4 11 5 9 6 5 7 4 8 2 9 1 10 3 11 10 12
REMARK H PARENT 10 13
REMARK Flexibility Score: inf
ROOT
ATOM      1  C   UNL     1       1.585 -19.854  -6.069  1.00  0.00    -0.025 A 
ATOM      2  C   UNL     1       0.816 -20.718  -5.262  1.00  0.00     0.012 A 
ATOM      3  C   UNL     1       1.955 -20.280  -7.356  1.00  0.00     0.012 A 
ATOM      4  C   UNL     1       0.451 -21.984  -5.729  1.00  0.00     0.047 A 
ATOM      5  C   UNL     1       1.590 -21.548  -7.818  1.00  0.00     0.047 A 
ATOM      6  C   UNL     1       0.839 -22.404  -7.007  1.00  0.00     0.115 A 
ENDROOT
BRANCH   1   7
ATOM      7  C   UNL     1       1.989 -18.496  -5.627  1.00  0.00     0.010 C 
ATOM      8  C   UNL     1       3.240 -18.167  -5.274  1.00  0.00     0.025 C 
BRANCH   8   9
ATOM      9  C   UNL     1       3.606 -16.805  -4.852  1.00  0.00     0.064 C 
ATOM     10  O   UNL     1       3.773 -16.522  -3.636  1.00  0.00    -0.545 OA
ATOM     11  O   UNL     1       3.771 -15.815  -5.812  1.00  0.00    -0.545 OA
ENDBRANCH   8   9
ENDBRANCH   1   7
BRANCH   6  12
ATOM     12  O   UNL     1       0.482 -23.664  -7.481  1.00  0.00    -0.508 OA
ATOM     13  H   UNL     1       0.975 -24.098  -8.252  1.00  0.00     0.293 HD
ENDBRANCH   6  12
TORSDOF 3
ENDMDL
MODEL 6
REMARK VINA RESULT:    -4.602      3.552      4.420
REMARK INTER + INTRA:          -5.426
REMARK INTER:                  -5.277
REMARK INTRA:                  -0.149
REMARK UNBOUND:                -0.151
REMARK SMILES O=C([O-])C=Cc1ccc(O)cc1
REMARK SMILES IDX 6 1 7 2 12 3 8 4 11 5 9 6 5 7 4 8 2 9 1 10 3 11 10 12
REMARK H PARENT 10 13
REMARK Flexibility Score: inf
ROOT
ATOM      1  C   UNL     1       2.756 -20.239  -6.930  1.00  0.00    -0.025 A 
ATOM      2  C   UNL     1       2.030 -20.397  -5.731  1.00  0.00     0.012 A 
ATOM      3  C   UNL     1       2.362 -20.974  -8.061  1.00  0.00     0.012 A 
ATOM      4  C   UNL     1       0.955 -21.289  -5.667  1.00  0.00     0.047 A 
ATOM      5  C   UNL     1       1.288 -21.866  -7.992  1.00  0.00     0.047 A 
ATOM      6  C   UNL     1       0.582 -22.027  -6.796  1.00  0.00     0.115 A 
ENDROOT
BRANCH   1   7
ATOM      7  C   UNL     1       3.897 -19.299  -7.055  1.00  0.00     0.010 C 
ATOM      8  C   UNL     1       4.929 -19.485  -7.891  1.00  0.00     0.025 C 
BRANCH   8   9
ATOM      9  C   UNL     1       6.038 -18.523  -7.998  1.00  0.00     0.064 C 
ATOM     10  O   UNL     1       6.375 -17.806  -7.018  1.00  0.00    -0.545 OA
ATOM     11  O   UNL     1       6.726 -18.405  -9.198  1.00  0.00    -0.545 OA
ENDBRANCH   8   9
ENDBRANCH   1   7
BRANCH   6  12
ATOM     12  O   UNL     1      -0.487 -22.919  -6.742  1.00  0.00    -0.508 OA
ATOM     13  H   UNL     1      -1.223 -22.821  -6.053  1.00  0.00     0.293 HD
ENDBRANCH   6  12
TORSDOF 3
ENDMDL
MODEL 7
REMARK VINA RESULT:    -4.553      4.058      5.558
REMARK INTER + INTRA:          -5.369
REMARK INTER:                  -5.235
REMARK INTRA:                  -0.135
REMARK UNBOUND:                -0.151
REMARK SMILES O=C([O-])C=Cc1ccc(O)cc1
REMARK SMILES IDX 6 1 7 2 12 3 8 4 11 5 9 6 5 7 4 8 2 9 1 10 3 11 10 12
REMARK H PARENT 10 13
REMARK Flexibility Score: inf
ROOT
ATOM      1  C   UNL     1       4.520 -20.777  -6.956  1.00  0.00    -0.025 A 
ATOM      2  C   UNL     1       4.784 -19.587  -7.667  1.00  0.00     0.012 A 
ATOM      3  C   UNL     1       5.544 -21.731  -6.831  1.00  0.00     0.012 A 
ATOM      4  C   UNL     1       6.034 -19.378  -8.257  1.00  0.00     0.047 A 
ATOM      5  C   UNL     1       6.792 -21.518  -7.424  1.00  0.00     0.047 A 
ATOM      6  C   UNL     1       7.041 -20.343  -8.139  1.00  0.00     0.115 A 
ENDROOT
BRANCH   1   7
ATOM      7  C   UNL     1       3.215 -21.044  -6.301  1.00  0.00     0.010 C 
ATOM      8  C   UNL     1       2.112 -21.422  -6.963  1.00  0.00     0.025 C 
BRANCH   8   9
ATOM      9  C   UNL     1       0.837 -21.691  -6.278  1.00  0.00     0.064 C 
ATOM     10  O   UNL     1      -0.016 -22.474  -6.772  1.00  0.00    -0.545 OA
ATOM     11  O   UNL     1       0.572 -21.071  -5.064  1.00  0.00    -0.545 OA
ENDBRANCH   8   9
ENDBRANCH   1   7
BRANCH   6  12
ATOM     12  O   UNL     1       8.289 -20.144  -8.723  1.00  0.00    -0.508 OA
ATOM     13  H   UNL     1       8.718 -20.851  -9.308  1.00  0.00     0.293 HD
ENDBRANCH   6  12
TORSDOF 3
ENDMDL
MODEL 8
REMARK VINA RESULT:    -4.552     11.857     12.934
REMARK INTER + INTRA:          -5.368
REMARK INTER:                  -5.235
REMARK INTRA:                  -0.133
REMARK UNBOUND:                -0.151
REMARK SMILES O=C([O-])C=Cc1ccc(O)cc1
REMARK SMILES IDX 6 1 7 2 12 3 8 4 11 5 9 6 5 7 4 8 2 9 1 10 3 11 10 12
REMARK H PARENT 10 13
REMARK Flexibility Score: inf
ROOT
ATOM      1  C   UNL     1       4.456 -24.414   5.469  1.00  0.00    -0.025 A 
ATOM      2  C   UNL     1       5.294 -25.168   4.621  1.00  0.00     0.012 A 
ATOM      3  C   UNL     1       3.785 -23.299   4.938  1.00  0.00     0.012 A 
ATOM      4  C   UNL     1       5.471 -24.795   3.285  1.00  0.00     0.047 A 
ATOM      5  C   UNL     1       3.965 -22.928   3.602  1.00  0.00     0.047 A 
ATOM      6  C   UNL     1       4.808 -23.673   2.773  1.00  0.00     0.115 A 
ENDROOT
BRANCH   1   7
ATOM      7  C   UNL     1       4.225 -24.773   6.890  1.00  0.00     0.010 C 
ATOM      8  C   UNL     1       5.202 -25.120   7.740  1.00  0.00     0.025 C 
BRANCH   8   9
ATOM      9  C   UNL     1       4.935 -25.458   9.148  1.00  0.00     0.064 C 
ATOM     10  O   UNL     1       5.328 -24.711  10.083  1.00  0.00    -0.545 OA
ATOM     11  O   UNL     1       4.238 -26.620   9.449  1.00  0.00    -0.545 OA
ENDBRANCH   8   9
ENDBRANCH   1   7
BRANCH   6  12
ATOM     12  O   UNL     1       4.978 -23.292   1.444  1.00  0.00    -0.508 OA
ATOM     13  H   UNL     1       5.505 -22.463   1.194  1.00  0.00     0.293 HD
ENDBRANCH   6  12
TORSDOF 3
ENDMDL
MODEL 9
REMARK VINA RESULT:    -4.451     12.322     13.943
REMARK INTER + INTRA:          -5.252
REMARK INTER:                  -5.113
REMARK INTRA:                  -0.140
REMARK UNBOUND:                -0.151
REMARK SMILES O=C([O-])C=Cc1ccc(O)cc1
REMARK SMILES IDX 6 1 7 2 12 3 8 4 11 5 9 6 5 7 4 8 2 9 1 10 3 11 10 12
REMARK H PARENT 10 13
REMARK Flexibility Score: inf
ROOT
ATOM      1  C   UNL     1       4.253 -24.596   6.493  1.00  0.00    -0.025 A 
ATOM      2  C   UNL     1       3.905 -24.034   5.247  1.00  0.00     0.012 A 
ATOM      3  C   UNL     1       5.152 -23.901   7.320  1.00  0.00     0.012 A 
ATOM      4  C   UNL     1       4.466 -22.822   4.835  1.00  0.00     0.047 A 
ATOM      5  C   UNL     1       5.712 -22.690   6.904  1.00  0.00     0.047 A 
ATOM      6  C   UNL     1       5.373 -22.147   5.661  1.00  0.00     0.115 A 
ENDROOT
BRANCH   1   7
ATOM      7  C   UNL     1       3.678 -25.873   6.983  1.00  0.00     0.010 C 
ATOM      8  C   UNL     1       2.428 -26.278   6.718  1.00  0.00     0.025 C 
BRANCH   8   9
ATOM      9  C   UNL     1       1.895 -27.559   7.212  1.00  0.00     0.064 C 
ATOM     10  O   UNL     1       2.378 -28.115   8.234  1.00  0.00    -0.545 OA
ATOM     11  O   UNL     1       0.841 -28.163   6.540  1.00  0.00    -0.545 OA
ENDBRANCH   8   9
ENDBRANCH   1   7
BRANCH   6  12
ATOM     12  O   UNL     1       5.938 -20.939   5.260  1.00  0.00    -0.508 OA
ATOM     13  H   UNL     1       5.486 -20.054   5.452  1.00  0.00     0.293 HD
ENDBRANCH   6  12
TORSDOF 3
ENDMDL
