MODEL 1
REMARK VINA RESULT:    -5.622      0.000      0.000
REMARK INTER + INTRA:          -6.173
REMARK INTER:                  -6.115
REMARK INTRA:                  -0.058
REMARK UNBOUND:                -0.058
REMARK SMILES COc1cc2ccc(=O)oc2cc1O
REMARK SMILES IDX 3 1 13 2 12 3 11 4 5 5 4 6 6 7 7 8 8 9 9 10 10 11 2 12 1 13
REMARK SMILES IDX 14 14
REMARK H PARENT 14 15
REMARK Flexibility Score: inf
ROOT
ATOM      1  C   UNL     1      28.776  -3.931  30.083  1.00  0.00     0.161 A 
ATOM      2  C   UNL     1      27.424  -3.614  30.290  1.00  0.00     0.161 A 
ATOM      3  C   UNL     1      27.041  -2.295  30.571  1.00  0.00     0.098 A 
ATOM      4  C   UNL     1      28.002  -1.284  30.648  1.00  0.00     0.142 A 
ATOM      5  C   UNL     1      29.363  -1.593  30.441  1.00  0.00     0.022 A 
ATOM      6  C   UNL     1      29.747  -2.911  30.160  1.00  0.00     0.062 A 
ATOM      7  C   UNL     1      30.301  -0.559  30.525  1.00  0.00     0.019 A 
ATOM      8  C   UNL     1      29.869   0.736  30.807  1.00  0.00     0.094 A 
ATOM      9  C   UNL     1      28.503   0.968  31.000  1.00  0.00     0.336 A 
ATOM     10  O   UNL     1      28.093   2.131  31.256  1.00  0.00    -0.246 OA
ATOM     11  O   UNL     1      27.632  -0.034  30.915  1.00  0.00    -0.423 OA
ENDROOT
BRANCH   1  12
ATOM     12  O   UNL     1      29.115  -5.264  29.804  1.00  0.00    -0.493 OA
ATOM     13  C   UNL     1      29.551  -6.207  30.777  1.00  0.00     0.278 C 
ENDBRANCH   1  12
BRANCH   2  14
ATOM     14  O   UNL     1      26.464  -4.622  30.213  1.00  0.00    -0.504 OA
ATOM     15  H   UNL     1      26.006  -4.982  31.044  1.00  0.00     0.293 HD
ENDBRANCH   2  14
TORSDOF 2
ENDMDL
MODEL 2
REMARK VINA RESULT:    -5.600      1.463      2.467
REMARK INTER + INTRA:          -6.149
REMARK INTER:                  -6.096
REMARK INTRA:                  -0.053
REMARK UNBOUND:                -0.058
REMARK SMILES COc1cc2ccc(=O)oc2cc1O
REMARK SMILES IDX 3 1 13 2 12 3 11 4 5 5 4 6 6 7 7 8 8 9 9 10 10 11 2 12 1 13
REMARK SMILES IDX 14 14
REMARK H PARENT 14 15
REMARK Flexibility Score: inf
ROOT
ATOM      1  C   UNL     1      28.207  -4.131  30.537  1.00  0.00     0.161 A 
ATOM      2  C   UNL     1      29.505  -3.631  30.355  1.00  0.00     0.161 A 
ATOM      3  C   UNL     1      29.710  -2.268  30.101  1.00  0.00     0.098 A 
ATOM      4  C   UNL     1      28.623  -1.394  30.026  1.00  0.00     0.142 A 
ATOM      5  C   UNL     1      27.313  -1.888  30.208  1.00  0.00     0.022 A 
ATOM      6  C   UNL     1      27.107  -3.251  30.462  1.00  0.00     0.062 A 
ATOM      7  C   UNL     1      26.245  -0.989  30.126  1.00  0.00     0.019 A 
ATOM      8  C   UNL     1      26.501   0.358  29.872  1.00  0.00     0.094 A 
ATOM      9  C   UNL     1      27.825   0.776  29.703  1.00  0.00     0.336 A 
ATOM     10  O   UNL     1      28.078   1.988  29.472  1.00  0.00    -0.246 OA
ATOM     11  O   UNL     1      28.823  -0.101  29.785  1.00  0.00    -0.423 OA
ENDROOT
BRANCH   1  12
ATOM     12  O   UNL     1      28.048  -5.502  30.790  1.00  0.00    -0.493 OA
ATOM     13  C   UNL     1      27.794  -6.484  29.790  1.00  0.00     0.278 C 
ENDBRANCH   1  12
BRANCH   2  14
ATOM     14  O   UNL     1      30.592  -4.501  30.430  1.00  0.00    -0.504 OA
ATOM     15  H   UNL     1      30.512  -5.474  30.156  1.00  0.00     0.293 HD
ENDBRANCH   2  14
TORSDOF 2
ENDMDL
MODEL 3
REMARK VINA RESULT:    -5.582      1.209      4.907
REMARK INTER + INTRA:          -6.130
REMARK INTER:                  -6.095
REMARK INTRA:                  -0.036
REMARK UNBOUND:                -0.058
REMARK SMILES COc1cc2ccc(=O)oc2cc1O
REMARK SMILES IDX 3 1 13 2 12 3 11 4 5 5 4 6 6 7 7 8 8 9 9 10 10 11 2 12 1 13
REMARK SMILES IDX 14 14
REMARK H PARENT 14 15
REMARK Flexibility Score: inf
ROOT
ATOM      1  C   UNL     1      28.423  -0.281  30.342  1.00  0.00     0.161 A 
ATOM      2  C   UNL     1      27.078  -0.644  30.508  1.00  0.00     0.161 A 
ATOM      3  C   UNL     1      26.707  -1.996  30.532  1.00  0.00     0.098 A 
ATOM      4  C   UNL     1      27.674  -2.994  30.389  1.00  0.00     0.142 A 
ATOM      5  C   UNL     1      29.029  -2.638  30.222  1.00  0.00     0.022 A 
ATOM      6  C   UNL     1      29.401  -1.287  30.198  1.00  0.00     0.062 A 
ATOM      7  C   UNL     1      29.973  -3.660  30.081  1.00  0.00     0.019 A 
ATOM      8  C   UNL     1      29.554  -4.990  30.111  1.00  0.00     0.094 A 
ATOM      9  C   UNL     1      28.193  -5.267  30.281  1.00  0.00     0.336 A 
ATOM     10  O   UNL     1      27.794  -6.461  30.311  1.00  0.00    -0.246 OA
ATOM     11  O   UNL     1      27.315  -4.276  30.413  1.00  0.00    -0.423 OA
ENDROOT
BRANCH   1  12
ATOM     12  O   UNL     1      28.750   1.084  30.325  1.00  0.00    -0.493 OA
ATOM     13  C   UNL     1      29.080   1.850  31.478  1.00  0.00     0.278 C 
ENDBRANCH   1  12
BRANCH   2  14
ATOM     14  O   UNL     1      26.112   0.350  30.651  1.00  0.00    -0.504 OA
ATOM     15  H   UNL     1      25.794   0.654  31.565  1.00  0.00     0.293 HD
ENDBRANCH   2  14
TORSDOF 2
ENDMDL
MODEL 4
REMARK VINA RESULT:    -5.470      1.370      5.527
REMARK INTER + INTRA:          -6.007
REMARK INTER:                  -5.965
REMARK INTRA:                  -0.043
REMARK UNBOUND:                -0.058
REMARK SMILES COc1cc2ccc(=O)oc2cc1O
REMARK SMILES IDX 3 1 13 2 12 3 11 4 5 5 4 6 6 7 7 8 8 9 9 10 10 11 2 12 1 13
REMARK SMILES IDX 14 14
REMARK H PARENT 14 15
REMARK Flexibility Score: inf
ROOT
ATOM      1  C   UNL     1      28.361  -1.307  30.760  1.00  0.00     0.161 A 
ATOM      2  C   UNL     1      29.690  -1.570  30.393  1.00  0.00     0.161 A 
ATOM      3  C   UNL     1      30.079  -2.865  30.021  1.00  0.00     0.098 A 
ATOM      4  C   UNL     1      29.147  -3.905  30.012  1.00  0.00     0.142 A 
ATOM      5  C   UNL     1      27.808  -3.650  30.380  1.00  0.00     0.022 A 
ATOM      6  C   UNL     1      27.418  -2.356  30.752  1.00  0.00     0.062 A 
ATOM      7  C   UNL     1      26.898  -4.712  30.362  1.00  0.00     0.019 A 
ATOM      8  C   UNL     1      27.334  -5.982  29.984  1.00  0.00     0.094 A 
ATOM      9  C   UNL     1      28.676  -6.160  29.632  1.00  0.00     0.336 A 
ATOM     10  O   UNL     1      29.090  -7.298  29.287  1.00  0.00    -0.246 OA
ATOM     11  O   UNL     1      29.521  -5.132  29.657  1.00  0.00    -0.423 OA
ENDROOT
BRANCH   1  12
ATOM     12  O   UNL     1      28.016   0.003  31.126  1.00  0.00    -0.493 OA
ATOM     13  C   UNL     1      27.537   0.993  30.223  1.00  0.00     0.278 C 
ENDBRANCH   1  12
BRANCH   2  14
ATOM     14  O   UNL     1      30.622  -0.534  30.400  1.00  0.00    -0.504 OA
ATOM     15  H   UNL     1      30.565   0.235  29.742  1.00  0.00     0.293 HD
ENDBRANCH   2  14
TORSDOF 2
ENDMDL
MODEL 5
REMARK VINA RESULT:    -5.381      1.441      4.941
REMARK INTER + INTRA:          -5.911
REMARK INTER:                  -5.865
REMARK INTRA:                  -0.045
REMARK UNBOUND:                -0.058
REMARK SMILES COc1cc2ccc(=O)oc2cc1O
REMARK SMILES IDX 3 1 13 2 12 3 11 4 5 5 4 6 6 7 7 8 8 9 9 10 10 11 2 12 1 13
REMARK SMILES IDX 14 14
REMARK H PARENT 14 15
REMARK Flexibility Score: inf
ROOT
ATOM      1  C   UNL     1      28.119  -1.321  29.956  1.00  0.00     0.161 A 
ATOM      2  C   UNL     1      26.892  -1.906  30.306  1.00  0.00     0.161 A 
ATOM      3  C   UNL     1      26.823  -3.269  30.625  1.00  0.00     0.098 A 
ATOM      4  C   UNL     1      27.975  -4.059  30.597  1.00  0.00     0.142 A 
ATOM      5  C   UNL     1      29.213  -3.480  30.246  1.00  0.00     0.022 A 
ATOM      6  C   UNL     1      29.284  -2.117  29.927  1.00  0.00     0.062 A 
ATOM      7  C   UNL     1      30.348  -4.296  30.226  1.00  0.00     0.019 A 
ATOM      8  C   UNL     1      30.227  -5.647  30.552  1.00  0.00     0.094 A 
ATOM      9  C   UNL     1      28.967  -6.151  30.890  1.00  0.00     0.336 A 
ATOM     10  O   UNL     1      28.835  -7.368  31.187  1.00  0.00    -0.246 OA
ATOM     11  O   UNL     1      27.902  -5.353  30.901  1.00  0.00    -0.423 OA
ENDROOT
BRANCH   1  12
ATOM     12  O   UNL     1      28.143   0.047  29.644  1.00  0.00    -0.493 OA
ATOM     13  C   UNL     1      29.272   0.736  29.118  1.00  0.00     0.278 C 
ENDBRANCH   1  12
BRANCH   2  14
ATOM     14  O   UNL     1      25.741  -1.120  30.335  1.00  0.00    -0.504 OA
ATOM     15  H   UNL     1      24.931  -1.387  30.883  1.00  0.00     0.293 HD
ENDBRANCH   2  14
TORSDOF 2
ENDMDL
MODEL 6
REMARK VINA RESULT:    -5.249      2.240      6.101
REMARK INTER + INTRA:          -5.768
REMARK INTER:                  -5.703
REMARK INTRA:                  -0.064
REMARK UNBOUND:                -0.058
REMARK SMILES COc1cc2ccc(=O)oc2cc1O
REMARK SMILES IDX 3 1 13 2 12 3 11 4 5 5 4 6 6 7 7 8 8 9 9 10 10 11 2 12 1 13
REMARK SMILES IDX 14 14
REMARK H PARENT 14 15
REMARK Flexibility Score: inf
ROOT
ATOM      1  C   UNL     1      28.219   2.913  30.849  1.00  0.00     0.161 A 
ATOM      2  C   UNL     1      29.091   2.459  31.850  1.00  0.00     0.161 A 
ATOM      3  C   UNL     1      29.543   1.132  31.846  1.00  0.00     0.098 A 
ATOM      4  C   UNL     1      29.129   0.249  30.846  1.00  0.00     0.142 A 
ATOM      5  C   UNL     1      28.252   0.697  29.835  1.00  0.00     0.022 A 
ATOM      6  C   UNL     1      27.799   2.023  29.838  1.00  0.00     0.062 A 
ATOM      7  C   UNL     1      27.854  -0.210  28.848  1.00  0.00     0.019 A 
ATOM      8  C   UNL     1      28.332  -1.520  28.888  1.00  0.00     0.094 A 
ATOM      9  C   UNL     1      29.200  -1.893  29.921  1.00  0.00     0.336 A 
ATOM     10  O   UNL     1      29.642  -3.071  29.975  1.00  0.00    -0.246 OA
ATOM     11  O   UNL     1      29.562  -1.010  30.848  1.00  0.00    -0.423 OA
ENDROOT
BRANCH   1  12
ATOM     12  O   UNL     1      27.791   4.249  30.891  1.00  0.00    -0.493 OA
ATOM     13  C   UNL     1      28.340   5.298  30.100  1.00  0.00     0.278 C 
ENDBRANCH   1  12
BRANCH   2  14
ATOM     14  O   UNL     1      29.506   3.338  32.849  1.00  0.00    -0.504 OA
ATOM     15  H   UNL     1      29.539   3.056  33.822  1.00  0.00     0.293 HD
ENDBRANCH   2  14
TORSDOF 2
ENDMDL
MODEL 7
REMARK VINA RESULT:    -5.197      2.285      3.955
REMARK INTER + INTRA:          -5.710
REMARK INTER:                  -5.723
REMARK INTRA:                   0.013
REMARK UNBOUND:                -0.058
REMARK SMILES COc1cc2ccc(=O)oc2cc1O
REMARK SMILES IDX 3 1 13 2 12 3 11 4 5 5 4 6 6 7 7 8 8 9 9 10 10 11 2 12 1 13
REMARK SMILES IDX 14 14
REMARK H PARENT 14 15
REMARK Flexibility Score: inf
ROOT
ATOM      1  C   UNL     1      28.110  -0.600  30.092  1.00  0.00     0.161 A 
ATOM      2  C   UNL     1      28.775  -0.237  31.273  1.00  0.00     0.161 A 
ATOM      3  C   UNL     1      28.884   1.113  31.637  1.00  0.00     0.098 A 
ATOM      4  C   UNL     1      28.332   2.108  30.827  1.00  0.00     0.142 A 
ATOM      5  C   UNL     1      27.662   1.752  29.637  1.00  0.00     0.022 A 
ATOM      6  C   UNL     1      27.552   0.403  29.272  1.00  0.00     0.062 A 
ATOM      7  C   UNL     1      27.121   2.771  28.846  1.00  0.00     0.019 A 
ATOM      8  C   UNL     1      27.256   4.098  29.253  1.00  0.00     0.094 A 
ATOM      9  C   UNL     1      27.933   4.376  30.445  1.00  0.00     0.336 A 
ATOM     10  O   UNL     1      28.066   5.568  30.829  1.00  0.00    -0.246 OA
ATOM     11  O   UNL     1      28.439   3.387  31.178  1.00  0.00    -0.423 OA
ENDROOT
BRANCH   1  12
ATOM     12  O   UNL     1      28.024  -1.963  29.766  1.00  0.00    -0.493 OA
ATOM     13  C   UNL     1      27.060  -2.862  30.303  1.00  0.00     0.278 C 
ENDBRANCH   1  12
BRANCH   2  14
ATOM     14  O   UNL     1      29.326  -1.228  32.083  1.00  0.00    -0.504 OA
ATOM     15  H   UNL     1      29.640  -1.028  33.026  1.00  0.00     0.293 HD
ENDBRANCH   2  14
TORSDOF 2
ENDMDL
MODEL 8
REMARK VINA RESULT:    -5.186      2.307      5.837
REMARK INTER + INTRA:          -5.699
REMARK INTER:                  -5.636
REMARK INTRA:                  -0.063
REMARK UNBOUND:                -0.058
REMARK SMILES COc1cc2ccc(=O)oc2cc1O
REMARK SMILES IDX 3 1 13 2 12 3 11 4 5 5 4 6 6 7 7 8 8 9 9 10 10 11 2 12 1 13
REMARK SMILES IDX 14 14
REMARK H PARENT 14 15
REMARK Flexibility Score: inf
ROOT
ATOM      1  C   UNL     1      27.842   2.800  29.874  1.00  0.00     0.161 A 
ATOM      2  C   UNL     1      27.050   2.245  28.857  1.00  0.00     0.161 A 
ATOM      3  C   UNL     1      26.809   0.864  28.821  1.00  0.00     0.098 A 
ATOM      4  C   UNL     1      27.355   0.028  29.797  1.00  0.00     0.142 A 
ATOM      5  C   UNL     1      28.152   0.577  30.824  1.00  0.00     0.022 A 
ATOM      6  C   UNL     1      28.395   1.957  30.861  1.00  0.00     0.062 A 
ATOM      7  C   UNL     1      28.686  -0.287  31.786  1.00  0.00     0.019 A 
ATOM      8  C   UNL     1      28.416  -1.652  31.706  1.00  0.00     0.094 A 
ATOM      9  C   UNL     1      27.616  -2.125  30.660  1.00  0.00     0.336 A 
ATOM     10  O   UNL     1      27.361  -3.355  30.570  1.00  0.00    -0.246 OA
ATOM     11  O   UNL     1      27.122  -1.282  29.757  1.00  0.00    -0.423 OA
ENDROOT
BRANCH   1  12
ATOM     12  O   UNL     1      28.058   4.186  29.873  1.00  0.00    -0.493 OA
ATOM     13  C   UNL     1      27.339   5.117  30.675  1.00  0.00     0.278 C 
ENDBRANCH   1  12
BRANCH   2  14
ATOM     14  O   UNL     1      26.504   3.078  27.882  1.00  0.00    -0.504 OA
ATOM     15  H   UNL     1      26.597   2.869  26.894  1.00  0.00     0.293 HD
ENDBRANCH   2  14
TORSDOF 2
ENDMDL
MODEL 9
REMARK VINA RESULT:    -5.141      2.177      3.416
REMARK INTER + INTRA:          -5.650
REMARK INTER:                  -5.646
REMARK INTRA:                  -0.004
REMARK UNBOUND:                -0.058
REMARK SMILES COc1cc2ccc(=O)oc2cc1O
REMARK SMILES IDX 3 1 13 2 12 3 11 4 5 5 4 6 6 7 7 8 8 9 9 10 10 11 2 12 1 13
REMARK SMILES IDX 14 14
REMARK H PARENT 14 15
REMARK Flexibility Score: inf
ROOT
ATOM      1  C   UNL     1      28.427  -0.805  30.486  1.00  0.00     0.161 A 
ATOM      2  C   UNL     1      27.696  -0.513  29.323  1.00  0.00     0.161 A 
ATOM      3  C   UNL     1      27.387   0.815  28.996  1.00  0.00     0.098 A 
ATOM      4  C   UNL     1      27.802   1.860  29.825  1.00  0.00     0.142 A 
ATOM      5  C   UNL     1      28.537   1.576  30.996  1.00  0.00     0.022 A 
ATOM      6  C   UNL     1      28.847   0.249  31.324  1.00  0.00     0.062 A 
ATOM      7  C   UNL     1      28.939   2.643  31.806  1.00  0.00     0.019 A 
ATOM      8  C   UNL     1      28.606   3.946  31.437  1.00  0.00     0.094 A 
ATOM      9  C   UNL     1      27.876   4.152  30.262  1.00  0.00     0.336 A 
ATOM     10  O   UNL     1      27.565   5.321  29.911  1.00  0.00    -0.246 OA
ATOM     11  O   UNL     1      27.506   3.118  29.509  1.00  0.00    -0.423 OA
ENDROOT
BRANCH   1  12
ATOM     12  O   UNL     1      28.714  -2.148  30.774  1.00  0.00    -0.493 OA
ATOM     13  C   UNL     1      29.817  -2.870  30.238  1.00  0.00     0.278 C 
ENDBRANCH   1  12
BRANCH   2  14
ATOM     14  O   UNL     1      27.281  -1.553  28.495  1.00  0.00    -0.504 OA
ATOM     15  H   UNL     1      26.591  -2.231  28.800  1.00  0.00     0.293 HD
ENDBRANCH   2  14
TORSDOF 2
ENDMDL
