MODEL 1
REMARK VINA RESULT:    -7.667      0.000      0.000
REMARK INTER + INTRA:          -9.082
REMARK INTER:                  -9.236
REMARK INTRA:                   0.153
REMARK UNBOUND:                 0.153
REMARK SMILES O=c1c(O)c(-c2ccc(O)c(O)c2)oc2cc(O)cc(O)c12
REMARK SMILES IDX 5 1 3 2 2 3 1 4 22 5 20 6 19 7 17 8 16 9 15 10 14 11 6 12
REMARK SMILES IDX 7 13 8 14 9 15 13 16 11 17 10 18 12 20 4 22 21 24 18 26
REMARK H PARENT 10 19 12 21 4 23 21 25 18 27
REMARK Flexibility Score: inf
ROOT
ATOM      1  C   UNL     1      15.357  28.581  -6.641  1.00  0.00     0.180 A 
ATOM      2  C   UNL     1      16.412  27.735  -6.257  1.00  0.00     0.208 A 
ATOM      3  C   UNL     1      16.641  27.509  -4.891  1.00  0.00     0.238 A 
ATOM      4  O   UNL     1      17.553  26.708  -4.555  1.00  0.00    -0.285 OA
ATOM      5  C   UNL     1      15.822  28.142  -3.924  1.00  0.00     0.111 A 
ATOM      6  C   UNL     1      15.989  28.015  -2.513  1.00  0.00     0.134 A 
ATOM      7  C   UNL     1      15.041  28.582  -1.652  1.00  0.00     0.093 A 
ATOM      8  C   UNL     1      13.969  29.326  -2.151  1.00  0.00     0.123 A 
ATOM      9  C   UNL     1      13.831  29.505  -3.526  1.00  0.00     0.094 A 
ATOM     10  C   UNL     1      14.740  28.922  -4.410  1.00  0.00     0.146 A 
ATOM     11  O   UNL     1      14.566  29.108  -5.713  1.00  0.00    -0.452 OA
ENDROOT
BRANCH   1  12
ATOM     12  C   UNL     1      15.070  28.889  -8.061  1.00  0.00     0.025 A 
ATOM     13  C   UNL     1      13.754  28.898  -8.556  1.00  0.00     0.016 A 
ATOM     14  C   UNL     1      13.509  29.168  -9.904  1.00  0.00     0.051 A 
ATOM     15  C   UNL     1      14.573  29.418 -10.781  1.00  0.00     0.157 A 
ATOM     16  C   UNL     1      16.134  29.119  -8.948  1.00  0.00     0.062 A 
ATOM     17  C   UNL     1      15.892  29.391 -10.298  1.00  0.00     0.158 A 
BRANCH  15  18
ATOM     18  O   UNL     1      14.324  29.689 -12.125  1.00  0.00    -0.504 OA
ATOM     19  H   UNL     1      14.754  29.144 -12.865  1.00  0.00     0.293 HD
ENDBRANCH  15  18
BRANCH  17  20
ATOM     20  O   UNL     1      16.974  29.628 -11.147  1.00  0.00    -0.504 OA
ATOM     21  H   UNL     1      17.746  28.978 -11.228  1.00  0.00     0.293 HD
ENDBRANCH  17  20
ENDBRANCH   1  12
BRANCH   2  22
ATOM     22  O   UNL     1      17.194  27.103  -7.228  1.00  0.00    -0.502 OA
ATOM     23  H   UNL     1      17.334  26.099  -7.245  1.00  0.00     0.293 HD
ENDBRANCH   2  22
BRANCH   6  24
ATOM     24  O   UNL     1      17.074  27.372  -1.909  1.00  0.00    -0.507 OA
ATOM     25  H   UNL     1      17.148  27.173  -0.923  1.00  0.00     0.293 HD
ENDBRANCH   6  24
BRANCH   8  26
ATOM     26  O   UNL     1      13.038  29.900  -1.287  1.00  0.00    -0.508 OA
ATOM     27  H   UNL     1      12.785  29.458  -0.411  1.00  0.00     0.293 HD
ENDBRANCH   8  26
TORSDOF 6
ENDMDL
MODEL 2
REMARK VINA RESULT:    -7.152      1.674      1.987
REMARK INTER + INTRA:          -8.462
REMARK INTER:                  -8.455
REMARK INTRA:                  -0.006
REMARK UNBOUND:                 0.153
REMARK SMILES O=c1c(O)c(-c2ccc(O)c(O)c2)oc2cc(O)cc(O)c12
REMARK SMILES IDX 5 1 3 2 2 3 1 4 22 5 20 6 19 7 17 8 16 9 15 10 14 11 6 12
REMARK SMILES IDX 7 13 8 14 9 15 13 16 11 17 10 18 12 20 4 22 21 24 18 26
REMARK H PARENT 10 19 12 21 4 23 21 25 18 27
REMARK Flexibility Score: inf
ROOT
ATOM      1  C   UNL     1      14.707  28.640  -5.512  1.00  0.00     0.180 A 
ATOM      2  C   UNL     1      15.986  28.066  -5.402  1.00  0.00     0.208 A 
ATOM      3  C   UNL     1      16.363  27.471  -4.188  1.00  0.00     0.238 A 
ATOM      4  O   UNL     1      17.489  26.911  -4.114  1.00  0.00    -0.285 OA
ATOM      5  C   UNL     1      15.465  27.470  -3.094  1.00  0.00     0.111 A 
ATOM      6  C   UNL     1      15.758  26.930  -1.806  1.00  0.00     0.134 A 
ATOM      7  C   UNL     1      14.748  26.868  -0.838  1.00  0.00     0.093 A 
ATOM      8  C   UNL     1      13.475  27.384  -1.090  1.00  0.00     0.123 A 
ATOM      9  C   UNL     1      13.197  27.966  -2.325  1.00  0.00     0.094 A 
ATOM     10  C   UNL     1      14.173  28.011  -3.322  1.00  0.00     0.146 A 
ATOM     11  O   UNL     1      13.863  28.565  -4.488  1.00  0.00    -0.452 OA
ENDROOT
BRANCH   1  12
ATOM     12  C   UNL     1      14.246  29.308  -6.750  1.00  0.00     0.025 A 
ATOM     13  C   UNL     1      13.715  30.610  -6.725  1.00  0.00     0.016 A 
ATOM     14  C   UNL     1      13.264  31.211  -7.902  1.00  0.00     0.051 A 
ATOM     15  C   UNL     1      13.323  30.518  -9.119  1.00  0.00     0.157 A 
ATOM     16  C   UNL     1      14.284  28.609  -7.968  1.00  0.00     0.062 A 
ATOM     17  C   UNL     1      13.835  29.209  -9.149  1.00  0.00     0.158 A 
BRANCH  15  18
ATOM     18  O   UNL     1      12.875  31.122 -10.292  1.00  0.00    -0.504 OA
ATOM     19  H   UNL     1      12.988  32.116 -10.454  1.00  0.00     0.293 HD
ENDBRANCH  15  18
BRANCH  17  20
ATOM     20  O   UNL     1      13.900  28.490 -10.342  1.00  0.00    -0.504 OA
ATOM     21  H   UNL     1      13.107  28.409 -10.967  1.00  0.00     0.293 HD
ENDBRANCH  17  20
ENDBRANCH   1  12
BRANCH   2  22
ATOM     22  O   UNL     1      16.848  28.058  -6.502  1.00  0.00    -0.502 OA
ATOM     23  H   UNL     1      17.002  28.878  -7.078  1.00  0.00     0.293 HD
ENDBRANCH   2  22
BRANCH   6  24
ATOM     24  O   UNL     1      17.022  26.473  -1.420  1.00  0.00    -0.507 OA
ATOM     25  H   UNL     1      17.828  27.062  -1.280  1.00  0.00     0.293 HD
ENDBRANCH   6  24
BRANCH   8  26
ATOM     26  O   UNL     1      12.480  27.331  -0.116  1.00  0.00    -0.508 OA
ATOM     27  H   UNL     1      12.115  26.448   0.221  1.00  0.00     0.293 HD
ENDBRANCH   8  26
TORSDOF 6
ENDMDL
MODEL 3
REMARK VINA RESULT:    -7.009      3.749      5.321
REMARK INTER + INTRA:          -8.290
REMARK INTER:                  -8.013
REMARK INTRA:                  -0.277
REMARK UNBOUND:                 0.153
REMARK SMILES O=c1c(O)c(-c2ccc(O)c(O)c2)oc2cc(O)cc(O)c12
REMARK SMILES IDX 5 1 3 2 2 3 1 4 22 5 20 6 19 7 17 8 16 9 15 10 14 11 6 12
REMARK SMILES IDX 7 13 8 14 9 15 13 16 11 17 10 18 12 20 4 22 21 24 18 26
REMARK H PARENT 10 19 12 21 4 23 21 25 18 27
REMARK Flexibility Score: inf
ROOT
ATOM      1  C   UNL     1      13.611  30.422  -3.853  1.00  0.00     0.180 A 
ATOM      2  C   UNL     1      13.137  30.129  -2.562  1.00  0.00     0.208 A 
ATOM      3  C   UNL     1      13.699  29.051  -1.859  1.00  0.00     0.238 A 
ATOM      4  O   UNL     1      13.309  28.828  -0.683  1.00  0.00    -0.285 OA
ATOM      5  C   UNL     1      14.717  28.271  -2.460  1.00  0.00     0.111 A 
ATOM      6  C   UNL     1      15.330  27.134  -1.854  1.00  0.00     0.134 A 
ATOM      7  C   UNL     1      16.417  26.517  -2.487  1.00  0.00     0.093 A 
ATOM      8  C   UNL     1      16.870  26.957  -3.732  1.00  0.00     0.123 A 
ATOM      9  C   UNL     1      16.240  28.030  -4.358  1.00  0.00     0.094 A 
ATOM     10  C   UNL     1      15.177  28.688  -3.736  1.00  0.00     0.146 A 
ATOM     11  O   UNL     1      14.612  29.713  -4.363  1.00  0.00    -0.452 OA
ENDROOT
BRANCH   1  12
ATOM     12  C   UNL     1      13.051  31.525  -4.666  1.00  0.00     0.025 A 
ATOM     13  C   UNL     1      13.718  32.758  -4.787  1.00  0.00     0.016 A 
ATOM     14  C   UNL     1      13.158  33.792  -5.541  1.00  0.00     0.051 A 
ATOM     15  C   UNL     1      11.920  33.618  -6.173  1.00  0.00     0.157 A 
ATOM     16  C   UNL     1      11.800  31.363  -5.285  1.00  0.00     0.062 A 
ATOM     17  C   UNL     1      11.238  32.396  -6.041  1.00  0.00     0.158 A 
BRANCH  15  18
ATOM     18  O   UNL     1      11.366  34.651  -6.926  1.00  0.00    -0.504 OA
ATOM     19  H   UNL     1      11.839  35.026  -7.741  1.00  0.00     0.293 HD
ENDBRANCH  15  18
BRANCH  17  20
ATOM     20  O   UNL     1      10.000  32.194  -6.652  1.00  0.00    -0.504 OA
ATOM     21  H   UNL     1       9.180  32.731  -6.397  1.00  0.00     0.293 HD
ENDBRANCH  17  20
ENDBRANCH   1  12
BRANCH   2  22
ATOM     22  O   UNL     1      12.148  30.925  -1.980  1.00  0.00    -0.502 OA
ATOM     23  H   UNL     1      11.647  31.637  -2.499  1.00  0.00     0.293 HD
ENDBRANCH   2  22
BRANCH   6  24
ATOM     24  O   UNL     1      14.895  26.557  -0.657  1.00  0.00    -0.507 OA
ATOM     25  H   UNL     1      15.063  26.942   0.260  1.00  0.00     0.293 HD
ENDBRANCH   6  24
BRANCH   8  26
ATOM     26  O   UNL     1      17.942  26.328  -4.361  1.00  0.00    -0.508 OA
ATOM     27  H   UNL     1      18.634  25.807  -3.835  1.00  0.00     0.293 HD
ENDBRANCH   8  26
TORSDOF 6
ENDMDL
MODEL 4
REMARK VINA RESULT:    -6.942      1.742      7.071
REMARK INTER + INTRA:          -8.209
REMARK INTER:                  -8.551
REMARK INTRA:                   0.342
REMARK UNBOUND:                 0.153
REMARK SMILES O=c1c(O)c(-c2ccc(O)c(O)c2)oc2cc(O)cc(O)c12
REMARK SMILES IDX 5 1 3 2 2 3 1 4 22 5 20 6 19 7 17 8 16 9 15 10 14 11 6 12
REMARK SMILES IDX 7 13 8 14 9 15 13 16 11 17 10 18 12 20 4 22 21 24 18 26
REMARK H PARENT 10 19 12 21 4 23 21 25 18 27
REMARK Flexibility Score: inf
ROOT
ATOM      1  C   UNL     1      14.553  29.081  -6.162  1.00  0.00     0.180 A 
ATOM      2  C   UNL     1      13.687  30.180  -6.019  1.00  0.00     0.208 A 
ATOM      3  C   UNL     1      13.214  30.828  -7.171  1.00  0.00     0.238 A 
ATOM      4  O   UNL     1      12.396  31.777  -7.037  1.00  0.00    -0.285 OA
ATOM      5  C   UNL     1      13.622  30.381  -8.450  1.00  0.00     0.111 A 
ATOM      6  C   UNL     1      13.235  30.988  -9.682  1.00  0.00     0.134 A 
ATOM      7  C   UNL     1      13.594  30.382 -10.893  1.00  0.00     0.093 A 
ATOM      8  C   UNL     1      14.381  29.229 -10.916  1.00  0.00     0.123 A 
ATOM      9  C   UNL     1      14.813  28.662  -9.719  1.00  0.00     0.094 A 
ATOM     10  C   UNL     1      14.441  29.223  -8.495  1.00  0.00     0.146 A 
ATOM     11  O   UNL     1      14.865  28.645  -7.377  1.00  0.00    -0.452 OA
ENDROOT
BRANCH   1  12
ATOM     12  C   UNL     1      15.114  28.363  -4.996  1.00  0.00     0.025 A 
ATOM     13  C   UNL     1      14.464  28.371  -3.749  1.00  0.00     0.016 A 
ATOM     14  C   UNL     1      15.025  27.705  -2.657  1.00  0.00     0.051 A 
ATOM     15  C   UNL     1      16.248  27.034  -2.788  1.00  0.00     0.157 A 
ATOM     16  C   UNL     1      16.350  27.706  -5.117  1.00  0.00     0.062 A 
ATOM     17  C   UNL     1      16.913  27.038  -4.025  1.00  0.00     0.158 A 
BRANCH  15  18
ATOM     18  O   UNL     1      16.803  26.369  -1.697  1.00  0.00    -0.504 OA
ATOM     19  H   UNL     1      17.618  26.730  -1.213  1.00  0.00     0.293 HD
ENDBRANCH  15  18
BRANCH  17  20
ATOM     20  O   UNL     1      18.136  26.385  -4.187  1.00  0.00    -0.504 OA
ATOM     21  H   UNL     1      18.302  25.734  -4.945  1.00  0.00     0.293 HD
ENDBRANCH  17  20
ENDBRANCH   1  12
BRANCH   2  22
ATOM     22  O   UNL     1      13.279  30.591  -4.747  1.00  0.00    -0.502 OA
ATOM     23  H   UNL     1      12.410  31.088  -4.589  1.00  0.00     0.293 HD
ENDBRANCH   2  22
BRANCH   6  24
ATOM     24  O   UNL     1      12.528  32.191  -9.772  1.00  0.00    -0.507 OA
ATOM     25  H   UNL     1      12.601  32.951  -9.113  1.00  0.00     0.293 HD
ENDBRANCH   6  24
BRANCH   8  26
ATOM     26  O   UNL     1      14.746  28.641 -12.125  1.00  0.00    -0.508 OA
ATOM     27  H   UNL     1      15.078  27.684 -12.171  1.00  0.00     0.293 HD
ENDBRANCH   8  26
TORSDOF 6
ENDMDL
MODEL 5
REMARK VINA RESULT:    -6.925      3.573      5.473
REMARK INTER + INTRA:          -8.188
REMARK INTER:                  -7.881
REMARK INTRA:                  -0.307
REMARK UNBOUND:                 0.153
REMARK SMILES O=c1c(O)c(-c2ccc(O)c(O)c2)oc2cc(O)cc(O)c12
REMARK SMILES IDX 5 1 3 2 2 3 1 4 22 5 20 6 19 7 17 8 16 9 15 10 14 11 6 12
REMARK SMILES IDX 7 13 8 14 9 15 13 16 11 17 10 18 12 20 4 22 21 24 18 26
REMARK H PARENT 10 19 12 21 4 23 21 25 18 27
REMARK Flexibility Score: inf
ROOT
ATOM      1  C   UNL     1      13.371  31.175  -4.694  1.00  0.00     0.180 A 
ATOM      2  C   UNL     1      13.438  30.867  -3.324  1.00  0.00     0.208 A 
ATOM      3  C   UNL     1      14.260  29.810  -2.904  1.00  0.00     0.238 A 
ATOM      4  O   UNL     1      14.358  29.574  -1.671  1.00  0.00    -0.285 OA
ATOM      5  C   UNL     1      14.994  29.064  -3.858  1.00  0.00     0.111 A 
ATOM      6  C   UNL     1      15.827  27.949  -3.547  1.00  0.00     0.134 A 
ATOM      7  C   UNL     1      16.607  27.368  -4.555  1.00  0.00     0.093 A 
ATOM      8  C   UNL     1      16.534  27.822  -5.874  1.00  0.00     0.123 A 
ATOM      9  C   UNL     1      15.679  28.873  -6.198  1.00  0.00     0.094 A 
ATOM     10  C   UNL     1      14.916  29.495  -5.208  1.00  0.00     0.146 A 
ATOM     11  O   UNL     1      14.121  30.500  -5.557  1.00  0.00    -0.452 OA
ENDROOT
BRANCH   1  12
ATOM     12  C   UNL     1      12.507  32.258  -5.218  1.00  0.00     0.025 A 
ATOM     13  C   UNL     1      11.124  32.071  -5.394  1.00  0.00     0.016 A 
ATOM     14  C   UNL     1      10.334  33.099  -5.911  1.00  0.00     0.051 A 
ATOM     15  C   UNL     1      10.911  34.323  -6.274  1.00  0.00     0.157 A 
ATOM     16  C   UNL     1      13.085  33.479  -5.602  1.00  0.00     0.062 A 
ATOM     17  C   UNL     1      12.295  34.511  -6.120  1.00  0.00     0.158 A 
BRANCH  15  18
ATOM     18  O   UNL     1      10.119  35.348  -6.787  1.00  0.00    -0.504 OA
ATOM     19  H   UNL     1      10.062  36.253  -6.334  1.00  0.00     0.293 HD
ENDBRANCH  15  18
BRANCH  17  20
ATOM     20  O   UNL     1      12.903  35.715  -6.478  1.00  0.00    -0.504 OA
ATOM     21  H   UNL     1      12.705  36.583  -5.994  1.00  0.00     0.293 HD
ENDBRANCH  17  20
ENDBRANCH   1  12
BRANCH   2  22
ATOM     22  O   UNL     1      12.723  31.630  -2.397  1.00  0.00    -0.502 OA
ATOM     23  H   UNL     1      12.838  31.518  -1.397  1.00  0.00     0.293 HD
ENDBRANCH   2  22
BRANCH   6  24
ATOM     24  O   UNL     1      15.903  27.359  -2.282  1.00  0.00    -0.507 OA
ATOM     25  H   UNL     1      16.081  27.860  -1.424  1.00  0.00     0.293 HD
ENDBRANCH   6  24
BRANCH   8  26
ATOM     26  O   UNL     1      17.302  27.229  -6.874  1.00  0.00    -0.508 OA
ATOM     27  H   UNL     1      18.055  27.730  -7.332  1.00  0.00     0.293 HD
ENDBRANCH   8  26
TORSDOF 6
ENDMDL
MODEL 6
REMARK VINA RESULT:    -6.889      1.833      2.286
REMARK INTER + INTRA:          -8.145
REMARK INTER:                  -8.227
REMARK INTRA:                   0.082
REMARK UNBOUND:                 0.153
REMARK SMILES O=c1c(O)c(-c2ccc(O)c(O)c2)oc2cc(O)cc(O)c12
REMARK SMILES IDX 5 1 3 2 2 3 1 4 22 5 20 6 19 7 17 8 16 9 15 10 14 11 6 12
REMARK SMILES IDX 7 13 8 14 9 15 13 16 11 17 10 18 12 20 4 22 21 24 18 26
REMARK H PARENT 10 19 12 21 4 23 21 25 18 27
REMARK Flexibility Score: inf
ROOT
ATOM      1  C   UNL     1      14.738  28.641  -5.633  1.00  0.00     0.180 A 
ATOM      2  C   UNL     1      16.013  28.057  -5.535  1.00  0.00     0.208 A 
ATOM      3  C   UNL     1      16.398  27.461  -4.324  1.00  0.00     0.238 A 
ATOM      4  O   UNL     1      17.520  26.892  -4.260  1.00  0.00    -0.285 OA
ATOM      5  C   UNL     1      15.512  27.468  -3.221  1.00  0.00     0.111 A 
ATOM      6  C   UNL     1      15.813  26.928  -1.935  1.00  0.00     0.134 A 
ATOM      7  C   UNL     1      14.812  26.875  -0.957  1.00  0.00     0.093 A 
ATOM      8  C   UNL     1      13.541  27.401  -1.197  1.00  0.00     0.123 A 
ATOM      9  C   UNL     1      13.255  27.984  -2.430  1.00  0.00     0.094 A 
ATOM     10  C   UNL     1      14.221  28.019  -3.437  1.00  0.00     0.146 A 
ATOM     11  O   UNL     1      13.904  28.574  -4.601  1.00  0.00    -0.452 OA
ENDROOT
BRANCH   1  12
ATOM     12  C   UNL     1      14.270  29.310  -6.867  1.00  0.00     0.025 A 
ATOM     13  C   UNL     1      14.457  28.726  -8.133  1.00  0.00     0.016 A 
ATOM     14  C   UNL     1      14.028  29.388  -9.286  1.00  0.00     0.051 A 
ATOM     15  C   UNL     1      13.420  30.647  -9.195  1.00  0.00     0.157 A 
ATOM     16  C   UNL     1      13.679  30.582  -6.783  1.00  0.00     0.062 A 
ATOM     17  C   UNL     1      13.248  31.247  -7.936  1.00  0.00     0.158 A 
BRANCH  15  18
ATOM     18  O   UNL     1      12.991  31.303 -10.347  1.00  0.00    -0.504 OA
ATOM     19  H   UNL     1      12.515  30.809 -11.094  1.00  0.00     0.293 HD
ENDBRANCH  15  18
BRANCH  17  20
ATOM     20  O   UNL     1      12.653  32.502  -7.812  1.00  0.00    -0.504 OA
ATOM     21  H   UNL     1      13.196  33.358  -7.816  1.00  0.00     0.293 HD
ENDBRANCH  17  20
ENDBRANCH   1  12
BRANCH   2  22
ATOM     22  O   UNL     1      16.865  28.041  -6.643  1.00  0.00    -0.502 OA
ATOM     23  H   UNL     1      17.613  27.365  -6.745  1.00  0.00     0.293 HD
ENDBRANCH   2  22
BRANCH   6  24
ATOM     24  O   UNL     1      17.076  26.462  -1.561  1.00  0.00    -0.507 OA
ATOM     25  H   UNL     1      17.951  26.869  -1.858  1.00  0.00     0.293 HD
ENDBRANCH   6  24
BRANCH   8  26
ATOM     26  O   UNL     1      12.555  27.358  -0.213  1.00  0.00    -0.508 OA
ATOM     27  H   UNL     1      11.747  26.753  -0.300  1.00  0.00     0.293 HD
ENDBRANCH   8  26
TORSDOF 6
ENDMDL
MODEL 7
REMARK VINA RESULT:    -6.699      1.734      6.569
REMARK INTER + INTRA:          -7.917
REMARK INTER:                  -8.025
REMARK INTRA:                   0.108
REMARK UNBOUND:                 0.153
REMARK SMILES O=c1c(O)c(-c2ccc(O)c(O)c2)oc2cc(O)cc(O)c12
REMARK SMILES IDX 5 1 3 2 2 3 1 4 22 5 20 6 19 7 17 8 16 9 15 10 14 11 6 12
REMARK SMILES IDX 7 13 8 14 9 15 13 16 11 17 10 18 12 20 4 22 21 24 18 26
REMARK H PARENT 10 19 12 21 4 23 21 25 18 27
REMARK Flexibility Score: inf
ROOT
ATOM      1  C   UNL     1      15.428  28.749  -5.982  1.00  0.00     0.180 A 
ATOM      2  C   UNL     1      16.170  28.301  -7.089  1.00  0.00     0.208 A 
ATOM      3  C   UNL     1      15.724  28.618  -8.381  1.00  0.00     0.238 A 
ATOM      4  O   UNL     1      16.423  28.261  -9.366  1.00  0.00    -0.285 OA
ATOM      5  C   UNL     1      14.535  29.367  -8.553  1.00  0.00     0.111 A 
ATOM      6  C   UNL     1      13.970  29.712  -9.817  1.00  0.00     0.134 A 
ATOM      7  C   UNL     1      12.861  30.566  -9.868  1.00  0.00     0.093 A 
ATOM      8  C   UNL     1      12.258  31.033  -8.698  1.00  0.00     0.123 A 
ATOM      9  C   UNL     1      12.767  30.655  -7.458  1.00  0.00     0.094 A 
ATOM     10  C   UNL     1      13.894  29.833  -7.376  1.00  0.00     0.146 A 
ATOM     11  O   UNL     1      14.353  29.504  -6.174  1.00  0.00    -0.452 OA
ENDROOT
BRANCH   1  12
ATOM     12  C   UNL     1      15.820  28.432  -4.590  1.00  0.00     0.025 A 
ATOM     13  C   UNL     1      15.836  29.422  -3.591  1.00  0.00     0.016 A 
ATOM     14  C   UNL     1      16.232  29.105  -2.290  1.00  0.00     0.051 A 
ATOM     15  C   UNL     1      16.631  27.801  -1.969  1.00  0.00     0.157 A 
ATOM     16  C   UNL     1      16.241  27.132  -4.268  1.00  0.00     0.062 A 
ATOM     17  C   UNL     1      16.637  26.811  -2.966  1.00  0.00     0.158 A 
BRANCH  15  18
ATOM     18  O   UNL     1      17.024  27.488  -0.669  1.00  0.00    -0.504 OA
ATOM     19  H   UNL     1      18.002  27.442  -0.406  1.00  0.00     0.293 HD
ENDBRANCH  15  18
BRANCH  17  20
ATOM     20  O   UNL     1      17.036  25.505  -2.681  1.00  0.00    -0.504 OA
ATOM     21  H   UNL     1      17.797  25.301  -2.043  1.00  0.00     0.293 HD
ENDBRANCH  17  20
ENDBRANCH   1  12
BRANCH   2  22
ATOM     22  O   UNL     1      17.354  27.582  -6.896  1.00  0.00    -0.502 OA
ATOM     23  H   UNL     1      17.892  27.205  -7.668  1.00  0.00     0.293 HD
ENDBRANCH   2  22
BRANCH   6  24
ATOM     24  O   UNL     1      14.438  29.224 -11.041  1.00  0.00    -0.507 OA
ATOM     25  H   UNL     1      14.823  28.302 -11.183  1.00  0.00     0.293 HD
ENDBRANCH   6  24
BRANCH   8  26
ATOM     26  O   UNL     1      11.146  31.871  -8.757  1.00  0.00    -0.508 OA
ATOM     27  H   UNL     1      11.241  32.867  -8.915  1.00  0.00     0.293 HD
ENDBRANCH   8  26
TORSDOF 6
ENDMDL
MODEL 8
REMARK VINA RESULT:    -6.639      2.048      3.055
REMARK INTER + INTRA:          -7.844
REMARK INTER:                  -7.558
REMARK INTRA:                  -0.286
REMARK UNBOUND:                 0.153
REMARK SMILES O=c1c(O)c(-c2ccc(O)c(O)c2)oc2cc(O)cc(O)c12
REMARK SMILES IDX 5 1 3 2 2 3 1 4 22 5 20 6 19 7 17 8 16 9 15 10 14 11 6 12
REMARK SMILES IDX 7 13 8 14 9 15 13 16 11 17 10 18 12 20 4 22 21 24 18 26
REMARK H PARENT 10 19 12 21 4 23 21 25 18 27
REMARK Flexibility Score: inf
ROOT
ATOM      1  C   UNL     1      13.583  29.461  -6.502  1.00  0.00     0.180 A 
ATOM      2  C   UNL     1      12.391  29.002  -5.915  1.00  0.00     0.208 A 
ATOM      3  C   UNL     1      12.350  28.797  -4.528  1.00  0.00     0.238 A 
ATOM      4  O   UNL     1      11.263  28.438  -4.002  1.00  0.00    -0.285 OA
ATOM      5  C   UNL     1      13.503  29.038  -3.744  1.00  0.00     0.111 A 
ATOM      6  C   UNL     1      13.585  28.826  -2.335  1.00  0.00     0.134 A 
ATOM      7  C   UNL     1      14.737  29.222  -1.644  1.00  0.00     0.093 A 
ATOM      8  C   UNL     1      15.834  29.761  -2.320  1.00  0.00     0.123 A 
ATOM      9  C   UNL     1      15.785  29.918  -3.703  1.00  0.00     0.094 A 
ATOM     10  C   UNL     1      14.637  29.566  -4.415  1.00  0.00     0.146 A 
ATOM     11  O   UNL     1      14.629  29.741  -5.731  1.00  0.00    -0.452 OA
ENDROOT
BRANCH   1  12
ATOM     12  C   UNL     1      13.713  29.677  -7.961  1.00  0.00     0.025 A 
ATOM     13  C   UNL     1      13.182  30.822  -8.581  1.00  0.00     0.016 A 
ATOM     14  C   UNL     1      13.296  30.992  -9.963  1.00  0.00     0.051 A 
ATOM     15  C   UNL     1      13.927  30.018 -10.747  1.00  0.00     0.157 A 
ATOM     16  C   UNL     1      14.326  28.693  -8.754  1.00  0.00     0.062 A 
ATOM     17  C   UNL     1      14.442  28.861 -10.137  1.00  0.00     0.158 A 
BRANCH  15  18
ATOM     18  O   UNL     1      14.041  30.192 -12.125  1.00  0.00    -0.504 OA
ATOM     19  H   UNL     1      14.872  29.904 -12.630  1.00  0.00     0.293 HD
ENDBRANCH  15  18
BRANCH  17  20
ATOM     20  O   UNL     1      15.069  27.869 -10.891  1.00  0.00    -0.504 OA
ATOM     21  H   UNL     1      15.144  26.912 -10.565  1.00  0.00     0.293 HD
ENDBRANCH  17  20
ENDBRANCH   1  12
BRANCH   2  22
ATOM     22  O   UNL     1      11.257  28.792  -6.705  1.00  0.00    -0.502 OA
ATOM     23  H   UNL     1      11.135  27.960  -7.270  1.00  0.00     0.293 HD
ENDBRANCH   2  22
BRANCH   6  24
ATOM     24  O   UNL     1      12.584  28.210  -1.579  1.00  0.00    -0.507 OA
ATOM     25  H   UNL     1      12.162  28.606  -0.753  1.00  0.00     0.293 HD
ENDBRANCH   6  24
BRANCH   8  26
ATOM     26  O   UNL     1      16.982  30.139  -1.625  1.00  0.00    -0.508 OA
ATOM     27  H   UNL     1      17.104  31.083  -1.278  1.00  0.00     0.293 HD
ENDBRANCH   8  26
TORSDOF 6
ENDMDL
MODEL 9
REMARK VINA RESULT:    -6.543      2.136      7.382
REMARK INTER + INTRA:          -7.729
REMARK INTER:                  -7.433
REMARK INTRA:                  -0.296
REMARK UNBOUND:                 0.153
REMARK SMILES O=c1c(O)c(-c2ccc(O)c(O)c2)oc2cc(O)cc(O)c12
REMARK SMILES IDX 5 1 3 2 2 3 1 4 22 5 20 6 19 7 17 8 16 9 15 10 14 11 6 12
REMARK SMILES IDX 7 13 8 14 9 15 13 16 11 17 10 18 12 20 4 22 21 24 18 26
REMARK H PARENT 10 19 12 21 4 23 21 25 18 27
REMARK Flexibility Score: inf
ROOT
ATOM      1  C   UNL     1      14.145  29.785  -6.887  1.00  0.00     0.180 A 
ATOM      2  C   UNL     1      13.323  30.757  -7.485  1.00  0.00     0.208 A 
ATOM      3  C   UNL     1      13.271  30.837  -8.885  1.00  0.00     0.238 A 
ATOM      4  O   UNL     1      12.492  31.673  -9.414  1.00  0.00    -0.285 OA
ATOM      5  C   UNL     1      14.052  29.956  -9.672  1.00  0.00     0.111 A 
ATOM      6  C   UNL     1      14.107  29.975 -11.097  1.00  0.00     0.134 A 
ATOM      7  C   UNL     1      14.813  28.972 -11.774  1.00  0.00     0.093 A 
ATOM      8  C   UNL     1      15.519  27.991 -11.075  1.00  0.00     0.123 A 
ATOM      9  C   UNL     1      15.520  27.999  -9.682  1.00  0.00     0.094 A 
ATOM     10  C   UNL     1      14.796  28.965  -8.979  1.00  0.00     0.146 A 
ATOM     11  O   UNL     1      14.815  28.931  -7.652  1.00  0.00    -0.452 OA
ENDROOT
BRANCH   1  12
ATOM     12  C   UNL     1      14.272  29.656  -5.418  1.00  0.00     0.025 A 
ATOM     13  C   UNL     1      13.300  28.983  -4.655  1.00  0.00     0.016 A 
ATOM     14  C   UNL     1      13.430  28.894  -3.267  1.00  0.00     0.051 A 
ATOM     15  C   UNL     1      14.521  29.486  -2.619  1.00  0.00     0.157 A 
ATOM     16  C   UNL     1      15.353  30.266  -4.761  1.00  0.00     0.062 A 
ATOM     17  C   UNL     1      15.486  30.177  -3.371  1.00  0.00     0.158 A 
BRANCH  15  18
ATOM     18  O   UNL     1      14.648  29.393  -1.234  1.00  0.00    -0.504 OA
ATOM     19  H   UNL     1      13.927  28.969  -0.662  1.00  0.00     0.293 HD
ENDBRANCH  15  18
BRANCH  17  20
ATOM     20  O   UNL     1      16.580  30.785  -2.755  1.00  0.00    -0.504 OA
ATOM     21  H   UNL     1      16.659  31.791  -2.666  1.00  0.00     0.293 HD
ENDBRANCH  17  20
ENDBRANCH   1  12
BRANCH   2  22
ATOM     22  O   UNL     1      12.543  31.602  -6.690  1.00  0.00    -0.502 OA
ATOM     23  H   UNL     1      11.986  32.354  -7.079  1.00  0.00     0.293 HD
ENDBRANCH   2  22
BRANCH   6  24
ATOM     24  O   UNL     1      13.514  30.963 -11.888  1.00  0.00    -0.507 OA
ATOM     25  H   UNL     1      14.014  31.713 -12.342  1.00  0.00     0.293 HD
ENDBRANCH   6  24
BRANCH   8  26
ATOM     26  O   UNL     1      16.231  27.006 -11.756  1.00  0.00    -0.508 OA
ATOM     27  H   UNL     1      15.801  26.450 -12.485  1.00  0.00     0.293 HD
ENDBRANCH   8  26
TORSDOF 6
ENDMDL
