MODEL 1
REMARK VINA RESULT:    -1.876      0.000      0.000
REMARK INTER + INTRA:          -3.134
REMARK INTER:                  -3.083
REMARK INTRA:                  -0.051
REMARK UNBOUND:                -0.051
REMARK SMILES C[C@@H]1O[C@H](OC[C@H]2O[C@H](Oc3c(-c4ccc(O)c(O)c4)oc4cc(O)cc(O)c4c3=O)[C@@H](O)[C@H](O)[C@H]2O)[C@H](O)[C@@H](O)[C@@H]1O
REMARK SMILES IDX 7 1 36 2 34 3 32 4 9 5 8 6 6 7 5 8 4 9 1 10 2 11 42 12 3 13
REMARK SMILES IDX 40 14 38 15 43 16 41 18 39 20 37 22 35 24 10 26 11 27 12 28
REMARK SMILES IDX 30 29 21 30 29 31 31 32 22 33 27 34 23 35 26 36 24 37 13 38
REMARK SMILES IDX 20 39 14 40 18 41 15 42 16 43 19 44 17 46 28 48 25 50 33 52
REMARK H PARENT 43 17 41 19 39 21 37 23 35 25 19 45 17 47 28 49 25 51 33 53
REMARK Flexibility Score: inf
ROOT
ATOM      1  C   UNL     1      27.155 -10.587  31.173  1.00  0.00     0.180 C 
ATOM      2  C   UNL     1      26.963 -10.236  29.675  1.00  0.00     0.177 C 
ATOM      3  C   UNL     1      25.710 -10.955  29.101  1.00  0.00     0.180 C 
ATOM      4  C   UNL     1      24.761 -11.437  30.221  1.00  0.00     0.214 C 
ATOM      5  C   UNL     1      24.768 -10.435  31.399  1.00  0.00     0.339 C 
ATOM      6  O   UNL     1      26.048 -10.199  31.977  1.00  0.00    -0.332 OA
ENDROOT
BRANCH   1   7
ATOM      7  C   UNL     1      28.466  -9.983  31.737  1.00  0.00     0.198 C 
BRANCH   7   8
ATOM      8  O   UNL     1      29.420  -9.717  30.721  1.00  0.00    -0.347 OA
BRANCH   8   9
ATOM      9  C   UNL     1      30.747 -10.002  31.132  1.00  0.00     0.281 C 
ATOM     10  C   UNL     1      33.278 -12.071  29.473  1.00  0.00     0.041 C 
ATOM     11  C   UNL     1      32.737 -11.005  30.435  1.00  0.00     0.150 C 
ATOM     12  C   UNL     1      33.573  -9.685  30.432  1.00  0.00     0.174 C 
ATOM     13  O   UNL     1      31.385 -10.746  30.102  1.00  0.00    -0.344 OA
ATOM     14  C   UNL     1      32.651  -8.451  30.436  1.00  0.00     0.179 C 
ATOM     15  C   UNL     1      31.498  -8.664  31.425  1.00  0.00     0.202 C 
BRANCH  12  16
ATOM     16  O   UNL     1      34.432  -9.600  29.320  1.00  0.00    -0.388 OA
ATOM     17  H   UNL     1      34.720 -10.526  29.103  1.00  0.00     0.211 HD
ENDBRANCH  12  16
BRANCH  14  18
ATOM     18  O   UNL     1      33.377  -7.306  30.805  1.00  0.00    -0.387 OA
ATOM     19  H   UNL     1      34.218  -7.625  31.223  1.00  0.00     0.211 HD
ENDBRANCH  14  18
BRANCH  15  20
ATOM     20  O   UNL     1      30.628  -7.560  31.363  1.00  0.00    -0.385 OA
ATOM     21  H   UNL     1      30.105  -7.564  32.208  1.00  0.00     0.211 HD
ENDBRANCH  15  20
ENDBRANCH   8   9
ENDBRANCH   7   8
ENDBRANCH   1   7
BRANCH   2  22
ATOM     22  O   UNL     1      26.824  -8.846  29.539  1.00  0.00    -0.387 OA
ATOM     23  H   UNL     1      27.740  -8.461  29.554  1.00  0.00     0.211 HD
ENDBRANCH   2  22
BRANCH   3  24
ATOM     24  O   UNL     1      26.076 -12.040  28.280  1.00  0.00    -0.387 OA
ATOM     25  H   UNL     1      26.608 -11.679  27.524  1.00  0.00     0.211 HD
ENDBRANCH   3  24
BRANCH   5  26
ATOM     26  O   UNL     1      23.900 -10.941  32.413  1.00  0.00    -0.454 OA
BRANCH  26  27
ATOM     27  C   UNL     1      23.064 -10.149  33.212  1.00  0.00     0.214 A 
ATOM     28  C   UNL     1      21.756  -9.876  32.771  1.00  0.00     0.180 A 
ATOM     29  C   UNL     1      23.491  -9.609  34.436  1.00  0.00     0.239 A 
ATOM     30  O   UNL     1      20.971  -9.068  33.476  1.00  0.00    -0.452 OA
ATOM     31  C   UNL     1      22.629  -8.757  35.159  1.00  0.00     0.111 A 
ATOM     32  O   UNL     1      24.630  -9.906  34.886  1.00  0.00    -0.285 OA
ATOM     33  C   UNL     1      21.344  -8.509  34.622  1.00  0.00     0.146 A 
ATOM     34  C   UNL     1      22.992  -8.149  36.385  1.00  0.00     0.134 A 
ATOM     35  C   UNL     1      20.446  -7.679  35.297  1.00  0.00     0.094 A 
ATOM     36  C   UNL     1      22.077  -7.317  37.045  1.00  0.00     0.093 A 
ATOM     37  C   UNL     1      20.808  -7.083  36.510  1.00  0.00     0.123 A 
BRANCH  28  38
ATOM     38  C   UNL     1      21.238 -10.439  31.505  1.00  0.00     0.025 A 
ATOM     39  C   UNL     1      21.565  -9.827  30.285  1.00  0.00     0.062 A 
ATOM     40  C   UNL     1      20.418 -11.580  31.503  1.00  0.00     0.016 A 
ATOM     41  C   UNL     1      21.118 -10.369  29.075  1.00  0.00     0.158 A 
ATOM     42  C   UNL     1      19.963 -12.118  30.299  1.00  0.00     0.051 A 
ATOM     43  C   UNL     1      20.316 -11.523  29.081  1.00  0.00     0.157 A 
BRANCH  41  44
ATOM     44  O   UNL     1      21.486  -9.755  27.879  1.00  0.00    -0.504 OA
ATOM     45  H   UNL     1      21.944 -10.263  27.131  1.00  0.00     0.293 HD
ENDBRANCH  41  44
BRANCH  43  46
ATOM     46  O   UNL     1      19.875 -12.072  27.878  1.00  0.00    -0.504 OA
ATOM     47  H   UNL     1      18.957 -11.860  27.503  1.00  0.00     0.293 HD
ENDBRANCH  43  46
ENDBRANCH  28  38
BRANCH  34  48
ATOM     48  O   UNL     1      24.248  -8.366  36.950  1.00  0.00    -0.507 OA
ATOM     49  H   UNL     1      24.741  -7.631  37.444  1.00  0.00     0.293 HD
ENDBRANCH  34  48
BRANCH  37  50
ATOM     50  O   UNL     1      19.915  -6.263  37.194  1.00  0.00    -0.508 OA
ATOM     51  H   UNL     1      19.039  -5.971  36.779  1.00  0.00     0.293 HD
ENDBRANCH  37  50
ENDBRANCH  26  27
ENDBRANCH   5  26
BRANCH   4  52
ATOM     52  O   UNL     1      23.459 -11.627  29.725  1.00  0.00    -0.384 OA
ATOM     53  H   UNL     1      23.353 -12.591  29.507  1.00  0.00     0.211 HD
ENDBRANCH   4  52
TORSDOF 16
ENDMDL
MODEL 2
REMARK VINA RESULT:    -0.377      2.290      8.177
REMARK INTER + INTRA:          -0.670
REMARK INTER:                  -0.328
REMARK INTRA:                  -0.342
REMARK UNBOUND:                -0.051
REMARK SMILES C[C@@H]1O[C@H](OC[C@H]2O[C@H](Oc3c(-c4ccc(O)c(O)c4)oc4cc(O)cc(O)c4c3=O)[C@@H](O)[C@H](O)[C@H]2O)[C@H](O)[C@@H](O)[C@@H]1O
REMARK SMILES IDX 7 1 36 2 34 3 32 4 9 5 8 6 6 7 5 8 4 9 1 10 2 11 42 12 3 13
REMARK SMILES IDX 40 14 38 15 43 16 41 18 39 20 37 22 35 24 10 26 11 27 12 28
REMARK SMILES IDX 30 29 21 30 29 31 31 32 22 33 27 34 23 35 26 36 24 37 13 38
REMARK SMILES IDX 20 39 14 40 18 41 15 42 16 43 19 44 17 46 28 48 25 50 33 52
REMARK H PARENT 43 17 41 19 39 21 37 23 35 25 19 45 17 47 28 49 25 51 33 53
REMARK Flexibility Score: inf
ROOT
ATOM      1  C   UNL     1      23.630 -10.053  34.874  1.00  0.00     0.180 C 
ATOM      2  C   UNL     1      22.517 -10.983  35.421  1.00  0.00     0.177 C 
ATOM      3  C   UNL     1      21.573 -11.440  34.275  1.00  0.00     0.180 C 
ATOM      4  C   UNL     1      22.218 -11.242  32.885  1.00  0.00     0.214 C 
ATOM      5  C   UNL     1      23.741 -11.500  32.959  1.00  0.00     0.339 C 
ATOM      6  O   UNL     1      24.442 -10.684  33.891  1.00  0.00    -0.332 OA
ENDROOT
BRANCH   1   7
ATOM      7  C   UNL     1      24.511  -9.483  36.014  1.00  0.00     0.198 C 
BRANCH   7   8
ATOM      8  O   UNL     1      24.644  -8.073  35.942  1.00  0.00    -0.347 OA
BRANCH   8   9
ATOM      9  C   UNL     1      24.388  -7.437  37.183  1.00  0.00     0.281 C 
ATOM     10  C   UNL     1      26.251  -4.735  38.815  1.00  0.00     0.041 C 
ATOM     11  C   UNL     1      25.055  -5.653  38.533  1.00  0.00     0.150 C 
ATOM     12  C   UNL     1      23.693  -4.891  38.452  1.00  0.00     0.174 C 
ATOM     13  O   UNL     1      25.307  -6.363  37.334  1.00  0.00    -0.344 OA
ATOM     14  C   UNL     1      22.845  -5.405  37.273  1.00  0.00     0.179 C 
ATOM     15  C   UNL     1      22.908  -6.937  37.214  1.00  0.00     0.202 C 
BRANCH  12  16
ATOM     16  O   UNL     1      23.867  -3.501  38.307  1.00  0.00    -0.388 OA
ATOM     17  H   UNL     1      24.715  -3.365  37.808  1.00  0.00     0.211 HD
ENDBRANCH  12  16
BRANCH  14  18
ATOM     18  O   UNL     1      21.510  -4.998  37.424  1.00  0.00    -0.387 OA
ATOM     19  H   UNL     1      21.481  -4.409  38.221  1.00  0.00     0.211 HD
ENDBRANCH  14  18
BRANCH  15  20
ATOM     20  O   UNL     1      22.189  -7.384  36.091  1.00  0.00    -0.385 OA
ATOM     21  H   UNL     1      22.135  -8.374  36.165  1.00  0.00     0.211 HD
ENDBRANCH  15  20
ENDBRANCH   8   9
ENDBRANCH   7   8
ENDBRANCH   1   7
BRANCH   2  22
ATOM     22  O   UNL     1      23.107 -12.101  36.033  1.00  0.00    -0.387 OA
ATOM     23  H   UNL     1      22.653 -12.225  36.908  1.00  0.00     0.211 HD
ENDBRANCH   2  22
BRANCH   3  24
ATOM     24  O   UNL     1      20.337 -10.766  34.332  1.00  0.00    -0.387 OA
ATOM     25  H   UNL     1      19.983 -10.707  33.406  1.00  0.00     0.211 HD
ENDBRANCH   3  24
BRANCH   5  26
ATOM     26  O   UNL     1      24.289 -11.277  31.660  1.00  0.00    -0.454 OA
BRANCH  26  27
ATOM     27  C   UNL     1      25.539 -10.693  31.414  1.00  0.00     0.214 A 
ATOM     28  C   UNL     1      25.618  -9.585  30.551  1.00  0.00     0.180 A 
ATOM     29  C   UNL     1      26.721 -11.184  31.993  1.00  0.00     0.239 A 
ATOM     30  O   UNL     1      26.801  -9.062  30.246  1.00  0.00    -0.452 OA
ATOM     31  C   UNL     1      27.959 -10.602  31.648  1.00  0.00     0.111 A 
ATOM     32  O   UNL     1      26.663 -12.125  32.829  1.00  0.00    -0.285 OA
ATOM     33  C   UNL     1      27.947  -9.514  30.744  1.00  0.00     0.146 A 
ATOM     34  C   UNL     1      29.197 -11.055  32.163  1.00  0.00     0.134 A 
ATOM     35  C   UNL     1      29.141  -8.893  30.370  1.00  0.00     0.094 A 
ATOM     36  C   UNL     1      30.385 -10.420  31.773  1.00  0.00     0.093 A 
ATOM     37  C   UNL     1      30.362  -9.343  30.885  1.00  0.00     0.123 A 
BRANCH  28  38
ATOM     38  C   UNL     1      24.406  -9.004  29.934  1.00  0.00     0.025 A 
ATOM     39  C   UNL     1      23.289  -8.711  30.732  1.00  0.00     0.062 A 
ATOM     40  C   UNL     1      24.353  -8.741  28.554  1.00  0.00     0.016 A 
ATOM     41  C   UNL     1      22.149  -8.123  30.171  1.00  0.00     0.158 A 
ATOM     42  C   UNL     1      23.215  -8.163  27.991  1.00  0.00     0.051 A 
ATOM     43  C   UNL     1      22.113  -7.844  28.795  1.00  0.00     0.157 A 
BRANCH  41  44
ATOM     44  O   UNL     1      21.069  -7.817  30.997  1.00  0.00    -0.504 OA
ATOM     45  H   UNL     1      20.760  -8.439  31.734  1.00  0.00     0.293 HD
ENDBRANCH  41  44
BRANCH  43  46
ATOM     46  O   UNL     1      20.984  -7.251  28.234  1.00  0.00    -0.504 OA
ATOM     47  H   UNL     1      20.824  -7.256  27.232  1.00  0.00     0.293 HD
ENDBRANCH  43  46
ENDBRANCH  28  38
BRANCH  34  48
ATOM     48  O   UNL     1      29.256 -12.124  33.055  1.00  0.00    -0.507 OA
ATOM     49  H   UNL     1      29.582 -13.039  32.766  1.00  0.00     0.293 HD
ENDBRANCH  34  48
BRANCH  37  50
ATOM     50  O   UNL     1      31.556  -8.723  30.526  1.00  0.00    -0.508 OA
ATOM     51  H   UNL     1      31.630  -8.160  29.688  1.00  0.00     0.293 HD
ENDBRANCH  37  50
ENDBRANCH  26  27
ENDBRANCH   5  26
BRANCH   4  52
ATOM     52  O   UNL     1      21.609 -12.073  31.928  1.00  0.00    -0.384 OA
ATOM     53  H   UNL     1      22.245 -12.808  31.715  1.00  0.00     0.211 HD
ENDBRANCH   4  52
TORSDOF 16
ENDMDL
