MODEL 1
REMARK VINA RESULT:    -3.795      0.000      0.000
REMARK INTER + INTRA:          -8.277
REMARK INTER:                  -6.457
REMARK INTRA:                  -1.819
REMARK UNBOUND:                -1.819
REMARK SMILES CCCCCCCCCCCCCC(=O)[O-]
REMARK SMILES IDX 8 1 9 2 10 3 11 4 12 5 13 6 14 7 15 8 16 9 7 10 6 11 5 12
REMARK SMILES IDX 4 13 3 14 2 15 1 16
REMARK H PARENT
REMARK Flexibility Score: inf
ROOT
ATOM      1  C   UNL     1     -36.067  92.073 -26.928  1.00  0.00     0.000 C 
ENDROOT
BRANCH   1   2
ATOM      2  C   UNL     1     -36.383  93.517 -27.346  1.00  0.00     0.000 C 
BRANCH   2   3
ATOM      3  C   UNL     1     -35.575  94.559 -26.553  1.00  0.00     0.000 C 
BRANCH   3   4
ATOM      4  C   UNL     1     -34.904  94.028 -25.269  1.00  0.00     0.000 C 
BRANCH   4   5
ATOM      5  C   UNL     1     -33.390  94.286 -25.169  1.00  0.00     0.006 C 
BRANCH   5   6
ATOM      6  C   UNL     1     -32.564  93.321 -26.028  1.00  0.00     0.053 C 
BRANCH   6   7
ATOM      7  C   UNL     1     -31.738  94.079 -27.018  1.00  0.00     0.041 C 
ATOM      8  O   UNL     1     -32.282  94.901 -27.801  1.00  0.00    -0.550 OA
ATOM      9  O   UNL     1     -30.372  93.841 -27.110  1.00  0.00    -0.550 OA
ENDBRANCH   6   7
ENDBRANCH   5   6
ENDBRANCH   4   5
ENDBRANCH   3   4
ENDBRANCH   2   3
ENDBRANCH   1   2
BRANCH   1  10
ATOM     10  C   UNL     1     -37.355  91.275 -26.691  1.00  0.00     0.000 C 
BRANCH  10  11
ATOM     11  C   UNL     1     -38.544  92.214 -26.433  1.00  0.00    -0.000 C 
BRANCH  11  12
ATOM     12  C   UNL     1     -38.933  92.295 -24.946  1.00  0.00    -0.000 C 
BRANCH  12  13
ATOM     13  C   UNL     1     -38.426  93.550 -24.210  1.00  0.00    -0.000 C 
BRANCH  13  14
ATOM     14  C   UNL     1     -39.375  94.751 -24.354  1.00  0.00    -0.000 C 
BRANCH  14  15
ATOM     15  C   UNL     1     -38.778  95.874 -25.216  1.00  0.00    -0.003 C 
ATOM     16  C   UNL     1     -39.296  95.851 -26.654  1.00  0.00     0.004 C 
ENDBRANCH  14  15
ENDBRANCH  13  14
ENDBRANCH  12  13
ENDBRANCH  11  12
ENDBRANCH  10  11
ENDBRANCH   1  10
TORSDOF 12
ENDMDL
MODEL 2
REMARK VINA RESULT:    -3.783      9.488     13.154
REMARK INTER + INTRA:          -8.256
REMARK INTER:                  -6.898
REMARK INTRA:                  -1.357
REMARK UNBOUND:                -1.819
REMARK SMILES CCCCCCCCCCCCCC(=O)[O-]
REMARK SMILES IDX 8 1 9 2 10 3 11 4 12 5 13 6 14 7 15 8 16 9 7 10 6 11 5 12
REMARK SMILES IDX 4 13 3 14 2 15 1 16
REMARK H PARENT
REMARK Flexibility Score: inf
ROOT
ATOM      1  C   UNL     1     -23.280  95.093 -31.303  1.00  0.00     0.000 C 
ENDROOT
BRANCH   1   2
ATOM      2  C   UNL     1     -24.314  96.142 -30.867  1.00  0.00     0.000 C 
BRANCH   2   3
ATOM      3  C   UNL     1     -24.752  95.975 -29.401  1.00  0.00     0.000 C 
BRANCH   3   4
ATOM      4  C   UNL     1     -24.495  94.579 -28.796  1.00  0.00     0.000 C 
BRANCH   4   5
ATOM      5  C   UNL     1     -25.715  93.641 -28.779  1.00  0.00     0.006 C 
BRANCH   5   6
ATOM      6  C   UNL     1     -26.111  93.205 -27.363  1.00  0.00     0.053 C 
BRANCH   6   7
ATOM      7  C   UNL     1     -26.961  94.252 -26.713  1.00  0.00     0.041 C 
ATOM      8  O   UNL     1     -26.435  95.133 -25.984  1.00  0.00    -0.550 OA
ATOM      9  O   UNL     1     -28.341  94.224 -26.873  1.00  0.00    -0.550 OA
ENDBRANCH   6   7
ENDBRANCH   5   6
ENDBRANCH   4   5
ENDBRANCH   3   4
ENDBRANCH   2   3
ENDBRANCH   1   2
BRANCH   1  10
ATOM     10  C   UNL     1     -23.539  94.634 -32.744  1.00  0.00     0.000 C 
BRANCH  10  11
ATOM     11  C   UNL     1     -23.585  93.101 -32.833  1.00  0.00    -0.000 C 
BRANCH  11  12
ATOM     12  C   UNL     1     -23.184  92.411 -31.517  1.00  0.00    -0.000 C 
BRANCH  12  13
ATOM     13  C   UNL     1     -23.080  90.876 -31.595  1.00  0.00    -0.000 C 
BRANCH  13  14
ATOM     14  C   UNL     1     -23.727  90.171 -30.391  1.00  0.00    -0.000 C 
BRANCH  14  15
ATOM     15  C   UNL     1     -22.778  90.075 -29.186  1.00  0.00    -0.003 C 
ATOM     16  C   UNL     1     -23.317  90.800 -27.953  1.00  0.00     0.004 C 
ENDBRANCH  14  15
ENDBRANCH  13  14
ENDBRANCH  12  13
ENDBRANCH  11  12
ENDBRANCH  10  11
ENDBRANCH   1  10
TORSDOF 12
ENDMDL
MODEL 3
REMARK VINA RESULT:    -3.753      9.535     12.897
REMARK INTER + INTRA:          -8.205
REMARK INTER:                  -6.755
REMARK INTRA:                  -1.450
REMARK UNBOUND:                -1.819
REMARK SMILES CCCCCCCCCCCCCC(=O)[O-]
REMARK SMILES IDX 8 1 9 2 10 3 11 4 12 5 13 6 14 7 15 8 16 9 7 10 6 11 5 12
REMARK SMILES IDX 4 13 3 14 2 15 1 16
REMARK H PARENT
REMARK Flexibility Score: inf
ROOT
ATOM      1  C   UNL     1     -22.861  90.146 -29.577  1.00  0.00     0.000 C 
ENDROOT
BRANCH   1   2
ATOM      2  C   UNL     1     -24.371  90.195 -29.296  1.00  0.00     0.000 C 
BRANCH   2   3
ATOM      3  C   UNL     1     -24.732  91.142 -28.137  1.00  0.00     0.000 C 
BRANCH   3   4
ATOM      4  C   UNL     1     -23.887  92.429 -28.055  1.00  0.00     0.000 C 
BRANCH   4   5
ATOM      5  C   UNL     1     -24.689  93.742 -28.110  1.00  0.00     0.006 C 
BRANCH   5   6
ATOM      6  C   UNL     1     -26.194  93.512 -28.291  1.00  0.00     0.053 C 
BRANCH   6   7
ATOM      7  C   UNL     1     -26.954  94.106 -27.147  1.00  0.00     0.041 C 
ATOM      8  O   UNL     1     -28.187  93.886 -27.022  1.00  0.00    -0.550 OA
ATOM      9  O   UNL     1     -26.310  94.944 -26.246  1.00  0.00    -0.550 OA
ENDBRANCH   6   7
ENDBRANCH   5   6
ENDBRANCH   4   5
ENDBRANCH   3   4
ENDBRANCH   2   3
ENDBRANCH   1   2
BRANCH   1  10
ATOM     10  C   UNL     1     -22.505  90.988 -30.808  1.00  0.00     0.000 C 
BRANCH  10  11
ATOM     11  C   UNL     1     -23.578  90.850 -31.899  1.00  0.00    -0.000 C 
BRANCH  11  12
ATOM     12  C   UNL     1     -24.155  92.205 -32.347  1.00  0.00    -0.000 C 
BRANCH  12  13
ATOM     13  C   UNL     1     -23.486  93.437 -31.710  1.00  0.00    -0.000 C 
BRANCH  13  14
ATOM     14  C   UNL     1     -24.459  94.614 -31.521  1.00  0.00    -0.000 C 
BRANCH  14  15
ATOM     15  C   UNL     1     -23.755  95.884 -31.017  1.00  0.00    -0.003 C 
ATOM     16  C   UNL     1     -23.379  96.838 -32.150  1.00  0.00     0.004 C 
ENDBRANCH  14  15
ENDBRANCH  13  14
ENDBRANCH  12  13
ENDBRANCH  11  12
ENDBRANCH  10  11
ENDBRANCH   1  10
TORSDOF 12
ENDMDL
MODEL 4
REMARK VINA RESULT:    -3.705     12.338     13.615
REMARK INTER + INTRA:          -8.124
REMARK INTER:                  -6.475
REMARK INTRA:                  -1.650
REMARK UNBOUND:                -1.819
REMARK SMILES CCCCCCCCCCCCCC(=O)[O-]
REMARK SMILES IDX 8 1 9 2 10 3 11 4 12 5 13 6 14 7 15 8 16 9 7 10 6 11 5 12
REMARK SMILES IDX 4 13 3 14 2 15 1 16
REMARK H PARENT
REMARK Flexibility Score: inf
ROOT
ATOM      1  C   UNL     1     -33.969  82.454 -20.856  1.00  0.00     0.000 C 
ENDROOT
BRANCH   1   2
ATOM      2  C   UNL     1     -33.800  81.070 -20.211  1.00  0.00     0.000 C 
BRANCH   2   3
ATOM      3  C   UNL     1     -32.814  81.078 -19.029  1.00  0.00     0.000 C 
BRANCH   3   4
ATOM      4  C   UNL     1     -31.711  80.001 -19.089  1.00  0.00     0.000 C 
BRANCH   4   5
ATOM      5  C   UNL     1     -30.398  80.448 -19.755  1.00  0.00     0.006 C 
BRANCH   5   6
ATOM      6  C   UNL     1     -30.209  81.970 -19.737  1.00  0.00     0.053 C 
BRANCH   6   7
ATOM      7  C   UNL     1     -30.139  82.504 -21.133  1.00  0.00     0.041 C 
ATOM      8  O   UNL     1     -30.180  81.717 -22.115  1.00  0.00    -0.550 OA
ATOM      9  O   UNL     1     -29.978  83.866 -21.348  1.00  0.00    -0.550 OA
ENDBRANCH   6   7
ENDBRANCH   5   6
ENDBRANCH   4   5
ENDBRANCH   3   4
ENDBRANCH   2   3
ENDBRANCH   1   2
BRANCH   1  10
ATOM     10  C   UNL     1     -33.735  83.569 -19.829  1.00  0.00     0.000 C 
BRANCH  10  11
ATOM     11  C   UNL     1     -34.977  84.463 -19.693  1.00  0.00    -0.000 C 
BRANCH  11  12
ATOM     12  C   UNL     1     -35.498  84.549 -18.247  1.00  0.00    -0.000 C 
BRANCH  12  13
ATOM     13  C   UNL     1     -36.839  83.833 -17.997  1.00  0.00    -0.000 C 
BRANCH  13  14
ATOM     14  C   UNL     1     -36.756  82.314 -18.223  1.00  0.00    -0.000 C 
BRANCH  14  15
ATOM     15  C   UNL     1     -37.550  81.859 -19.457  1.00  0.00    -0.003 C 
ATOM     16  C   UNL     1     -37.300  80.393 -19.809  1.00  0.00     0.004 C 
ENDBRANCH  14  15
ENDBRANCH  13  14
ENDBRANCH  12  13
ENDBRANCH  11  12
ENDBRANCH  10  11
ENDBRANCH   1  10
TORSDOF 12
ENDMDL
MODEL 5
REMARK VINA RESULT:    -3.662     12.455     13.853
REMARK INTER + INTRA:          -8.051
REMARK INTER:                  -5.928
REMARK INTRA:                  -2.123
REMARK UNBOUND:                -1.819
REMARK SMILES CCCCCCCCCCCCCC(=O)[O-]
REMARK SMILES IDX 8 1 9 2 10 3 11 4 12 5 13 6 14 7 15 8 16 9 7 10 6 11 5 12
REMARK SMILES IDX 4 13 3 14 2 15 1 16
REMARK H PARENT
REMARK Flexibility Score: inf
ROOT
ATOM      1  C   UNL     1     -37.599  81.821 -20.614  1.00  0.00     0.000 C 
ENDROOT
BRANCH   1   2
ATOM      2  C   UNL     1     -36.633  80.783 -21.203  1.00  0.00     0.000 C 
BRANCH   2   3
ATOM      3  C   UNL     1     -35.754  80.110 -20.134  1.00  0.00     0.000 C 
BRANCH   3   4
ATOM      4  C   UNL     1     -34.259  80.487 -20.182  1.00  0.00     0.000 C 
BRANCH   4   5
ATOM      5  C   UNL     1     -33.675  81.011 -18.858  1.00  0.00     0.006 C 
BRANCH   5   6
ATOM      6  C   UNL     1     -32.205  81.431 -18.980  1.00  0.00     0.053 C 
BRANCH   6   7
ATOM      7  C   UNL     1     -31.335  80.230 -19.181  1.00  0.00     0.041 C 
ATOM      8  O   UNL     1     -30.465  80.223 -20.091  1.00  0.00    -0.550 OA
ATOM      9  O   UNL     1     -31.518  79.100 -18.394  1.00  0.00    -0.550 OA
ENDBRANCH   6   7
ENDBRANCH   5   6
ENDBRANCH   4   5
ENDBRANCH   3   4
ENDBRANCH   2   3
ENDBRANCH   1   2
BRANCH   1  10
ATOM     10  C   UNL     1     -37.409  81.949 -19.097  1.00  0.00     0.000 C 
BRANCH  10  11
ATOM     11  C   UNL     1     -37.250  83.421 -18.685  1.00  0.00    -0.000 C 
BRANCH  11  12
ATOM     12  C   UNL     1     -35.900  83.711 -18.004  1.00  0.00    -0.000 C 
BRANCH  12  13
ATOM     13  C   UNL     1     -34.994  84.702 -18.758  1.00  0.00    -0.000 C 
BRANCH  13  14
ATOM     14  C   UNL     1     -35.316  84.784 -20.259  1.00  0.00    -0.000 C 
BRANCH  14  15
ATOM     15  C   UNL     1     -34.402  83.884 -21.107  1.00  0.00    -0.003 C 
ATOM     16  C   UNL     1     -34.896  83.732 -22.545  1.00  0.00     0.004 C 
ENDBRANCH  14  15
ENDBRANCH  13  14
ENDBRANCH  12  13
ENDBRANCH  11  12
ENDBRANCH  10  11
ENDBRANCH   1  10
TORSDOF 12
ENDMDL
MODEL 6
REMARK VINA RESULT:    -3.610     11.068     12.988
REMARK INTER + INTRA:          -7.962
REMARK INTER:                  -6.135
REMARK INTRA:                  -1.827
REMARK UNBOUND:                -1.819
REMARK SMILES CCCCCCCCCCCCCC(=O)[O-]
REMARK SMILES IDX 8 1 9 2 10 3 11 4 12 5 13 6 14 7 15 8 16 9 7 10 6 11 5 12
REMARK SMILES IDX 4 13 3 14 2 15 1 16
REMARK H PARENT
REMARK Flexibility Score: inf
ROOT
ATOM      1  C   UNL     1     -36.682  82.144 -18.270  1.00  0.00     0.000 C 
ENDROOT
BRANCH   1   2
ATOM      2  C   UNL     1     -37.551  81.592 -19.411  1.00  0.00     0.000 C 
BRANCH   2   3
ATOM      3  C   UNL     1     -36.749  81.331 -20.699  1.00  0.00     0.000 C 
BRANCH   3   4
ATOM      4  C   UNL     1     -37.115  82.238 -21.892  1.00  0.00     0.000 C 
BRANCH   4   5
ATOM      5  C   UNL     1     -37.510  83.678 -21.520  1.00  0.00     0.006 C 
BRANCH   5   6
ATOM      6  C   UNL     1     -36.669  84.733 -22.249  1.00  0.00     0.053 C 
BRANCH   6   7
ATOM      7  C   UNL     1     -37.539  85.585 -23.119  1.00  0.00     0.041 C 
ATOM      8  O   UNL     1     -38.775  85.358 -23.196  1.00  0.00    -0.550 OA
ATOM      9  O   UNL     1     -36.976  86.598 -23.885  1.00  0.00    -0.550 OA
ENDBRANCH   6   7
ENDBRANCH   5   6
ENDBRANCH   4   5
ENDBRANCH   3   4
ENDBRANCH   2   3
ENDBRANCH   1   2
BRANCH   1  10
ATOM     10  C   UNL     1     -37.055  83.597 -17.951  1.00  0.00     0.000 C 
BRANCH  10  11
ATOM     11  C   UNL     1     -35.797  84.452 -17.734  1.00  0.00    -0.000 C 
BRANCH  11  12
ATOM     12  C   UNL     1     -34.974  84.645 -19.021  1.00  0.00    -0.000 C 
BRANCH  12  13
ATOM     13  C   UNL     1     -33.593  83.962 -19.014  1.00  0.00    -0.000 C 
BRANCH  13  14
ATOM     14  C   UNL     1     -33.505  82.783 -19.997  1.00  0.00    -0.000 C 
BRANCH  14  15
ATOM     15  C   UNL     1     -33.251  81.443 -19.288  1.00  0.00    -0.003 C 
ATOM     16  C   UNL     1     -33.048  80.288 -20.268  1.00  0.00     0.004 C 
ENDBRANCH  14  15
ENDBRANCH  13  14
ENDBRANCH  12  13
ENDBRANCH  11  12
ENDBRANCH  10  11
ENDBRANCH   1  10
TORSDOF 12
ENDMDL
MODEL 7
REMARK VINA RESULT:    -3.607     12.558     13.945
REMARK INTER + INTRA:          -7.957
REMARK INTER:                  -5.914
REMARK INTRA:                  -2.043
REMARK UNBOUND:                -1.819
REMARK SMILES CCCCCCCCCCCCCC(=O)[O-]
REMARK SMILES IDX 8 1 9 2 10 3 11 4 12 5 13 6 14 7 15 8 16 9 7 10 6 11 5 12
REMARK SMILES IDX 4 13 3 14 2 15 1 16
REMARK H PARENT
REMARK Flexibility Score: inf
ROOT
ATOM      1  C   UNL     1     -37.418  80.977 -20.425  1.00  0.00     0.000 C 
ENDROOT
BRANCH   1   2
ATOM      2  C   UNL     1     -36.245  80.132 -19.907  1.00  0.00     0.000 C 
BRANCH   2   3
ATOM      3  C   UNL     1     -35.053  80.104 -20.880  1.00  0.00     0.000 C 
BRANCH   3   4
ATOM      4  C   UNL     1     -33.882  81.037 -20.508  1.00  0.00     0.000 C 
BRANCH   4   5
ATOM      5  C   UNL     1     -33.495  81.035 -19.018  1.00  0.00     0.006 C 
BRANCH   5   6
ATOM      6  C   UNL     1     -31.996  81.272 -18.792  1.00  0.00     0.053 C 
BRANCH   6   7
ATOM      7  C   UNL     1     -31.196  80.163 -19.401  1.00  0.00     0.041 C 
ATOM      8  O   UNL     1     -30.337  80.414 -20.286  1.00  0.00    -0.550 OA
ATOM      9  O   UNL     1     -31.434  78.847 -19.025  1.00  0.00    -0.550 OA
ENDBRANCH   6   7
ENDBRANCH   5   6
ENDBRANCH   4   5
ENDBRANCH   3   4
ENDBRANCH   2   3
ENDBRANCH   1   2
BRANCH   1  10
ATOM     10  C   UNL     1     -37.237  81.315 -21.910  1.00  0.00     0.000 C 
BRANCH  10  11
ATOM     11  C   UNL     1     -37.217  82.836 -22.130  1.00  0.00    -0.000 C 
BRANCH  11  12
ATOM     12  C   UNL     1     -37.106  83.630 -20.816  1.00  0.00    -0.000 C 
BRANCH  12  13
ATOM     13  C   UNL     1     -35.739  84.299 -20.576  1.00  0.00    -0.000 C 
BRANCH  13  14
ATOM     14  C   UNL     1     -35.278  84.207 -19.112  1.00  0.00    -0.000 C 
BRANCH  14  15
ATOM     15  C   UNL     1     -36.451  84.024 -18.136  1.00  0.00    -0.003 C 
ATOM     16  C   UNL     1     -36.331  82.747 -17.305  1.00  0.00     0.004 C 
ENDBRANCH  14  15
ENDBRANCH  13  14
ENDBRANCH  12  13
ENDBRANCH  11  12
ENDBRANCH  10  11
ENDBRANCH   1  10
TORSDOF 12
ENDMDL
MODEL 8
REMARK VINA RESULT:    -3.584     11.456     13.293
REMARK INTER + INTRA:          -7.918
REMARK INTER:                  -6.662
REMARK INTRA:                  -1.255
REMARK UNBOUND:                -1.819
REMARK SMILES CCCCCCCCCCCCCC(=O)[O-]
REMARK SMILES IDX 8 1 9 2 10 3 11 4 12 5 13 6 14 7 15 8 16 9 7 10 6 11 5 12
REMARK SMILES IDX 4 13 3 14 2 15 1 16
REMARK H PARENT
REMARK Flexibility Score: inf
ROOT
ATOM      1  C   UNL     1     -23.976  92.714 -28.277  1.00  0.00     0.000 C 
ENDROOT
BRANCH   1   2
ATOM      2  C   UNL     1     -23.998  92.356 -29.771  1.00  0.00     0.000 C 
BRANCH   2   3
ATOM      3  C   UNL     1     -23.669  90.876 -30.035  1.00  0.00     0.000 C 
BRANCH   3   4
ATOM      4  C   UNL     1     -22.869  90.173 -28.918  1.00  0.00     0.000 C 
BRANCH   4   5
ATOM      5  C   UNL     1     -23.568  88.959 -28.280  1.00  0.00     0.006 C 
BRANCH   5   6
ATOM      6  C   UNL     1     -24.115  89.255 -26.879  1.00  0.00     0.053 C 
BRANCH   6   7
ATOM      7  C   UNL     1     -23.331  88.510 -25.844  1.00  0.00     0.041 C 
ATOM      8  O   UNL     1     -23.417  87.257 -25.765  1.00  0.00    -0.550 OA
ATOM      9  O   UNL     1     -22.545  89.206 -24.935  1.00  0.00    -0.550 OA
ENDBRANCH   6   7
ENDBRANCH   5   6
ENDBRANCH   4   5
ENDBRANCH   3   4
ENDBRANCH   2   3
ENDBRANCH   1   2
BRANCH   1  10
ATOM     10  C   UNL     1     -25.319  93.308 -27.836  1.00  0.00     0.000 C 
BRANCH  10  11
ATOM     11  C   UNL     1     -25.733  94.471 -28.749  1.00  0.00    -0.000 C 
BRANCH  11  12
ATOM     12  C   UNL     1     -24.929  95.757 -28.485  1.00  0.00    -0.000 C 
BRANCH  12  13
ATOM     13  C   UNL     1     -24.605  96.589 -29.740  1.00  0.00    -0.000 C 
BRANCH  13  14
ATOM     14  C   UNL     1     -23.552  95.924 -30.642  1.00  0.00    -0.000 C 
BRANCH  14  15
ATOM     15  C   UNL     1     -24.122  95.516 -32.010  1.00  0.00    -0.003 C 
ATOM     16  C   UNL     1     -23.300  94.418 -32.685  1.00  0.00     0.004 C 
ENDBRANCH  14  15
ENDBRANCH  13  14
ENDBRANCH  12  13
ENDBRANCH  11  12
ENDBRANCH  10  11
ENDBRANCH   1  10
TORSDOF 12
ENDMDL
MODEL 9
REMARK VINA RESULT:    -3.544     17.033     18.879
REMARK INTER + INTRA:          -7.850
REMARK INTER:                  -6.038
REMARK INTRA:                  -1.812
REMARK UNBOUND:                -1.819
REMARK SMILES CCCCCCCCCCCCCC(=O)[O-]
REMARK SMILES IDX 8 1 9 2 10 3 11 4 12 5 13 6 14 7 15 8 16 9 7 10 6 11 5 12
REMARK SMILES IDX 4 13 3 14 2 15 1 16
REMARK H PARENT
REMARK Flexibility Score: inf
ROOT
ATOM      1  C   UNL     1     -23.137  81.462 -25.807  1.00  0.00     0.000 C 
ENDROOT
BRANCH   1   2
ATOM      2  C   UNL     1     -23.545  82.880 -25.380  1.00  0.00     0.000 C 
BRANCH   2   3
ATOM      3  C   UNL     1     -23.278  83.156 -23.890  1.00  0.00     0.000 C 
BRANCH   3   4
ATOM      4  C   UNL     1     -22.139  84.157 -23.603  1.00  0.00     0.000 C 
BRANCH   4   5
ATOM      5  C   UNL     1     -21.448  83.985 -22.239  1.00  0.00     0.006 C 
BRANCH   5   6
ATOM      6  C   UNL     1     -22.367  84.324 -21.059  1.00  0.00     0.053 C 
BRANCH   6   7
ATOM      7  C   UNL     1     -22.446  83.169 -20.110  1.00  0.00     0.041 C 
ATOM      8  O   UNL     1     -21.440  82.838 -19.430  1.00  0.00    -0.550 OA
ATOM      9  O   UNL     1     -23.616  82.428 -20.015  1.00  0.00    -0.550 OA
ENDBRANCH   6   7
ENDBRANCH   5   6
ENDBRANCH   4   5
ENDBRANCH   3   4
ENDBRANCH   2   3
ENDBRANCH   1   2
BRANCH   1  10
ATOM     10  C   UNL     1     -21.616  81.355 -25.972  1.00  0.00     0.000 C 
BRANCH  10  11
ATOM     11  C   UNL     1     -21.044  80.232 -25.093  1.00  0.00    -0.000 C 
BRANCH  11  12
ATOM     12  C   UNL     1     -20.591  80.726 -23.707  1.00  0.00    -0.000 C 
BRANCH  12  13
ATOM     13  C   UNL     1     -21.353  80.110 -22.518  1.00  0.00    -0.000 C 
BRANCH  13  14
ATOM     14  C   UNL     1     -22.197  78.888 -22.918  1.00  0.00    -0.000 C 
BRANCH  14  15
ATOM     15  C   UNL     1     -23.577  78.880 -22.242  1.00  0.00    -0.003 C 
ATOM     16  C   UNL     1     -24.535  79.906 -22.847  1.00  0.00     0.004 C 
ENDBRANCH  14  15
ENDBRANCH  13  14
ENDBRANCH  12  13
ENDBRANCH  11  12
ENDBRANCH  10  11
ENDBRANCH   1  10
TORSDOF 12
ENDMDL
