MODEL 1
REMARK VINA RESULT:    -6.177      0.000      0.000
REMARK INTER + INTRA:          -7.668
REMARK INTER:                  -7.440
REMARK INTRA:                  -0.228
REMARK UNBOUND:                -0.228
REMARK SMILES O=c1c(O)c(-c2ccc(O)c(O)c2)oc2cc(O)cc(O)c12
REMARK SMILES IDX 5 1 3 2 2 3 1 4 22 5 20 6 19 7 17 8 16 9 15 10 14 11 6 12
REMARK SMILES IDX 7 13 8 14 9 15 13 16 11 17 10 18 12 20 4 22 21 24 18 26
REMARK H PARENT 10 19 12 21 4 23 21 25 18 27
REMARK Flexibility Score: inf
ROOT
ATOM      1  C   UNL     1      22.748  48.664  39.098  1.00  0.00     0.180 A 
ATOM      2  C   UNL     1      23.671  47.603  39.110  1.00  0.00     0.208 A 
ATOM      3  C   UNL     1      23.909  46.894  37.922  1.00  0.00     0.238 A 
ATOM      4  O   UNL     1      24.696  45.911  37.951  1.00  0.00    -0.285 OA
ATOM      5  C   UNL     1      23.236  47.265  36.733  1.00  0.00     0.111 A 
ATOM      6  C   UNL     1      23.432  46.643  35.464  1.00  0.00     0.134 A 
ATOM      7  C   UNL     1      22.616  47.005  34.384  1.00  0.00     0.093 A 
ATOM      8  C   UNL     1      21.658  48.010  34.511  1.00  0.00     0.123 A 
ATOM      9  C   UNL     1      21.499  48.666  35.732  1.00  0.00     0.094 A 
ATOM     10  C   UNL     1      22.273  48.302  36.837  1.00  0.00     0.146 A 
ATOM     11  O   UNL     1      22.084  48.944  37.983  1.00  0.00    -0.452 OA
ENDROOT
BRANCH   1  12
ATOM     12  C   UNL     1      22.461  49.473  40.305  1.00  0.00     0.025 A 
ATOM     13  C   UNL     1      21.737  48.941  41.387  1.00  0.00     0.016 A 
ATOM     14  C   UNL     1      21.499  49.715  42.525  1.00  0.00     0.051 A 
ATOM     15  C   UNL     1      21.991  51.025  42.605  1.00  0.00     0.157 A 
ATOM     16  C   UNL     1      22.969  50.778  40.398  1.00  0.00     0.062 A 
ATOM     17  C   UNL     1      22.729  51.556  41.540  1.00  0.00     0.158 A 
BRANCH  15  18
ATOM     18  O   UNL     1      21.754  51.801  43.738  1.00  0.00    -0.504 OA
ATOM     19  H   UNL     1      20.907  52.348  43.837  1.00  0.00     0.293 HD
ENDBRANCH  15  18
BRANCH  17  20
ATOM     20  O   UNL     1      23.224  52.857  41.625  1.00  0.00    -0.504 OA
ATOM     21  H   UNL     1      24.019  53.159  41.073  1.00  0.00     0.293 HD
ENDBRANCH  17  20
ENDBRANCH   1  12
BRANCH   2  22
ATOM     22  O   UNL     1      24.308  47.240  40.300  1.00  0.00    -0.502 OA
ATOM     23  H   UNL     1      24.258  46.302  40.679  1.00  0.00     0.293 HD
ENDBRANCH   2  22
BRANCH   6  24
ATOM     24  O   UNL     1      24.423  45.692  35.204  1.00  0.00    -0.507 OA
ATOM     25  H   UNL     1      25.380  45.910  34.970  1.00  0.00     0.293 HD
ENDBRANCH   6  24
BRANCH   8  26
ATOM     26  O   UNL     1      20.875  48.355  33.412  1.00  0.00    -0.508 OA
ATOM     27  H   UNL     1      20.780  47.737  32.614  1.00  0.00     0.293 HD
ENDBRANCH   8  26
TORSDOF 6
ENDMDL
MODEL 2
REMARK VINA RESULT:    -5.928      1.325      2.947
REMARK INTER + INTRA:          -7.369
REMARK INTER:                  -7.213
REMARK INTRA:                  -0.156
REMARK UNBOUND:                -0.228
REMARK SMILES O=c1c(O)c(-c2ccc(O)c(O)c2)oc2cc(O)cc(O)c12
REMARK SMILES IDX 5 1 3 2 2 3 1 4 22 5 20 6 19 7 17 8 16 9 15 10 14 11 6 12
REMARK SMILES IDX 7 13 8 14 9 15 13 16 11 17 10 18 12 20 4 22 21 24 18 26
REMARK H PARENT 10 19 12 21 4 23 21 25 18 27
REMARK Flexibility Score: inf
ROOT
ATOM      1  C   UNL     1      22.161  49.243  39.343  1.00  0.00     0.180 A 
ATOM      2  C   UNL     1      21.663  49.759  38.134  1.00  0.00     0.208 A 
ATOM      3  C   UNL     1      21.964  49.094  36.935  1.00  0.00     0.238 A 
ATOM      4  O   UNL     1      21.560  49.590  35.850  1.00  0.00    -0.285 OA
ATOM      5  C   UNL     1      22.744  47.913  36.961  1.00  0.00     0.111 A 
ATOM      6  C   UNL     1      23.076  47.136  35.811  1.00  0.00     0.134 A 
ATOM      7  C   UNL     1      23.963  46.059  35.937  1.00  0.00     0.093 A 
ATOM      8  C   UNL     1      24.477  45.693  37.180  1.00  0.00     0.123 A 
ATOM      9  C   UNL     1      24.113  46.410  38.321  1.00  0.00     0.094 A 
ATOM     10  C   UNL     1      23.259  47.511  38.221  1.00  0.00     0.146 A 
ATOM     11  O   UNL     1      22.945  48.172  39.328  1.00  0.00    -0.452 OA
ENDROOT
BRANCH   1  12
ATOM     12  C   UNL     1      21.866  49.875  40.650  1.00  0.00     0.025 A 
ATOM     13  C   UNL     1      21.130  49.199  41.639  1.00  0.00     0.016 A 
ATOM     14  C   UNL     1      20.884  49.804  42.874  1.00  0.00     0.051 A 
ATOM     15  C   UNL     1      21.382  51.087  43.144  1.00  0.00     0.157 A 
ATOM     16  C   UNL     1      22.380  51.150  40.933  1.00  0.00     0.062 A 
ATOM     17  C   UNL     1      22.133  51.760  42.172  1.00  0.00     0.158 A 
BRANCH  15  18
ATOM     18  O   UNL     1      21.138  51.695  44.373  1.00  0.00    -0.504 OA
ATOM     19  H   UNL     1      20.452  52.434  44.471  1.00  0.00     0.293 HD
ENDBRANCH  15  18
BRANCH  17  20
ATOM     20  O   UNL     1      22.633  53.033  42.445  1.00  0.00    -0.504 OA
ATOM     21  H   UNL     1      22.678  53.392  43.392  1.00  0.00     0.293 HD
ENDBRANCH  17  20
ENDBRANCH   1  12
BRANCH   2  22
ATOM     22  O   UNL     1      20.912  50.938  38.129  1.00  0.00    -0.502 OA
ATOM     23  H   UNL     1      20.585  51.378  38.981  1.00  0.00     0.293 HD
ENDBRANCH   2  22
BRANCH   6  24
ATOM     24  O   UNL     1      22.544  47.359  34.537  1.00  0.00    -0.507 OA
ATOM     25  H   UNL     1      22.797  48.130  33.937  1.00  0.00     0.293 HD
ENDBRANCH   6  24
BRANCH   8  26
ATOM     26  O   UNL     1      25.345  44.606  37.271  1.00  0.00    -0.508 OA
ATOM     27  H   UNL     1      25.451  43.947  36.508  1.00  0.00     0.293 HD
ENDBRANCH   8  26
TORSDOF 6
ENDMDL
MODEL 3
REMARK VINA RESULT:    -5.768      1.802      7.211
REMARK INTER + INTRA:          -7.176
REMARK INTER:                  -6.889
REMARK INTRA:                  -0.287
REMARK UNBOUND:                -0.228
REMARK SMILES O=c1c(O)c(-c2ccc(O)c(O)c2)oc2cc(O)cc(O)c12
REMARK SMILES IDX 5 1 3 2 2 3 1 4 22 5 20 6 19 7 17 8 16 9 15 10 14 11 6 12
REMARK SMILES IDX 7 13 8 14 9 15 13 16 11 17 10 18 12 20 4 22 21 24 18 26
REMARK H PARENT 10 19 12 21 4 23 21 25 18 27
REMARK Flexibility Score: inf
ROOT
ATOM      1  C   UNL     1      22.916  48.923  36.972  1.00  0.00     0.180 A 
ATOM      2  C   UNL     1      23.194  50.287  36.777  1.00  0.00     0.208 A 
ATOM      3  C   UNL     1      23.008  51.179  37.845  1.00  0.00     0.238 A 
ATOM      4  O   UNL     1      23.207  52.407  37.649  1.00  0.00    -0.285 OA
ATOM      5  C   UNL     1      22.563  50.694  39.098  1.00  0.00     0.111 A 
ATOM      6  C   UNL     1      22.379  51.503  40.260  1.00  0.00     0.134 A 
ATOM      7  C   UNL     1      21.810  50.940  41.410  1.00  0.00     0.093 A 
ATOM      8  C   UNL     1      21.479  49.587  41.460  1.00  0.00     0.123 A 
ATOM      9  C   UNL     1      21.709  48.774  40.349  1.00  0.00     0.094 A 
ATOM     10  C   UNL     1      22.242  49.314  39.177  1.00  0.00     0.146 A 
ATOM     11  O   UNL     1      22.436  48.510  38.139  1.00  0.00    -0.452 OA
ENDROOT
BRANCH   1  12
ATOM     12  C   UNL     1      23.110  47.918  35.901  1.00  0.00     0.025 A 
ATOM     13  C   UNL     1      24.227  47.063  35.895  1.00  0.00     0.016 A 
ATOM     14  C   UNL     1      24.378  46.106  34.888  1.00  0.00     0.051 A 
ATOM     15  C   UNL     1      23.410  45.980  33.883  1.00  0.00     0.157 A 
ATOM     16  C   UNL     1      22.134  47.773  34.903  1.00  0.00     0.062 A 
ATOM     17  C   UNL     1      22.285  46.814  33.892  1.00  0.00     0.158 A 
BRANCH  15  18
ATOM     18  O   UNL     1      23.558  45.028  32.876  1.00  0.00    -0.504 OA
ATOM     19  H   UNL     1      24.459  44.841  32.451  1.00  0.00     0.293 HD
ENDBRANCH  15  18
BRANCH  17  20
ATOM     20  O   UNL     1      21.320  46.681  32.894  1.00  0.00    -0.504 OA
ATOM     21  H   UNL     1      21.549  46.302  31.982  1.00  0.00     0.293 HD
ENDBRANCH  17  20
ENDBRANCH   1  12
BRANCH   2  22
ATOM     22  O   UNL     1      23.612  50.747  35.525  1.00  0.00    -0.502 OA
ATOM     23  H   UNL     1      23.236  50.382  34.658  1.00  0.00     0.293 HD
ENDBRANCH   2  22
BRANCH   6  24
ATOM     24  O   UNL     1      22.761  52.845  40.347  1.00  0.00    -0.507 OA
ATOM     25  H   UNL     1      23.690  53.190  40.156  1.00  0.00     0.293 HD
ENDBRANCH   6  24
BRANCH   8  26
ATOM     26  O   UNL     1      20.929  49.057  42.626  1.00  0.00    -0.508 OA
ATOM     27  H   UNL     1      20.116  48.451  42.601  1.00  0.00     0.293 HD
ENDBRANCH   8  26
TORSDOF 6
ENDMDL
MODEL 4
REMARK VINA RESULT:    -5.749      1.947      6.635
REMARK INTER + INTRA:          -7.153
REMARK INTER:                  -6.825
REMARK INTRA:                  -0.328
REMARK UNBOUND:                -0.228
REMARK SMILES O=c1c(O)c(-c2ccc(O)c(O)c2)oc2cc(O)cc(O)c12
REMARK SMILES IDX 5 1 3 2 2 3 1 4 22 5 20 6 19 7 17 8 16 9 15 10 14 11 6 12
REMARK SMILES IDX 7 13 8 14 9 15 13 16 11 17 10 18 12 20 4 22 21 24 18 26
REMARK H PARENT 10 19 12 21 4 23 21 25 18 27
REMARK Flexibility Score: inf
ROOT
ATOM      1  C   UNL     1      23.497  47.991  37.756  1.00  0.00     0.180 A 
ATOM      2  C   UNL     1      23.817  47.463  39.020  1.00  0.00     0.208 A 
ATOM      3  C   UNL     1      23.429  48.168  40.171  1.00  0.00     0.238 A 
ATOM      4  O   UNL     1      23.764  47.717  41.297  1.00  0.00    -0.285 OA
ATOM      5  C   UNL     1      22.713  49.382  40.044  1.00  0.00     0.111 A 
ATOM      6  C   UNL     1      22.235  50.158  41.143  1.00  0.00     0.134 A 
ATOM      7  C   UNL     1      21.653  51.410  40.903  1.00  0.00     0.093 A 
ATOM      8  C   UNL     1      21.473  51.882  39.604  1.00  0.00     0.123 A 
ATOM      9  C   UNL     1      21.882  51.105  38.520  1.00  0.00     0.094 A 
ATOM     10  C   UNL     1      22.499  49.869  38.729  1.00  0.00     0.146 A 
ATOM     11  O   UNL     1      22.884  49.165  37.671  1.00  0.00    -0.452 OA
ENDROOT
BRANCH   1  12
ATOM     12  C   UNL     1      23.850  47.294  36.498  1.00  0.00     0.025 A 
ATOM     13  C   UNL     1      23.027  46.287  35.964  1.00  0.00     0.016 A 
ATOM     14  C   UNL     1      23.367  45.660  34.763  1.00  0.00     0.051 A 
ATOM     15  C   UNL     1      24.527  46.038  34.072  1.00  0.00     0.157 A 
ATOM     16  C   UNL     1      24.999  47.683  35.792  1.00  0.00     0.062 A 
ATOM     17  C   UNL     1      25.343  47.054  34.587  1.00  0.00     0.158 A 
BRANCH  15  18
ATOM     18  O   UNL     1      24.871  45.414  32.875  1.00  0.00    -0.504 OA
ATOM     19  H   UNL     1      25.424  44.565  32.861  1.00  0.00     0.293 HD
ENDBRANCH  15  18
BRANCH  17  20
ATOM     20  O   UNL     1      26.492  47.433  33.894  1.00  0.00    -0.504 OA
ATOM     21  H   UNL     1      27.335  47.715  34.381  1.00  0.00     0.293 HD
ENDBRANCH  17  20
ENDBRANCH   1  12
BRANCH   2  22
ATOM     22  O   UNL     1      24.543  46.273  39.120  1.00  0.00    -0.502 OA
ATOM     23  H   UNL     1      25.480  46.239  39.504  1.00  0.00     0.293 HD
ENDBRANCH   2  22
BRANCH   6  24
ATOM     24  O   UNL     1      22.282  49.738  42.475  1.00  0.00    -0.507 OA
ATOM     25  H   UNL     1      21.656  49.062  42.886  1.00  0.00     0.293 HD
ENDBRANCH   6  24
BRANCH   8  26
ATOM     26  O   UNL     1      20.875  53.125  39.402  1.00  0.00    -0.508 OA
ATOM     27  H   UNL     1      20.483  53.384  38.504  1.00  0.00     0.293 HD
ENDBRANCH   8  26
TORSDOF 6
ENDMDL
MODEL 5
REMARK VINA RESULT:    -5.500      1.374      3.220
REMARK INTER + INTRA:          -6.852
REMARK INTER:                  -6.649
REMARK INTRA:                  -0.203
REMARK UNBOUND:                -0.228
REMARK SMILES O=c1c(O)c(-c2ccc(O)c(O)c2)oc2cc(O)cc(O)c12
REMARK SMILES IDX 5 1 3 2 2 3 1 4 22 5 20 6 19 7 17 8 16 9 15 10 14 11 6 12
REMARK SMILES IDX 7 13 8 14 9 15 13 16 11 17 10 18 12 20 4 22 21 24 18 26
REMARK H PARENT 10 19 12 21 4 23 21 25 18 27
REMARK Flexibility Score: inf
ROOT
ATOM      1  C   UNL     1      22.456  49.230  38.472  1.00  0.00     0.180 A 
ATOM      2  C   UNL     1      21.724  49.745  37.388  1.00  0.00     0.208 A 
ATOM      3  C   UNL     1      21.881  49.161  36.121  1.00  0.00     0.238 A 
ATOM      4  O   UNL     1      21.264  49.661  35.144  1.00  0.00    -0.285 OA
ATOM      5  C   UNL     1      22.756  48.060  35.956  1.00  0.00     0.111 A 
ATOM      6  C   UNL     1      22.962  47.367  34.726  1.00  0.00     0.134 A 
ATOM      7  C   UNL     1      23.948  46.375  34.649  1.00  0.00     0.093 A 
ATOM      8  C   UNL     1      24.689  46.009  35.771  1.00  0.00     0.123 A 
ATOM      9  C   UNL     1      24.456  46.640  36.994  1.00  0.00     0.094 A 
ATOM     10  C   UNL     1      23.503  47.657  37.093  1.00  0.00     0.146 A 
ATOM     11  O   UNL     1      23.318  48.240  38.271  1.00  0.00    -0.452 OA
ENDROOT
BRANCH   1  12
ATOM     12  C   UNL     1      22.326  49.776  39.842  1.00  0.00     0.025 A 
ATOM     13  C   UNL     1      22.794  51.062  40.165  1.00  0.00     0.016 A 
ATOM     14  C   UNL     1      22.639  51.566  41.458  1.00  0.00     0.051 A 
ATOM     15  C   UNL     1      22.002  50.800  42.444  1.00  0.00     0.157 A 
ATOM     16  C   UNL     1      21.670  49.021  40.828  1.00  0.00     0.062 A 
ATOM     17  C   UNL     1      21.515  49.525  42.127  1.00  0.00     0.158 A 
BRANCH  15  18
ATOM     18  O   UNL     1      21.846  51.298  43.736  1.00  0.00    -0.504 OA
ATOM     19  H   UNL     1      22.642  51.599  44.287  1.00  0.00     0.293 HD
ENDBRANCH  15  18
BRANCH  17  20
ATOM     20  O   UNL     1      20.875  48.768  43.107  1.00  0.00    -0.504 OA
ATOM     21  H   UNL     1      19.871  48.629  43.098  1.00  0.00     0.293 HD
ENDBRANCH  17  20
ENDBRANCH   1  12
BRANCH   2  22
ATOM     22  O   UNL     1      20.882  50.846  37.569  1.00  0.00    -0.502 OA
ATOM     23  H   UNL     1      20.600  51.170  38.487  1.00  0.00     0.293 HD
ENDBRANCH   2  22
BRANCH   6  24
ATOM     24  O   UNL     1      22.211  47.590  33.568  1.00  0.00    -0.507 OA
ATOM     25  H   UNL     1      22.281  47.042  32.724  1.00  0.00     0.293 HD
ENDBRANCH   6  24
BRANCH   8  26
ATOM     26  O   UNL     1      25.652  45.007  35.662  1.00  0.00    -0.508 OA
ATOM     27  H   UNL     1      26.643  45.220  35.681  1.00  0.00     0.293 HD
ENDBRANCH   8  26
TORSDOF 6
ENDMDL
MODEL 6
REMARK VINA RESULT:    -5.333      1.864      7.187
REMARK INTER + INTRA:          -6.652
REMARK INTER:                  -6.430
REMARK INTRA:                  -0.222
REMARK UNBOUND:                -0.228
REMARK SMILES O=c1c(O)c(-c2ccc(O)c(O)c2)oc2cc(O)cc(O)c12
REMARK SMILES IDX 5 1 3 2 2 3 1 4 22 5 20 6 19 7 17 8 16 9 15 10 14 11 6 12
REMARK SMILES IDX 7 13 8 14 9 15 13 16 11 17 10 18 12 20 4 22 21 24 18 26
REMARK H PARENT 10 19 12 21 4 23 21 25 18 27
REMARK Flexibility Score: inf
ROOT
ATOM      1  C   UNL     1      22.952  49.227  37.032  1.00  0.00     0.180 A 
ATOM      2  C   UNL     1      23.151  50.606  36.843  1.00  0.00     0.208 A 
ATOM      3  C   UNL     1      22.896  51.483  37.909  1.00  0.00     0.238 A 
ATOM      4  O   UNL     1      23.025  52.721  37.718  1.00  0.00    -0.285 OA
ATOM      5  C   UNL     1      22.462  50.970  39.155  1.00  0.00     0.111 A 
ATOM      6  C   UNL     1      22.213  51.763  40.315  1.00  0.00     0.134 A 
ATOM      7  C   UNL     1      21.660  51.164  41.455  1.00  0.00     0.093 A 
ATOM      8  C   UNL     1      21.410  49.794  41.498  1.00  0.00     0.123 A 
ATOM      9  C   UNL     1      21.705  48.999  40.390  1.00  0.00     0.094 A 
ATOM     10  C   UNL     1      22.223  49.573  39.226  1.00  0.00     0.146 A 
ATOM     11  O   UNL     1      22.481  48.784  38.191  1.00  0.00    -0.452 OA
ENDROOT
BRANCH   1  12
ATOM     12  C   UNL     1      23.223  48.238  35.963  1.00  0.00     0.025 A 
ATOM     13  C   UNL     1      22.400  48.145  34.827  1.00  0.00     0.016 A 
ATOM     14  C   UNL     1      22.688  47.221  33.819  1.00  0.00     0.051 A 
ATOM     15  C   UNL     1      23.808  46.386  33.926  1.00  0.00     0.157 A 
ATOM     16  C   UNL     1      24.355  47.413  36.055  1.00  0.00     0.062 A 
ATOM     17  C   UNL     1      24.645  46.484  35.045  1.00  0.00     0.158 A 
BRANCH  15  18
ATOM     18  O   UNL     1      24.098  45.461  32.925  1.00  0.00    -0.504 OA
ATOM     19  H   UNL     1      24.960  45.509  32.394  1.00  0.00     0.293 HD
ENDBRANCH  15  18
BRANCH  17  20
ATOM     20  O   UNL     1      25.763  45.657  35.145  1.00  0.00    -0.504 OA
ATOM     21  H   UNL     1      25.682  44.648  35.098  1.00  0.00     0.293 HD
ENDBRANCH  17  20
ENDBRANCH   1  12
BRANCH   2  22
ATOM     22  O   UNL     1      23.560  51.093  35.598  1.00  0.00    -0.502 OA
ATOM     23  H   UNL     1      24.486  50.919  35.224  1.00  0.00     0.293 HD
ENDBRANCH   2  22
BRANCH   6  24
ATOM     24  O   UNL     1      22.513  53.125  40.409  1.00  0.00    -0.507 OA
ATOM     25  H   UNL     1      23.388  53.541  40.128  1.00  0.00     0.293 HD
ENDBRANCH   6  24
BRANCH   8  26
ATOM     26  O   UNL     1      20.875  49.230  42.655  1.00  0.00    -0.508 OA
ATOM     27  H   UNL     1      20.393  48.339  42.635  1.00  0.00     0.293 HD
ENDBRANCH   8  26
TORSDOF 6
ENDMDL
MODEL 7
REMARK VINA RESULT:    -4.838     21.072     23.118
REMARK INTER + INTRA:          -6.055
REMARK INTER:                  -5.724
REMARK INTRA:                  -0.331
REMARK UNBOUND:                -0.228
REMARK SMILES O=c1c(O)c(-c2ccc(O)c(O)c2)oc2cc(O)cc(O)c12
REMARK SMILES IDX 5 1 3 2 2 3 1 4 22 5 20 6 19 7 17 8 16 9 15 10 14 11 6 12
REMARK SMILES IDX 7 13 8 14 9 15 13 16 11 17 10 18 12 20 4 22 21 24 18 26
REMARK H PARENT 10 19 12 21 4 23 21 25 18 27
REMARK Flexibility Score: inf
ROOT
ATOM      1  C   UNL     1      40.155  35.204  45.953  1.00  0.00     0.180 A 
ATOM      2  C   UNL     1      40.568  34.430  44.854  1.00  0.00     0.208 A 
ATOM      3  C   UNL     1      40.694  35.044  43.598  1.00  0.00     0.238 A 
ATOM      4  O   UNL     1      41.012  34.335  42.607  1.00  0.00    -0.285 OA
ATOM      5  C   UNL     1      40.422  36.427  43.460  1.00  0.00     0.111 A 
ATOM      6  C   UNL     1      40.555  37.160  42.243  1.00  0.00     0.134 A 
ATOM      7  C   UNL     1      40.134  38.495  42.191  1.00  0.00     0.093 A 
ATOM      8  C   UNL     1      39.645  39.139  43.326  1.00  0.00     0.123 A 
ATOM      9  C   UNL     1      39.565  38.449  44.536  1.00  0.00     0.094 A 
ATOM     10  C   UNL     1      39.944  37.106  44.610  1.00  0.00     0.146 A 
ATOM     11  O   UNL     1      39.844  36.482  45.777  1.00  0.00    -0.452 OA
ENDROOT
BRANCH   1  12
ATOM     12  C   UNL     1      40.023  34.633  47.314  1.00  0.00     0.025 A 
ATOM     13  C   UNL     1      41.124  34.557  48.185  1.00  0.00     0.016 A 
ATOM     14  C   UNL     1      40.972  34.037  49.473  1.00  0.00     0.051 A 
ATOM     15  C   UNL     1      39.715  33.599  49.913  1.00  0.00     0.157 A 
ATOM     16  C   UNL     1      38.763  34.212  47.767  1.00  0.00     0.062 A 
ATOM     17  C   UNL     1      38.609  33.689  49.059  1.00  0.00     0.158 A 
BRANCH  15  18
ATOM     18  O   UNL     1      39.559  33.078  51.196  1.00  0.00    -0.504 OA
ATOM     19  H   UNL     1      40.286  33.166  51.896  1.00  0.00     0.293 HD
ENDBRANCH  15  18
BRANCH  17  20
ATOM     20  O   UNL     1      37.358  33.259  49.503  1.00  0.00    -0.504 OA
ATOM     21  H   UNL     1      37.054  32.300  49.380  1.00  0.00     0.293 HD
ENDBRANCH  17  20
ENDBRANCH   1  12
BRANCH   2  22
ATOM     22  O   UNL     1      40.811  33.062  45.010  1.00  0.00    -0.502 OA
ATOM     23  H   UNL     1      41.019  32.646  45.910  1.00  0.00     0.293 HD
ENDBRANCH   2  22
BRANCH   6  24
ATOM     24  O   UNL     1      41.118  36.638  41.074  1.00  0.00    -0.507 OA
ATOM     25  H   UNL     1      40.608  36.123  40.372  1.00  0.00     0.293 HD
ENDBRANCH   6  24
BRANCH   8  26
ATOM     26  O   UNL     1      39.249  40.473  43.242  1.00  0.00    -0.508 OA
ATOM     27  H   UNL     1      39.223  41.070  44.061  1.00  0.00     0.293 HD
ENDBRANCH   8  26
TORSDOF 6
ENDMDL
MODEL 8
REMARK VINA RESULT:    -4.565      2.168      3.276
REMARK INTER + INTRA:          -5.727
REMARK INTER:                  -5.780
REMARK INTRA:                   0.053
REMARK UNBOUND:                -0.228
REMARK SMILES O=c1c(O)c(-c2ccc(O)c(O)c2)oc2cc(O)cc(O)c12
REMARK SMILES IDX 5 1 3 2 2 3 1 4 22 5 20 6 19 7 17 8 16 9 15 10 14 11 6 12
REMARK SMILES IDX 7 13 8 14 9 15 13 16 11 17 10 18 12 20 4 22 21 24 18 26
REMARK H PARENT 10 19 12 21 4 23 21 25 18 27
REMARK Flexibility Score: inf
ROOT
ATOM      1  C   UNL     1      22.879  49.929  37.906  1.00  0.00     0.180 A 
ATOM      2  C   UNL     1      22.930  51.000  36.997  1.00  0.00     0.208 A 
ATOM      3  C   UNL     1      23.442  50.776  35.709  1.00  0.00     0.238 A 
ATOM      4  O   UNL     1      23.535  51.751  34.917  1.00  0.00    -0.285 OA
ATOM      5  C   UNL     1      23.881  49.482  35.341  1.00  0.00     0.111 A 
ATOM      6  C   UNL     1      24.380  49.133  34.050  1.00  0.00     0.134 A 
ATOM      7  C   UNL     1      24.909  47.853  33.837  1.00  0.00     0.093 A 
ATOM      8  C   UNL     1      24.897  46.892  34.847  1.00  0.00     0.123 A 
ATOM      9  C   UNL     1      24.357  47.204  36.096  1.00  0.00     0.094 A 
ATOM     10  C   UNL     1      23.856  48.483  36.349  1.00  0.00     0.146 A 
ATOM     11  O   UNL     1      23.360  48.744  37.553  1.00  0.00    -0.452 OA
ENDROOT
BRANCH   1  12
ATOM     12  C   UNL     1      22.330  50.081  39.274  1.00  0.00     0.025 A 
ATOM     13  C   UNL     1      21.407  49.159  39.797  1.00  0.00     0.016 A 
ATOM     14  C   UNL     1      20.921  49.308  41.099  1.00  0.00     0.051 A 
ATOM     15  C   UNL     1      21.359  50.371  41.899  1.00  0.00     0.157 A 
ATOM     16  C   UNL     1      22.782  51.132  40.087  1.00  0.00     0.062 A 
ATOM     17  C   UNL     1      22.293  51.284  41.393  1.00  0.00     0.158 A 
BRANCH  15  18
ATOM     18  O   UNL     1      20.875  50.525  43.197  1.00  0.00    -0.504 OA
ATOM     19  H   UNL     1      20.710  49.727  43.798  1.00  0.00     0.293 HD
ENDBRANCH  15  18
BRANCH  17  20
ATOM     20  O   UNL     1      22.733  52.337  42.194  1.00  0.00    -0.504 OA
ATOM     21  H   UNL     1      22.247  52.595  43.045  1.00  0.00     0.293 HD
ENDBRANCH  17  20
ENDBRANCH   1  12
BRANCH   2  22
ATOM     22  O   UNL     1      22.510  52.274  37.389  1.00  0.00    -0.502 OA
ATOM     23  H   UNL     1      21.953  52.872  36.789  1.00  0.00     0.293 HD
ENDBRANCH   2  22
BRANCH   6  24
ATOM     24  O   UNL     1      24.354  49.988  32.945  1.00  0.00    -0.507 OA
ATOM     25  H   UNL     1      23.611  50.024  32.264  1.00  0.00     0.293 HD
ENDBRANCH   6  24
BRANCH   8  26
ATOM     26  O   UNL     1      25.417  45.624  34.595  1.00  0.00    -0.508 OA
ATOM     27  H   UNL     1      26.399  45.486  34.387  1.00  0.00     0.293 HD
ENDBRANCH   8  26
TORSDOF 6
ENDMDL
