MODEL 1
REMARK VINA RESULT:     6.415      0.000      0.000
REMARK INTER + INTRA:          14.938
REMARK INTER:                  16.166
REMARK INTRA:                  -1.228
REMARK UNBOUND:                -1.228
REMARK SMILES CCCCCCCCCCCCCCCCCCCCCCCCCCCC(=O)[O-]
REMARK SMILES IDX 15 1 16 2 17 3 18 4 19 5 20 6 21 7 22 8 23 9 24 10 25 11
REMARK SMILES IDX 26 12 27 13 28 14 29 15 30 16 14 17 13 18 12 19 11 20 10 21
REMARK SMILES IDX 9 22 8 23 7 24 6 25 5 26 4 27 3 28 2 29 1 30
REMARK H PARENT
REMARK Flexibility Score: inf
ROOT
ATOM      1  C   UNL     1     -54.318 121.968  -8.382  1.00  0.00     0.000 C 
ENDROOT
BRANCH   1   2
ATOM      2  C   UNL     1     -54.902 122.393  -9.744  1.00  0.00     0.000 C 
BRANCH   2   3
ATOM      3  C   UNL     1     -56.394 122.036  -9.914  1.00  0.00     0.000 C 
BRANCH   3   4
ATOM      4  C   UNL     1     -56.685 121.337 -11.253  1.00  0.00     0.000 C 
BRANCH   4   5
ATOM      5  C   UNL     1     -57.173 119.885 -11.049  1.00  0.00     0.000 C 
BRANCH   5   6
ATOM      6  C   UNL     1     -56.946 119.350  -9.625  1.00  0.00     0.000 C 
BRANCH   6   7
ATOM      7  C   UNL     1     -58.220 118.756  -8.996  1.00  0.00     0.000 C 
BRANCH   7   8
ATOM      8  C   UNL     1     -58.187 118.796  -7.452  1.00  0.00     0.000 C 
BRANCH   8   9
ATOM      9  C   UNL     1     -59.285 117.950  -6.783  1.00  0.00     0.000 C 
BRANCH   9  10
ATOM     10  C   UNL     1     -59.285 118.082  -5.253  1.00  0.00     0.000 C 
BRANCH  10  11
ATOM     11  C   UNL     1     -59.033 119.520  -4.767  1.00  0.00     0.000 C 
BRANCH  11  12
ATOM     12  C   UNL     1     -59.405 119.796  -3.298  1.00  0.00     0.006 C 
BRANCH  12  13
ATOM     13  C   UNL     1     -58.727 121.050  -2.729  1.00  0.00     0.053 C 
BRANCH  13  14
ATOM     14  C   UNL     1     -59.694 122.190  -2.669  1.00  0.00     0.041 C 
ATOM     15  O   UNL     1     -60.357 122.406  -1.620  1.00  0.00    -0.550 OA
ATOM     16  O   UNL     1     -59.858 123.023  -3.769  1.00  0.00    -0.550 OA
ENDBRANCH  13  14
ENDBRANCH  12  13
ENDBRANCH  11  12
ENDBRANCH  10  11
ENDBRANCH   9  10
ENDBRANCH   8   9
ENDBRANCH   7   8
ENDBRANCH   6   7
ENDBRANCH   5   6
ENDBRANCH   4   5
ENDBRANCH   3   4
ENDBRANCH   2   3
ENDBRANCH   1   2
BRANCH   1  17
ATOM     17  C   UNL     1     -52.861 122.404  -8.141  1.00  0.00     0.000 C 
BRANCH  17  18
ATOM     18  C   UNL     1     -52.535 123.842  -8.585  1.00  0.00     0.000 C 
BRANCH  18  19
ATOM     19  C   UNL     1     -51.473 124.512  -7.699  1.00  0.00     0.000 C 
BRANCH  19  20
ATOM     20  C   UNL     1     -50.071 124.358  -8.306  1.00  0.00     0.000 C 
BRANCH  20  21
ATOM     21  C   UNL     1     -50.053 123.447  -9.548  1.00  0.00     0.000 C 
BRANCH  21  22
ATOM     22  C   UNL     1     -49.325 124.028 -10.775  1.00  0.00    -0.000 C 
BRANCH  22  23
ATOM     23  C   UNL     1     -48.898 122.953 -11.787  1.00  0.00    -0.000 C 
BRANCH  23  24
ATOM     24  C   UNL     1     -49.116 121.545 -11.217  1.00  0.00    -0.000 C 
BRANCH  24  25
ATOM     25  C   UNL     1     -50.225 120.808 -11.982  1.00  0.00    -0.000 C 
BRANCH  25  26
ATOM     26  C   UNL     1     -51.640 121.252 -11.547  1.00  0.00    -0.000 C 
BRANCH  26  27
ATOM     27  C   UNL     1     -52.763 120.372 -12.124  1.00  0.00    -0.000 C 
BRANCH  27  28
ATOM     28  C   UNL     1     -53.629 119.655 -11.072  1.00  0.00    -0.000 C 
BRANCH  28  29
ATOM     29  C   UNL     1     -53.076 119.751  -9.635  1.00  0.00    -0.003 C 
ATOM     30  C   UNL     1     -52.360 118.480  -9.181  1.00  0.00     0.004 C 
ENDBRANCH  28  29
ENDBRANCH  27  28
ENDBRANCH  26  27
ENDBRANCH  25  26
ENDBRANCH  24  25
ENDBRANCH  23  24
ENDBRANCH  22  23
ENDBRANCH  21  22
ENDBRANCH  20  21
ENDBRANCH  19  20
ENDBRANCH  18  19
ENDBRANCH  17  18
ENDBRANCH   1  17
TORSDOF 26
ENDMDL
MODEL 2
REMARK VINA RESULT:     7.072      2.860      9.553
REMARK INTER + INTRA:          16.594
REMARK INTER:                  17.820
REMARK INTRA:                  -1.226
REMARK UNBOUND:                -1.228
REMARK SMILES CCCCCCCCCCCCCCCCCCCCCCCCCCCC(=O)[O-]
REMARK SMILES IDX 15 1 16 2 17 3 18 4 19 5 20 6 21 7 22 8 23 9 24 10 25 11
REMARK SMILES IDX 26 12 27 13 28 14 29 15 30 16 14 17 13 18 12 19 11 20 10 21
REMARK SMILES IDX 9 22 8 23 7 24 6 25 5 26 4 27 3 28 2 29 1 30
REMARK H PARENT
REMARK Flexibility Score: inf
ROOT
ATOM      1  C   UNL     1     -53.587 122.810 -11.066  1.00  0.00     0.000 C 
ENDROOT
BRANCH   1   2
ATOM      2  C   UNL     1     -53.602 123.498  -9.687  1.00  0.00     0.000 C 
BRANCH   2   3
ATOM      3  C   UNL     1     -53.107 122.591  -8.541  1.00  0.00     0.000 C 
BRANCH   3   4
ATOM      4  C   UNL     1     -51.690 122.959  -8.066  1.00  0.00     0.000 C 
BRANCH   4   5
ATOM      5  C   UNL     1     -51.398 124.466  -8.245  1.00  0.00     0.000 C 
BRANCH   5   6
ATOM      6  C   UNL     1     -49.916 124.835  -8.059  1.00  0.00     0.000 C 
BRANCH   6   7
ATOM      7  C   UNL     1     -48.993 124.153  -9.086  1.00  0.00     0.000 C 
BRANCH   7   8
ATOM      8  C   UNL     1     -49.242 124.655 -10.525  1.00  0.00     0.000 C 
BRANCH   8   9
ATOM      9  C   UNL     1     -48.971 123.598 -11.610  1.00  0.00     0.000 C 
BRANCH   9  10
ATOM     10  C   UNL     1     -48.875 122.175 -11.041  1.00  0.00     0.000 C 
BRANCH  10  11
ATOM     11  C   UNL     1     -49.829 121.181 -11.727  1.00  0.00     0.000 C 
BRANCH  11  12
ATOM     12  C   UNL     1     -51.299 121.257 -11.277  1.00  0.00     0.006 C 
BRANCH  12  13
ATOM     13  C   UNL     1     -51.663 120.205 -10.221  1.00  0.00     0.053 C 
BRANCH  13  14
ATOM     14  C   UNL     1     -52.886 119.447 -10.633  1.00  0.00     0.041 C 
ATOM     15  O   UNL     1     -53.699 119.033  -9.764  1.00  0.00    -0.550 OA
ATOM     16  O   UNL     1     -53.135 119.204 -11.978  1.00  0.00    -0.550 OA
ENDBRANCH  13  14
ENDBRANCH  12  13
ENDBRANCH  11  12
ENDBRANCH  10  11
ENDBRANCH   9  10
ENDBRANCH   8   9
ENDBRANCH   7   8
ENDBRANCH   6   7
ENDBRANCH   5   6
ENDBRANCH   4   5
ENDBRANCH   3   4
ENDBRANCH   2   3
ENDBRANCH   1   2
BRANCH   1  17
ATOM     17  C   UNL     1     -54.777 123.165 -11.977  1.00  0.00     0.000 C 
BRANCH  17  18
ATOM     18  C   UNL     1     -56.070 122.381 -11.686  1.00  0.00     0.000 C 
BRANCH  18  19
ATOM     19  C   UNL     1     -55.805 120.920 -11.291  1.00  0.00     0.000 C 
BRANCH  19  20
ATOM     20  C   UNL     1     -57.113 120.195 -10.948  1.00  0.00     0.000 C 
BRANCH  20  21
ATOM     21  C   UNL     1     -57.559 120.418  -9.491  1.00  0.00     0.000 C 
BRANCH  21  22
ATOM     22  C   UNL     1     -58.285 119.227  -8.839  1.00  0.00    -0.000 C 
BRANCH  22  23
ATOM     23  C   UNL     1     -57.872 118.998  -7.376  1.00  0.00    -0.000 C 
BRANCH  23  24
ATOM     24  C   UNL     1     -58.546 117.744  -6.805  1.00  0.00    -0.000 C 
BRANCH  24  25
ATOM     25  C   UNL     1     -59.390 118.088  -5.569  1.00  0.00    -0.000 C 
BRANCH  25  26
ATOM     26  C   UNL     1     -59.014 119.456  -4.957  1.00  0.00    -0.000 C 
BRANCH  26  27
ATOM     27  C   UNL     1     -59.431 119.604  -3.483  1.00  0.00    -0.000 C 
BRANCH  27  28
ATOM     28  C   UNL     1     -58.811 120.809  -2.752  1.00  0.00    -0.000 C 
BRANCH  28  29
ATOM     29  C   UNL     1     -59.805 121.961  -2.490  1.00  0.00    -0.003 C 
ATOM     30  C   UNL     1     -59.445 123.244  -3.237  1.00  0.00     0.004 C 
ENDBRANCH  28  29
ENDBRANCH  27  28
ENDBRANCH  26  27
ENDBRANCH  25  26
ENDBRANCH  24  25
ENDBRANCH  23  24
ENDBRANCH  22  23
ENDBRANCH  21  22
ENDBRANCH  20  21
ENDBRANCH  19  20
ENDBRANCH  18  19
ENDBRANCH  17  18
ENDBRANCH   1  17
TORSDOF 26
ENDMDL
MODEL 3
REMARK VINA RESULT:     7.195      1.331      3.177
REMARK INTER + INTRA:          16.902
REMARK INTER:                  20.001
REMARK INTRA:                  -3.099
REMARK UNBOUND:                -1.228
REMARK SMILES CCCCCCCCCCCCCCCCCCCCCCCCCCCC(=O)[O-]
REMARK SMILES IDX 15 1 16 2 17 3 18 4 19 5 20 6 21 7 22 8 23 9 24 10 25 11
REMARK SMILES IDX 26 12 27 13 28 14 29 15 30 16 14 17 13 18 12 19 11 20 10 21
REMARK SMILES IDX 9 22 8 23 7 24 6 25 5 26 4 27 3 28 2 29 1 30
REMARK H PARENT
REMARK Flexibility Score: inf
ROOT
ATOM      1  C   UNL     1     -54.623 119.790 -11.024  1.00  0.00     0.000 C 
ENDROOT
BRANCH   1   2
ATOM      2  C   UNL     1     -55.975 119.507 -11.706  1.00  0.00     0.000 C 
BRANCH   2   3
ATOM      3  C   UNL     1     -56.892 120.745 -11.794  1.00  0.00     0.000 C 
BRANCH   3   4
ATOM      4  C   UNL     1     -56.569 121.797 -10.718  1.00  0.00     0.000 C 
BRANCH   4   5
ATOM      5  C   UNL     1     -57.545 121.716  -9.523  1.00  0.00     0.000 C 
BRANCH   5   6
ATOM      6  C   UNL     1     -56.856 121.422  -8.180  1.00  0.00     0.000 C 
BRANCH   6   7
ATOM      7  C   UNL     1     -56.821 119.920  -7.839  1.00  0.00     0.000 C 
BRANCH   7   8
ATOM      8  C   UNL     1     -57.573 119.597  -6.529  1.00  0.00     0.000 C 
BRANCH   8   9
ATOM      9  C   UNL     1     -58.558 118.421  -6.648  1.00  0.00     0.000 C 
BRANCH   9  10
ATOM     10  C   UNL     1     -59.242 118.081  -5.315  1.00  0.00     0.000 C 
BRANCH  10  11
ATOM     11  C   UNL     1     -59.630 119.326  -4.498  1.00  0.00     0.000 C 
BRANCH  11  12
ATOM     12  C   UNL     1     -59.167 119.324  -3.030  1.00  0.00     0.006 C 
BRANCH  12  13
ATOM     13  C   UNL     1     -59.933 120.323  -2.152  1.00  0.00     0.053 C 
BRANCH  13  14
ATOM     14  C   UNL     1     -59.076 121.507  -1.832  1.00  0.00     0.041 C 
ATOM     15  O   UNL     1     -59.604 122.592  -1.469  1.00  0.00    -0.550 OA
ATOM     16  O   UNL     1     -57.693 121.412  -1.925  1.00  0.00    -0.550 OA
ENDBRANCH  13  14
ENDBRANCH  12  13
ENDBRANCH  11  12
ENDBRANCH  10  11
ENDBRANCH   9  10
ENDBRANCH   8   9
ENDBRANCH   7   8
ENDBRANCH   6   7
ENDBRANCH   5   6
ENDBRANCH   4   5
ENDBRANCH   3   4
ENDBRANCH   2   3
ENDBRANCH   1   2
BRANCH   1  17
ATOM     17  C   UNL     1     -53.506 120.259 -11.975  1.00  0.00     0.000 C 
BRANCH  17  18
ATOM     18  C   UNL     1     -52.779 121.543 -11.534  1.00  0.00     0.000 C 
BRANCH  18  19
ATOM     19  C   UNL     1     -53.721 122.752 -11.417  1.00  0.00     0.000 C 
BRANCH  19  20
ATOM     20  C   UNL     1     -53.600 123.414 -10.038  1.00  0.00     0.000 C 
BRANCH  20  21
ATOM     21  C   UNL     1     -53.153 122.432  -8.938  1.00  0.00     0.000 C 
BRANCH  21  22
ATOM     22  C   UNL     1     -51.843 122.807  -8.220  1.00  0.00    -0.000 C 
BRANCH  22  23
ATOM     23  C   UNL     1     -51.346 124.218  -8.573  1.00  0.00    -0.000 C 
BRANCH  23  24
ATOM     24  C   UNL     1     -49.850 124.366  -8.265  1.00  0.00    -0.000 C 
BRANCH  24  25
ATOM     25  C   UNL     1     -49.003 124.113  -9.519  1.00  0.00    -0.000 C 
BRANCH  25  26
ATOM     26  C   UNL     1     -49.820 124.249 -10.824  1.00  0.00    -0.000 C 
BRANCH  26  27
ATOM     27  C   UNL     1     -49.609 123.081 -11.804  1.00  0.00    -0.000 C 
BRANCH  27  28
ATOM     28  C   UNL     1     -48.875 121.863 -11.213  1.00  0.00    -0.000 C 
BRANCH  28  29
ATOM     29  C   UNL     1     -49.762 120.972 -10.317  1.00  0.00    -0.003 C 
ATOM     30  C   UNL     1     -48.972 120.223  -9.245  1.00  0.00     0.004 C 
ENDBRANCH  28  29
ENDBRANCH  27  28
ENDBRANCH  26  27
ENDBRANCH  25  26
ENDBRANCH  24  25
ENDBRANCH  23  24
ENDBRANCH  22  23
ENDBRANCH  21  22
ENDBRANCH  20  21
ENDBRANCH  19  20
ENDBRANCH  18  19
ENDBRANCH  17  18
ENDBRANCH   1  17
TORSDOF 26
ENDMDL
MODEL 4
REMARK VINA RESULT:     7.373      2.995      9.422
REMARK INTER + INTRA:          17.353
REMARK INTER:                  18.782
REMARK INTRA:                  -1.430
REMARK UNBOUND:                -1.228
REMARK SMILES CCCCCCCCCCCCCCCCCCCCCCCCCCCC(=O)[O-]
REMARK SMILES IDX 15 1 16 2 17 3 18 4 19 5 20 6 21 7 22 8 23 9 24 10 25 11
REMARK SMILES IDX 26 12 27 13 28 14 29 15 30 16 14 17 13 18 12 19 11 20 10 21
REMARK SMILES IDX 9 22 8 23 7 24 6 25 5 26 4 27 3 28 2 29 1 30
REMARK H PARENT
REMARK Flexibility Score: inf
ROOT
ATOM      1  C   UNL     1     -54.670 123.198 -11.811  1.00  0.00     0.000 C 
ENDROOT
BRANCH   1   2
ATOM      2  C   UNL     1     -53.573 123.546 -10.787  1.00  0.00     0.000 C 
BRANCH   2   3
ATOM      3  C   UNL     1     -53.988 123.279  -9.324  1.00  0.00     0.000 C 
BRANCH   3   4
ATOM      4  C   UNL     1     -52.868 123.612  -8.322  1.00  0.00     0.000 C 
BRANCH   4   5
ATOM      5  C   UNL     1     -51.496 123.080  -8.796  1.00  0.00     0.000 C 
BRANCH   5   6
ATOM      6  C   UNL     1     -50.344 124.081  -8.607  1.00  0.00     0.000 C 
BRANCH   6   7
ATOM      7  C   UNL     1     -49.077 123.694  -9.392  1.00  0.00     0.000 C 
BRANCH   7   8
ATOM      8  C   UNL     1     -48.875 124.567 -10.650  1.00  0.00     0.000 C 
BRANCH   8   9
ATOM      9  C   UNL     1     -48.984 123.789 -11.973  1.00  0.00     0.000 C 
BRANCH   9  10
ATOM     10  C   UNL     1     -49.117 122.273 -11.760  1.00  0.00     0.000 C 
BRANCH  10  11
ATOM     11  C   UNL     1     -50.560 121.762 -11.925  1.00  0.00     0.000 C 
BRANCH  11  12
ATOM     12  C   UNL     1     -51.039 120.776 -10.844  1.00  0.00     0.006 C 
BRANCH  12  13
ATOM     13  C   UNL     1     -52.492 120.324 -11.039  1.00  0.00     0.053 C 
BRANCH  13  14
ATOM     14  C   UNL     1     -53.032 119.725  -9.778  1.00  0.00     0.041 C 
ATOM     15  O   UNL     1     -52.851 118.504  -9.528  1.00  0.00    -0.550 OA
ATOM     16  O   UNL     1     -53.727 120.517  -8.873  1.00  0.00    -0.550 OA
ENDBRANCH  13  14
ENDBRANCH  12  13
ENDBRANCH  11  12
ENDBRANCH  10  11
ENDBRANCH   9  10
ENDBRANCH   8   9
ENDBRANCH   7   8
ENDBRANCH   6   7
ENDBRANCH   5   6
ENDBRANCH   4   5
ENDBRANCH   3   4
ENDBRANCH   2   3
ENDBRANCH   1   2
BRANCH   1  17
ATOM     17  C   UNL     1     -55.778 122.270 -11.279  1.00  0.00     0.000 C 
BRANCH  17  18
ATOM     18  C   UNL     1     -56.024 121.006 -12.123  1.00  0.00     0.000 C 
BRANCH  18  19
ATOM     19  C   UNL     1     -56.895 119.966 -11.401  1.00  0.00     0.000 C 
BRANCH  19  20
ATOM     20  C   UNL     1     -56.598 119.949  -9.895  1.00  0.00     0.000 C 
BRANCH  20  21
ATOM     21  C   UNL     1     -57.210 121.149  -9.148  1.00  0.00     0.000 C 
BRANCH  21  22
ATOM     22  C   UNL     1     -56.611 121.429  -7.758  1.00  0.00    -0.000 C 
BRANCH  22  23
ATOM     23  C   UNL     1     -56.896 122.854  -7.255  1.00  0.00    -0.000 C 
BRANCH  23  24
ATOM     24  C   UNL     1     -58.152 122.885  -6.376  1.00  0.00    -0.000 C 
BRANCH  24  25
ATOM     25  C   UNL     1     -57.791 122.706  -4.895  1.00  0.00    -0.000 C 
BRANCH  25  26
ATOM     26  C   UNL     1     -58.604 123.641  -3.970  1.00  0.00    -0.000 C 
BRANCH  26  27
ATOM     27  C   UNL     1     -59.969 123.062  -3.559  1.00  0.00    -0.000 C 
BRANCH  27  28
ATOM     28  C   UNL     1     -59.904 121.914  -2.534  1.00  0.00    -0.000 C 
BRANCH  28  29
ATOM     29  C   UNL     1     -59.686 122.385  -1.080  1.00  0.00    -0.003 C 
ATOM     30  C   UNL     1     -60.500 123.627  -0.724  1.00  0.00     0.004 C 
ENDBRANCH  28  29
ENDBRANCH  27  28
ENDBRANCH  26  27
ENDBRANCH  25  26
ENDBRANCH  24  25
ENDBRANCH  23  24
ENDBRANCH  22  23
ENDBRANCH  21  22
ENDBRANCH  20  21
ENDBRANCH  19  20
ENDBRANCH  18  19
ENDBRANCH  17  18
ENDBRANCH   1  17
TORSDOF 26
ENDMDL
MODEL 5
REMARK VINA RESULT:     7.730      1.028      3.313
REMARK INTER + INTRA:          18.252
REMARK INTER:                  20.187
REMARK INTRA:                  -1.935
REMARK UNBOUND:                -1.228
REMARK SMILES CCCCCCCCCCCCCCCCCCCCCCCCCCCC(=O)[O-]
REMARK SMILES IDX 15 1 16 2 17 3 18 4 19 5 20 6 21 7 22 8 23 9 24 10 25 11
REMARK SMILES IDX 26 12 27 13 28 14 29 15 30 16 14 17 13 18 12 19 11 20 10 21
REMARK SMILES IDX 9 22 8 23 7 24 6 25 5 26 4 27 3 28 2 29 1 30
REMARK H PARENT
REMARK Flexibility Score: inf
ROOT
ATOM      1  C   UNL     1     -56.057 121.548  -9.094  1.00  0.00     0.000 C 
ENDROOT
BRANCH   1   2
ATOM      2  C   UNL     1     -57.103 121.934 -10.158  1.00  0.00     0.000 C 
BRANCH   2   3
ATOM      3  C   UNL     1     -57.747 120.719 -10.859  1.00  0.00     0.000 C 
BRANCH   3   4
ATOM      4  C   UNL     1     -56.893 119.444 -10.735  1.00  0.00     0.000 C 
BRANCH   4   5
ATOM      5  C   UNL     1     -56.854 118.919  -9.282  1.00  0.00     0.000 C 
BRANCH   5   6
ATOM      6  C   UNL     1     -58.246 118.675  -8.674  1.00  0.00     0.000 C 
BRANCH   6   7
ATOM      7  C   UNL     1     -58.247 118.734  -7.135  1.00  0.00     0.000 C 
BRANCH   7   8
ATOM      8  C   UNL     1     -59.315 117.807  -6.512  1.00  0.00     0.000 C 
BRANCH   8   9
ATOM      9  C   UNL     1     -59.970 118.376  -5.242  1.00  0.00     0.000 C 
BRANCH   9  10
ATOM     10  C   UNL     1     -59.007 119.240  -4.414  1.00  0.00     0.000 C 
BRANCH  10  11
ATOM     11  C   UNL     1     -59.372 119.294  -2.919  1.00  0.00     0.000 C 
BRANCH  11  12
ATOM     12  C   UNL     1     -59.794 120.678  -2.392  1.00  0.00     0.006 C 
BRANCH  12  13
ATOM     13  C   UNL     1     -58.747 121.769  -2.652  1.00  0.00     0.053 C 
BRANCH  13  14
ATOM     14  C   UNL     1     -59.327 122.867  -3.488  1.00  0.00     0.041 C 
ATOM     15  O   UNL     1     -60.523 123.225  -3.325  1.00  0.00    -0.550 OA
ATOM     16  O   UNL     1     -58.544 123.502  -4.443  1.00  0.00    -0.550 OA
ENDBRANCH  13  14
ENDBRANCH  12  13
ENDBRANCH  11  12
ENDBRANCH  10  11
ENDBRANCH   9  10
ENDBRANCH   8   9
ENDBRANCH   7   8
ENDBRANCH   6   7
ENDBRANCH   5   6
ENDBRANCH   4   5
ENDBRANCH   3   4
ENDBRANCH   2   3
ENDBRANCH   1   2
BRANCH   1  17
ATOM     17  C   UNL     1     -54.625 122.028  -9.393  1.00  0.00     0.000 C 
BRANCH  17  18
ATOM     18  C   UNL     1     -54.525 123.152 -10.441  1.00  0.00     0.000 C 
BRANCH  18  19
ATOM     19  C   UNL     1     -53.969 122.663 -11.787  1.00  0.00     0.000 C 
BRANCH  19  20
ATOM     20  C   UNL     1     -54.235 121.164 -11.983  1.00  0.00     0.000 C 
BRANCH  20  21
ATOM     21  C   UNL     1     -52.943 120.339 -12.125  1.00  0.00     0.000 C 
BRANCH  21  22
ATOM     22  C   UNL     1     -52.257 119.964 -10.798  1.00  0.00    -0.000 C 
BRANCH  22  23
ATOM     23  C   UNL     1     -50.919 120.691 -10.586  1.00  0.00    -0.000 C 
BRANCH  23  24
ATOM     24  C   UNL     1     -50.351 121.195 -11.919  1.00  0.00    -0.000 C 
BRANCH  24  25
ATOM     25  C   UNL     1     -49.100 122.056 -11.693  1.00  0.00    -0.000 C 
BRANCH  25  26
ATOM     26  C   UNL     1     -48.924 122.468 -10.214  1.00  0.00    -0.000 C 
BRANCH  26  27
ATOM     27  C   UNL     1     -49.261 123.946  -9.945  1.00  0.00    -0.000 C 
BRANCH  27  28
ATOM     28  C   UNL     1     -49.995 124.212  -8.618  1.00  0.00    -0.000 C 
BRANCH  28  29
ATOM     29  C   UNL     1     -51.463 123.735  -8.609  1.00  0.00    -0.003 C 
ATOM     30  C   UNL     1     -52.183 124.033  -7.294  1.00  0.00     0.004 C 
ENDBRANCH  28  29
ENDBRANCH  27  28
ENDBRANCH  26  27
ENDBRANCH  25  26
ENDBRANCH  24  25
ENDBRANCH  23  24
ENDBRANCH  22  23
ENDBRANCH  21  22
ENDBRANCH  20  21
ENDBRANCH  19  20
ENDBRANCH  18  19
ENDBRANCH  17  18
ENDBRANCH   1  17
TORSDOF 26
ENDMDL
MODEL 6
REMARK VINA RESULT:     7.994      2.247      8.953
REMARK INTER + INTRA:          18.917
REMARK INTER:                  19.826
REMARK INTRA:                  -0.908
REMARK UNBOUND:                -1.228
REMARK SMILES CCCCCCCCCCCCCCCCCCCCCCCCCCCC(=O)[O-]
REMARK SMILES IDX 15 1 16 2 17 3 18 4 19 5 20 6 21 7 22 8 23 9 24 10 25 11
REMARK SMILES IDX 26 12 27 13 28 14 29 15 30 16 14 17 13 18 12 19 11 20 10 21
REMARK SMILES IDX 9 22 8 23 7 24 6 25 5 26 4 27 3 28 2 29 1 30
REMARK H PARENT
REMARK Flexibility Score: inf
ROOT
ATOM      1  C   UNL     1     -54.152 119.777  -9.437  1.00  0.00     0.000 C 
ENDROOT
BRANCH   1   2
ATOM      2  C   UNL     1     -52.714 119.301  -9.717  1.00  0.00     0.000 C 
BRANCH   2   3
ATOM      3  C   UNL     1     -51.723 120.455  -9.978  1.00  0.00     0.000 C 
BRANCH   3   4
ATOM      4  C   UNL     1     -51.315 120.560 -11.458  1.00  0.00     0.000 C 
BRANCH   4   5
ATOM      5  C   UNL     1     -51.741 121.910 -12.078  1.00  0.00     0.000 C 
BRANCH   5   6
ATOM      6  C   UNL     1     -50.613 122.954 -12.123  1.00  0.00     0.000 C 
BRANCH   6   7
ATOM      7  C   UNL     1     -49.290 122.436 -11.528  1.00  0.00     0.000 C 
BRANCH   7   8
ATOM      8  C   UNL     1     -48.887 123.191 -10.243  1.00  0.00     0.000 C 
BRANCH   8   9
ATOM      9  C   UNL     1     -50.063 123.479  -9.294  1.00  0.00     0.000 C 
BRANCH   9  10
ATOM     10  C   UNL     1     -49.773 124.633  -8.322  1.00  0.00     0.000 C 
BRANCH  10  11
ATOM     11  C   UNL     1     -50.910 124.879  -7.314  1.00  0.00     0.000 C 
BRANCH  11  12
ATOM     12  C   UNL     1     -52.078 123.878  -7.378  1.00  0.00     0.006 C 
BRANCH  12  13
ATOM     13  C   UNL     1     -53.203 124.320  -8.323  1.00  0.00     0.053 C 
BRANCH  13  14
ATOM     14  C   UNL     1     -54.063 123.156  -8.700  1.00  0.00     0.041 C 
ATOM     15  O   UNL     1     -54.387 122.300  -7.835  1.00  0.00    -0.550 OA
ATOM     16  O   UNL     1     -54.516 123.019 -10.006  1.00  0.00    -0.550 OA
ENDBRANCH  13  14
ENDBRANCH  12  13
ENDBRANCH  11  12
ENDBRANCH  10  11
ENDBRANCH   9  10
ENDBRANCH   8   9
ENDBRANCH   7   8
ENDBRANCH   6   7
ENDBRANCH   5   6
ENDBRANCH   4   5
ENDBRANCH   3   4
ENDBRANCH   2   3
ENDBRANCH   1   2
BRANCH   1  17
ATOM     17  C   UNL     1     -55.182 119.386 -10.513  1.00  0.00     0.000 C 
BRANCH  17  18
ATOM     18  C   UNL     1     -55.715 120.560 -11.355  1.00  0.00     0.000 C 
BRANCH  18  19
ATOM     19  C   UNL     1     -57.079 120.262 -11.997  1.00  0.00     0.000 C 
BRANCH  19  20
ATOM     20  C   UNL     1     -58.216 120.427 -10.980  1.00  0.00     0.000 C 
BRANCH  20  21
ATOM     21  C   UNL     1     -57.750 120.238  -9.523  1.00  0.00     0.000 C 
BRANCH  21  22
ATOM     22  C   UNL     1     -58.214 118.931  -8.854  1.00  0.00    -0.000 C 
BRANCH  22  23
ATOM     23  C   UNL     1     -58.209 119.007  -7.319  1.00  0.00    -0.000 C 
BRANCH  23  24
ATOM     24  C   UNL     1     -59.096 117.912  -6.712  1.00  0.00    -0.000 C 
BRANCH  24  25
ATOM     25  C   UNL     1     -59.162 118.041  -5.183  1.00  0.00    -0.000 C 
BRANCH  25  26
ATOM     26  C   UNL     1     -58.891 119.484  -4.699  1.00  0.00    -0.000 C 
BRANCH  26  27
ATOM     27  C   UNL     1     -59.657 119.854  -3.417  1.00  0.00    -0.000 C 
BRANCH  27  28
ATOM     28  C   UNL     1     -59.605 121.346  -3.038  1.00  0.00    -0.000 C 
BRANCH  28  29
ATOM     29  C   UNL     1     -58.626 121.666  -1.889  1.00  0.00    -0.003 C 
ATOM     30  C   UNL     1     -57.682 120.510  -1.565  1.00  0.00     0.004 C 
ENDBRANCH  28  29
ENDBRANCH  27  28
ENDBRANCH  26  27
ENDBRANCH  25  26
ENDBRANCH  24  25
ENDBRANCH  23  24
ENDBRANCH  22  23
ENDBRANCH  21  22
ENDBRANCH  20  21
ENDBRANCH  19  20
ENDBRANCH  18  19
ENDBRANCH  17  18
ENDBRANCH   1  17
TORSDOF 26
ENDMDL
MODEL 7
REMARK VINA RESULT:     8.225      2.926     10.017
REMARK INTER + INTRA:          19.498
REMARK INTER:                  20.442
REMARK INTRA:                  -0.943
REMARK UNBOUND:                -1.228
REMARK SMILES CCCCCCCCCCCCCCCCCCCCCCCCCCCC(=O)[O-]
REMARK SMILES IDX 15 1 16 2 17 3 18 4 19 5 20 6 21 7 22 8 23 9 24 10 25 11
REMARK SMILES IDX 26 12 27 13 28 14 29 15 30 16 14 17 13 18 12 19 11 20 10 21
REMARK SMILES IDX 9 22 8 23 7 24 6 25 5 26 4 27 3 28 2 29 1 30
REMARK H PARENT
REMARK Flexibility Score: inf
ROOT
ATOM      1  C   UNL     1     -55.756 121.572 -10.949  1.00  0.00     0.000 C 
ENDROOT
BRANCH   1   2
ATOM      2  C   UNL     1     -55.448 122.522 -12.123  1.00  0.00     0.000 C 
BRANCH   2   3
ATOM      3  C   UNL     1     -54.049 123.169 -12.042  1.00  0.00     0.000 C 
BRANCH   3   4
ATOM      4  C   UNL     1     -53.855 123.997 -10.759  1.00  0.00     0.000 C 
BRANCH   4   5
ATOM      5  C   UNL     1     -53.640 123.097  -9.521  1.00  0.00     0.000 C 
BRANCH   5   6
ATOM      6  C   UNL     1     -52.808 123.760  -8.411  1.00  0.00     0.000 C 
BRANCH   6   7
ATOM      7  C   UNL     1     -51.392 123.168  -8.286  1.00  0.00     0.000 C 
BRANCH   7   8
ATOM      8  C   UNL     1     -50.350 123.957  -9.109  1.00  0.00     0.000 C 
BRANCH   8   9
ATOM      9  C   UNL     1     -49.277 123.073  -9.768  1.00  0.00     0.000 C 
BRANCH   9  10
ATOM     10  C   UNL     1     -49.213 123.255 -11.293  1.00  0.00     0.000 C 
BRANCH  10  11
ATOM     11  C   UNL     1     -49.608 121.987 -12.072  1.00  0.00     0.000 C 
BRANCH  11  12
ATOM     12  C   UNL     1     -51.081 121.560 -11.935  1.00  0.00     0.006 C 
BRANCH  12  13
ATOM     13  C   UNL     1     -51.293 120.446 -10.902  1.00  0.00     0.053 C 
BRANCH  13  14
ATOM     14  C   UNL     1     -52.681 119.895 -10.999  1.00  0.00     0.041 C 
ATOM     15  O   UNL     1     -53.195 119.665 -12.125  1.00  0.00    -0.550 OA
ATOM     16  O   UNL     1     -53.406 119.626  -9.844  1.00  0.00    -0.550 OA
ENDBRANCH  13  14
ENDBRANCH  12  13
ENDBRANCH  11  12
ENDBRANCH  10  11
ENDBRANCH   9  10
ENDBRANCH   8   9
ENDBRANCH   7   8
ENDBRANCH   6   7
ENDBRANCH   5   6
ENDBRANCH   4   5
ENDBRANCH   3   4
ENDBRANCH   2   3
ENDBRANCH   1   2
BRANCH   1  17
ATOM     17  C   UNL     1     -56.220 120.163 -11.364  1.00  0.00     0.000 C 
BRANCH  17  18
ATOM     18  C   UNL     1     -57.653 119.802 -10.934  1.00  0.00     0.000 C 
BRANCH  18  19
ATOM     19  C   UNL     1     -57.856 119.878  -9.413  1.00  0.00     0.000 C 
BRANCH  19  20
ATOM     20  C   UNL     1     -58.672 118.681  -8.905  1.00  0.00     0.000 C 
BRANCH  20  21
ATOM     21  C   UNL     1     -58.344 118.307  -7.447  1.00  0.00     0.000 C 
BRANCH  21  22
ATOM     22  C   UNL     1     -59.438 117.507  -6.716  1.00  0.00    -0.000 C 
BRANCH  22  23
ATOM     23  C   UNL     1     -59.798 118.096  -5.342  1.00  0.00    -0.000 C 
BRANCH  23  24
ATOM     24  C   UNL     1     -58.733 119.097  -4.878  1.00  0.00    -0.000 C 
BRANCH  24  25
ATOM     25  C   UNL     1     -58.913 119.443  -3.393  1.00  0.00    -0.000 C 
BRANCH  25  26
ATOM     26  C   UNL     1     -59.513 120.851  -3.182  1.00  0.00    -0.000 C 
BRANCH  26  27
ATOM     27  C   UNL     1     -59.197 121.452  -1.800  1.00  0.00    -0.000 C 
BRANCH  27  28
ATOM     28  C   UNL     1     -60.147 122.576  -1.349  1.00  0.00    -0.000 C 
BRANCH  28  29
ATOM     29  C   UNL     1     -59.839 123.948  -1.985  1.00  0.00    -0.003 C 
ATOM     30  C   UNL     1     -59.841 123.916  -3.513  1.00  0.00     0.004 C 
ENDBRANCH  28  29
ENDBRANCH  27  28
ENDBRANCH  26  27
ENDBRANCH  25  26
ENDBRANCH  24  25
ENDBRANCH  23  24
ENDBRANCH  22  23
ENDBRANCH  21  22
ENDBRANCH  20  21
ENDBRANCH  19  20
ENDBRANCH  18  19
ENDBRANCH  17  18
ENDBRANCH   1  17
TORSDOF 26
ENDMDL
MODEL 8
REMARK VINA RESULT:     8.340      2.889      8.853
REMARK INTER + INTRA:          19.788
REMARK INTER:                  20.616
REMARK INTRA:                  -0.829
REMARK UNBOUND:                -1.228
REMARK SMILES CCCCCCCCCCCCCCCCCCCCCCCCCCCC(=O)[O-]
REMARK SMILES IDX 15 1 16 2 17 3 18 4 19 5 20 6 21 7 22 8 23 9 24 10 25 11
REMARK SMILES IDX 26 12 27 13 28 14 29 15 30 16 14 17 13 18 12 19 11 20 10 21
REMARK SMILES IDX 9 22 8 23 7 24 6 25 5 26 4 27 3 28 2 29 1 30
REMARK H PARENT
REMARK Flexibility Score: inf
ROOT
ATOM      1  C   UNL     1     -53.692 120.672 -11.700  1.00  0.00     0.000 C 
ENDROOT
BRANCH   1   2
ATOM      2  C   UNL     1     -52.232 120.427 -12.125  1.00  0.00     0.000 C 
BRANCH   2   3
ATOM      3  C   UNL     1     -51.335 121.676 -11.999  1.00  0.00     0.000 C 
BRANCH   3   4
ATOM      4  C   UNL     1     -49.836 121.329 -11.986  1.00  0.00     0.000 C 
BRANCH   4   5
ATOM      5  C   UNL     1     -49.138 121.843 -10.706  1.00  0.00     0.000 C 
BRANCH   5   6
ATOM      6  C   UNL     1     -49.331 123.348 -10.458  1.00  0.00     0.000 C 
BRANCH   6   7
ATOM      7  C   UNL     1     -49.039 123.759  -9.002  1.00  0.00     0.000 C 
BRANCH   7   8
ATOM      8  C   UNL     1     -50.319 124.158  -8.235  1.00  0.00     0.000 C 
BRANCH   8   9
ATOM      9  C   UNL     1     -51.616 123.949  -9.035  1.00  0.00     0.000 C 
BRANCH   9  10
ATOM     10  C   UNL     1     -52.877 124.255  -8.212  1.00  0.00     0.000 C 
BRANCH  10  11
ATOM     11  C   UNL     1     -53.752 123.014  -7.959  1.00  0.00     0.000 C 
BRANCH  11  12
ATOM     12  C   UNL     1     -53.502 121.825  -8.904  1.00  0.00     0.006 C 
BRANCH  12  13
ATOM     13  C   UNL     1     -53.533 120.468  -8.188  1.00  0.00     0.053 C 
BRANCH  13  14
ATOM     14  C   UNL     1     -52.681 119.472  -8.910  1.00  0.00     0.041 C 
ATOM     15  O   UNL     1     -51.450 119.686  -9.068  1.00  0.00    -0.550 OA
ATOM     16  O   UNL     1     -53.243 118.301  -9.402  1.00  0.00    -0.550 OA
ENDBRANCH  13  14
ENDBRANCH  12  13
ENDBRANCH  11  12
ENDBRANCH  10  11
ENDBRANCH   9  10
ENDBRANCH   8   9
ENDBRANCH   7   8
ENDBRANCH   6   7
ENDBRANCH   5   6
ENDBRANCH   4   5
ENDBRANCH   3   4
ENDBRANCH   2   3
ENDBRANCH   1   2
BRANCH   1  17
ATOM     17  C   UNL     1     -54.214 122.094 -11.974  1.00  0.00     0.000 C 
BRANCH  17  18
ATOM     18  C   UNL     1     -55.748 122.231 -11.979  1.00  0.00     0.000 C 
BRANCH  18  19
ATOM     19  C   UNL     1     -56.419 121.454 -10.836  1.00  0.00     0.000 C 
BRANCH  19  20
ATOM     20  C   UNL     1     -56.122 119.952 -10.941  1.00  0.00     0.000 C 
BRANCH  20  21
ATOM     21  C   UNL     1     -57.174 119.080 -10.231  1.00  0.00     0.000 C 
BRANCH  21  22
ATOM     22  C   UNL     1     -57.825 119.721  -8.991  1.00  0.00    -0.000 C 
BRANCH  22  23
ATOM     23  C   UNL     1     -57.645 118.883  -7.715  1.00  0.00    -0.000 C 
BRANCH  23  24
ATOM     24  C   UNL     1     -58.975 118.729  -6.966  1.00  0.00    -0.000 C 
BRANCH  24  25
ATOM     25  C   UNL     1     -58.738 118.353  -5.497  1.00  0.00    -0.000 C 
BRANCH  25  26
ATOM     26  C   UNL     1     -59.684 119.105  -4.533  1.00  0.00    -0.000 C 
BRANCH  26  27
ATOM     27  C   UNL     1     -59.032 119.457  -3.184  1.00  0.00    -0.000 C 
BRANCH  27  28
ATOM     28  C   UNL     1     -59.562 120.743  -2.524  1.00  0.00    -0.000 C 
BRANCH  28  29
ATOM     29  C   UNL     1     -58.846 122.028  -2.992  1.00  0.00    -0.003 C 
ATOM     30  C   UNL     1     -59.741 122.944  -3.826  1.00  0.00     0.004 C 
ENDBRANCH  28  29
ENDBRANCH  27  28
ENDBRANCH  26  27
ENDBRANCH  25  26
ENDBRANCH  24  25
ENDBRANCH  23  24
ENDBRANCH  22  23
ENDBRANCH  21  22
ENDBRANCH  20  21
ENDBRANCH  19  20
ENDBRANCH  18  19
ENDBRANCH  17  18
ENDBRANCH   1  17
TORSDOF 26
ENDMDL
MODEL 9
REMARK VINA RESULT:     8.473      1.131      3.999
REMARK INTER + INTRA:          20.124
REMARK INTER:                  21.077
REMARK INTRA:                  -0.953
REMARK UNBOUND:                -1.228
REMARK SMILES CCCCCCCCCCCCCCCCCCCCCCCCCCCC(=O)[O-]
REMARK SMILES IDX 15 1 16 2 17 3 18 4 19 5 20 6 21 7 22 8 23 9 24 10 25 11
REMARK SMILES IDX 26 12 27 13 28 14 29 15 30 16 14 17 13 18 12 19 11 20 10 21
REMARK SMILES IDX 9 22 8 23 7 24 6 25 5 26 4 27 3 28 2 29 1 30
REMARK H PARENT
REMARK Flexibility Score: inf
ROOT
ATOM      1  C   UNL     1     -56.606 119.901 -10.449  1.00  0.00     0.000 C 
ENDROOT
BRANCH   1   2
ATOM      2  C   UNL     1     -57.272 121.288 -10.371  1.00  0.00     0.000 C 
BRANCH   2   3
ATOM      3  C   UNL     1     -57.109 121.974  -8.998  1.00  0.00     0.000 C 
BRANCH   3   4
ATOM      4  C   UNL     1     -56.741 120.981  -7.882  1.00  0.00     0.000 C 
BRANCH   4   5
ATOM      5  C   UNL     1     -57.436 119.614  -8.077  1.00  0.00     0.000 C 
BRANCH   5   6
ATOM      6  C   UNL     1     -57.644 118.833  -6.768  1.00  0.00     0.000 C 
BRANCH   6   7
ATOM      7  C   UNL     1     -58.834 117.857  -6.834  1.00  0.00     0.000 C 
BRANCH   7   8
ATOM      8  C   UNL     1     -59.601 117.774  -5.496  1.00  0.00     0.000 C 
BRANCH   8   9
ATOM      9  C   UNL     1     -59.951 119.144  -4.891  1.00  0.00     0.000 C 
BRANCH   9  10
ATOM     10  C   UNL     1     -59.067 119.505  -3.687  1.00  0.00     0.000 C 
BRANCH  10  11
ATOM     11  C   UNL     1     -59.851 119.596  -2.365  1.00  0.00     0.000 C 
BRANCH  11  12
ATOM     12  C   UNL     1     -59.160 120.389  -1.241  1.00  0.00     0.006 C 
BRANCH  12  13
ATOM     13  C   UNL     1     -58.581 121.729  -1.713  1.00  0.00     0.053 C 
BRANCH  13  14
ATOM     14  C   UNL     1     -59.679 122.683  -2.066  1.00  0.00     0.041 C 
ATOM     15  O   UNL     1     -60.233 122.624  -3.195  1.00  0.00    -0.550 OA
ATOM     16  O   UNL     1     -60.098 123.633  -1.143  1.00  0.00    -0.550 OA
ENDBRANCH  13  14
ENDBRANCH  12  13
ENDBRANCH  11  12
ENDBRANCH  10  11
ENDBRANCH   9  10
ENDBRANCH   8   9
ENDBRANCH   7   8
ENDBRANCH   6   7
ENDBRANCH   5   6
ENDBRANCH   4   5
ENDBRANCH   3   4
ENDBRANCH   2   3
ENDBRANCH   1   2
BRANCH   1  17
ATOM     17  C   UNL     1     -56.119 119.497 -11.853  1.00  0.00     0.000 C 
BRANCH  17  18
ATOM     18  C   UNL     1     -54.601 119.633 -12.076  1.00  0.00     0.000 C 
BRANCH  18  19
ATOM     19  C   UNL     1     -54.133 121.096 -12.114  1.00  0.00     0.000 C 
BRANCH  19  20
ATOM     20  C   UNL     1     -52.834 121.280 -11.317  1.00  0.00     0.000 C 
BRANCH  20  21
ATOM     21  C   UNL     1     -52.881 120.611  -9.930  1.00  0.00     0.000 C 
BRANCH  21  22
ATOM     22  C   UNL     1     -53.568 121.438  -8.828  1.00  0.00    -0.000 C 
BRANCH  22  23
ATOM     23  C   UNL     1     -53.106 122.904  -8.799  1.00  0.00    -0.000 C 
BRANCH  23  24
ATOM     24  C   UNL     1     -51.700 123.025  -8.198  1.00  0.00    -0.000 C 
BRANCH  24  25
ATOM     25  C   UNL     1     -51.114 124.421  -8.447  1.00  0.00    -0.000 C 
BRANCH  25  26
ATOM     26  C   UNL     1     -49.571 124.441  -8.354  1.00  0.00    -0.000 C 
BRANCH  26  27
ATOM     27  C   UNL     1     -48.876 123.766  -9.549  1.00  0.00    -0.000 C 
BRANCH  27  28
ATOM     28  C   UNL     1     -49.673 123.800 -10.867  1.00  0.00    -0.000 C 
BRANCH  28  29
ATOM     29  C   UNL     1     -49.976 122.404 -11.451  1.00  0.00    -0.003 C 
ATOM     30  C   UNL     1     -48.877 121.383 -11.166  1.00  0.00     0.004 C 
ENDBRANCH  28  29
ENDBRANCH  27  28
ENDBRANCH  26  27
ENDBRANCH  25  26
ENDBRANCH  24  25
ENDBRANCH  23  24
ENDBRANCH  22  23
ENDBRANCH  21  22
ENDBRANCH  20  21
ENDBRANCH  19  20
ENDBRANCH  18  19
ENDBRANCH  17  18
ENDBRANCH   1  17
TORSDOF 26
ENDMDL
