MODEL 1
REMARK VINA RESULT:    -4.485      0.000      0.000
REMARK INTER + INTRA:         -12.606
REMARK INTER:                  -9.728
REMARK INTRA:                  -2.878
REMARK UNBOUND:                -2.878
REMARK SMILES CCCCCCCCCCCCCCCCCCCCCC(=O)[O-]
REMARK SMILES IDX 12 1 11 2 10 3 9 4 8 5 7 6 6 7 5 8 4 9 3 10 2 11 1 12 13 13
REMARK SMILES IDX 14 14 15 15 16 16 17 17 18 18 19 19 20 20 21 21 22 22 23 23
REMARK SMILES IDX 24 24
REMARK H PARENT
REMARK Flexibility Score: inf
ROOT
ATOM      1  C   UNL     1      -4.742  -3.416  -2.996  1.00  0.00     0.000 C 
ENDROOT
BRANCH   1   2
ATOM      2  C   UNL     1      -3.974  -4.136  -4.118  1.00  0.00     0.000 C 
BRANCH   2   3
ATOM      3  C   UNL     1      -4.359  -3.639  -5.520  1.00  0.00     0.000 C 
BRANCH   3   4
ATOM      4  C   UNL     1      -5.325  -2.452  -5.433  1.00  0.00    -0.000 C 
BRANCH   4   5
ATOM      5  C   UNL     1      -4.984  -1.384  -6.485  1.00  0.00    -0.000 C 
BRANCH   5   6
ATOM      6  C   UNL     1      -4.532  -0.055  -5.858  1.00  0.00    -0.000 C 
BRANCH   6   7
ATOM      7  C   UNL     1      -3.022   0.191  -6.018  1.00  0.00    -0.000 C 
BRANCH   7   8
ATOM      8  C   UNL     1      -2.214  -0.295  -4.804  1.00  0.00    -0.000 C 
BRANCH   8   9
ATOM      9  C   UNL     1      -2.887   0.042  -3.465  1.00  0.00    -0.000 C 
BRANCH   9  10
ATOM     10  C   UNL     1      -2.254  -0.757  -2.317  1.00  0.00    -0.000 C 
BRANCH  10  11
ATOM     11  C   UNL     1      -3.194  -0.908  -1.111  1.00  0.00    -0.003 C 
ATOM     12  C   UNL     1      -2.490  -1.472   0.123  1.00  0.00     0.004 C 
ENDBRANCH  10  11
ENDBRANCH   9  10
ENDBRANCH   8   9
ENDBRANCH   7   8
ENDBRANCH   6   7
ENDBRANCH   5   6
ENDBRANCH   4   5
ENDBRANCH   3   4
ENDBRANCH   2   3
ENDBRANCH   1   2
BRANCH   1  13
ATOM     13  C   UNL     1      -5.473  -4.348  -2.008  1.00  0.00     0.000 C 
BRANCH  13  14
ATOM     14  C   UNL     1      -5.078  -4.176  -0.527  1.00  0.00     0.000 C 
BRANCH  14  15
ATOM     15  C   UNL     1      -5.991  -3.243   0.288  1.00  0.00     0.000 C 
BRANCH  15  16
ATOM     16  C   UNL     1      -7.374  -3.053  -0.351  1.00  0.00     0.000 C 
BRANCH  16  17
ATOM     17  C   UNL     1      -8.391  -4.045   0.235  1.00  0.00     0.000 C 
BRANCH  17  18
ATOM     18  C   UNL     1      -7.966  -4.567   1.623  1.00  0.00     0.000 C 
BRANCH  18  19
ATOM     19  C   UNL     1      -8.089  -6.093   1.771  1.00  0.00     0.000 C 
BRANCH  19  20
ATOM     20  C   UNL     1      -6.846  -6.848   1.279  1.00  0.00     0.006 C 
BRANCH  20  21
ATOM     21  C   UNL     1      -7.123  -7.560  -0.048  1.00  0.00     0.053 C 
BRANCH  21  22
ATOM     22  C   UNL     1      -7.108  -9.045   0.141  1.00  0.00     0.041 C 
ATOM     23  O   UNL     1      -6.062  -9.619   0.545  1.00  0.00    -0.550 OA
ATOM     24  O   UNL     1      -8.231  -9.799  -0.172  1.00  0.00    -0.550 OA
ENDBRANCH  21  22
ENDBRANCH  20  21
ENDBRANCH  19  20
ENDBRANCH  18  19
ENDBRANCH  17  18
ENDBRANCH  16  17
ENDBRANCH  15  16
ENDBRANCH  14  15
ENDBRANCH  13  14
ENDBRANCH   1  13
TORSDOF 20
ENDMDL
MODEL 2
REMARK VINA RESULT:    -4.425      4.430      8.554
REMARK INTER + INTRA:         -12.476
REMARK INTER:                  -9.749
REMARK INTRA:                  -2.727
REMARK UNBOUND:                -2.878
REMARK SMILES CCCCCCCCCCCCCCCCCCCCCC(=O)[O-]
REMARK SMILES IDX 12 1 11 2 10 3 9 4 8 5 7 6 6 7 5 8 4 9 3 10 2 11 1 12 13 13
REMARK SMILES IDX 14 14 15 15 16 16 17 17 18 18 19 19 20 20 21 21 22 22 23 23
REMARK SMILES IDX 24 24
REMARK H PARENT
REMARK Flexibility Score: inf
ROOT
ATOM      1  C   UNL     1      -2.317  -2.129  -3.192  1.00  0.00     0.000 C 
ENDROOT
BRANCH   1   2
ATOM      2  C   UNL     1      -3.306  -1.096  -2.625  1.00  0.00     0.000 C 
BRANCH   2   3
ATOM      3  C   UNL     1      -2.994  -0.704  -1.173  1.00  0.00     0.000 C 
BRANCH   3   4
ATOM      4  C   UNL     1      -1.938  -1.638  -0.570  1.00  0.00    -0.000 C 
BRANCH   4   5
ATOM      5  C   UNL     1      -2.541  -2.508   0.544  1.00  0.00    -0.000 C 
BRANCH   5   6
ATOM      6  C   UNL     1      -3.488  -3.592   0.005  1.00  0.00    -0.000 C 
BRANCH   6   7
ATOM      7  C   UNL     1      -4.861  -3.577   0.699  1.00  0.00    -0.000 C 
BRANCH   7   8
ATOM      8  C   UNL     1      -5.935  -2.857  -0.132  1.00  0.00    -0.000 C 
BRANCH   8   9
ATOM      9  C   UNL     1      -7.345  -3.001   0.462  1.00  0.00    -0.000 C 
BRANCH   9  10
ATOM     10  C   UNL     1      -8.112  -4.143  -0.220  1.00  0.00    -0.000 C 
BRANCH  10  11
ATOM     11  C   UNL     1      -8.544  -5.238   0.768  1.00  0.00    -0.003 C 
ATOM     12  C   UNL     1      -9.705  -4.805   1.663  1.00  0.00     0.004 C 
ENDBRANCH  10  11
ENDBRANCH   9  10
ENDBRANCH   8   9
ENDBRANCH   7   8
ENDBRANCH   6   7
ENDBRANCH   5   6
ENDBRANCH   4   5
ENDBRANCH   3   4
ENDBRANCH   2   3
ENDBRANCH   1   2
BRANCH   1  13
ATOM     13  C   UNL     1      -2.955  -3.455  -3.655  1.00  0.00     0.000 C 
BRANCH  13  14
ATOM     14  C   UNL     1      -4.496  -3.487  -3.628  1.00  0.00     0.000 C 
BRANCH  14  15
ATOM     15  C   UNL     1      -5.175  -3.416  -5.008  1.00  0.00     0.000 C 
BRANCH  15  16
ATOM     16  C   UNL     1      -4.182  -3.150  -6.148  1.00  0.00     0.000 C 
BRANCH  16  17
ATOM     17  C   UNL     1      -4.217  -1.673  -6.574  1.00  0.00     0.000 C 
BRANCH  17  18
ATOM     18  C   UNL     1      -5.578  -1.011  -6.280  1.00  0.00     0.000 C 
BRANCH  18  19
ATOM     19  C   UNL     1      -5.517   0.524  -6.223  1.00  0.00     0.000 C 
BRANCH  19  20
ATOM     20  C   UNL     1      -4.444   1.048  -5.257  1.00  0.00     0.006 C 
BRANCH  20  21
ATOM     21  C   UNL     1      -3.963   2.442  -5.672  1.00  0.00     0.053 C 
BRANCH  21  22
ATOM     22  C   UNL     1      -2.885   2.338  -6.705  1.00  0.00     0.041 C 
ATOM     23  O   UNL     1      -1.939   1.521  -6.551  1.00  0.00    -0.550 OA
ATOM     24  O   UNL     1      -2.900   3.175  -7.814  1.00  0.00    -0.550 OA
ENDBRANCH  21  22
ENDBRANCH  20  21
ENDBRANCH  19  20
ENDBRANCH  18  19
ENDBRANCH  17  18
ENDBRANCH  16  17
ENDBRANCH  15  16
ENDBRANCH  14  15
ENDBRANCH  13  14
ENDBRANCH   1  13
TORSDOF 20
ENDMDL
MODEL 3
REMARK VINA RESULT:    -4.407      7.017     11.256
REMARK INTER + INTRA:         -12.437
REMARK INTER:                  -9.531
REMARK INTRA:                  -2.906
REMARK UNBOUND:                -2.878
REMARK SMILES CCCCCCCCCCCCCCCCCCCCCC(=O)[O-]
REMARK SMILES IDX 12 1 11 2 10 3 9 4 8 5 7 6 6 7 5 8 4 9 3 10 2 11 1 12 13 13
REMARK SMILES IDX 14 14 15 15 16 16 17 17 18 18 19 19 20 20 21 21 22 22 23 23
REMARK SMILES IDX 24 24
REMARK H PARENT
REMARK Flexibility Score: inf
ROOT
ATOM      1  C   UNL     1      -4.392   2.261  -5.550  1.00  0.00     0.000 C 
ENDROOT
BRANCH   1   2
ATOM      2  C   UNL     1      -5.153   1.015  -6.038  1.00  0.00     0.000 C 
BRANCH   2   3
ATOM      3  C   UNL     1      -4.249  -0.219  -6.181  1.00  0.00     0.000 C 
BRANCH   3   4
ATOM      4  C   UNL     1      -5.083  -1.482  -6.424  1.00  0.00    -0.000 C 
BRANCH   4   5
ATOM      5  C   UNL     1      -4.218  -2.747  -6.305  1.00  0.00    -0.000 C 
BRANCH   5   6
ATOM      6  C   UNL     1      -4.711  -3.703  -5.208  1.00  0.00    -0.000 C 
BRANCH   6   7
ATOM      7  C   UNL     1      -3.723  -3.819  -4.035  1.00  0.00    -0.000 C 
BRANCH   7   8
ATOM      8  C   UNL     1      -3.883  -2.680  -3.014  1.00  0.00    -0.000 C 
BRANCH   8   9
ATOM      9  C   UNL     1      -2.573  -1.918  -2.760  1.00  0.00    -0.000 C 
BRANCH   9  10
ATOM     10  C   UNL     1      -2.796  -0.401  -2.846  1.00  0.00    -0.000 C 
BRANCH  10  11
ATOM     11  C   UNL     1      -1.793   0.293  -3.780  1.00  0.00    -0.003 C 
ATOM     12  C   UNL     1      -1.025  -0.691  -4.663  1.00  0.00     0.004 C 
ENDBRANCH  10  11
ENDBRANCH   9  10
ENDBRANCH   8   9
ENDBRANCH   7   8
ENDBRANCH   6   7
ENDBRANCH   5   6
ENDBRANCH   4   5
ENDBRANCH   3   4
ENDBRANCH   2   3
ENDBRANCH   1   2
BRANCH   1  13
ATOM     13  C   UNL     1      -3.511   2.944  -6.615  1.00  0.00     0.000 C 
BRANCH  13  14
ATOM     14  C   UNL     1      -2.058   3.226  -6.184  1.00  0.00     0.000 C 
BRANCH  14  15
ATOM     15  C   UNL     1      -0.997   2.313  -6.826  1.00  0.00     0.000 C 
BRANCH  15  16
ATOM     16  C   UNL     1      -1.588   1.352  -7.866  1.00  0.00     0.000 C 
BRANCH  16  17
ATOM     17  C   UNL     1      -0.755   1.361  -9.159  1.00  0.00     0.000 C 
BRANCH  17  18
ATOM     18  C   UNL     1      -0.589   2.781  -9.737  1.00  0.00     0.000 C 
BRANCH  18  19
ATOM     19  C   UNL     1      -1.867   3.335 -10.389  1.00  0.00     0.000 C 
BRANCH  19  20
ATOM     20  C   UNL     1      -2.078   2.830 -11.824  1.00  0.00     0.006 C 
BRANCH  20  21
ATOM     21  C   UNL     1      -3.461   3.227 -12.350  1.00  0.00     0.053 C 
BRANCH  21  22
ATOM     22  C   UNL     1      -3.339   4.304 -13.382  1.00  0.00     0.041 C 
ATOM     23  O   UNL     1      -2.223   4.546 -13.914  1.00  0.00    -0.550 OA
ATOM     24  O   UNL     1      -4.446   5.071 -13.723  1.00  0.00    -0.550 OA
ENDBRANCH  21  22
ENDBRANCH  20  21
ENDBRANCH  19  20
ENDBRANCH  18  19
ENDBRANCH  17  18
ENDBRANCH  16  17
ENDBRANCH  15  16
ENDBRANCH  14  15
ENDBRANCH  13  14
ENDBRANCH   1  13
TORSDOF 20
ENDMDL
MODEL 4
REMARK VINA RESULT:    -4.396      7.004     11.457
REMARK INTER + INTRA:         -12.414
REMARK INTER:                 -10.769
REMARK INTRA:                  -1.645
REMARK UNBOUND:                -2.878
REMARK SMILES CCCCCCCCCCCCCCCCCCCCCC(=O)[O-]
REMARK SMILES IDX 12 1 11 2 10 3 9 4 8 5 7 6 6 7 5 8 4 9 3 10 2 11 1 12 13 13
REMARK SMILES IDX 14 14 15 15 16 16 17 17 18 18 19 19 20 20 21 21 22 22 23 23
REMARK SMILES IDX 24 24
REMARK H PARENT
REMARK Flexibility Score: inf
ROOT
ATOM      1  C   UNL     1      -4.074   1.848  -5.182  1.00  0.00     0.000 C 
ENDROOT
BRANCH   1   2
ATOM      2  C   UNL     1      -3.802   0.339  -5.052  1.00  0.00     0.000 C 
BRANCH   2   3
ATOM      3  C   UNL     1      -3.657  -0.361  -6.411  1.00  0.00     0.000 C 
BRANCH   3   4
ATOM      4  C   UNL     1      -4.712  -1.462  -6.575  1.00  0.00    -0.000 C 
BRANCH   4   5
ATOM      5  C   UNL     1      -4.186  -2.812  -6.063  1.00  0.00    -0.000 C 
BRANCH   5   6
ATOM      6  C   UNL     1      -4.994  -3.352  -4.872  1.00  0.00    -0.000 C 
BRANCH   6   7
ATOM      7  C   UNL     1      -4.097  -3.862  -3.731  1.00  0.00    -0.000 C 
BRANCH   7   8
ATOM      8  C   UNL     1      -4.232  -3.019  -2.453  1.00  0.00    -0.000 C 
BRANCH   8   9
ATOM      9  C   UNL     1      -5.315  -3.548  -1.501  1.00  0.00    -0.000 C 
BRANCH   9  10
ATOM     10  C   UNL     1      -5.305  -2.774  -0.174  1.00  0.00    -0.000 C 
BRANCH  10  11
ATOM     11  C   UNL     1      -6.691  -2.708   0.484  1.00  0.00    -0.003 C 
ATOM     12  C   UNL     1      -7.784  -3.353  -0.368  1.00  0.00     0.004 C 
ENDBRANCH  10  11
ENDBRANCH   9  10
ENDBRANCH   8   9
ENDBRANCH   7   8
ENDBRANCH   6   7
ENDBRANCH   5   6
ENDBRANCH   4   5
ENDBRANCH   3   4
ENDBRANCH   2   3
ENDBRANCH   1   2
BRANCH   1  13
ATOM     13  C   UNL     1      -4.460   2.319  -6.598  1.00  0.00     0.000 C 
BRANCH  13  14
ATOM     14  C   UNL     1      -3.535   3.391  -7.210  1.00  0.00     0.000 C 
BRANCH  14  15
ATOM     15  C   UNL     1      -2.106   3.423  -6.638  1.00  0.00     0.000 C 
BRANCH  15  16
ATOM     16  C   UNL     1      -1.032   3.155  -7.701  1.00  0.00     0.000 C 
BRANCH  16  17
ATOM     17  C   UNL     1      -1.492   2.067  -8.685  1.00  0.00     0.000 C 
BRANCH  17  18
ATOM     18  C   UNL     1      -1.219   2.454 -10.153  1.00  0.00     0.000 C 
BRANCH  18  19
ATOM     19  C   UNL     1      -2.305   3.355 -10.765  1.00  0.00     0.000 C 
BRANCH  19  20
ATOM     20  C   UNL     1      -2.460   3.166 -12.280  1.00  0.00     0.006 C 
BRANCH  20  21
ATOM     21  C   UNL     1      -3.896   3.459 -12.728  1.00  0.00     0.053 C 
BRANCH  21  22
ATOM     22  C   UNL     1      -3.956   4.752 -13.479  1.00  0.00     0.041 C 
ATOM     23  O   UNL     1      -3.570   5.819 -12.932  1.00  0.00    -0.550 OA
ATOM     24  O   UNL     1      -4.481   4.787 -14.765  1.00  0.00    -0.550 OA
ENDBRANCH  21  22
ENDBRANCH  20  21
ENDBRANCH  19  20
ENDBRANCH  18  19
ENDBRANCH  17  18
ENDBRANCH  16  17
ENDBRANCH  15  16
ENDBRANCH  14  15
ENDBRANCH  13  14
ENDBRANCH   1  13
TORSDOF 20
ENDMDL
MODEL 5
REMARK VINA RESULT:    -4.367      4.655      8.361
REMARK INTER + INTRA:         -12.351
REMARK INTER:                  -9.674
REMARK INTRA:                  -2.677
REMARK UNBOUND:                -2.878
REMARK SMILES CCCCCCCCCCCCCCCCCCCCCC(=O)[O-]
REMARK SMILES IDX 12 1 11 2 10 3 9 4 8 5 7 6 6 7 5 8 4 9 3 10 2 11 1 12 13 13
REMARK SMILES IDX 14 14 15 15 16 16 17 17 18 18 19 19 20 20 21 21 22 22 23 23
REMARK SMILES IDX 24 24
REMARK H PARENT
REMARK Flexibility Score: inf
ROOT
ATOM      1  C   UNL     1      -4.404   3.091  -7.221  1.00  0.00     0.000 C 
ENDROOT
BRANCH   1   2
ATOM      2  C   UNL     1      -3.054   3.411  -7.888  1.00  0.00     0.000 C 
BRANCH   2   3
ATOM      3  C   UNL     1      -1.905   3.546  -6.877  1.00  0.00     0.000 C 
BRANCH   3   4
ATOM      4  C   UNL     1      -0.818   2.498  -7.142  1.00  0.00    -0.000 C 
BRANCH   4   5
ATOM      5  C   UNL     1      -1.234   1.542  -8.270  1.00  0.00    -0.000 C 
BRANCH   5   6
ATOM      6  C   UNL     1      -0.329   1.651  -9.507  1.00  0.00    -0.000 C 
BRANCH   6   7
ATOM      7  C   UNL     1      -1.055   2.256 -10.721  1.00  0.00    -0.000 C 
BRANCH   7   8
ATOM      8  C   UNL     1      -0.751   3.751 -10.905  1.00  0.00    -0.000 C 
BRANCH   8   9
ATOM      9  C   UNL     1      -1.986   4.564 -11.323  1.00  0.00    -0.000 C 
BRANCH   9  10
ATOM     10  C   UNL     1      -3.218   3.657 -11.461  1.00  0.00    -0.000 C 
BRANCH  10  11
ATOM     11  C   UNL     1      -3.644   3.455 -12.923  1.00  0.00    -0.003 C 
ATOM     12  C   UNL     1      -4.150   4.741 -13.576  1.00  0.00     0.004 C 
ENDBRANCH  10  11
ENDBRANCH   9  10
ENDBRANCH   8   9
ENDBRANCH   7   8
ENDBRANCH   6   7
ENDBRANCH   5   6
ENDBRANCH   4   5
ENDBRANCH   3   4
ENDBRANCH   2   3
ENDBRANCH   1   2
BRANCH   1  13
ATOM     13  C   UNL     1      -4.324   2.759  -5.717  1.00  0.00     0.000 C 
BRANCH  13  14
ATOM     14  C   UNL     1      -4.632   1.294  -5.350  1.00  0.00     0.000 C 
BRANCH  14  15
ATOM     15  C   UNL     1      -3.397   0.409  -5.104  1.00  0.00     0.000 C 
BRANCH  15  16
ATOM     16  C   UNL     1      -3.163  -0.615  -6.222  1.00  0.00     0.000 C 
BRANCH  16  17
ATOM     17  C   UNL     1      -4.456  -1.381  -6.544  1.00  0.00     0.000 C 
BRANCH  17  18
ATOM     18  C   UNL     1      -4.300  -2.903  -6.344  1.00  0.00     0.000 C 
BRANCH  18  19
ATOM     19  C   UNL     1      -4.750  -3.391  -4.957  1.00  0.00     0.000 C 
BRANCH  19  20
ATOM     20  C   UNL     1      -3.764  -4.379  -4.318  1.00  0.00     0.006 C 
BRANCH  20  21
ATOM     21  C   UNL     1      -2.824  -3.665  -3.341  1.00  0.00     0.053 C 
BRANCH  21  22
ATOM     22  C   UNL     1      -3.610  -2.918  -2.309  1.00  0.00     0.041 C 
ATOM     23  O   UNL     1      -3.560  -1.660  -2.265  1.00  0.00    -0.550 OA
ATOM     24  O   UNL     1      -4.360  -3.612  -1.368  1.00  0.00    -0.550 OA
ENDBRANCH  21  22
ENDBRANCH  20  21
ENDBRANCH  19  20
ENDBRANCH  18  19
ENDBRANCH  17  18
ENDBRANCH  16  17
ENDBRANCH  15  16
ENDBRANCH  14  15
ENDBRANCH  13  14
ENDBRANCH   1  13
TORSDOF 20
ENDMDL
MODEL 6
REMARK VINA RESULT:    -4.333      2.112      4.197
REMARK INTER + INTRA:         -12.278
REMARK INTER:                  -9.454
REMARK INTRA:                  -2.823
REMARK UNBOUND:                -2.878
REMARK SMILES CCCCCCCCCCCCCCCCCCCCCC(=O)[O-]
REMARK SMILES IDX 12 1 11 2 10 3 9 4 8 5 7 6 6 7 5 8 4 9 3 10 2 11 1 12 13 13
REMARK SMILES IDX 14 14 15 15 16 16 17 17 18 18 19 19 20 20 21 21 22 22 23 23
REMARK SMILES IDX 24 24
REMARK H PARENT
REMARK Flexibility Score: inf
ROOT
ATOM      1  C   UNL     1      -4.419  -3.814  -3.453  1.00  0.00     0.000 C 
ENDROOT
BRANCH   1   2
ATOM      2  C   UNL     1      -5.220  -3.333  -4.676  1.00  0.00     0.000 C 
BRANCH   2   3
ATOM      3  C   UNL     1      -4.469  -3.541  -6.000  1.00  0.00     0.000 C 
BRANCH   3   4
ATOM      4  C   UNL     1      -4.090  -2.196  -6.630  1.00  0.00    -0.000 C 
BRANCH   4   5
ATOM      5  C   UNL     1      -4.833  -1.036  -5.948  1.00  0.00    -0.000 C 
BRANCH   5   6
ATOM      6  C   UNL     1      -3.892   0.095  -5.506  1.00  0.00    -0.000 C 
BRANCH   6   7
ATOM      7  C   UNL     1      -2.410  -0.241  -5.743  1.00  0.00    -0.000 C 
BRANCH   7   8
ATOM      8  C   UNL     1      -1.679   0.847  -6.547  1.00  0.00    -0.000 C 
BRANCH   8   9
ATOM      9  C   UNL     1      -1.453   2.134  -5.739  1.00  0.00    -0.000 C 
BRANCH   9  10
ATOM     10  C   UNL     1      -1.795   3.374  -6.578  1.00  0.00    -0.000 C 
BRANCH  10  11
ATOM     11  C   UNL     1      -2.831   3.081  -7.674  1.00  0.00    -0.003 C 
ATOM     12  C   UNL     1      -4.248   3.493  -7.276  1.00  0.00     0.004 C 
ENDBRANCH  10  11
ENDBRANCH   9  10
ENDBRANCH   8   9
ENDBRANCH   7   8
ENDBRANCH   6   7
ENDBRANCH   5   6
ENDBRANCH   4   5
ENDBRANCH   3   4
ENDBRANCH   2   3
ENDBRANCH   1   2
BRANCH   1  13
ATOM     13  C   UNL     1      -2.888  -3.673  -3.581  1.00  0.00     0.000 C 
BRANCH  13  14
ATOM     14  C   UNL     1      -2.237  -2.668  -2.611  1.00  0.00     0.000 C 
BRANCH  14  15
ATOM     15  C   UNL     1      -3.101  -1.442  -2.264  1.00  0.00     0.000 C 
BRANCH  15  16
ATOM     16  C   UNL     1      -3.436  -1.351  -0.769  1.00  0.00     0.000 C 
BRANCH  16  17
ATOM     17  C   UNL     1      -3.151  -2.685  -0.060  1.00  0.00     0.000 C 
BRANCH  17  18
ATOM     18  C   UNL     1      -4.442  -3.390   0.402  1.00  0.00     0.000 C 
BRANCH  18  19
ATOM     19  C   UNL     1      -5.726  -2.750  -0.153  1.00  0.00     0.000 C 
BRANCH  19  20
ATOM     20  C   UNL     1      -6.957  -3.010   0.727  1.00  0.00     0.006 C 
BRANCH  20  21
ATOM     21  C   UNL     1      -8.097  -3.628  -0.089  1.00  0.00     0.053 C 
BRANCH  21  22
ATOM     22  C   UNL     1      -8.521  -4.933   0.508  1.00  0.00     0.041 C 
ATOM     23  O   UNL     1      -8.047  -6.013   0.068  1.00  0.00    -0.550 OA
ATOM     24  O   UNL     1      -9.474  -4.959   1.519  1.00  0.00    -0.550 OA
ENDBRANCH  21  22
ENDBRANCH  20  21
ENDBRANCH  19  20
ENDBRANCH  18  19
ENDBRANCH  17  18
ENDBRANCH  16  17
ENDBRANCH  15  16
ENDBRANCH  14  15
ENDBRANCH  13  14
ENDBRANCH   1  13
TORSDOF 20
ENDMDL
MODEL 7
REMARK VINA RESULT:    -4.281      1.969      4.051
REMARK INTER + INTRA:         -12.165
REMARK INTER:                  -9.181
REMARK INTRA:                  -2.984
REMARK UNBOUND:                -2.878
REMARK SMILES CCCCCCCCCCCCCCCCCCCCCC(=O)[O-]
REMARK SMILES IDX 12 1 11 2 10 3 9 4 8 5 7 6 6 7 5 8 4 9 3 10 2 11 1 12 13 13
REMARK SMILES IDX 14 14 15 15 16 16 17 17 18 18 19 19 20 20 21 21 22 22 23 23
REMARK SMILES IDX 24 24
REMARK H PARENT
REMARK Flexibility Score: inf
ROOT
ATOM      1  C   UNL     1      -5.463  -1.063  -6.251  1.00  0.00     0.000 C 
ENDROOT
BRANCH   1   2
ATOM      2  C   UNL     1      -5.291   0.465  -6.192  1.00  0.00     0.000 C 
BRANCH   2   3
ATOM      3  C   UNL     1      -4.201   0.906  -5.203  1.00  0.00     0.000 C 
BRANCH   3   4
ATOM      4  C   UNL     1      -3.245   1.911  -5.856  1.00  0.00    -0.000 C 
BRANCH   4   5
ATOM      5  C   UNL     1      -2.231   1.199  -6.766  1.00  0.00    -0.000 C 
BRANCH   5   6
ATOM      6  C   UNL     1      -0.884   0.945  -6.070  1.00  0.00    -0.000 C 
BRANCH   6   7
ATOM      7  C   UNL     1      -0.838  -0.411  -5.345  1.00  0.00    -0.000 C 
BRANCH   7   8
ATOM      8  C   UNL     1      -0.835  -0.262  -3.815  1.00  0.00    -0.000 C 
BRANCH   8   9
ATOM      9  C   UNL     1      -1.737  -1.290  -3.115  1.00  0.00    -0.000 C 
BRANCH   9  10
ATOM     10  C   UNL     1      -2.897  -0.596  -2.387  1.00  0.00    -0.000 C 
BRANCH  10  11
ATOM     11  C   UNL     1      -2.546  -0.218  -0.939  1.00  0.00    -0.003 C 
ATOM     12  C   UNL     1      -1.828  -1.341  -0.191  1.00  0.00     0.004 C 
ENDBRANCH  10  11
ENDBRANCH   9  10
ENDBRANCH   8   9
ENDBRANCH   7   8
ENDBRANCH   6   7
ENDBRANCH   5   6
ENDBRANCH   4   5
ENDBRANCH   3   4
ENDBRANCH   2   3
ENDBRANCH   1   2
BRANCH   1  13
ATOM     13  C   UNL     1      -4.176  -1.872  -5.992  1.00  0.00     0.000 C 
BRANCH  13  14
ATOM     14  C   UNL     1      -4.374  -3.393  -5.842  1.00  0.00     0.000 C 
BRANCH  14  15
ATOM     15  C   UNL     1      -3.747  -4.013  -4.580  1.00  0.00     0.000 C 
BRANCH  15  16
ATOM     16  C   UNL     1      -4.795  -4.519  -3.580  1.00  0.00     0.000 C 
BRANCH  16  17
ATOM     17  C   UNL     1      -5.246  -3.392  -2.638  1.00  0.00     0.000 C 
BRANCH  17  18
ATOM     18  C   UNL     1      -4.844  -3.657  -1.173  1.00  0.00     0.000 C 
BRANCH  18  19
ATOM     19  C   UNL     1      -5.465  -2.665  -0.174  1.00  0.00     0.000 C 
BRANCH  19  20
ATOM     20  C   UNL     1      -6.538  -3.304   0.719  1.00  0.00     0.006 C 
BRANCH  20  21
ATOM     21  C   UNL     1      -7.840  -3.527  -0.057  1.00  0.00     0.053 C 
BRANCH  21  22
ATOM     22  C   UNL     1      -8.561  -4.729   0.466  1.00  0.00     0.041 C 
ATOM     23  O   UNL     1      -9.444  -4.600   1.355  1.00  0.00    -0.550 OA
ATOM     24  O   UNL     1      -8.226  -5.997   0.006  1.00  0.00    -0.550 OA
ENDBRANCH  21  22
ENDBRANCH  20  21
ENDBRANCH  19  20
ENDBRANCH  18  19
ENDBRANCH  17  18
ENDBRANCH  16  17
ENDBRANCH  15  16
ENDBRANCH  14  15
ENDBRANCH  13  14
ENDBRANCH   1  13
TORSDOF 20
ENDMDL
MODEL 8
REMARK VINA RESULT:    -4.228      6.107     10.613
REMARK INTER + INTRA:         -12.050
REMARK INTER:                  -9.105
REMARK INTRA:                  -2.944
REMARK UNBOUND:                -2.878
REMARK SMILES CCCCCCCCCCCCCCCCCCCCCC(=O)[O-]
REMARK SMILES IDX 12 1 11 2 10 3 9 4 8 5 7 6 6 7 5 8 4 9 3 10 2 11 1 12 13 13
REMARK SMILES IDX 14 14 15 15 16 16 17 17 18 18 19 19 20 20 21 21 22 22 23 23
REMARK SMILES IDX 24 24
REMARK H PARENT
REMARK Flexibility Score: inf
ROOT
ATOM      1  C   UNL     1      -4.351   2.254  -5.468  1.00  0.00     0.000 C 
ENDROOT
BRANCH   1   2
ATOM      2  C   UNL     1      -4.441   0.719  -5.430  1.00  0.00     0.000 C 
BRANCH   2   3
ATOM      3  C   UNL     1      -3.355   0.078  -4.551  1.00  0.00     0.000 C 
BRANCH   3   4
ATOM      4  C   UNL     1      -2.796  -1.188  -5.211  1.00  0.00    -0.000 C 
BRANCH   4   5
ATOM      5  C   UNL     1      -3.778  -1.751  -6.250  1.00  0.00    -0.000 C 
BRANCH   5   6
ATOM      6  C   UNL     1      -4.344  -3.123  -5.850  1.00  0.00    -0.000 C 
BRANCH   6   7
ATOM      7  C   UNL     1      -3.819  -3.606  -4.487  1.00  0.00    -0.000 C 
BRANCH   7   8
ATOM      8  C   UNL     1      -4.947  -4.065  -3.549  1.00  0.00    -0.000 C 
BRANCH   8   9
ATOM      9  C   UNL     1      -4.709  -3.660  -2.086  1.00  0.00    -0.000 C 
BRANCH   9  10
ATOM     10  C   UNL     1      -3.439  -2.806  -1.954  1.00  0.00    -0.000 C 
BRANCH  10  11
ATOM     11  C   UNL     1      -3.676  -1.511  -1.161  1.00  0.00    -0.003 C 
ATOM     12  C   UNL     1      -2.393  -0.712  -0.934  1.00  0.00     0.004 C 
ENDBRANCH  10  11
ENDBRANCH   9  10
ENDBRANCH   8   9
ENDBRANCH   7   8
ENDBRANCH   6   7
ENDBRANCH   5   6
ENDBRANCH   4   5
ENDBRANCH   3   4
ENDBRANCH   2   3
ENDBRANCH   1   2
BRANCH   1  13
ATOM     13  C   UNL     1      -4.244   2.865  -6.880  1.00  0.00     0.000 C 
BRANCH  13  14
ATOM     14  C   UNL     1      -2.901   3.551  -7.201  1.00  0.00     0.000 C 
BRANCH  14  15
ATOM     15  C   UNL     1      -1.761   3.248  -6.211  1.00  0.00     0.000 C 
BRANCH  15  16
ATOM     16  C   UNL     1      -0.578   2.525  -6.868  1.00  0.00     0.000 C 
BRANCH  16  17
ATOM     17  C   UNL     1      -1.019   1.180  -7.467  1.00  0.00     0.000 C 
BRANCH  17  18
ATOM     18  C   UNL     1      -0.887   1.153  -9.004  1.00  0.00     0.000 C 
BRANCH  18  19
ATOM     19  C   UNL     1       0.037   2.249  -9.562  1.00  0.00     0.000 C 
BRANCH  19  20
ATOM     20  C   UNL     1      -0.702   3.273 -10.434  1.00  0.00     0.006 C 
BRANCH  20  21
ATOM     21  C   UNL     1      -1.665   2.579 -11.404  1.00  0.00     0.053 C 
BRANCH  21  22
ATOM     22  C   UNL     1      -2.907   3.394 -11.581  1.00  0.00     0.041 C 
ATOM     23  O   UNL     1      -3.623   3.241 -12.607  1.00  0.00    -0.550 OA
ATOM     24  O   UNL     1      -3.250   4.355 -10.639  1.00  0.00    -0.550 OA
ENDBRANCH  21  22
ENDBRANCH  20  21
ENDBRANCH  19  20
ENDBRANCH  18  19
ENDBRANCH  17  18
ENDBRANCH  16  17
ENDBRANCH  15  16
ENDBRANCH  14  15
ENDBRANCH  13  14
ENDBRANCH   1  13
TORSDOF 20
ENDMDL
MODEL 9
REMARK VINA RESULT:    -4.212      3.174      7.885
REMARK INTER + INTRA:         -12.015
REMARK INTER:                  -9.194
REMARK INTRA:                  -2.821
REMARK UNBOUND:                -2.878
REMARK SMILES CCCCCCCCCCCCCCCCCCCCCC(=O)[O-]
REMARK SMILES IDX 12 1 11 2 10 3 9 4 8 5 7 6 6 7 5 8 4 9 3 10 2 11 1 12 13 13
REMARK SMILES IDX 14 14 15 15 16 16 17 17 18 18 19 19 20 20 21 21 22 22 23 23
REMARK SMILES IDX 24 24
REMARK H PARENT
REMARK Flexibility Score: inf
ROOT
ATOM      1  C   UNL     1      -5.692  -0.810  -6.179  1.00  0.00     0.000 C 
ENDROOT
BRANCH   1   2
ATOM      2  C   UNL     1      -4.412  -1.479  -6.710  1.00  0.00     0.000 C 
BRANCH   2   3
ATOM      3  C   UNL     1      -4.013  -2.727  -5.908  1.00  0.00     0.000 C 
BRANCH   3   4
ATOM      4  C   UNL     1      -5.149  -3.164  -4.976  1.00  0.00    -0.000 C 
BRANCH   4   5
ATOM      5  C   UNL     1      -4.679  -4.260  -4.006  1.00  0.00    -0.000 C 
BRANCH   5   6
ATOM      6  C   UNL     1      -4.420  -3.727  -2.588  1.00  0.00    -0.000 C 
BRANCH   6   7
ATOM      7  C   UNL     1      -5.688  -3.721  -1.717  1.00  0.00    -0.000 C 
BRANCH   7   8
ATOM      8  C   UNL     1      -5.377  -3.871  -0.220  1.00  0.00    -0.000 C 
BRANCH   8   9
ATOM      9  C   UNL     1      -6.531  -3.402   0.679  1.00  0.00    -0.000 C 
BRANCH   9  10
ATOM     10  C   UNL     1      -6.806  -4.422   1.795  1.00  0.00    -0.000 C 
BRANCH  10  11
ATOM     11  C   UNL     1      -7.950  -5.386   1.447  1.00  0.00    -0.003 C 
ATOM     12  C   UNL     1      -8.883  -4.835   0.368  1.00  0.00     0.004 C 
ENDBRANCH  10  11
ENDBRANCH   9  10
ENDBRANCH   8   9
ENDBRANCH   7   8
ENDBRANCH   6   7
ENDBRANCH   5   6
ENDBRANCH   4   5
ENDBRANCH   3   4
ENDBRANCH   2   3
ENDBRANCH   1   2
BRANCH   1  13
ATOM     13  C   UNL     1      -5.687   0.732  -6.223  1.00  0.00     0.000 C 
BRANCH  13  14
ATOM     14  C   UNL     1      -4.582   1.409  -5.387  1.00  0.00     0.000 C 
BRANCH  14  15
ATOM     15  C   UNL     1      -3.775   2.492  -6.127  1.00  0.00     0.000 C 
BRANCH  15  16
ATOM     16  C   UNL     1      -2.264   2.228  -6.109  1.00  0.00     0.000 C 
BRANCH  16  17
ATOM     17  C   UNL     1      -1.920   0.946  -6.886  1.00  0.00     0.000 C 
BRANCH  17  18
ATOM     18  C   UNL     1      -1.004   0.002  -6.082  1.00  0.00     0.000 C 
BRANCH  18  19
ATOM     19  C   UNL     1      -0.992   0.294  -4.571  1.00  0.00     0.000 C 
BRANCH  19  20
ATOM     20  C   UNL     1      -1.559  -0.860  -3.732  1.00  0.00     0.006 C 
BRANCH  20  21
ATOM     21  C   UNL     1      -2.887  -0.466  -3.078  1.00  0.00     0.053 C 
BRANCH  21  22
ATOM     22  C   UNL     1      -2.721  -0.325  -1.597  1.00  0.00     0.041 C 
ATOM     23  O   UNL     1      -3.564  -0.839  -0.815  1.00  0.00    -0.550 OA
ATOM     24  O   UNL     1      -1.663   0.412  -1.082  1.00  0.00    -0.550 OA
ENDBRANCH  21  22
ENDBRANCH  20  21
ENDBRANCH  19  20
ENDBRANCH  18  19
ENDBRANCH  17  18
ENDBRANCH  16  17
ENDBRANCH  15  16
ENDBRANCH  14  15
ENDBRANCH  13  14
ENDBRANCH   1  13
TORSDOF 20
ENDMDL
