MODEL 1
REMARK VINA RESULT:    -4.105      0.000      0.000
REMARK INTER + INTRA:          -8.473
REMARK INTER:                  -6.984
REMARK INTRA:                  -1.489
REMARK UNBOUND:                -1.489
REMARK SMILES CCCCCCCCCCCCCC(=O)[O-]
REMARK SMILES IDX 8 1 9 2 10 3 11 4 12 5 13 6 14 7 15 8 16 9 7 10 6 11 5 12
REMARK SMILES IDX 4 13 3 14 2 15 1 16
REMARK H PARENT
REMARK Flexibility Score: inf
ROOT
ATOM      1  C   UNL     1     151.010 287.273 278.234  1.00  0.00     0.000 C 
ENDROOT
BRANCH   1   2
ATOM      2  C   UNL     1     150.911 288.258 279.412  1.00  0.00     0.000 C 
BRANCH   2   3
ATOM      3  C   UNL     1     151.033 287.568 280.783  1.00  0.00     0.000 C 
BRANCH   3   4
ATOM      4  C   UNL     1     152.040 288.212 281.753  1.00  0.00     0.000 C 
BRANCH   4   5
ATOM      5  C   UNL     1     153.245 288.845 281.034  1.00  0.00     0.006 C 
BRANCH   5   6
ATOM      6  C   UNL     1     153.407 290.332 281.376  1.00  0.00     0.053 C 
BRANCH   6   7
ATOM      7  C   UNL     1     153.899 291.122 280.204  1.00  0.00     0.041 C 
ATOM      8  O   UNL     1     154.280 290.534 279.157  1.00  0.00    -0.550 OA
ATOM      9  O   UNL     1     153.964 292.508 280.277  1.00  0.00    -0.550 OA
ENDBRANCH   6   7
ENDBRANCH   5   6
ENDBRANCH   4   5
ENDBRANCH   3   4
ENDBRANCH   2   3
ENDBRANCH   1   2
BRANCH   1  10
ATOM     10  C   UNL     1     149.698 287.173 277.437  1.00  0.00     0.000 C 
BRANCH  10  11
ATOM     11  C   UNL     1     148.846 285.960 277.854  1.00  0.00    -0.000 C 
BRANCH  11  12
ATOM     12  C   UNL     1     147.465 286.369 278.392  1.00  0.00    -0.000 C 
BRANCH  12  13
ATOM     13  C   UNL     1     147.457 286.556 279.919  1.00  0.00    -0.000 C 
BRANCH  13  14
ATOM     14  C   UNL     1     147.412 288.036 280.341  1.00  0.00    -0.000 C 
BRANCH  14  15
ATOM     15  C   UNL     1     146.582 288.949 279.421  1.00  0.00    -0.003 C 
ATOM     16  C   UNL     1     147.429 289.989 278.687  1.00  0.00     0.004 C 
ENDBRANCH  14  15
ENDBRANCH  13  14
ENDBRANCH  12  13
ENDBRANCH  11  12
ENDBRANCH  10  11
ENDBRANCH   1  10
TORSDOF 12
ENDMDL
MODEL 2
REMARK VINA RESULT:    -4.014      2.192      3.770
REMARK INTER + INTRA:          -8.319
REMARK INTER:                  -7.079
REMARK INTRA:                  -1.240
REMARK UNBOUND:                -1.489
REMARK SMILES CCCCCCCCCCCCCC(=O)[O-]
REMARK SMILES IDX 8 1 9 2 10 3 11 4 12 5 13 6 14 7 15 8 16 9 7 10 6 11 5 12
REMARK SMILES IDX 4 13 3 14 2 15 1 16
REMARK H PARENT
REMARK Flexibility Score: inf
ROOT
ATOM      1  C   UNL     1     148.910 286.345 277.900  1.00  0.00     0.000 C 
ENDROOT
BRANCH   1   2
ATOM      2  C   UNL     1     149.997 287.359 277.501  1.00  0.00     0.000 C 
BRANCH   2   3
ATOM      3  C   UNL     1     151.256 287.268 278.384  1.00  0.00     0.000 C 
BRANCH   3   4
ATOM      4  C   UNL     1     151.472 288.455 279.340  1.00  0.00     0.000 C 
BRANCH   4   5
ATOM      5  C   UNL     1     151.207 288.095 280.813  1.00  0.00     0.006 C 
BRANCH   5   6
ATOM      6  C   UNL     1     152.482 288.163 281.663  1.00  0.00     0.053 C 
BRANCH   6   7
ATOM      7  C   UNL     1     153.466 289.149 281.113  1.00  0.00     0.041 C 
ATOM      8  O   UNL     1     154.455 288.752 280.441  1.00  0.00    -0.550 OA
ATOM      9  O   UNL     1     153.305 290.506 281.364  1.00  0.00    -0.550 OA
ENDBRANCH   6   7
ENDBRANCH   5   6
ENDBRANCH   4   5
ENDBRANCH   3   4
ENDBRANCH   2   3
ENDBRANCH   1   2
BRANCH   1  10
ATOM     10  C   UNL     1     147.798 286.978 278.753  1.00  0.00     0.000 C 
BRANCH  10  11
ATOM     11  C   UNL     1     147.808 286.470 280.206  1.00  0.00    -0.000 C 
BRANCH  11  12
ATOM     12  C   UNL     1     148.414 285.063 280.333  1.00  0.00    -0.000 C 
BRANCH  12  13
ATOM     13  C   UNL     1     149.615 285.021 281.294  1.00  0.00    -0.000 C 
BRANCH  13  14
ATOM     14  C   UNL     1     149.760 283.667 282.012  1.00  0.00    -0.000 C 
BRANCH  14  15
ATOM     15  C   UNL     1     150.862 283.614 283.085  1.00  0.00    -0.003 C 
ATOM     16  C   UNL     1     151.582 284.949 283.270  1.00  0.00     0.004 C 
ENDBRANCH  14  15
ENDBRANCH  13  14
ENDBRANCH  12  13
ENDBRANCH  11  12
ENDBRANCH  10  11
ENDBRANCH   1  10
TORSDOF 12
ENDMDL
MODEL 3
REMARK VINA RESULT:    -3.981      1.495      1.861
REMARK INTER + INTRA:          -8.263
REMARK INTER:                  -6.703
REMARK INTRA:                  -1.560
REMARK UNBOUND:                -1.489
REMARK SMILES CCCCCCCCCCCCCC(=O)[O-]
REMARK SMILES IDX 8 1 9 2 10 3 11 4 12 5 13 6 14 7 15 8 16 9 7 10 6 11 5 12
REMARK SMILES IDX 4 13 3 14 2 15 1 16
REMARK H PARENT
REMARK Flexibility Score: inf
ROOT
ATOM      1  C   UNL     1     151.062 287.276 278.383  1.00  0.00     0.000 C 
ENDROOT
BRANCH   1   2
ATOM      2  C   UNL     1     151.093 288.338 279.497  1.00  0.00     0.000 C 
BRANCH   2   3
ATOM      3  C   UNL     1     151.514 287.763 280.862  1.00  0.00     0.000 C 
BRANCH   3   4
ATOM      4  C   UNL     1     152.204 288.762 281.808  1.00  0.00     0.000 C 
BRANCH   4   5
ATOM      5  C   UNL     1     153.319 289.570 281.119  1.00  0.00     0.006 C 
BRANCH   5   6
ATOM      6  C   UNL     1     154.714 289.009 281.428  1.00  0.00     0.053 C 
BRANCH   6   7
ATOM      7  C   UNL     1     155.298 288.292 280.250  1.00  0.00     0.041 C 
ATOM      8  O   UNL     1     154.608 288.109 279.212  1.00  0.00    -0.550 OA
ATOM      9  O   UNL     1     156.596 287.801 280.309  1.00  0.00    -0.550 OA
ENDBRANCH   6   7
ENDBRANCH   5   6
ENDBRANCH   4   5
ENDBRANCH   3   4
ENDBRANCH   2   3
ENDBRANCH   1   2
BRANCH   1  10
ATOM     10  C   UNL     1     149.868 287.457 277.429  1.00  0.00     0.000 C 
BRANCH  10  11
ATOM     11  C   UNL     1     149.090 286.147 277.203  1.00  0.00    -0.000 C 
BRANCH  11  12
ATOM     12  C   UNL     1     148.349 285.678 278.466  1.00  0.00    -0.000 C 
BRANCH  12  13
ATOM     13  C   UNL     1     147.213 286.632 278.873  1.00  0.00    -0.000 C 
BRANCH  13  14
ATOM     14  C   UNL     1     147.415 287.240 280.273  1.00  0.00    -0.000 C 
BRANCH  14  15
ATOM     15  C   UNL     1     147.441 288.778 280.318  1.00  0.00    -0.003 C 
ATOM     16  C   UNL     1     147.212 289.420 278.949  1.00  0.00     0.004 C 
ENDBRANCH  14  15
ENDBRANCH  13  14
ENDBRANCH  12  13
ENDBRANCH  11  12
ENDBRANCH  10  11
ENDBRANCH   1  10
TORSDOF 12
ENDMDL
MODEL 4
REMARK VINA RESULT:    -3.934      2.960      4.861
REMARK INTER + INTRA:          -8.182
REMARK INTER:                  -7.112
REMARK INTRA:                  -1.071
REMARK UNBOUND:                -1.489
REMARK SMILES CCCCCCCCCCCCCC(=O)[O-]
REMARK SMILES IDX 8 1 9 2 10 3 11 4 12 5 13 6 14 7 15 8 16 9 7 10 6 11 5 12
REMARK SMILES IDX 4 13 3 14 2 15 1 16
REMARK H PARENT
REMARK Flexibility Score: inf
ROOT
ATOM      1  C   UNL     1     146.194 289.199 279.411  1.00  0.00     0.000 C 
ENDROOT
BRANCH   1   2
ATOM      2  C   UNL     1     147.338 288.187 279.227  1.00  0.00     0.000 C 
BRANCH   2   3
ATOM      3  C   UNL     1     147.822 287.581 280.557  1.00  0.00     0.000 C 
BRANCH   3   4
ATOM      4  C   UNL     1     149.211 286.918 280.508  1.00  0.00     0.000 C 
BRANCH   4   5
ATOM      5  C   UNL     1     150.353 287.893 280.847  1.00  0.00     0.006 C 
BRANCH   5   6
ATOM      6  C   UNL     1     151.447 287.898 279.771  1.00  0.00     0.053 C 
BRANCH   6   7
ATOM      7  C   UNL     1     150.870 287.833 278.390  1.00  0.00     0.041 C 
ATOM      8  O   UNL     1     150.918 286.760 277.732  1.00  0.00    -0.550 OA
ATOM      9  O   UNL     1     150.303 288.966 277.820  1.00  0.00    -0.550 OA
ENDBRANCH   6   7
ENDBRANCH   5   6
ENDBRANCH   4   5
ENDBRANCH   3   4
ENDBRANCH   2   3
ENDBRANCH   1   2
BRANCH   1  10
ATOM     10  C   UNL     1     146.459 290.528 278.682  1.00  0.00     0.000 C 
BRANCH  10  11
ATOM     11  C   UNL     1     145.444 291.622 279.062  1.00  0.00    -0.000 C 
BRANCH  11  12
ATOM     12  C   UNL     1     144.460 291.159 280.149  1.00  0.00    -0.000 C 
BRANCH  12  13
ATOM     13  C   UNL     1     144.380 292.141 281.331  1.00  0.00    -0.000 C 
BRANCH  13  14
ATOM     14  C   UNL     1     144.720 291.481 282.680  1.00  0.00    -0.000 C 
BRANCH  14  15
ATOM     15  C   UNL     1     144.538 289.953 282.721  1.00  0.00    -0.003 C 
ATOM     16  C   UNL     1     145.769 289.217 283.250  1.00  0.00     0.004 C 
ENDBRANCH  14  15
ENDBRANCH  13  14
ENDBRANCH  12  13
ENDBRANCH  11  12
ENDBRANCH  10  11
ENDBRANCH   1  10
TORSDOF 12
ENDMDL
MODEL 5
REMARK VINA RESULT:    -3.916      9.428     14.051
REMARK INTER + INTRA:          -8.152
REMARK INTER:                  -6.873
REMARK INTRA:                  -1.279
REMARK UNBOUND:                -1.489
REMARK SMILES CCCCCCCCCCCCCC(=O)[O-]
REMARK SMILES IDX 8 1 9 2 10 3 11 4 12 5 13 6 14 7 15 8 16 9 7 10 6 11 5 12
REMARK SMILES IDX 4 13 3 14 2 15 1 16
REMARK H PARENT
REMARK Flexibility Score: inf
ROOT
ATOM      1  C   UNL     1     157.351 298.950 277.232  1.00  0.00     0.000 C 
ENDROOT
BRANCH   1   2
ATOM      2  C   UNL     1     158.048 298.850 275.864  1.00  0.00     0.000 C 
BRANCH   2   3
ATOM      3  C   UNL     1     157.356 297.861 274.908  1.00  0.00     0.000 C 
BRANCH   3   4
ATOM      4  C   UNL     1     156.560 296.735 275.594  1.00  0.00     0.000 C 
BRANCH   4   5
ATOM      5  C   UNL     1     155.095 296.665 275.125  1.00  0.00     0.006 C 
BRANCH   5   6
ATOM      6  C   UNL     1     154.190 295.982 276.159  1.00  0.00     0.053 C 
BRANCH   6   7
ATOM      7  C   UNL     1     153.767 294.617 275.712  1.00  0.00     0.041 C 
ATOM      8  O   UNL     1     152.648 294.154 276.060  1.00  0.00    -0.550 OA
ATOM      9  O   UNL     1     154.619 293.845 274.933  1.00  0.00    -0.550 OA
ENDBRANCH   6   7
ENDBRANCH   5   6
ENDBRANCH   4   5
ENDBRANCH   3   4
ENDBRANCH   2   3
ENDBRANCH   1   2
BRANCH   1  10
ATOM     10  C   UNL     1     157.334 300.387 277.782  1.00  0.00     0.000 C 
BRANCH  10  11
ATOM     11  C   UNL     1     157.849 301.416 276.759  1.00  0.00    -0.000 C 
BRANCH  11  12
ATOM     12  C   UNL     1     159.130 302.122 277.229  1.00  0.00    -0.000 C 
BRANCH  12  13
ATOM     13  C   UNL     1     159.831 301.374 278.376  1.00  0.00    -0.000 C 
BRANCH  13  14
ATOM     14  C   UNL     1     161.189 300.779 277.961  1.00  0.00    -0.000 C 
BRANCH  14  15
ATOM     15  C   UNL     1     161.372 299.286 278.286  1.00  0.00    -0.003 C 
ATOM     16  C   UNL     1     160.429 298.792 279.384  1.00  0.00     0.004 C 
ENDBRANCH  14  15
ENDBRANCH  13  14
ENDBRANCH  12  13
ENDBRANCH  11  12
ENDBRANCH  10  11
ENDBRANCH   1  10
TORSDOF 12
ENDMDL
MODEL 6
REMARK VINA RESULT:    -3.862      1.162      2.292
REMARK INTER + INTRA:          -8.059
REMARK INTER:                  -6.352
REMARK INTRA:                  -1.707
REMARK UNBOUND:                -1.489
REMARK SMILES CCCCCCCCCCCCCC(=O)[O-]
REMARK SMILES IDX 8 1 9 2 10 3 11 4 12 5 13 6 14 7 15 8 16 9 7 10 6 11 5 12
REMARK SMILES IDX 4 13 3 14 2 15 1 16
REMARK H PARENT
REMARK Flexibility Score: inf
ROOT
ATOM      1  C   UNL     1     148.645 285.694 278.303  1.00  0.00     0.000 C 
ENDROOT
BRANCH   1   2
ATOM      2  C   UNL     1     149.338 286.755 277.429  1.00  0.00     0.000 C 
BRANCH   2   3
ATOM      3  C   UNL     1     150.537 287.419 278.129  1.00  0.00     0.000 C 
BRANCH   3   4
ATOM      4  C   UNL     1     150.552 287.293 279.664  1.00  0.00     0.000 C 
BRANCH   4   5
ATOM      5  C   UNL     1     151.458 288.337 280.342  1.00  0.00     0.006 C 
BRANCH   5   6
ATOM      6  C   UNL     1     152.841 288.418 279.683  1.00  0.00     0.053 C 
BRANCH   6   7
ATOM      7  C   UNL     1     153.568 289.669 280.066  1.00  0.00     0.041 C 
ATOM      8  O   UNL     1     153.242 290.299 281.107  1.00  0.00    -0.550 OA
ATOM      9  O   UNL     1     154.589 290.156 279.259  1.00  0.00    -0.550 OA
ENDBRANCH   6   7
ENDBRANCH   5   6
ENDBRANCH   4   5
ENDBRANCH   3   4
ENDBRANCH   2   3
ENDBRANCH   1   2
BRANCH   1  10
ATOM     10  C   UNL     1     147.129 285.621 278.051  1.00  0.00     0.000 C 
BRANCH  10  11
ATOM     11  C   UNL     1     146.350 285.118 279.280  1.00  0.00    -0.000 C 
BRANCH  11  12
ATOM     12  C   UNL     1     147.021 285.516 280.605  1.00  0.00    -0.000 C 
BRANCH  12  13
ATOM     13  C   UNL     1     146.423 286.799 281.207  1.00  0.00    -0.000 C 
BRANCH  13  14
ATOM     14  C   UNL     1     147.234 288.060 280.856  1.00  0.00    -0.000 C 
BRANCH  14  15
ATOM     15  C   UNL     1     146.575 288.991 279.823  1.00  0.00    -0.003 C 
ATOM     16  C   UNL     1     147.581 289.634 278.869  1.00  0.00     0.004 C 
ENDBRANCH  14  15
ENDBRANCH  13  14
ENDBRANCH  12  13
ENDBRANCH  11  12
ENDBRANCH  10  11
ENDBRANCH   1  10
TORSDOF 12
ENDMDL
MODEL 7
REMARK VINA RESULT:    -3.860      1.365      2.064
REMARK INTER + INTRA:          -8.057
REMARK INTER:                  -6.687
REMARK INTRA:                  -1.369
REMARK UNBOUND:                -1.489
REMARK SMILES CCCCCCCCCCCCCC(=O)[O-]
REMARK SMILES IDX 8 1 9 2 10 3 11 4 12 5 13 6 14 7 15 8 16 9 7 10 6 11 5 12
REMARK SMILES IDX 4 13 3 14 2 15 1 16
REMARK H PARENT
REMARK Flexibility Score: inf
ROOT
ATOM      1  C   UNL     1     149.859 288.475 279.443  1.00  0.00     0.000 C 
ENDROOT
BRANCH   1   2
ATOM      2  C   UNL     1     150.651 287.841 280.601  1.00  0.00     0.000 C 
BRANCH   2   3
ATOM      3  C   UNL     1     152.156 288.163 280.546  1.00  0.00     0.000 C 
BRANCH   3   4
ATOM      4  C   UNL     1     152.694 288.980 281.735  1.00  0.00     0.000 C 
BRANCH   4   5
ATOM      5  C   UNL     1     153.342 290.308 281.305  1.00  0.00     0.006 C 
BRANCH   5   6
ATOM      6  C   UNL     1     153.660 290.337 279.804  1.00  0.00     0.053 C 
BRANCH   6   7
ATOM      7  C   UNL     1     153.655 291.732 279.261  1.00  0.00     0.041 C 
ATOM      8  O   UNL     1     152.851 292.055 278.347  1.00  0.00    -0.550 OA
ATOM      9  O   UNL     1     154.558 292.671 279.745  1.00  0.00    -0.550 OA
ENDBRANCH   6   7
ENDBRANCH   5   6
ENDBRANCH   4   5
ENDBRANCH   3   4
ENDBRANCH   2   3
ENDBRANCH   1   2
BRANCH   1  10
ATOM     10  C   UNL     1     150.351 288.004 278.064  1.00  0.00     0.000 C 
BRANCH  10  11
ATOM     11  C   UNL     1     150.130 286.496 277.843  1.00  0.00    -0.000 C 
BRANCH  11  12
ATOM     12  C   UNL     1     148.776 286.191 277.182  1.00  0.00    -0.000 C 
BRANCH  12  13
ATOM     13  C   UNL     1     147.708 285.753 278.199  1.00  0.00    -0.000 C 
BRANCH  13  14
ATOM     14  C   UNL     1     148.314 285.172 279.490  1.00  0.00    -0.000 C 
BRANCH  14  15
ATOM     15  C   UNL     1     147.629 285.626 280.792  1.00  0.00    -0.003 C 
ATOM     16  C   UNL     1     146.791 286.892 280.617  1.00  0.00     0.004 C 
ENDBRANCH  14  15
ENDBRANCH  13  14
ENDBRANCH  12  13
ENDBRANCH  11  12
ENDBRANCH  10  11
ENDBRANCH   1  10
TORSDOF 12
ENDMDL
MODEL 8
REMARK VINA RESULT:    -3.815      2.236      4.219
REMARK INTER + INTRA:          -7.980
REMARK INTER:                  -6.796
REMARK INTRA:                  -1.184
REMARK UNBOUND:                -1.489
REMARK SMILES CCCCCCCCCCCCCC(=O)[O-]
REMARK SMILES IDX 8 1 9 2 10 3 11 4 12 5 13 6 14 7 15 8 16 9 7 10 6 11 5 12
REMARK SMILES IDX 4 13 3 14 2 15 1 16
REMARK H PARENT
REMARK Flexibility Score: inf
ROOT
ATOM      1  C   UNL     1     154.079 288.874 282.179  1.00  0.00     0.000 C 
ENDROOT
BRANCH   1   2
ATOM      2  C   UNL     1     154.580 287.458 281.842  1.00  0.00     0.000 C 
BRANCH   2   3
ATOM      3  C   UNL     1     155.461 287.417 280.580  1.00  0.00     0.000 C 
BRANCH   3   4
ATOM      4  C   UNL     1     154.844 288.067 279.328  1.00  0.00     0.000 C 
BRANCH   4   5
ATOM      5  C   UNL     1     155.642 289.285 278.829  1.00  0.00     0.006 C 
BRANCH   5   6
ATOM      6  C   UNL     1     156.988 289.430 279.553  1.00  0.00     0.053 C 
BRANCH   6   7
ATOM      7  C   UNL     1     157.147 290.786 280.166  1.00  0.00     0.041 C 
ATOM      8  O   UNL     1     156.133 291.449 280.513  1.00  0.00    -0.550 OA
ATOM      9  O   UNL     1     158.413 291.332 280.330  1.00  0.00    -0.550 OA
ENDBRANCH   6   7
ENDBRANCH   5   6
ENDBRANCH   4   5
ENDBRANCH   3   4
ENDBRANCH   2   3
ENDBRANCH   1   2
BRANCH   1  10
ATOM     10  C   UNL     1     152.593 289.071 281.833  1.00  0.00     0.000 C 
BRANCH  10  11
ATOM     11  C   UNL     1     151.864 287.739 281.582  1.00  0.00    -0.000 C 
BRANCH  11  12
ATOM     12  C   UNL     1     150.658 287.896 280.641  1.00  0.00    -0.000 C 
BRANCH  12  13
ATOM     13  C   UNL     1     151.072 288.294 279.213  1.00  0.00    -0.000 C 
BRANCH  13  14
ATOM     14  C   UNL     1     149.906 288.214 278.209  1.00  0.00    -0.000 C 
BRANCH  14  15
ATOM     15  C   UNL     1     149.809 286.891 277.430  1.00  0.00    -0.003 C 
ATOM     16  C   UNL     1     148.510 286.131 277.700  1.00  0.00     0.004 C 
ENDBRANCH  14  15
ENDBRANCH  13  14
ENDBRANCH  12  13
ENDBRANCH  11  12
ENDBRANCH  10  11
ENDBRANCH   1  10
TORSDOF 12
ENDMDL
MODEL 9
REMARK VINA RESULT:    -3.813      3.805      6.810
REMARK INTER + INTRA:          -7.977
REMARK INTER:                  -6.623
REMARK INTRA:                  -1.354
REMARK UNBOUND:                -1.489
REMARK SMILES CCCCCCCCCCCCCC(=O)[O-]
REMARK SMILES IDX 8 1 9 2 10 3 11 4 12 5 13 6 14 7 15 8 16 9 7 10 6 11 5 12
REMARK SMILES IDX 4 13 3 14 2 15 1 16
REMARK H PARENT
REMARK Flexibility Score: inf
ROOT
ATOM      1  C   UNL     1     156.533 288.232 280.118  1.00  0.00     0.000 C 
ENDROOT
BRANCH   1   2
ATOM      2  C   UNL     1     155.189 288.664 279.506  1.00  0.00     0.000 C 
BRANCH   2   3
ATOM      3  C   UNL     1     154.598 289.916 280.179  1.00  0.00     0.000 C 
BRANCH   3   4
ATOM      4  C   UNL     1     153.117 289.803 280.587  1.00  0.00     0.000 C 
BRANCH   4   5
ATOM      5  C   UNL     1     152.432 288.549 280.016  1.00  0.00     0.006 C 
BRANCH   5   6
ATOM      6  C   UNL     1     151.406 287.956 280.991  1.00  0.00     0.053 C 
BRANCH   6   7
ATOM      7  C   UNL     1     150.142 287.556 280.295  1.00  0.00     0.041 C 
ATOM      8  O   UNL     1     150.181 286.767 279.313  1.00  0.00    -0.550 OA
ATOM      9  O   UNL     1     148.923 288.075 280.712  1.00  0.00    -0.550 OA
ENDBRANCH   6   7
ENDBRANCH   5   6
ENDBRANCH   4   5
ENDBRANCH   3   4
ENDBRANCH   2   3
ENDBRANCH   1   2
BRANCH   1  10
ATOM     10  C   UNL     1     156.384 287.703 281.555  1.00  0.00     0.000 C 
BRANCH  10  11
ATOM     11  C   UNL     1     155.193 286.739 281.708  1.00  0.00    -0.000 C 
BRANCH  11  12
ATOM     12  C   UNL     1     154.572 286.791 283.113  1.00  0.00    -0.000 C 
BRANCH  12  13
ATOM     13  C   UNL     1     153.572 285.647 283.360  1.00  0.00    -0.000 C 
BRANCH  13  14
ATOM     14  C   UNL     1     154.205 284.445 284.084  1.00  0.00    -0.000 C 
BRANCH  14  15
ATOM     15  C   UNL     1     154.234 283.138 283.272  1.00  0.00    -0.003 C 
ATOM     16  C   UNL     1     155.522 282.962 282.467  1.00  0.00     0.004 C 
ENDBRANCH  14  15
ENDBRANCH  13  14
ENDBRANCH  12  13
ENDBRANCH  11  12
ENDBRANCH  10  11
ENDBRANCH   1  10
TORSDOF 12
ENDMDL
