MODEL 1
REMARK VINA RESULT:    -3.140      0.000      0.000
REMARK INTER + INTRA:          -7.294
REMARK INTER:                  -5.343
REMARK INTRA:                  -1.950
REMARK UNBOUND:                -1.950
REMARK SMILES CCCCCCCCCCCCCC(=O)[O-]
REMARK SMILES IDX 8 1 9 2 10 3 11 4 12 5 13 6 14 7 15 8 16 9 7 10 6 11 5 12
REMARK SMILES IDX 4 13 3 14 2 15 1 16
REMARK H PARENT
REMARK Flexibility Score: inf
ROOT
ATOM      1  C   UNL     1      59.155  25.087  52.317  1.00  0.00     0.000 C 
ENDROOT
BRANCH   1   2
ATOM      2  C   UNL     1      57.769  24.541  52.697  1.00  0.00     0.000 C 
BRANCH   2   3
ATOM      3  C   UNL     1      56.637  25.549  52.427  1.00  0.00     0.000 C 
BRANCH   3   4
ATOM      4  C   UNL     1      55.761  25.125  51.231  1.00  0.00     0.000 C 
BRANCH   4   5
ATOM      5  C   UNL     1      55.660  26.190  50.122  1.00  0.00     0.006 C 
BRANCH   5   6
ATOM      6  C   UNL     1      54.979  27.498  50.565  1.00  0.00     0.053 C 
BRANCH   6   7
ATOM      7  C   UNL     1      53.557  27.607  50.097  1.00  0.00     0.041 C 
ATOM      8  O   UNL     1      52.995  26.631  49.531  1.00  0.00    -0.550 OA
ATOM      9  O   UNL     1      52.875  28.810  50.221  1.00  0.00    -0.550 OA
ENDBRANCH   6   7
ENDBRANCH   5   6
ENDBRANCH   4   5
ENDBRANCH   3   4
ENDBRANCH   2   3
ENDBRANCH   1   2
BRANCH   1  10
ATOM     10  C   UNL     1      59.621  24.599  50.935  1.00  0.00     0.000 C 
BRANCH  10  11
ATOM     11  C   UNL     1      59.393  25.646  49.832  1.00  0.00    -0.000 C 
BRANCH  11  12
ATOM     12  C   UNL     1      60.296  26.879  49.989  1.00  0.00    -0.000 C 
BRANCH  12  13
ATOM     13  C   UNL     1      59.618  28.131  49.418  1.00  0.00    -0.000 C 
BRANCH  13  14
ATOM     14  C   UNL     1      58.477  28.603  50.326  1.00  0.00    -0.000 C 
BRANCH  14  15
ATOM     15  C   UNL     1      58.964  28.795  51.767  1.00  0.00    -0.003 C 
ATOM     16  C   UNL     1      57.793  29.020  52.720  1.00  0.00     0.004 C 
ENDBRANCH  14  15
ENDBRANCH  13  14
ENDBRANCH  12  13
ENDBRANCH  11  12
ENDBRANCH  10  11
ENDBRANCH   1  10
TORSDOF 12
ENDMDL
MODEL 2
REMARK VINA RESULT:    -3.069      3.499      5.864
REMARK INTER + INTRA:          -7.173
REMARK INTER:                  -5.427
REMARK INTRA:                  -1.746
REMARK UNBOUND:                -1.950
REMARK SMILES CCCCCCCCCCCCCC(=O)[O-]
REMARK SMILES IDX 8 1 9 2 10 3 11 4 12 5 13 6 14 7 15 8 16 9 7 10 6 11 5 12
REMARK SMILES IDX 4 13 3 14 2 15 1 16
REMARK H PARENT
REMARK Flexibility Score: inf
ROOT
ATOM      1  C   UNL     1      57.948  29.049  52.215  1.00  0.00     0.000 C 
ENDROOT
BRANCH   1   2
ATOM      2  C   UNL     1      59.200  28.483  51.525  1.00  0.00     0.000 C 
BRANCH   2   3
ATOM      3  C   UNL     1      59.155  28.630  49.994  1.00  0.00     0.000 C 
BRANCH   3   4
ATOM      4  C   UNL     1      60.039  27.584  49.287  1.00  0.00     0.000 C 
BRANCH   4   5
ATOM      5  C   UNL     1      60.694  26.570  50.244  1.00  0.00     0.006 C 
BRANCH   5   6
ATOM      6  C   UNL     1      60.221  25.118  50.044  1.00  0.00     0.053 C 
BRANCH   6   7
ATOM      7  C   UNL     1      61.276  24.106  50.382  1.00  0.00     0.041 C 
ATOM      8  O   UNL     1      62.483  24.451  50.479  1.00  0.00    -0.550 OA
ATOM      9  O   UNL     1      60.934  22.767  50.520  1.00  0.00    -0.550 OA
ENDBRANCH   6   7
ENDBRANCH   5   6
ENDBRANCH   4   5
ENDBRANCH   3   4
ENDBRANCH   2   3
ENDBRANCH   1   2
BRANCH   1  10
ATOM     10  C   UNL     1      56.988  27.944  52.691  1.00  0.00     0.000 C 
BRANCH  10  11
ATOM     11  C   UNL     1      57.612  26.541  52.600  1.00  0.00    -0.000 C 
BRANCH  11  12
ATOM     12  C   UNL     1      56.709  25.537  51.869  1.00  0.00    -0.000 C 
BRANCH  12  13
ATOM     13  C   UNL     1      56.686  25.816  50.361  1.00  0.00    -0.000 C 
BRANCH  13  14
ATOM     14  C   UNL     1      55.291  25.575  49.776  1.00  0.00    -0.000 C 
BRANCH  14  15
ATOM     15  C   UNL     1      54.217  26.299  50.597  1.00  0.00    -0.003 C 
ATOM     16  C   UNL     1      54.192  27.792  50.279  1.00  0.00     0.004 C 
ENDBRANCH  14  15
ENDBRANCH  13  14
ENDBRANCH  12  13
ENDBRANCH  11  12
ENDBRANCH  10  11
ENDBRANCH   1  10
TORSDOF 12
ENDMDL
MODEL 3
REMARK VINA RESULT:    -3.053     12.384     14.009
REMARK INTER + INTRA:          -7.146
REMARK INTER:                  -6.067
REMARK INTRA:                  -1.079
REMARK UNBOUND:                -1.950
REMARK SMILES CCCCCCCCCCCCCC(=O)[O-]
REMARK SMILES IDX 8 1 9 2 10 3 11 4 12 5 13 6 14 7 15 8 16 9 7 10 6 11 5 12
REMARK SMILES IDX 4 13 3 14 2 15 1 16
REMARK H PARENT
REMARK Flexibility Score: inf
ROOT
ATOM      1  C   UNL     1      62.674  29.692  61.710  1.00  0.00     0.000 C 
ENDROOT
BRANCH   1   2
ATOM      2  C   UNL     1      62.427  28.185  61.531  1.00  0.00     0.000 C 
BRANCH   2   3
ATOM      3  C   UNL     1      63.555  27.484  60.753  1.00  0.00     0.000 C 
BRANCH   3   4
ATOM      4  C   UNL     1      64.161  28.397  59.669  1.00  0.00     0.000 C 
BRANCH   4   5
ATOM      5  C   UNL     1      65.688  28.569  59.780  1.00  0.00     0.006 C 
BRANCH   5   6
ATOM      6  C   UNL     1      66.318  27.846  60.985  1.00  0.00     0.053 C 
BRANCH   6   7
ATOM      7  C   UNL     1      67.816  27.794  60.920  1.00  0.00     0.041 C 
ATOM      8  O   UNL     1      68.393  27.075  60.061  1.00  0.00    -0.550 OA
ATOM      9  O   UNL     1      68.576  28.484  61.855  1.00  0.00    -0.550 OA
ENDBRANCH   6   7
ENDBRANCH   5   6
ENDBRANCH   4   5
ENDBRANCH   3   4
ENDBRANCH   2   3
ENDBRANCH   1   2
BRANCH   1  10
ATOM     10  C   UNL     1      61.497  30.546  61.206  1.00  0.00     0.000 C 
BRANCH  10  11
ATOM     11  C   UNL     1      61.936  31.953  60.767  1.00  0.00    -0.000 C 
BRANCH  11  12
ATOM     12  C   UNL     1      63.391  31.994  60.277  1.00  0.00    -0.000 C 
BRANCH  12  13
ATOM     13  C   UNL     1      64.113  33.239  60.806  1.00  0.00    -0.000 C 
BRANCH  13  14
ATOM     14  C   UNL     1      63.137  34.406  60.991  1.00  0.00    -0.000 C 
BRANCH  14  15
ATOM     15  C   UNL     1      63.866  35.661  61.485  1.00  0.00    -0.003 C 
ATOM     16  C   UNL     1      65.249  35.317  62.032  1.00  0.00     0.004 C 
ENDBRANCH  14  15
ENDBRANCH  13  14
ENDBRANCH  12  13
ENDBRANCH  11  12
ENDBRANCH  10  11
ENDBRANCH   1  10
TORSDOF 12
ENDMDL
MODEL 4
REMARK VINA RESULT:    -3.047      3.107      5.489
REMARK INTER + INTRA:          -7.135
REMARK INTER:                  -5.383
REMARK INTRA:                  -1.753
REMARK UNBOUND:                -1.950
REMARK SMILES CCCCCCCCCCCCCC(=O)[O-]
REMARK SMILES IDX 8 1 9 2 10 3 11 4 12 5 13 6 14 7 15 8 16 9 7 10 6 11 5 12
REMARK SMILES IDX 4 13 3 14 2 15 1 16
REMARK H PARENT
REMARK Flexibility Score: inf
ROOT
ATOM      1  C   UNL     1      56.822  26.723  52.131  1.00  0.00     0.000 C 
ENDROOT
BRANCH   1   2
ATOM      2  C   UNL     1      57.878  27.802  51.840  1.00  0.00     0.000 C 
BRANCH   2   3
ATOM      3  C   UNL     1      57.863  28.272  50.375  1.00  0.00     0.000 C 
BRANCH   3   4
ATOM      4  C   UNL     1      59.285  28.534  49.839  1.00  0.00     0.000 C 
BRANCH   4   5
ATOM      5  C   UNL     1      60.335  27.518  50.328  1.00  0.00     0.006 C 
BRANCH   5   6
ATOM      6  C   UNL     1      60.216  26.127  49.678  1.00  0.00     0.053 C 
BRANCH   6   7
ATOM      7  C   UNL     1      60.453  25.005  50.646  1.00  0.00     0.041 C 
ATOM      8  O   UNL     1      60.296  25.186  51.882  1.00  0.00    -0.550 OA
ATOM      9  O   UNL     1      60.916  23.779  50.187  1.00  0.00    -0.550 OA
ENDBRANCH   6   7
ENDBRANCH   5   6
ENDBRANCH   4   5
ENDBRANCH   3   4
ENDBRANCH   2   3
ENDBRANCH   1   2
BRANCH   1  10
ATOM     10  C   UNL     1      56.803  25.614  51.064  1.00  0.00     0.000 C 
BRANCH  10  11
ATOM     11  C   UNL     1      55.384  25.306  50.559  1.00  0.00    -0.000 C 
BRANCH  11  12
ATOM     12  C   UNL     1      54.723  26.511  49.873  1.00  0.00    -0.000 C 
BRANCH  12  13
ATOM     13  C   UNL     1      53.357  26.818  50.499  1.00  0.00    -0.000 C 
BRANCH  13  14
ATOM     14  C   UNL     1      53.038  28.314  50.419  1.00  0.00    -0.000 C 
BRANCH  14  15
ATOM     15  C   UNL     1      54.284  29.159  50.707  1.00  0.00    -0.003 C 
ATOM     16  C   UNL     1      54.354  29.554  52.180  1.00  0.00     0.004 C 
ENDBRANCH  14  15
ENDBRANCH  13  14
ENDBRANCH  12  13
ENDBRANCH  11  12
ENDBRANCH  10  11
ENDBRANCH   1  10
TORSDOF 12
ENDMDL
MODEL 5
REMARK VINA RESULT:    -3.013      1.659      2.131
REMARK INTER + INTRA:          -7.077
REMARK INTER:                  -5.322
REMARK INTRA:                  -1.755
REMARK UNBOUND:                -1.950
REMARK SMILES CCCCCCCCCCCCCC(=O)[O-]
REMARK SMILES IDX 8 1 9 2 10 3 11 4 12 5 13 6 14 7 15 8 16 9 7 10 6 11 5 12
REMARK SMILES IDX 4 13 3 14 2 15 1 16
REMARK H PARENT
REMARK Flexibility Score: inf
ROOT
ATOM      1  C   UNL     1      58.715  24.834  51.337  1.00  0.00     0.000 C 
ENDROOT
BRANCH   1   2
ATOM      2  C   UNL     1      57.617  25.304  50.369  1.00  0.00     0.000 C 
BRANCH   2   3
ATOM      3  C   UNL     1      56.336  25.754  51.094  1.00  0.00     0.000 C 
BRANCH   3   4
ATOM      4  C   UNL     1      55.290  26.325  50.116  1.00  0.00     0.000 C 
BRANCH   4   5
ATOM      5  C   UNL     1      54.198  27.174  50.795  1.00  0.00     0.006 C 
BRANCH   5   6
ATOM      6  C   UNL     1      54.401  28.693  50.653  1.00  0.00     0.053 C 
BRANCH   6   7
ATOM      7  C   UNL     1      54.532  29.394  51.974  1.00  0.00     0.041 C 
ATOM      8  O   UNL     1      53.989  30.515  52.157  1.00  0.00    -0.550 OA
ATOM      9  O   UNL     1      55.313  28.840  52.979  1.00  0.00    -0.550 OA
ENDBRANCH   6   7
ENDBRANCH   5   6
ENDBRANCH   4   5
ENDBRANCH   3   4
ENDBRANCH   2   3
ENDBRANCH   1   2
BRANCH   1  10
ATOM     10  C   UNL     1      60.069  24.625  50.635  1.00  0.00     0.000 C 
BRANCH  10  11
ATOM     11  C   UNL     1      61.038  25.797  50.864  1.00  0.00    -0.000 C 
BRANCH  11  12
ATOM     12  C   UNL     1      61.015  26.817  49.716  1.00  0.00    -0.000 C 
BRANCH  12  13
ATOM     13  C   UNL     1      60.576  28.198  50.218  1.00  0.00    -0.000 C 
BRANCH  13  14
ATOM     14  C   UNL     1      59.279  28.646  49.535  1.00  0.00    -0.000 C 
BRANCH  14  15
ATOM     15  C   UNL     1      58.150  28.820  50.558  1.00  0.00    -0.003 C 
ATOM     16  C   UNL     1      58.658  28.610  51.982  1.00  0.00     0.004 C 
ENDBRANCH  14  15
ENDBRANCH  13  14
ENDBRANCH  12  13
ENDBRANCH  11  12
ENDBRANCH  10  11
ENDBRANCH   1  10
TORSDOF 12
ENDMDL
MODEL 6
REMARK VINA RESULT:    -2.959      2.812      5.595
REMARK INTER + INTRA:          -6.985
REMARK INTER:                  -5.424
REMARK INTRA:                  -1.561
REMARK UNBOUND:                -1.950
REMARK SMILES CCCCCCCCCCCCCC(=O)[O-]
REMARK SMILES IDX 8 1 9 2 10 3 11 4 12 5 13 6 14 7 15 8 16 9 7 10 6 11 5 12
REMARK SMILES IDX 4 13 3 14 2 15 1 16
REMARK H PARENT
REMARK Flexibility Score: inf
ROOT
ATOM      1  C   UNL     1      58.736  28.616  51.447  1.00  0.00     0.000 C 
ENDROOT
BRANCH   1   2
ATOM      2  C   UNL     1      58.838  28.709  49.916  1.00  0.00     0.000 C 
BRANCH   2   3
ATOM      3  C   UNL     1      59.623  27.538  49.299  1.00  0.00     0.000 C 
BRANCH   3   4
ATOM      4  C   UNL     1      60.816  27.115  50.180  1.00  0.00     0.000 C 
BRANCH   4   5
ATOM      5  C   UNL     1      60.890  25.599  50.444  1.00  0.00     0.006 C 
BRANCH   5   6
ATOM      6  C   UNL     1      59.520  24.929  50.658  1.00  0.00     0.053 C 
BRANCH   6   7
ATOM      7  C   UNL     1      59.201  24.695  52.106  1.00  0.00     0.041 C 
ATOM      8  O   UNL     1      58.129  24.124  52.438  1.00  0.00    -0.550 OA
ATOM      9  O   UNL     1      60.055  25.172  53.091  1.00  0.00    -0.550 OA
ENDBRANCH   6   7
ENDBRANCH   5   6
ENDBRANCH   4   5
ENDBRANCH   3   4
ENDBRANCH   2   3
ENDBRANCH   1   2
BRANCH   1  10
ATOM     10  C   UNL     1      57.381  28.054  51.914  1.00  0.00     0.000 C 
BRANCH  10  11
ATOM     11  C   UNL     1      56.200  28.618  51.107  1.00  0.00    -0.000 C 
BRANCH  11  12
ATOM     12  C   UNL     1      55.259  27.521  50.587  1.00  0.00    -0.000 C 
BRANCH  12  13
ATOM     13  C   UNL     1      55.903  26.136  50.727  1.00  0.00    -0.000 C 
BRANCH  13  14
ATOM     14  C   UNL     1      55.501  25.221  49.565  1.00  0.00    -0.000 C 
BRANCH  14  15
ATOM     15  C   UNL     1      53.998  24.918  49.596  1.00  0.00    -0.003 C 
ATOM     16  C   UNL     1      53.621  24.125  50.845  1.00  0.00     0.004 C 
ENDBRANCH  14  15
ENDBRANCH  13  14
ENDBRANCH  12  13
ENDBRANCH  11  12
ENDBRANCH  10  11
ENDBRANCH   1  10
TORSDOF 12
ENDMDL
MODEL 7
REMARK VINA RESULT:    -2.932     11.267     13.258
REMARK INTER + INTRA:          -6.940
REMARK INTER:                  -5.703
REMARK INTRA:                  -1.237
REMARK UNBOUND:                -1.950
REMARK SMILES CCCCCCCCCCCCCC(=O)[O-]
REMARK SMILES IDX 8 1 9 2 10 3 11 4 12 5 13 6 14 7 15 8 16 9 7 10 6 11 5 12
REMARK SMILES IDX 4 13 3 14 2 15 1 16
REMARK H PARENT
REMARK Flexibility Score: inf
ROOT
ATOM      1  C   UNL     1      61.092  30.751  60.048  1.00  0.00     0.000 C 
ENDROOT
BRANCH   1   2
ATOM      2  C   UNL     1      61.203  30.573  61.571  1.00  0.00     0.000 C 
BRANCH   2   3
ATOM      3  C   UNL     1      62.209  29.480  61.972  1.00  0.00     0.000 C 
BRANCH   3   4
ATOM      4  C   UNL     1      63.293  29.270  60.896  1.00  0.00     0.000 C 
BRANCH   4   5
ATOM      5  C   UNL     1      64.557  30.125  61.109  1.00  0.00     0.006 C 
BRANCH   5   6
ATOM      6  C   UNL     1      65.562  30.064  59.943  1.00  0.00     0.053 C 
BRANCH   6   7
ATOM      7  C   UNL     1      64.913  30.225  58.600  1.00  0.00     0.041 C 
ATOM      8  O   UNL     1      64.825  29.246  57.812  1.00  0.00    -0.550 OA
ATOM      9  O   UNL     1      64.469  31.475  58.189  1.00  0.00    -0.550 OA
ENDBRANCH   6   7
ENDBRANCH   5   6
ENDBRANCH   4   5
ENDBRANCH   3   4
ENDBRANCH   2   3
ENDBRANCH   1   2
BRANCH   1  10
ATOM     10  C   UNL     1      61.319  32.208  59.607  1.00  0.00     0.000 C 
BRANCH  10  11
ATOM     11  C   UNL     1      62.288  32.960  60.535  1.00  0.00    -0.000 C 
BRANCH  11  12
ATOM     12  C   UNL     1      62.310  34.473  60.269  1.00  0.00    -0.000 C 
BRANCH  12  13
ATOM     13  C   UNL     1      63.211  35.194  61.278  1.00  0.00    -0.000 C 
BRANCH  13  14
ATOM     14  C   UNL     1      64.523  34.432  61.489  1.00  0.00    -0.000 C 
BRANCH  14  15
ATOM     15  C   UNL     1      65.716  35.393  61.545  1.00  0.00    -0.003 C 
ATOM     16  C   UNL     1      66.063  35.924  60.156  1.00  0.00     0.004 C 
ENDBRANCH  14  15
ENDBRANCH  13  14
ENDBRANCH  12  13
ENDBRANCH  11  12
ENDBRANCH  10  11
ENDBRANCH   1  10
TORSDOF 12
ENDMDL
MODEL 8
REMARK VINA RESULT:    -2.917      1.675      3.004
REMARK INTER + INTRA:          -6.913
REMARK INTER:                  -5.443
REMARK INTRA:                  -1.471
REMARK UNBOUND:                -1.950
REMARK SMILES CCCCCCCCCCCCCC(=O)[O-]
REMARK SMILES IDX 8 1 9 2 10 3 11 4 12 5 13 6 14 7 15 8 16 9 7 10 6 11 5 12
REMARK SMILES IDX 4 13 3 14 2 15 1 16
REMARK H PARENT
REMARK Flexibility Score: inf
ROOT
ATOM      1  C   UNL     1      56.509  26.051  52.750  1.00  0.00     0.000 C 
ENDROOT
BRANCH   1   2
ATOM      2  C   UNL     1      56.899  27.423  52.176  1.00  0.00     0.000 C 
BRANCH   2   3
ATOM      3  C   UNL     1      56.306  27.675  50.778  1.00  0.00     0.000 C 
BRANCH   3   4
ATOM      4  C   UNL     1      54.890  28.280  50.852  1.00  0.00     0.000 C 
BRANCH   4   5
ATOM      5  C   UNL     1      53.828  27.483  50.072  1.00  0.00     0.006 C 
BRANCH   5   6
ATOM      6  C   UNL     1      53.297  26.244  50.816  1.00  0.00     0.053 C 
BRANCH   6   7
ATOM      7  C   UNL     1      53.891  24.960  50.318  1.00  0.00     0.041 C 
ATOM      8  O   UNL     1      53.761  23.897  50.980  1.00  0.00    -0.550 OA
ATOM      9  O   UNL     1      54.651  24.951  49.155  1.00  0.00    -0.550 OA
ENDBRANCH   6   7
ENDBRANCH   5   6
ENDBRANCH   4   5
ENDBRANCH   3   4
ENDBRANCH   2   3
ENDBRANCH   1   2
BRANCH   1  10
ATOM     10  C   UNL     1      57.338  24.903  52.149  1.00  0.00     0.000 C 
BRANCH  10  11
ATOM     11  C   UNL     1      58.850  25.185  52.188  1.00  0.00    -0.000 C 
BRANCH  11  12
ATOM     12  C   UNL     1      59.658  24.204  51.326  1.00  0.00    -0.000 C 
BRANCH  12  13
ATOM     13  C   UNL     1      60.396  24.942  50.202  1.00  0.00    -0.000 C 
BRANCH  13  14
ATOM     14  C   UNL     1      59.559  26.108  49.665  1.00  0.00    -0.000 C 
BRANCH  14  15
ATOM     15  C   UNL     1      60.370  27.409  49.656  1.00  0.00    -0.003 C 
ATOM     16  C   UNL     1      59.458  28.627  49.546  1.00  0.00     0.004 C 
ENDBRANCH  14  15
ENDBRANCH  13  14
ENDBRANCH  12  13
ENDBRANCH  11  12
ENDBRANCH  10  11
ENDBRANCH   1  10
TORSDOF 12
ENDMDL
MODEL 9
REMARK VINA RESULT:    -2.912      2.765      4.833
REMARK INTER + INTRA:          -6.905
REMARK INTER:                  -4.939
REMARK INTRA:                  -1.966
REMARK UNBOUND:                -1.950
REMARK SMILES CCCCCCCCCCCCCC(=O)[O-]
REMARK SMILES IDX 8 1 9 2 10 3 11 4 12 5 13 6 14 7 15 8 16 9 7 10 6 11 5 12
REMARK SMILES IDX 4 13 3 14 2 15 1 16
REMARK H PARENT
REMARK Flexibility Score: inf
ROOT
ATOM      1  C   UNL     1      54.061  25.817  49.751  1.00  0.00     0.000 C 
ENDROOT
BRANCH   1   2
ATOM      2  C   UNL     1      55.495  25.266  49.783  1.00  0.00     0.000 C 
BRANCH   2   3
ATOM      3  C   UNL     1      56.025  25.064  51.213  1.00  0.00     0.000 C 
BRANCH   3   4
ATOM      4  C   UNL     1      57.550  25.274  51.300  1.00  0.00     0.000 C 
BRANCH   4   5
ATOM      5  C   UNL     1      58.176  25.839  50.011  1.00  0.00     0.006 C 
BRANCH   5   6
ATOM      6  C   UNL     1      59.570  26.463  50.209  1.00  0.00     0.053 C 
BRANCH   6   7
ATOM      7  C   UNL     1      59.533  27.960  50.310  1.00  0.00     0.041 C 
ATOM      8  O   UNL     1      59.194  28.658  49.318  1.00  0.00    -0.550 OA
ATOM      9  O   UNL     1      59.942  28.588  51.479  1.00  0.00    -0.550 OA
ENDBRANCH   6   7
ENDBRANCH   5   6
ENDBRANCH   4   5
ENDBRANCH   3   4
ENDBRANCH   2   3
ENDBRANCH   1   2
BRANCH   1  10
ATOM     10  C   UNL     1      53.791  26.823  50.883  1.00  0.00     0.000 C 
BRANCH  10  11
ATOM     11  C   UNL     1      53.569  28.253  50.362  1.00  0.00    -0.000 C 
BRANCH  11  12
ATOM     12  C   UNL     1      54.529  29.271  50.995  1.00  0.00    -0.000 C 
BRANCH  12  13
ATOM     13  C   UNL     1      55.938  28.683  51.133  1.00  0.00    -0.000 C 
BRANCH  13  14
ATOM     14  C   UNL     1      56.606  29.151  52.431  1.00  0.00    -0.000 C 
BRANCH  14  15
ATOM     15  C   UNL     1      56.772  27.987  53.415  1.00  0.00    -0.003 C 
ATOM     16  C   UNL     1      55.454  27.663  54.114  1.00  0.00     0.004 C 
ENDBRANCH  14  15
ENDBRANCH  13  14
ENDBRANCH  12  13
ENDBRANCH  11  12
ENDBRANCH  10  11
ENDBRANCH   1  10
TORSDOF 12
ENDMDL
