MODEL 1
REMARK VINA RESULT:    -4.463      0.000      0.000
REMARK INTER + INTRA:          -5.538
REMARK INTER:                  -5.245
REMARK INTRA:                  -0.292
REMARK UNBOUND:                -0.292
REMARK SMILES O=c1c(O)c(-c2ccc(O)cc2)oc2cc(O)cc(O)c12
REMARK SMILES IDX 5 1 3 2 2 3 1 4 21 5 19 6 18 7 16 8 15 9 14 10 13 11 6 12
REMARK SMILES IDX 7 13 8 14 9 15 12 16 11 17 10 18 4 20 20 22 17 24
REMARK H PARENT 10 19 4 21 20 23 17 25
REMARK Flexibility Score: inf
ROOT
ATOM      1  C   UNL     1      40.782 -30.666  10.571  1.00  0.00     0.180 A 
ATOM      2  C   UNL     1      41.716 -29.973   9.778  1.00  0.00     0.208 A 
ATOM      3  C   UNL     1      43.046 -30.423   9.747  1.00  0.00     0.238 A 
ATOM      4  O   UNL     1      43.894 -29.803   9.049  1.00  0.00    -0.285 OA
ATOM      5  C   UNL     1      43.413 -31.563  10.490  1.00  0.00     0.111 A 
ATOM      6  C   UNL     1      44.731 -32.083  10.510  1.00  0.00     0.134 A 
ATOM      7  C   UNL     1      45.015 -33.228  11.268  1.00  0.00     0.093 A 
ATOM      8  C   UNL     1      44.011 -33.863  12.003  1.00  0.00     0.123 A 
ATOM      9  C   UNL     1      42.708 -33.354  11.988  1.00  0.00     0.094 A 
ATOM     10  C   UNL     1      42.405 -32.212  11.240  1.00  0.00     0.146 A 
ATOM     11  O   UNL     1      41.162 -31.747  11.246  1.00  0.00    -0.452 OA
ENDROOT
BRANCH   1  12
ATOM     12  C   UNL     1      39.367 -30.243  10.671  1.00  0.00     0.021 A 
ATOM     13  C   UNL     1      38.429 -30.745   9.754  1.00  0.00     0.016 A 
ATOM     14  C   UNL     1      37.083 -30.377   9.842  1.00  0.00     0.047 A 
ATOM     15  C   UNL     1      36.655 -29.512  10.858  1.00  0.00     0.115 A 
ATOM     16  C   UNL     1      38.926 -29.390  11.700  1.00  0.00     0.016 A 
ATOM     17  C   UNL     1      37.580 -29.025  11.787  1.00  0.00     0.047 A 
BRANCH  15  18
ATOM     18  O   UNL     1      35.317 -29.138  10.956  1.00  0.00    -0.508 OA
ATOM     19  H   UNL     1      34.721 -29.488  11.696  1.00  0.00     0.293 HD
ENDBRANCH  15  18
ENDBRANCH   1  12
BRANCH   2  20
ATOM     20  O   UNL     1      41.315 -28.875   9.012  1.00  0.00    -0.502 OA
ATOM     21  H   UNL     1      40.477 -28.345   9.219  1.00  0.00     0.293 HD
ENDBRANCH   2  20
BRANCH   6  22
ATOM     22  O   UNL     1      45.755 -31.472   9.785  1.00  0.00    -0.507 OA
ATOM     23  H   UNL     1      45.727 -31.408   8.774  1.00  0.00     0.293 HD
ENDBRANCH   6  22
BRANCH   8  24
ATOM     24  O   UNL     1      44.320 -35.000  12.747  1.00  0.00    -0.508 OA
ATOM     25  H   UNL     1      45.052 -34.992  13.447  1.00  0.00     0.293 HD
ENDBRANCH   8  24
TORSDOF 5
ENDMDL
MODEL 2
REMARK VINA RESULT:    -4.403      1.794      7.121
REMARK INTER + INTRA:          -5.467
REMARK INTER:                  -5.169
REMARK INTRA:                  -0.298
REMARK UNBOUND:                -0.292
REMARK SMILES O=c1c(O)c(-c2ccc(O)cc2)oc2cc(O)cc(O)c12
REMARK SMILES IDX 5 1 3 2 2 3 1 4 21 5 19 6 18 7 16 8 15 9 14 10 13 11 6 12
REMARK SMILES IDX 7 13 8 14 9 15 12 16 11 17 10 18 4 20 20 22 17 24
REMARK H PARENT 10 19 4 21 20 23 17 25
REMARK Flexibility Score: inf
ROOT
ATOM      1  C   UNL     1      40.012 -30.291  10.553  1.00  0.00     0.180 A 
ATOM      2  C   UNL     1      39.533 -29.688  11.732  1.00  0.00     0.208 A 
ATOM      3  C   UNL     1      38.158 -29.425  11.849  1.00  0.00     0.238 A 
ATOM      4  O   UNL     1      37.719 -28.875  12.895  1.00  0.00    -0.285 OA
ATOM      5  C   UNL     1      37.288 -29.786  10.799  1.00  0.00     0.111 A 
ATOM      6  C   UNL     1      35.891 -29.559  10.841  1.00  0.00     0.134 A 
ATOM      7  C   UNL     1      35.090 -29.956   9.759  1.00  0.00     0.093 A 
ATOM      8  C   UNL     1      35.657 -30.573   8.641  1.00  0.00     0.123 A 
ATOM      9  C   UNL     1      37.037 -30.799   8.595  1.00  0.00     0.094 A 
ATOM     10  C   UNL     1      37.852 -30.409   9.663  1.00  0.00     0.146 A 
ATOM     11  O   UNL     1      39.159 -30.631   9.591  1.00  0.00    -0.452 OA
ENDROOT
BRANCH   1  12
ATOM     12  C   UNL     1      41.449 -30.582  10.347  1.00  0.00     0.021 A 
ATOM     13  C   UNL     1      41.952 -31.848  10.686  1.00  0.00     0.016 A 
ATOM     14  C   UNL     1      43.302 -32.153  10.479  1.00  0.00     0.047 A 
ATOM     15  C   UNL     1      44.161 -31.199   9.916  1.00  0.00     0.115 A 
ATOM     16  C   UNL     1      42.313 -29.636   9.765  1.00  0.00     0.016 A 
ATOM     17  C   UNL     1      43.661 -29.944   9.559  1.00  0.00     0.047 A 
BRANCH  15  18
ATOM     18  O   UNL     1      45.506 -31.491   9.706  1.00  0.00    -0.508 OA
ATOM     19  H   UNL     1      46.233 -30.818   9.915  1.00  0.00     0.293 HD
ENDBRANCH  15  18
ENDBRANCH   1  12
BRANCH   2  20
ATOM     20  O   UNL     1      40.409 -29.385  12.777  1.00  0.00    -0.502 OA
ATOM     21  H   UNL     1      40.087 -29.029  13.669  1.00  0.00     0.293 HD
ENDBRANCH   2  20
BRANCH   6  22
ATOM     22  O   UNL     1      35.294 -28.946  11.943  1.00  0.00    -0.507 OA
ATOM     23  H   UNL     1      34.730 -28.110  11.848  1.00  0.00     0.293 HD
ENDBRANCH   6  22
BRANCH   8  24
ATOM     24  O   UNL     1      34.839 -30.958   7.581  1.00  0.00    -0.508 OA
ATOM     25  H   UNL     1      35.156 -31.618   6.881  1.00  0.00     0.293 HD
ENDBRANCH   8  24
TORSDOF 5
ENDMDL
MODEL 3
REMARK VINA RESULT:    -4.335      1.333      3.151
REMARK INTER + INTRA:          -5.388
REMARK INTER:                  -5.096
REMARK INTRA:                  -0.292
REMARK UNBOUND:                -0.292
REMARK SMILES O=c1c(O)c(-c2ccc(O)cc2)oc2cc(O)cc(O)c12
REMARK SMILES IDX 5 1 3 2 2 3 1 4 21 5 19 6 18 7 16 8 15 9 14 10 13 11 6 12
REMARK SMILES IDX 7 13 8 14 9 15 12 16 11 17 10 18 4 20 20 22 17 24
REMARK H PARENT 10 19 4 21 20 23 17 25
REMARK Flexibility Score: inf
ROOT
ATOM      1  C   UNL     1      40.455 -30.782  10.622  1.00  0.00     0.180 A 
ATOM      2  C   UNL     1      40.781 -31.848  11.481  1.00  0.00     0.208 A 
ATOM      3  C   UNL     1      42.125 -32.238  11.599  1.00  0.00     0.238 A 
ATOM      4  O   UNL     1      42.429 -33.199  12.357  1.00  0.00    -0.285 OA
ATOM      5  C   UNL     1      43.117 -31.545  10.874  1.00  0.00     0.111 A 
ATOM      6  C   UNL     1      44.494 -31.873  10.940  1.00  0.00     0.134 A 
ATOM      7  C   UNL     1      45.421 -31.130  10.195  1.00  0.00     0.093 A 
ATOM      8  C   UNL     1      45.001 -30.069   9.389  1.00  0.00     0.123 A 
ATOM      9  C   UNL     1      43.643 -29.741   9.319  1.00  0.00     0.094 A 
ATOM     10  C   UNL     1      42.703 -30.471  10.054  1.00  0.00     0.146 A 
ATOM     11  O   UNL     1      41.419 -30.143   9.966  1.00  0.00    -0.452 OA
ENDROOT
BRANCH   1  12
ATOM     12  C   UNL     1      39.060 -30.325  10.430  1.00  0.00     0.021 A 
ATOM     13  C   UNL     1      38.533 -29.339  11.280  1.00  0.00     0.016 A 
ATOM     14  C   UNL     1      37.225 -28.876  11.104  1.00  0.00     0.047 A 
ATOM     15  C   UNL     1      36.433 -29.383  10.065  1.00  0.00     0.115 A 
ATOM     16  C   UNL     1      38.265 -30.816   9.377  1.00  0.00     0.016 A 
ATOM     17  C   UNL     1      36.958 -30.350   9.203  1.00  0.00     0.047 A 
BRANCH  15  18
ATOM     18  O   UNL     1      35.128 -28.931   9.880  1.00  0.00    -0.508 OA
ATOM     19  H   UNL     1      34.935 -28.025   9.470  1.00  0.00     0.293 HD
ENDBRANCH  15  18
ENDBRANCH   1  12
BRANCH   2  20
ATOM     20  O   UNL     1      39.786 -32.485  12.226  1.00  0.00    -0.502 OA
ATOM     21  H   UNL     1      38.890 -32.741  11.828  1.00  0.00     0.293 HD
ENDBRANCH   2  20
BRANCH   6  22
ATOM     22  O   UNL     1      44.945 -32.926  11.736  1.00  0.00    -0.507 OA
ATOM     23  H   UNL     1      45.031 -32.835  12.742  1.00  0.00     0.293 HD
ENDBRANCH   6  22
BRANCH   8  24
ATOM     24  O   UNL     1      45.943 -29.346   8.660  1.00  0.00    -0.508 OA
ATOM     25  H   UNL     1      46.929 -29.377   8.892  1.00  0.00     0.293 HD
ENDBRANCH   8  24
TORSDOF 5
ENDMDL
MODEL 4
REMARK VINA RESULT:    -4.237      2.184      2.402
REMARK INTER + INTRA:          -5.272
REMARK INTER:                  -5.816
REMARK INTRA:                   0.544
REMARK UNBOUND:                -0.292
REMARK SMILES O=c1c(O)c(-c2ccc(O)cc2)oc2cc(O)cc(O)c12
REMARK SMILES IDX 5 1 3 2 2 3 1 4 21 5 19 6 18 7 16 8 15 9 14 10 13 11 6 12
REMARK SMILES IDX 7 13 8 14 9 15 12 16 11 17 10 18 4 20 20 22 17 24
REMARK H PARENT 10 19 4 21 20 23 17 25
REMARK Flexibility Score: inf
ROOT
ATOM      1  C   UNL     1      41.119 -31.860  12.344  1.00  0.00     0.180 A 
ATOM      2  C   UNL     1      41.840 -30.709  11.976  1.00  0.00     0.208 A 
ATOM      3  C   UNL     1      43.240 -30.784  11.889  1.00  0.00     0.238 A 
ATOM      4  O   UNL     1      43.898 -29.757  11.571  1.00  0.00    -0.285 OA
ATOM      5  C   UNL     1      43.889 -32.008  12.152  1.00  0.00     0.111 A 
ATOM      6  C   UNL     1      45.294 -32.169  12.083  1.00  0.00     0.134 A 
ATOM      7  C   UNL     1      45.864 -33.423  12.349  1.00  0.00     0.093 A 
ATOM      8  C   UNL     1      45.060 -34.515  12.682  1.00  0.00     0.123 A 
ATOM      9  C   UNL     1      43.671 -34.362  12.752  1.00  0.00     0.094 A 
ATOM     10  C   UNL     1      43.084 -33.120  12.491  1.00  0.00     0.146 A 
ATOM     11  O   UNL     1      41.764 -33.001  12.569  1.00  0.00    -0.452 OA
ENDROOT
BRANCH   1  12
ATOM     12  C   UNL     1      39.644 -31.855  12.476  1.00  0.00     0.021 A 
ATOM     13  C   UNL     1      38.910 -30.764  11.982  1.00  0.00     0.016 A 
ATOM     14  C   UNL     1      37.515 -30.747  12.075  1.00  0.00     0.047 A 
ATOM     15  C   UNL     1      36.835 -31.830  12.650  1.00  0.00     0.115 A 
ATOM     16  C   UNL     1      38.953 -32.947  13.034  1.00  0.00     0.016 A 
ATOM     17  C   UNL     1      37.558 -32.928  13.125  1.00  0.00     0.047 A 
BRANCH  15  18
ATOM     18  O   UNL     1      35.445 -31.824  12.749  1.00  0.00    -0.508 OA
ATOM     19  H   UNL     1      34.959 -32.424  13.404  1.00  0.00     0.293 HD
ENDBRANCH  15  18
ENDBRANCH   1  12
BRANCH   2  20
ATOM     20  O   UNL     1      41.169 -29.521  11.672  1.00  0.00    -0.502 OA
ATOM     21  H   UNL     1      40.216 -29.508  11.330  1.00  0.00     0.293 HD
ENDBRANCH   2  20
BRANCH   6  22
ATOM     22  O   UNL     1      46.125 -31.097  11.752  1.00  0.00    -0.507 OA
ATOM     23  H   UNL     1      46.357 -30.880  10.790  1.00  0.00     0.293 HD
ENDBRANCH   6  22
BRANCH   8  24
ATOM     24  O   UNL     1      45.651 -35.750  12.940  1.00  0.00    -0.508 OA
ATOM     25  H   UNL     1      46.474 -36.059  12.436  1.00  0.00     0.293 HD
ENDBRANCH   8  24
TORSDOF 5
ENDMDL
MODEL 5
REMARK VINA RESULT:    -4.060      1.812      6.611
REMARK INTER + INTRA:          -5.064
REMARK INTER:                  -4.776
REMARK INTRA:                  -0.289
REMARK UNBOUND:                -0.292
REMARK SMILES O=c1c(O)c(-c2ccc(O)cc2)oc2cc(O)cc(O)c12
REMARK SMILES IDX 5 1 3 2 2 3 1 4 21 5 19 6 18 7 16 8 15 9 14 10 13 11 6 12
REMARK SMILES IDX 7 13 8 14 9 15 12 16 11 17 10 18 4 20 20 22 17 24
REMARK H PARENT 10 19 4 21 20 23 17 25
REMARK Flexibility Score: inf
ROOT
ATOM      1  C   UNL     1      40.887 -31.015  11.267  1.00  0.00     0.180 A 
ATOM      2  C   UNL     1      40.647 -30.081  10.241  1.00  0.00     0.208 A 
ATOM      3  C   UNL     1      39.323 -29.704   9.964  1.00  0.00     0.238 A 
ATOM      4  O   UNL     1      39.094 -28.877   9.039  1.00  0.00    -0.285 OA
ATOM      5  C   UNL     1      38.269 -30.248  10.727  1.00  0.00     0.111 A 
ATOM      6  C   UNL     1      36.909 -29.917  10.514  1.00  0.00     0.134 A 
ATOM      7  C   UNL     1      35.918 -30.495  11.322  1.00  0.00     0.093 A 
ATOM      8  C   UNL     1      36.260 -31.393  12.336  1.00  0.00     0.123 A 
ATOM      9  C   UNL     1      37.602 -31.724  12.550  1.00  0.00     0.094 A 
ATOM     10  C   UNL     1      38.604 -31.160  11.754  1.00  0.00     0.146 A 
ATOM     11  O   UNL     1      39.869 -31.495  11.975  1.00  0.00    -0.452 OA
ENDROOT
BRANCH   1  12
ATOM     12  C   UNL     1      42.253 -31.477  11.606  1.00  0.00     0.021 A 
ATOM     13  C   UNL     1      42.917 -30.917  12.709  1.00  0.00     0.016 A 
ATOM     14  C   UNL     1      44.199 -31.353  13.061  1.00  0.00     0.047 A 
ATOM     15  C   UNL     1      44.825 -32.367  12.322  1.00  0.00     0.115 A 
ATOM     16  C   UNL     1      42.880 -32.507  10.881  1.00  0.00     0.016 A 
ATOM     17  C   UNL     1      44.160 -32.942  11.236  1.00  0.00     0.047 A 
BRANCH  15  18
ATOM     18  O   UNL     1      46.101 -32.809  12.663  1.00  0.00    -0.508 OA
ATOM     19  H   UNL     1      46.932 -32.355  12.304  1.00  0.00     0.293 HD
ENDBRANCH  15  18
ENDBRANCH   1  12
BRANCH   2  20
ATOM     20  O   UNL     1      41.712 -29.520   9.533  1.00  0.00    -0.502 OA
ATOM     21  H   UNL     1      42.476 -30.077   9.168  1.00  0.00     0.293 HD
ENDBRANCH   2  20
BRANCH   6  22
ATOM     22  O   UNL     1      36.535 -29.022   9.510  1.00  0.00    -0.507 OA
ATOM     23  H   UNL     1      37.039 -28.964   8.633  1.00  0.00     0.293 HD
ENDBRANCH   6  22
BRANCH   8  24
ATOM     24  O   UNL     1      35.257 -31.951  13.125  1.00  0.00    -0.508 OA
ATOM     25  H   UNL     1      34.278 -31.746  12.961  1.00  0.00     0.293 HD
ENDBRANCH   8  24
TORSDOF 5
ENDMDL
MODEL 6
REMARK VINA RESULT:    -3.774      1.839      7.113
REMARK INTER + INTRA:          -4.728
REMARK INTER:                  -4.755
REMARK INTRA:                   0.027
REMARK UNBOUND:                -0.292
REMARK SMILES O=c1c(O)c(-c2ccc(O)cc2)oc2cc(O)cc(O)c12
REMARK SMILES IDX 5 1 3 2 2 3 1 4 21 5 19 6 18 7 16 8 15 9 14 10 13 11 6 12
REMARK SMILES IDX 7 13 8 14 9 15 12 16 11 17 10 18 4 20 20 22 17 24
REMARK H PARENT 10 19 4 21 20 23 17 25
REMARK Flexibility Score: inf
ROOT
ATOM      1  C   UNL     1      40.520 -30.885  10.693  1.00  0.00     0.180 A 
ATOM      2  C   UNL     1      39.974 -31.443  11.865  1.00  0.00     0.208 A 
ATOM      3  C   UNL     1      38.588 -31.358  12.073  1.00  0.00     0.238 A 
ATOM      4  O   UNL     1      38.087 -31.844  13.124  1.00  0.00    -0.285 OA
ATOM      5  C   UNL     1      37.774 -30.736  11.104  1.00  0.00     0.111 A 
ATOM      6  C   UNL     1      36.369 -30.613  11.237  1.00  0.00     0.134 A 
ATOM      7  C   UNL     1      35.628 -29.989  10.223  1.00  0.00     0.093 A 
ATOM      8  C   UNL     1      36.260 -29.489   9.082  1.00  0.00     0.123 A 
ATOM      9  C   UNL     1      37.647 -29.608   8.945  1.00  0.00     0.094 A 
ATOM     10  C   UNL     1      38.404 -30.225   9.946  1.00  0.00     0.146 A 
ATOM     11  O   UNL     1      39.720 -30.321   9.794  1.00  0.00    -0.452 OA
ENDROOT
BRANCH   1  12
ATOM     12  C   UNL     1      41.974 -30.918  10.411  1.00  0.00     0.021 A 
ATOM     13  C   UNL     1      42.654 -32.147  10.436  1.00  0.00     0.016 A 
ATOM     14  C   UNL     1      44.022 -32.206  10.150  1.00  0.00     0.047 A 
ATOM     15  C   UNL     1      44.723 -31.037   9.821  1.00  0.00     0.115 A 
ATOM     16  C   UNL     1      42.680 -29.753  10.061  1.00  0.00     0.016 A 
ATOM     17  C   UNL     1      44.047 -29.815   9.775  1.00  0.00     0.047 A 
BRANCH  15  18
ATOM     18  O   UNL     1      46.086 -31.083   9.536  1.00  0.00    -0.508 OA
ATOM     19  H   UNL     1      46.425 -31.229   8.593  1.00  0.00     0.293 HD
ENDBRANCH  15  18
ENDBRANCH   1  12
BRANCH   2  20
ATOM     20  O   UNL     1      40.795 -32.097  12.786  1.00  0.00    -0.502 OA
ATOM     21  H   UNL     1      40.523 -32.962  13.239  1.00  0.00     0.293 HD
ENDBRANCH   2  20
BRANCH   6  22
ATOM     22  O   UNL     1      35.708 -31.103  12.363  1.00  0.00    -0.507 OA
ATOM     23  H   UNL     1      34.700 -31.055  12.452  1.00  0.00     0.293 HD
ENDBRANCH   6  22
BRANCH   8  24
ATOM     24  O   UNL     1      35.500 -28.875   8.089  1.00  0.00    -0.508 OA
ATOM     25  H   UNL     1      34.722 -28.267   8.317  1.00  0.00     0.293 HD
ENDBRANCH   8  24
TORSDOF 5
ENDMDL
MODEL 7
REMARK VINA RESULT:    -3.217      2.092      2.948
REMARK INTER + INTRA:          -4.073
REMARK INTER:                  -4.273
REMARK INTRA:                   0.200
REMARK UNBOUND:                -0.292
REMARK SMILES O=c1c(O)c(-c2ccc(O)cc2)oc2cc(O)cc(O)c12
REMARK SMILES IDX 5 1 3 2 2 3 1 4 21 5 19 6 18 7 16 8 15 9 14 10 13 11 6 12
REMARK SMILES IDX 7 13 8 14 9 15 12 16 11 17 10 18 4 20 20 22 17 24
REMARK H PARENT 10 19 4 21 20 23 17 25
REMARK Flexibility Score: inf
ROOT
ATOM      1  C   UNL     1      38.850 -30.643  10.554  1.00  0.00     0.180 A 
ATOM      2  C   UNL     1      39.249 -29.832  11.634  1.00  0.00     0.208 A 
ATOM      3  C   UNL     1      40.546 -29.981  12.151  1.00  0.00     0.238 A 
ATOM      4  O   UNL     1      40.911 -29.267  13.125  1.00  0.00    -0.285 OA
ATOM      5  C   UNL     1      41.424 -30.919  11.571  1.00  0.00     0.111 A 
ATOM      6  C   UNL     1      42.747 -31.127  12.030  1.00  0.00     0.134 A 
ATOM      7  C   UNL     1      43.563 -32.074  11.393  1.00  0.00     0.093 A 
ATOM      8  C   UNL     1      43.084 -32.814  10.309  1.00  0.00     0.123 A 
ATOM      9  C   UNL     1      41.777 -32.613   9.852  1.00  0.00     0.094 A 
ATOM     10  C   UNL     1      40.948 -31.674  10.474  1.00  0.00     0.146 A 
ATOM     11  O   UNL     1      39.711 -31.506  10.023  1.00  0.00    -0.452 OA
ENDROOT
BRANCH   1  12
ATOM     12  C   UNL     1      37.494 -30.559   9.967  1.00  0.00     0.021 A 
ATOM     13  C   UNL     1      37.320 -30.798   8.593  1.00  0.00     0.016 A 
ATOM     14  C   UNL     1      36.045 -30.746   8.020  1.00  0.00     0.047 A 
ATOM     15  C   UNL     1      34.926 -30.470   8.817  1.00  0.00     0.115 A 
ATOM     16  C   UNL     1      36.363 -30.301  10.764  1.00  0.00     0.016 A 
ATOM     17  C   UNL     1      35.090 -30.251  10.188  1.00  0.00     0.047 A 
BRANCH  15  18
ATOM     18  O   UNL     1      33.652 -30.414   8.257  1.00  0.00    -0.508 OA
ATOM     19  H   UNL     1      32.875 -29.990   8.749  1.00  0.00     0.293 HD
ENDBRANCH  15  18
ENDBRANCH   1  12
BRANCH   2  20
ATOM     20  O   UNL     1      38.376 -28.875  12.159  1.00  0.00    -0.502 OA
ATOM     21  H   UNL     1      37.480 -28.667  11.735  1.00  0.00     0.293 HD
ENDBRANCH   2  20
BRANCH   6  22
ATOM     22  O   UNL     1      43.256 -30.404  13.109  1.00  0.00    -0.507 OA
ATOM     23  H   UNL     1      43.757 -30.855  13.866  1.00  0.00     0.293 HD
ENDBRANCH   6  22
BRANCH   8  24
ATOM     24  O   UNL     1      43.915 -33.747   9.694  1.00  0.00    -0.508 OA
ATOM     25  H   UNL     1      43.543 -34.474   9.095  1.00  0.00     0.293 HD
ENDBRANCH   8  24
TORSDOF 5
ENDMDL
MODEL 8
REMARK VINA RESULT:    -2.945      1.834      2.498
REMARK INTER + INTRA:          -3.755
REMARK INTER:                  -4.327
REMARK INTRA:                   0.573
REMARK UNBOUND:                -0.292
REMARK SMILES O=c1c(O)c(-c2ccc(O)cc2)oc2cc(O)cc(O)c12
REMARK SMILES IDX 5 1 3 2 2 3 1 4 21 5 19 6 18 7 16 8 15 9 14 10 13 11 6 12
REMARK SMILES IDX 7 13 8 14 9 15 12 16 11 17 10 18 4 20 20 22 17 24
REMARK H PARENT 10 19 4 21 20 23 17 25
REMARK Flexibility Score: inf
ROOT
ATOM      1  C   UNL     1      38.935 -30.637  11.335  1.00  0.00     0.180 A 
ATOM      2  C   UNL     1      39.332 -29.761  10.307  1.00  0.00     0.208 A 
ATOM      3  C   UNL     1      40.697 -29.665   9.989  1.00  0.00     0.238 A 
ATOM      4  O   UNL     1      41.067 -28.875   9.077  1.00  0.00    -0.285 OA
ATOM      5  C   UNL     1      41.633 -30.455  10.687  1.00  0.00     0.111 A 
ATOM      6  C   UNL     1      43.024 -30.420  10.425  1.00  0.00     0.134 A 
ATOM      7  C   UNL     1      43.890 -31.245  11.157  1.00  0.00     0.093 A 
ATOM      8  C   UNL     1      43.395 -32.103  12.142  1.00  0.00     0.123 A 
ATOM      9  C   UNL     1      42.022 -32.141  12.406  1.00  0.00     0.094 A 
ATOM     10  C   UNL     1      41.142 -31.325  11.687  1.00  0.00     0.146 A 
ATOM     11  O   UNL     1      39.844 -31.378  11.961  1.00  0.00    -0.452 OA
ENDROOT
BRANCH   1  12
ATOM     12  C   UNL     1      37.518 -30.780  11.741  1.00  0.00     0.021 A 
ATOM     13  C   UNL     1      36.525 -30.072  11.044  1.00  0.00     0.016 A 
ATOM     14  C   UNL     1      35.178 -30.209  11.396  1.00  0.00     0.047 A 
ATOM     15  C   UNL     1      34.807 -31.067  12.440  1.00  0.00     0.115 A 
ATOM     16  C   UNL     1      37.136 -31.654  12.776  1.00  0.00     0.016 A 
ATOM     17  C   UNL     1      35.789 -31.789  13.125  1.00  0.00     0.047 A 
BRANCH  15  18
ATOM     18  O   UNL     1      33.469 -31.211  12.800  1.00  0.00    -0.508 OA
ATOM     19  H   UNL     1      32.955 -32.060  12.601  1.00  0.00     0.293 HD
ENDBRANCH  15  18
ENDBRANCH   1  12
BRANCH   2  20
ATOM     20  O   UNL     1      38.380 -29.025   9.597  1.00  0.00    -0.502 OA
ATOM     21  H   UNL     1      37.510 -29.432   9.274  1.00  0.00     0.293 HD
ENDBRANCH   2  20
BRANCH   6  22
ATOM     22  O   UNL     1      43.550 -29.575   9.446  1.00  0.00    -0.507 OA
ATOM     23  H   UNL     1      44.549 -29.461   9.321  1.00  0.00     0.293 HD
ENDBRANCH   6  22
BRANCH   8  24
ATOM     24  O   UNL     1      44.277 -32.913  12.854  1.00  0.00    -0.508 OA
ATOM     25  H   UNL     1      43.958 -33.505  13.612  1.00  0.00     0.293 HD
ENDBRANCH   8  24
TORSDOF 5
ENDMDL
