MODEL 1
REMARK VINA RESULT:    -4.189      0.000      0.000
REMARK INTER + INTRA:          -7.883
REMARK INTER:                  -7.128
REMARK INTRA:                  -0.755
REMARK UNBOUND:                -0.755
REMARK SMILES CCCCCCCCCCCCCC(=O)[O-]
REMARK SMILES IDX 8 1 9 2 10 3 11 4 12 5 13 6 14 7 15 8 16 9 7 10 6 11 5 12
REMARK SMILES IDX 4 13 3 14 2 15 1 16
REMARK H PARENT
REMARK Flexibility Score: inf
ROOT
ATOM      1  C   UNL     1      24.658  19.111  26.076  1.00  0.00     0.000 C 
ENDROOT
BRANCH   1   2
ATOM      2  C   UNL     1      25.633  19.701  25.046  1.00  0.00     0.000 C 
BRANCH   2   3
ATOM      3  C   UNL     1      26.463  20.869  25.608  1.00  0.00     0.000 C 
BRANCH   3   4
ATOM      4  C   UNL     1      27.992  20.699  25.497  1.00  0.00     0.000 C 
BRANCH   4   5
ATOM      5  C   UNL     1      28.458  19.528  24.609  1.00  0.00     0.006 C 
BRANCH   5   6
ATOM      6  C   UNL     1      28.841  19.932  23.178  1.00  0.00     0.053 C 
BRANCH   6   7
ATOM      7  C   UNL     1      30.303  19.744  22.914  1.00  0.00     0.041 C 
ATOM      8  O   UNL     1      30.840  20.283  21.910  1.00  0.00    -0.550 OA
ATOM      9  O   UNL     1      31.066  18.946  23.757  1.00  0.00    -0.550 OA
ENDBRANCH   6   7
ENDBRANCH   5   6
ENDBRANCH   4   5
ENDBRANCH   3   4
ENDBRANCH   2   3
ENDBRANCH   1   2
BRANCH   1  10
ATOM     10  C   UNL     1      23.228  19.612  25.825  1.00  0.00     0.000 C 
BRANCH  10  11
ATOM     11  C   UNL     1      22.586  20.229  27.079  1.00  0.00    -0.000 C 
BRANCH  11  12
ATOM     12  C   UNL     1      22.276  21.726  26.909  1.00  0.00    -0.000 C 
BRANCH  12  13
ATOM     13  C   UNL     1      23.544  22.572  26.705  1.00  0.00    -0.000 C 
BRANCH  13  14
ATOM     14  C   UNL     1      23.296  24.073  26.916  1.00  0.00    -0.000 C 
BRANCH  14  15
ATOM     15  C   UNL     1      24.525  24.748  27.538  1.00  0.00    -0.003 C 
ATOM     16  C   UNL     1      25.318  25.525  26.492  1.00  0.00     0.004 C 
ENDBRANCH  14  15
ENDBRANCH  13  14
ENDBRANCH  12  13
ENDBRANCH  11  12
ENDBRANCH  10  11
ENDBRANCH   1  10
TORSDOF 12
ENDMDL
MODEL 2
REMARK VINA RESULT:    -4.047      0.803      1.186
REMARK INTER + INTRA:          -7.641
REMARK INTER:                  -6.759
REMARK INTRA:                  -0.882
REMARK UNBOUND:                -0.755
REMARK SMILES CCCCCCCCCCCCCC(=O)[O-]
REMARK SMILES IDX 8 1 9 2 10 3 11 4 12 5 13 6 14 7 15 8 16 9 7 10 6 11 5 12
REMARK SMILES IDX 4 13 3 14 2 15 1 16
REMARK H PARENT
REMARK Flexibility Score: inf
ROOT
ATOM      1  C   UNL     1      24.911  19.010  26.194  1.00  0.00     0.000 C 
ENDROOT
BRANCH   1   2
ATOM      2  C   UNL     1      26.215  19.176  25.398  1.00  0.00     0.000 C 
BRANCH   2   3
ATOM      3  C   UNL     1      26.862  20.559  25.593  1.00  0.00     0.000 C 
BRANCH   3   4
ATOM      4  C   UNL     1      28.166  20.789  24.801  1.00  0.00     0.000 C 
BRANCH   4   5
ATOM      5  C   UNL     1      28.344  19.894  23.558  1.00  0.00     0.006 C 
BRANCH   5   6
ATOM      6  C   UNL     1      29.655  19.095  23.535  1.00  0.00     0.053 C 
BRANCH   6   7
ATOM      7  C   UNL     1      30.627  19.639  22.534  1.00  0.00     0.041 C 
ATOM      8  O   UNL     1      31.512  18.891  22.038  1.00  0.00    -0.550 OA
ATOM      9  O   UNL     1      30.578  20.980  22.173  1.00  0.00    -0.550 OA
ENDBRANCH   6   7
ENDBRANCH   5   6
ENDBRANCH   4   5
ENDBRANCH   3   4
ENDBRANCH   2   3
ENDBRANCH   1   2
BRANCH   1  10
ATOM     10  C   UNL     1      23.704  18.904  25.250  1.00  0.00     0.000 C 
BRANCH  10  11
ATOM     11  C   UNL     1      22.599  19.919  25.583  1.00  0.00    -0.000 C 
BRANCH  11  12
ATOM     12  C   UNL     1      22.847  20.648  26.915  1.00  0.00    -0.000 C 
BRANCH  12  13
ATOM     13  C   UNL     1      22.684  22.172  26.794  1.00  0.00    -0.000 C 
BRANCH  13  14
ATOM     14  C   UNL     1      24.029  22.907  26.701  1.00  0.00    -0.000 C 
BRANCH  14  15
ATOM     15  C   UNL     1      23.931  24.308  27.319  1.00  0.00    -0.003 C 
ATOM     16  C   UNL     1      24.891  25.280  26.640  1.00  0.00     0.004 C 
ENDBRANCH  14  15
ENDBRANCH  13  14
ENDBRANCH  12  13
ENDBRANCH  11  12
ENDBRANCH  10  11
ENDBRANCH   1  10
TORSDOF 12
ENDMDL
MODEL 3
REMARK VINA RESULT:    -3.928     20.213     22.235
REMARK INTER + INTRA:          -7.439
REMARK INTER:                  -6.926
REMARK INTRA:                  -0.513
REMARK UNBOUND:                -0.755
REMARK SMILES CCCCCCCCCCCCCC(=O)[O-]
REMARK SMILES IDX 8 1 9 2 10 3 11 4 12 5 13 6 14 7 15 8 16 9 7 10 6 11 5 12
REMARK SMILES IDX 4 13 3 14 2 15 1 16
REMARK H PARENT
REMARK Flexibility Score: inf
ROOT
ATOM      1  C   UNL     1      17.308  33.653  10.969  1.00  0.00     0.000 C 
ENDROOT
BRANCH   1   2
ATOM      2  C   UNL     1      15.796  33.741  10.713  1.00  0.00     0.000 C 
BRANCH   2   3
ATOM      3  C   UNL     1      14.958  33.213  11.892  1.00  0.00     0.000 C 
BRANCH   3   4
ATOM      4  C   UNL     1      13.475  32.938  11.570  1.00  0.00     0.000 C 
BRANCH   4   5
ATOM      5  C   UNL     1      13.065  31.452  11.589  1.00  0.00     0.006 C 
BRANCH   5   6
ATOM      6  C   UNL     1      14.209  30.483  11.921  1.00  0.00     0.053 C 
BRANCH   6   7
ATOM      7  C   UNL     1      13.700  29.151  12.379  1.00  0.00     0.041 C 
ATOM      8  O   UNL     1      13.329  28.291  11.537  1.00  0.00    -0.550 OA
ATOM      9  O   UNL     1      13.603  28.871  13.737  1.00  0.00    -0.550 OA
ENDBRANCH   6   7
ENDBRANCH   5   6
ENDBRANCH   4   5
ENDBRANCH   3   4
ENDBRANCH   2   3
ENDBRANCH   1   2
BRANCH   1  10
ATOM     10  C   UNL     1      18.091  34.405   9.883  1.00  0.00     0.000 C 
BRANCH  10  11
ATOM     11  C   UNL     1      19.448  34.927  10.383  1.00  0.00    -0.000 C 
BRANCH  11  12
ATOM     12  C   UNL     1      19.724  36.374   9.940  1.00  0.00    -0.000 C 
BRANCH  12  13
ATOM     13  C   UNL     1      20.287  37.242  11.078  1.00  0.00    -0.000 C 
BRANCH  13  14
ATOM     14  C   UNL     1      19.890  38.720  10.950  1.00  0.00    -0.000 C 
BRANCH  14  15
ATOM     15  C   UNL     1      18.717  39.054  11.880  1.00  0.00    -0.003 C 
ATOM     16  C   UNL     1      17.402  39.121  11.110  1.00  0.00     0.004 C 
ENDBRANCH  14  15
ENDBRANCH  13  14
ENDBRANCH  12  13
ENDBRANCH  11  12
ENDBRANCH  10  11
ENDBRANCH   1  10
TORSDOF 12
ENDMDL
MODEL 4
REMARK VINA RESULT:    -3.904      3.393      6.840
REMARK INTER + INTRA:          -7.397
REMARK INTER:                  -6.490
REMARK INTRA:                  -0.908
REMARK UNBOUND:                -0.755
REMARK SMILES CCCCCCCCCCCCCC(=O)[O-]
REMARK SMILES IDX 8 1 9 2 10 3 11 4 12 5 13 6 14 7 15 8 16 9 7 10 6 11 5 12
REMARK SMILES IDX 4 13 3 14 2 15 1 16
REMARK H PARENT
REMARK Flexibility Score: inf
ROOT
ATOM      1  C   UNL     1      25.491  19.380  26.175  1.00  0.00     0.000 C 
ENDROOT
BRANCH   1   2
ATOM      2  C   UNL     1      24.041  18.932  26.412  1.00  0.00     0.000 C 
BRANCH   2   3
ATOM      3  C   UNL     1      23.008  19.944  25.885  1.00  0.00     0.000 C 
BRANCH   3   4
ATOM      4  C   UNL     1      22.304  20.785  26.969  1.00  0.00     0.000 C 
BRANCH   4   5
ATOM      5  C   UNL     1      22.567  22.302  26.896  1.00  0.00     0.006 C 
BRANCH   5   6
ATOM      6  C   UNL     1      24.025  22.679  26.592  1.00  0.00     0.053 C 
BRANCH   6   7
ATOM      7  C   UNL     1      24.264  24.151  26.727  1.00  0.00     0.041 C 
ATOM      8  O   UNL     1      24.206  24.701  27.859  1.00  0.00    -0.550 OA
ATOM      9  O   UNL     1      24.517  24.923  25.600  1.00  0.00    -0.550 OA
ENDBRANCH   6   7
ENDBRANCH   5   6
ENDBRANCH   4   5
ENDBRANCH   3   4
ENDBRANCH   2   3
ENDBRANCH   1   2
BRANCH   1  10
ATOM     10  C   UNL     1      25.668  19.930  24.752  1.00  0.00     0.000 C 
BRANCH  10  11
ATOM     11  C   UNL     1      27.119  19.827  24.252  1.00  0.00    -0.000 C 
BRANCH  11  12
ATOM     12  C   UNL     1      28.070  20.778  24.999  1.00  0.00    -0.000 C 
BRANCH  12  13
ATOM     13  C   UNL     1      29.527  20.647  24.525  1.00  0.00    -0.000 C 
BRANCH  13  14
ATOM     14  C   UNL     1      29.873  19.229  24.050  1.00  0.00    -0.000 C 
BRANCH  14  15
ATOM     15  C   UNL     1      30.543  19.261  22.671  1.00  0.00    -0.003 C 
ATOM     16  C   UNL     1      30.645  20.688  22.140  1.00  0.00     0.004 C 
ENDBRANCH  14  15
ENDBRANCH  13  14
ENDBRANCH  12  13
ENDBRANCH  11  12
ENDBRANCH  10  11
ENDBRANCH   1  10
TORSDOF 12
ENDMDL
MODEL 5
REMARK VINA RESULT:    -3.478     20.614     22.463
REMARK INTER + INTRA:          -6.673
REMARK INTER:                  -6.230
REMARK INTRA:                  -0.443
REMARK UNBOUND:                -0.755
REMARK SMILES CCCCCCCCCCCCCC(=O)[O-]
REMARK SMILES IDX 8 1 9 2 10 3 11 4 12 5 13 6 14 7 15 8 16 9 7 10 6 11 5 12
REMARK SMILES IDX 4 13 3 14 2 15 1 16
REMARK H PARENT
REMARK Flexibility Score: inf
ROOT
ATOM      1  C   UNL     1      16.284  33.530  11.157  1.00  0.00     0.000 C 
ENDROOT
BRANCH   1   2
ATOM      2  C   UNL     1      17.751  33.923  10.924  1.00  0.00     0.000 C 
BRANCH   2   3
ATOM      3  C   UNL     1      17.912  35.038   9.875  1.00  0.00     0.000 C 
BRANCH   3   4
ATOM      4  C   UNL     1      17.180  36.356  10.204  1.00  0.00     0.000 C 
BRANCH   4   5
ATOM      5  C   UNL     1      18.037  37.631  10.075  1.00  0.00     0.006 C 
BRANCH   5   6
ATOM      6  C   UNL     1      19.538  37.369   9.880  1.00  0.00     0.053 C 
BRANCH   6   7
ATOM      7  C   UNL     1      20.374  38.160  10.837  1.00  0.00     0.041 C 
ATOM      8  O   UNL     1      21.422  38.735  10.438  1.00  0.00    -0.550 OA
ATOM      9  O   UNL     1      20.018  38.235  12.178  1.00  0.00    -0.550 OA
ENDBRANCH   6   7
ENDBRANCH   5   6
ENDBRANCH   4   5
ENDBRANCH   3   4
ENDBRANCH   2   3
ENDBRANCH   1   2
BRANCH   1  10
ATOM     10  C   UNL     1      15.458  33.713   9.875  1.00  0.00     0.000 C 
BRANCH  10  11
ATOM     11  C   UNL     1      13.953  33.854  10.154  1.00  0.00    -0.000 C 
BRANCH  11  12
ATOM     12  C   UNL     1      13.593  33.559  11.621  1.00  0.00    -0.000 C 
BRANCH  12  13
ATOM     13  C   UNL     1      12.893  32.201  11.795  1.00  0.00    -0.000 C 
BRANCH  13  14
ATOM     14  C   UNL     1      13.883  31.041  11.975  1.00  0.00    -0.000 C 
BRANCH  14  15
ATOM     15  C   UNL     1      13.142  29.723  12.230  1.00  0.00    -0.003 C 
ATOM     16  C   UNL     1      13.892  28.853  13.235  1.00  0.00     0.004 C 
ENDBRANCH  14  15
ENDBRANCH  13  14
ENDBRANCH  12  13
ENDBRANCH  11  12
ENDBRANCH  10  11
ENDBRANCH   1  10
TORSDOF 12
ENDMDL
MODEL 6
REMARK VINA RESULT:    -3.440      1.145      1.798
REMARK INTER + INTRA:          -6.608
REMARK INTER:                  -5.693
REMARK INTRA:                  -0.915
REMARK UNBOUND:                -0.755
REMARK SMILES CCCCCCCCCCCCCC(=O)[O-]
REMARK SMILES IDX 8 1 9 2 10 3 11 4 12 5 13 6 14 7 15 8 16 9 7 10 6 11 5 12
REMARK SMILES IDX 4 13 3 14 2 15 1 16
REMARK H PARENT
REMARK Flexibility Score: inf
ROOT
ATOM      1  C   UNL     1      26.358  20.476  25.998  1.00  0.00     0.000 C 
ENDROOT
BRANCH   1   2
ATOM      2  C   UNL     1      26.385  20.612  24.468  1.00  0.00     0.000 C 
BRANCH   2   3
ATOM      3  C   UNL     1      27.365  19.633  23.798  1.00  0.00     0.000 C 
BRANCH   3   4
ATOM      4  C   UNL     1      28.421  19.016  24.739  1.00  0.00     0.000 C 
BRANCH   4   5
ATOM      5  C   UNL     1      29.833  18.876  24.137  1.00  0.00     0.006 C 
BRANCH   5   6
ATOM      6  C   UNL     1      29.879  18.955  22.604  1.00  0.00     0.053 C 
BRANCH   6   7
ATOM      7  C   UNL     1      30.996  19.828  22.121  1.00  0.00     0.041 C 
ATOM      8  O   UNL     1      30.798  21.054  21.912  1.00  0.00    -0.550 OA
ATOM      9  O   UNL     1      32.248  19.281  21.867  1.00  0.00    -0.550 OA
ENDBRANCH   6   7
ENDBRANCH   5   6
ENDBRANCH   4   5
ENDBRANCH   3   4
ENDBRANCH   2   3
ENDBRANCH   1   2
BRANCH   1  10
ATOM     10  C   UNL     1      25.194  19.580  26.447  1.00  0.00     0.000 C 
BRANCH  10  11
ATOM     11  C   UNL     1      23.917  19.806  25.621  1.00  0.00    -0.000 C 
BRANCH  11  12
ATOM     12  C   UNL     1      22.653  19.884  26.495  1.00  0.00    -0.000 C 
BRANCH  12  13
ATOM     13  C   UNL     1      22.517  21.234  27.218  1.00  0.00    -0.000 C 
BRANCH  13  14
ATOM     14  C   UNL     1      23.022  22.413  26.374  1.00  0.00    -0.000 C 
BRANCH  14  15
ATOM     15  C   UNL     1      24.220  23.095  27.046  1.00  0.00    -0.003 C 
ATOM     16  C   UNL     1      24.012  24.603  27.149  1.00  0.00     0.004 C 
ENDBRANCH  14  15
ENDBRANCH  13  14
ENDBRANCH  12  13
ENDBRANCH  11  12
ENDBRANCH  10  11
ENDBRANCH   1  10
TORSDOF 12
ENDMDL
MODEL 7
REMARK VINA RESULT:    -3.198      3.431      6.571
REMARK INTER + INTRA:          -6.196
REMARK INTER:                  -5.600
REMARK INTRA:                  -0.596
REMARK UNBOUND:                -0.755
REMARK SMILES CCCCCCCCCCCCCC(=O)[O-]
REMARK SMILES IDX 8 1 9 2 10 3 11 4 12 5 13 6 14 7 15 8 16 9 7 10 6 11 5 12
REMARK SMILES IDX 4 13 3 14 2 15 1 16
REMARK H PARENT
REMARK Flexibility Score: inf
ROOT
ATOM      1  C   UNL     1      25.638  19.960  25.813  1.00  0.00     0.000 C 
ENDROOT
BRANCH   1   2
ATOM      2  C   UNL     1      24.379  19.427  26.512  1.00  0.00     0.000 C 
BRANCH   2   3
ATOM      3  C   UNL     1      23.078  19.997  25.918  1.00  0.00     0.000 C 
BRANCH   3   4
ATOM      4  C   UNL     1      22.182  20.759  26.916  1.00  0.00     0.000 C 
BRANCH   4   5
ATOM      5  C   UNL     1      22.601  22.216  27.192  1.00  0.00     0.006 C 
BRANCH   5   6
ATOM      6  C   UNL     1      23.762  22.718  26.320  1.00  0.00     0.053 C 
BRANCH   6   7
ATOM      7  C   UNL     1      24.170  24.114  26.678  1.00  0.00     0.041 C 
ATOM      8  O   UNL     1      23.996  24.544  27.849  1.00  0.00    -0.550 OA
ATOM      9  O   UNL     1      24.710  24.952  25.711  1.00  0.00    -0.550 OA
ENDBRANCH   6   7
ENDBRANCH   5   6
ENDBRANCH   4   5
ENDBRANCH   3   4
ENDBRANCH   2   3
ENDBRANCH   1   2
BRANCH   1  10
ATOM     10  C   UNL     1      26.271  18.878  24.925  1.00  0.00     0.000 C 
BRANCH  10  11
ATOM     11  C   UNL     1      25.968  19.083  23.432  1.00  0.00    -0.000 C 
BRANCH  11  12
ATOM     12  C   UNL     1      27.240  19.305  22.596  1.00  0.00    -0.000 C 
BRANCH  12  13
ATOM     13  C   UNL     1      28.527  19.109  23.414  1.00  0.00    -0.000 C 
BRANCH  13  14
ATOM     14  C   UNL     1      29.629  20.108  23.036  1.00  0.00    -0.000 C 
BRANCH  14  15
ATOM     15  C   UNL     1      30.088  20.909  24.261  1.00  0.00    -0.003 C 
ATOM     16  C   UNL     1      28.924  21.183  25.209  1.00  0.00     0.004 C 
ENDBRANCH  14  15
ENDBRANCH  13  14
ENDBRANCH  12  13
ENDBRANCH  11  12
ENDBRANCH  10  11
ENDBRANCH   1  10
TORSDOF 12
ENDMDL
MODEL 8
REMARK VINA RESULT:    -3.179      1.342      1.952
REMARK INTER + INTRA:          -6.164
REMARK INTER:                  -5.333
REMARK INTRA:                  -0.830
REMARK UNBOUND:                -0.755
REMARK SMILES CCCCCCCCCCCCCC(=O)[O-]
REMARK SMILES IDX 8 1 9 2 10 3 11 4 12 5 13 6 14 7 15 8 16 9 7 10 6 11 5 12
REMARK SMILES IDX 4 13 3 14 2 15 1 16
REMARK H PARENT
REMARK Flexibility Score: inf
ROOT
ATOM      1  C   UNL     1      25.591  19.538  26.306  1.00  0.00     0.000 C 
ENDROOT
BRANCH   1   2
ATOM      2  C   UNL     1      25.678  20.024  24.852  1.00  0.00     0.000 C 
BRANCH   2   3
ATOM      3  C   UNL     1      25.881  18.875  23.848  1.00  0.00     0.000 C 
BRANCH   3   4
ATOM      4  C   UNL     1      26.517  19.285  22.503  1.00  0.00     0.000 C 
BRANCH   4   5
ATOM      5  C   UNL     1      28.053  19.409  22.516  1.00  0.00     0.006 C 
BRANCH   5   6
ATOM      6  C   UNL     1      28.705  19.074  23.866  1.00  0.00     0.053 C 
BRANCH   6   7
ATOM      7  C   UNL     1      29.446  20.244  24.437  1.00  0.00     0.041 C 
ATOM      8  O   UNL     1      28.853  21.065  25.187  1.00  0.00    -0.550 OA
ATOM      9  O   UNL     1      30.781  20.449  24.113  1.00  0.00    -0.550 OA
ENDBRANCH   6   7
ENDBRANCH   5   6
ENDBRANCH   4   5
ENDBRANCH   3   4
ENDBRANCH   2   3
ENDBRANCH   1   2
BRANCH   1  10
ATOM     10  C   UNL     1      24.203  18.953  26.606  1.00  0.00     0.000 C 
BRANCH  10  11
ATOM     11  C   UNL     1      23.060  19.840  26.085  1.00  0.00    -0.000 C 
BRANCH  11  12
ATOM     12  C   UNL     1      22.258  20.498  27.221  1.00  0.00    -0.000 C 
BRANCH  12  13
ATOM     13  C   UNL     1      22.225  22.031  27.110  1.00  0.00    -0.000 C 
BRANCH  13  14
ATOM     14  C   UNL     1      23.601  22.632  26.790  1.00  0.00    -0.000 C 
BRANCH  14  15
ATOM     15  C   UNL     1      23.530  24.164  26.735  1.00  0.00    -0.003 C 
ATOM     16  C   UNL     1      24.899  24.789  26.983  1.00  0.00     0.004 C 
ENDBRANCH  14  15
ENDBRANCH  13  14
ENDBRANCH  12  13
ENDBRANCH  11  12
ENDBRANCH  10  11
ENDBRANCH   1  10
TORSDOF 12
ENDMDL
MODEL 9
REMARK VINA RESULT:    -2.706      1.378      3.304
REMARK INTER + INTRA:          -5.360
REMARK INTER:                  -4.284
REMARK INTRA:                  -1.076
REMARK UNBOUND:                -0.755
REMARK SMILES CCCCCCCCCCCCCC(=O)[O-]
REMARK SMILES IDX 8 1 9 2 10 3 11 4 12 5 13 6 14 7 15 8 16 9 7 10 6 11 5 12
REMARK SMILES IDX 4 13 3 14 2 15 1 16
REMARK H PARENT
REMARK Flexibility Score: inf
ROOT
ATOM      1  C   UNL     1      26.198  21.399  26.224  1.00  0.00     0.000 C 
ENDROOT
BRANCH   1   2
ATOM      2  C   UNL     1      26.360  19.874  26.315  1.00  0.00     0.000 C 
BRANCH   2   3
ATOM      3  C   UNL     1      25.550  19.122  25.244  1.00  0.00     0.000 C 
BRANCH   3   4
ATOM      4  C   UNL     1      26.179  19.113  23.835  1.00  0.00     0.000 C 
BRANCH   4   5
ATOM      5  C   UNL     1      27.711  18.947  23.802  1.00  0.00     0.006 C 
BRANCH   5   6
ATOM      6  C   UNL     1      28.448  20.024  22.991  1.00  0.00     0.053 C 
BRANCH   6   7
ATOM      7  C   UNL     1      29.935  19.869  23.074  1.00  0.00     0.041 C 
ATOM      8  O   UNL     1      30.677  20.399  22.204  1.00  0.00    -0.550 OA
ATOM      9  O   UNL     1      30.501  19.109  24.090  1.00  0.00    -0.550 OA
ENDBRANCH   6   7
ENDBRANCH   5   6
ENDBRANCH   4   5
ENDBRANCH   3   4
ENDBRANCH   2   3
ENDBRANCH   1   2
BRANCH   1  10
ATOM     10  C   UNL     1      24.800  21.772  25.710  1.00  0.00     0.000 C 
BRANCH  10  11
ATOM     11  C   UNL     1      23.989  22.586  26.732  1.00  0.00    -0.000 C 
BRANCH  11  12
ATOM     12  C   UNL     1      22.646  21.923  27.084  1.00  0.00    -0.000 C 
BRANCH  12  13
ATOM     13  C   UNL     1      22.571  20.459  26.622  1.00  0.00    -0.000 C 
BRANCH  13  14
ATOM     14  C   UNL     1      22.512  19.469  27.794  1.00  0.00    -0.000 C 
BRANCH  14  15
ATOM     15  C   UNL     1      21.445  19.888  28.812  1.00  0.00    -0.003 C 
ATOM     16  C   UNL     1      21.337  18.875  29.948  1.00  0.00     0.004 C 
ENDBRANCH  14  15
ENDBRANCH  13  14
ENDBRANCH  12  13
ENDBRANCH  11  12
ENDBRANCH  10  11
ENDBRANCH   1  10
TORSDOF 12
ENDMDL
