MODEL 1
REMARK VINA RESULT:    -6.772      0.000      0.000
REMARK INTER + INTRA:         -19.368
REMARK INTER:                 -17.064
REMARK INTRA:                  -2.304
REMARK UNBOUND:                -2.304
REMARK SMILES CCCCCCCCCCCCCCCCCCCCCCCCCCCC(=O)[O-]
REMARK SMILES IDX 15 1 16 2 17 3 18 4 19 5 20 6 21 7 22 8 23 9 24 10 25 11
REMARK SMILES IDX 26 12 27 13 28 14 29 15 30 16 14 17 13 18 12 19 11 20 10 21
REMARK SMILES IDX 9 22 8 23 7 24 6 25 5 26 4 27 3 28 2 29 1 30
REMARK H PARENT
REMARK Flexibility Score: inf
ROOT
ATOM      1  C   UNL     1     -21.208 -21.867  32.148  1.00  0.00     0.000 C 
ENDROOT
BRANCH   1   2
ATOM      2  C   UNL     1     -22.708 -22.153  32.301  1.00  0.00     0.000 C 
BRANCH   2   3
ATOM      3  C   UNL     1     -23.156 -23.419  31.548  1.00  0.00     0.000 C 
BRANCH   3   4
ATOM      4  C   UNL     1     -22.216 -23.869  30.412  1.00  0.00     0.000 C 
BRANCH   4   5
ATOM      5  C   UNL     1     -22.909 -24.147  29.064  1.00  0.00     0.000 C 
BRANCH   5   6
ATOM      6  C   UNL     1     -23.555 -25.542  28.940  1.00  0.00     0.000 C 
BRANCH   6   7
ATOM      7  C   UNL     1     -25.019 -25.624  29.411  1.00  0.00     0.000 C 
BRANCH   7   8
ATOM      8  C   UNL     1     -25.209 -26.064  30.876  1.00  0.00     0.000 C 
BRANCH   8   9
ATOM      9  C   UNL     1     -25.184 -27.588  31.106  1.00  0.00     0.000 C 
BRANCH   9  10
ATOM     10  C   UNL     1     -26.482 -28.324  30.722  1.00  0.00     0.000 C 
BRANCH  10  11
ATOM     11  C   UNL     1     -26.387 -29.190  29.449  1.00  0.00     0.000 C 
BRANCH  11  12
ATOM     12  C   UNL     1     -27.245 -28.704  28.263  1.00  0.00     0.006 C 
BRANCH  12  13
ATOM     13  C   UNL     1     -26.448 -28.042  27.126  1.00  0.00     0.053 C 
BRANCH  13  14
ATOM     14  C   UNL     1     -26.761 -28.650  25.794  1.00  0.00     0.041 C 
ATOM     15  O   UNL     1     -25.829 -29.007  25.026  1.00  0.00    -0.550 OA
ATOM     16  O   UNL     1     -28.081 -28.871  25.421  1.00  0.00    -0.550 OA
ENDBRANCH  13  14
ENDBRANCH  12  13
ENDBRANCH  11  12
ENDBRANCH  10  11
ENDBRANCH   9  10
ENDBRANCH   8   9
ENDBRANCH   7   8
ENDBRANCH   6   7
ENDBRANCH   5   6
ENDBRANCH   4   5
ENDBRANCH   3   4
ENDBRANCH   2   3
ENDBRANCH   1   2
BRANCH   1  17
ATOM     17  C   UNL     1     -20.959 -20.375  31.878  1.00  0.00     0.000 C 
BRANCH  17  18
ATOM     18  C   UNL     1     -21.947 -19.781  30.857  1.00  0.00     0.000 C 
BRANCH  18  19
ATOM     19  C   UNL     1     -21.698 -20.193  29.390  1.00  0.00     0.000 C 
BRANCH  19  20
ATOM     20  C   UNL     1     -21.178 -19.071  28.469  1.00  0.00     0.000 C 
BRANCH  20  21
ATOM     21  C   UNL     1     -20.761 -17.777  29.194  1.00  0.00     0.000 C 
BRANCH  21  22
ATOM     22  C   UNL     1     -19.331 -17.848  29.754  1.00  0.00    -0.000 C 
BRANCH  22  23
ATOM     23  C   UNL     1     -19.072 -16.806  30.853  1.00  0.00    -0.000 C 
BRANCH  23  24
ATOM     24  C   UNL     1     -17.940 -15.824  30.495  1.00  0.00    -0.000 C 
BRANCH  24  25
ATOM     25  C   UNL     1     -18.189 -15.094  29.158  1.00  0.00    -0.000 C 
BRANCH  25  26
ATOM     26  C   UNL     1     -17.184 -15.456  28.046  1.00  0.00    -0.000 C 
BRANCH  26  27
ATOM     27  C   UNL     1     -17.808 -16.037  26.766  1.00  0.00    -0.000 C 
BRANCH  27  28
ATOM     28  C   UNL     1     -17.638 -15.117  25.548  1.00  0.00    -0.000 C 
BRANCH  28  29
ATOM     29  C   UNL     1     -16.156 -14.942  25.194  1.00  0.00    -0.003 C 
ATOM     30  C   UNL     1     -15.649 -16.114  24.357  1.00  0.00     0.004 C 
ENDBRANCH  28  29
ENDBRANCH  27  28
ENDBRANCH  26  27
ENDBRANCH  25  26
ENDBRANCH  24  25
ENDBRANCH  23  24
ENDBRANCH  22  23
ENDBRANCH  21  22
ENDBRANCH  20  21
ENDBRANCH  19  20
ENDBRANCH  18  19
ENDBRANCH  17  18
ENDBRANCH   1  17
TORSDOF 26
ENDMDL
MODEL 2
REMARK VINA RESULT:    -6.723      4.334     12.355
REMARK INTER + INTRA:         -19.245
REMARK INTER:                 -17.056
REMARK INTRA:                  -2.189
REMARK UNBOUND:                -2.304
REMARK SMILES CCCCCCCCCCCCCCCCCCCCCCCCCCCC(=O)[O-]
REMARK SMILES IDX 15 1 16 2 17 3 18 4 19 5 20 6 21 7 22 8 23 9 24 10 25 11
REMARK SMILES IDX 26 12 27 13 28 14 29 15 30 16 14 17 13 18 12 19 11 20 10 21
REMARK SMILES IDX 9 22 8 23 7 24 6 25 5 26 4 27 3 28 2 29 1 30
REMARK H PARENT
REMARK Flexibility Score: inf
ROOT
ATOM      1  C   UNL     1     -21.811 -21.867  32.185  1.00  0.00     0.000 C 
ENDROOT
BRANCH   1   2
ATOM      2  C   UNL     1     -21.825 -20.452  31.590  1.00  0.00     0.000 C 
BRANCH   2   3
ATOM      3  C   UNL     1     -22.459 -20.398  30.188  1.00  0.00     0.000 C 
BRANCH   3   4
ATOM      4  C   UNL     1     -21.465 -20.180  29.030  1.00  0.00     0.000 C 
BRANCH   4   5
ATOM      5  C   UNL     1     -20.875 -18.759  28.935  1.00  0.00     0.000 C 
BRANCH   5   6
ATOM      6  C   UNL     1     -19.396 -18.641  29.354  1.00  0.00     0.000 C 
BRANCH   6   7
ATOM      7  C   UNL     1     -19.155 -18.557  30.873  1.00  0.00     0.000 C 
BRANCH   7   8
ATOM      8  C   UNL     1     -19.159 -17.131  31.457  1.00  0.00     0.000 C 
BRANCH   8   9
ATOM      9  C   UNL     1     -17.886 -16.309  31.176  1.00  0.00     0.000 C 
BRANCH   9  10
ATOM     10  C   UNL     1     -18.127 -14.956  30.478  1.00  0.00     0.000 C 
BRANCH  10  11
ATOM     11  C   UNL     1     -17.509 -14.831  29.070  1.00  0.00     0.000 C 
BRANCH  11  12
ATOM     12  C   UNL     1     -18.210 -15.658  27.973  1.00  0.00     0.006 C 
BRANCH  12  13
ATOM     13  C   UNL     1     -17.266 -16.235  26.906  1.00  0.00     0.053 C 
BRANCH  13  14
ATOM     14  C   UNL     1     -17.250 -15.402  25.661  1.00  0.00     0.041 C 
ATOM     15  O   UNL     1     -18.323 -15.162  25.047  1.00  0.00    -0.550 OA
ATOM     16  O   UNL     1     -16.061 -14.846  25.209  1.00  0.00    -0.550 OA
ENDBRANCH  13  14
ENDBRANCH  12  13
ENDBRANCH  11  12
ENDBRANCH  10  11
ENDBRANCH   9  10
ENDBRANCH   8   9
ENDBRANCH   7   8
ENDBRANCH   6   7
ENDBRANCH   5   6
ENDBRANCH   4   5
ENDBRANCH   3   4
ENDBRANCH   2   3
ENDBRANCH   1   2
BRANCH   1  17
ATOM     17  C   UNL     1     -22.844 -22.765  31.488  1.00  0.00     0.000 C 
BRANCH  17  18
ATOM     18  C   UNL     1     -22.195 -23.818  30.569  1.00  0.00     0.000 C 
BRANCH  18  19
ATOM     19  C   UNL     1     -22.603 -23.730  29.084  1.00  0.00     0.000 C 
BRANCH  19  20
ATOM     20  C   UNL     1     -23.042 -25.060  28.440  1.00  0.00     0.000 C 
BRANCH  20  21
ATOM     21  C   UNL     1     -23.630 -26.093  29.420  1.00  0.00     0.000 C 
BRANCH  21  22
ATOM     22  C   UNL     1     -25.042 -25.717  29.898  1.00  0.00    -0.000 C 
BRANCH  22  23
ATOM     23  C   UNL     1     -25.305 -26.128  31.355  1.00  0.00    -0.000 C 
BRANCH  23  24
ATOM     24  C   UNL     1     -26.383 -27.222  31.485  1.00  0.00    -0.000 C 
BRANCH  24  25
ATOM     25  C   UNL     1     -26.074 -28.464  30.622  1.00  0.00    -0.000 C 
BRANCH  25  26
ATOM     26  C   UNL     1     -26.983 -28.613  29.385  1.00  0.00    -0.000 C 
BRANCH  26  27
ATOM     27  C   UNL     1     -26.242 -28.782  28.047  1.00  0.00    -0.000 C 
BRANCH  27  28
ATOM     28  C   UNL     1     -26.889 -27.987  26.903  1.00  0.00    -0.000 C 
BRANCH  28  29
ATOM     29  C   UNL     1     -26.981 -28.835  25.629  1.00  0.00    -0.003 C 
ATOM     30  C   UNL     1     -28.194 -28.438  24.790  1.00  0.00     0.004 C 
ENDBRANCH  28  29
ENDBRANCH  27  28
ENDBRANCH  26  27
ENDBRANCH  25  26
ENDBRANCH  24  25
ENDBRANCH  23  24
ENDBRANCH  22  23
ENDBRANCH  21  22
ENDBRANCH  20  21
ENDBRANCH  19  20
ENDBRANCH  18  19
ENDBRANCH  17  18
ENDBRANCH   1  17
TORSDOF 26
ENDMDL
MODEL 3
REMARK VINA RESULT:    -6.557      0.789      1.514
REMARK INTER + INTRA:         -18.828
REMARK INTER:                 -16.681
REMARK INTRA:                  -2.147
REMARK UNBOUND:                -2.304
REMARK SMILES CCCCCCCCCCCCCCCCCCCCCCCCCCCC(=O)[O-]
REMARK SMILES IDX 15 1 16 2 17 3 18 4 19 5 20 6 21 7 22 8 23 9 24 10 25 11
REMARK SMILES IDX 26 12 27 13 28 14 29 15 30 16 14 17 13 18 12 19 11 20 10 21
REMARK SMILES IDX 9 22 8 23 7 24 6 25 5 26 4 27 3 28 2 29 1 30
REMARK H PARENT
REMARK Flexibility Score: inf
ROOT
ATOM      1  C   UNL     1     -22.350 -20.420  30.644  1.00  0.00     0.000 C 
ENDROOT
BRANCH   1   2
ATOM      2  C   UNL     1     -21.716 -21.559  31.454  1.00  0.00     0.000 C 
BRANCH   2   3
ATOM      3  C   UNL     1     -22.747 -22.358  32.272  1.00  0.00     0.000 C 
BRANCH   3   4
ATOM      4  C   UNL     1     -23.208 -23.681  31.628  1.00  0.00     0.000 C 
BRANCH   4   5
ATOM      5  C   UNL     1     -22.310 -24.199  30.488  1.00  0.00     0.000 C 
BRANCH   5   6
ATOM      6  C   UNL     1     -23.023 -24.387  29.134  1.00  0.00     0.000 C 
BRANCH   6   7
ATOM      7  C   UNL     1     -23.501 -25.823  28.844  1.00  0.00     0.000 C 
BRANCH   7   8
ATOM      8  C   UNL     1     -24.012 -26.600  30.073  1.00  0.00     0.000 C 
BRANCH   8   9
ATOM      9  C   UNL     1     -25.546 -26.687  30.196  1.00  0.00     0.000 C 
BRANCH   9  10
ATOM     10  C   UNL     1     -26.094 -28.090  30.519  1.00  0.00     0.000 C 
BRANCH  10  11
ATOM     11  C   UNL     1     -26.669 -28.859  29.312  1.00  0.00     0.000 C 
BRANCH  11  12
ATOM     12  C   UNL     1     -26.179 -28.371  27.933  1.00  0.00     0.006 C 
BRANCH  12  13
ATOM     13  C   UNL     1     -27.301 -27.987  26.955  1.00  0.00     0.053 C 
BRANCH  13  14
ATOM     14  C   UNL     1     -27.141 -28.659  25.626  1.00  0.00     0.041 C 
ATOM     15  O   UNL     1     -25.994 -28.968  25.207  1.00  0.00    -0.550 OA
ATOM     16  O   UNL     1     -28.259 -28.992  24.874  1.00  0.00    -0.550 OA
ENDBRANCH  13  14
ENDBRANCH  12  13
ENDBRANCH  11  12
ENDBRANCH  10  11
ENDBRANCH   9  10
ENDBRANCH   8   9
ENDBRANCH   7   8
ENDBRANCH   6   7
ENDBRANCH   5   6
ENDBRANCH   4   5
ENDBRANCH   3   4
ENDBRANCH   2   3
ENDBRANCH   1   2
BRANCH   1  17
ATOM     17  C   UNL     1     -22.198 -20.667  29.136  1.00  0.00     0.000 C 
BRANCH  17  18
ATOM     18  C   UNL     1     -21.542 -19.483  28.401  1.00  0.00     0.000 C 
BRANCH  18  19
ATOM     19  C   UNL     1     -20.855 -18.446  29.314  1.00  0.00     0.000 C 
BRANCH  19  20
ATOM     20  C   UNL     1     -19.403 -18.779  29.713  1.00  0.00     0.000 C 
BRANCH  20  21
ATOM     21  C   UNL     1     -19.087 -18.608  31.211  1.00  0.00     0.000 C 
BRANCH  21  22
ATOM     22  C   UNL     1     -19.115 -17.137  31.658  1.00  0.00    -0.000 C 
BRANCH  22  23
ATOM     23  C   UNL     1     -17.895 -16.344  31.164  1.00  0.00    -0.000 C 
BRANCH  23  24
ATOM     24  C   UNL     1     -18.277 -15.011  30.491  1.00  0.00    -0.000 C 
BRANCH  24  25
ATOM     25  C   UNL     1     -17.544 -14.794  29.150  1.00  0.00    -0.000 C 
BRANCH  25  26
ATOM     26  C   UNL     1     -17.658 -15.979  28.170  1.00  0.00    -0.000 C 
BRANCH  26  27
ATOM     27  C   UNL     1     -17.994 -15.596  26.719  1.00  0.00    -0.000 C 
BRANCH  27  28
ATOM     28  C   UNL     1     -16.751 -15.225  25.896  1.00  0.00    -0.000 C 
BRANCH  28  29
ATOM     29  C   UNL     1     -16.457 -16.292  24.835  1.00  0.00    -0.003 C 
ATOM     30  C   UNL     1     -15.262 -15.893  23.971  1.00  0.00     0.004 C 
ENDBRANCH  28  29
ENDBRANCH  27  28
ENDBRANCH  26  27
ENDBRANCH  25  26
ENDBRANCH  24  25
ENDBRANCH  23  24
ENDBRANCH  22  23
ENDBRANCH  21  22
ENDBRANCH  20  21
ENDBRANCH  19  20
ENDBRANCH  18  19
ENDBRANCH  17  18
ENDBRANCH   1  17
TORSDOF 26
ENDMDL
MODEL 4
REMARK VINA RESULT:    -6.447      1.240      2.219
REMARK INTER + INTRA:         -18.551
REMARK INTER:                 -16.375
REMARK INTRA:                  -2.176
REMARK UNBOUND:                -2.304
REMARK SMILES CCCCCCCCCCCCCCCCCCCCCCCCCCCC(=O)[O-]
REMARK SMILES IDX 15 1 16 2 17 3 18 4 19 5 20 6 21 7 22 8 23 9 24 10 25 11
REMARK SMILES IDX 26 12 27 13 28 14 29 15 30 16 14 17 13 18 12 19 11 20 10 21
REMARK SMILES IDX 9 22 8 23 7 24 6 25 5 26 4 27 3 28 2 29 1 30
REMARK H PARENT
REMARK Flexibility Score: inf
ROOT
ATOM      1  C   UNL     1     -21.994 -21.865  28.460  1.00  0.00     0.000 C 
ENDROOT
BRANCH   1   2
ATOM      2  C   UNL     1     -21.954 -23.199  29.218  1.00  0.00     0.000 C 
BRANCH   2   3
ATOM      3  C   UNL     1     -22.825 -24.287  28.563  1.00  0.00     0.000 C 
BRANCH   3   4
ATOM      4  C   UNL     1     -23.785 -25.019  29.521  1.00  0.00     0.000 C 
BRANCH   4   5
ATOM      5  C   UNL     1     -23.410 -24.931  31.014  1.00  0.00     0.000 C 
BRANCH   5   6
ATOM      6  C   UNL     1     -24.173 -25.905  31.933  1.00  0.00     0.000 C 
BRANCH   6   7
ATOM      7  C   UNL     1     -25.668 -26.074  31.603  1.00  0.00     0.000 C 
BRANCH   7   8
ATOM      8  C   UNL     1     -26.172 -27.531  31.587  1.00  0.00     0.000 C 
BRANCH   8   9
ATOM      9  C   UNL     1     -26.077 -28.237  30.221  1.00  0.00     0.000 C 
BRANCH   9  10
ATOM     10  C   UNL     1     -26.195 -27.305  28.999  1.00  0.00     0.000 C 
BRANCH  10  11
ATOM     11  C   UNL     1     -25.758 -27.931  27.658  1.00  0.00     0.000 C 
BRANCH  11  12
ATOM     12  C   UNL     1     -26.835 -28.779  26.951  1.00  0.00     0.006 C 
BRANCH  12  13
ATOM     13  C   UNL     1     -26.917 -28.570  25.430  1.00  0.00     0.053 C 
BRANCH  13  14
ATOM     14  C   UNL     1     -28.326 -28.641  24.928  1.00  0.00     0.041 C 
ATOM     15  O   UNL     1     -29.196 -29.280  25.576  1.00  0.00    -0.550 OA
ATOM     16  O   UNL     1     -28.691 -27.960  23.775  1.00  0.00    -0.550 OA
ENDBRANCH  13  14
ENDBRANCH  12  13
ENDBRANCH  11  12
ENDBRANCH  10  11
ENDBRANCH   9  10
ENDBRANCH   8   9
ENDBRANCH   7   8
ENDBRANCH   6   7
ENDBRANCH   5   6
ENDBRANCH   4   5
ENDBRANCH   3   4
ENDBRANCH   2   3
ENDBRANCH   1   2
BRANCH   1  17
ATOM     17  C   UNL     1     -22.427 -20.720  29.387  1.00  0.00     0.000 C 
BRANCH  17  18
ATOM     18  C   UNL     1     -22.352 -21.099  30.878  1.00  0.00     0.000 C 
BRANCH  18  19
ATOM     19  C   UNL     1     -21.126 -20.546  31.633  1.00  0.00     0.000 C 
BRANCH  19  20
ATOM     20  C   UNL     1     -20.993 -19.010  31.641  1.00  0.00     0.000 C 
BRANCH  20  21
ATOM     21  C   UNL     1     -19.546 -18.483  31.615  1.00  0.00     0.000 C 
BRANCH  21  22
ATOM     22  C   UNL     1     -18.896 -18.606  30.227  1.00  0.00    -0.000 C 
BRANCH  22  23
ATOM     23  C   UNL     1     -19.855 -18.232  29.087  1.00  0.00    -0.000 C 
BRANCH  23  24
ATOM     24  C   UNL     1     -19.700 -16.770  28.628  1.00  0.00    -0.000 C 
BRANCH  24  25
ATOM     25  C   UNL     1     -18.452 -16.089  29.229  1.00  0.00    -0.000 C 
BRANCH  25  26
ATOM     26  C   UNL     1     -17.479 -15.518  28.177  1.00  0.00    -0.000 C 
BRANCH  26  27
ATOM     27  C   UNL     1     -17.513 -16.218  26.808  1.00  0.00    -0.000 C 
BRANCH  27  28
ATOM     28  C   UNL     1     -17.652 -15.233  25.637  1.00  0.00    -0.000 C 
BRANCH  28  29
ATOM     29  C   UNL     1     -16.283 -14.912  25.025  1.00  0.00    -0.003 C 
ATOM     30  C   UNL     1     -15.640 -16.162  24.430  1.00  0.00     0.004 C 
ENDBRANCH  28  29
ENDBRANCH  27  28
ENDBRANCH  26  27
ENDBRANCH  25  26
ENDBRANCH  24  25
ENDBRANCH  23  24
ENDBRANCH  22  23
ENDBRANCH  21  22
ENDBRANCH  20  21
ENDBRANCH  19  20
ENDBRANCH  18  19
ENDBRANCH  17  18
ENDBRANCH   1  17
TORSDOF 26
ENDMDL
MODEL 5
REMARK VINA RESULT:    -6.325      4.394     12.236
REMARK INTER + INTRA:         -18.242
REMARK INTER:                 -16.505
REMARK INTRA:                  -1.737
REMARK UNBOUND:                -2.304
REMARK SMILES CCCCCCCCCCCCCCCCCCCCCCCCCCCC(=O)[O-]
REMARK SMILES IDX 15 1 16 2 17 3 18 4 19 5 20 6 21 7 22 8 23 9 24 10 25 11
REMARK SMILES IDX 26 12 27 13 28 14 29 15 30 16 14 17 13 18 12 19 11 20 10 21
REMARK SMILES IDX 9 22 8 23 7 24 6 25 5 26 4 27 3 28 2 29 1 30
REMARK H PARENT
REMARK Flexibility Score: inf
ROOT
ATOM      1  C   UNL     1     -22.338 -23.400  29.214  1.00  0.00     0.000 C 
ENDROOT
BRANCH   1   2
ATOM      2  C   UNL     1     -22.392 -22.194  28.266  1.00  0.00     0.000 C 
BRANCH   2   3
ATOM      3  C   UNL     1     -22.430 -20.847  29.012  1.00  0.00     0.000 C 
BRANCH   3   4
ATOM      4  C   UNL     1     -21.435 -19.788  28.497  1.00  0.00     0.000 C 
BRANCH   4   5
ATOM      5  C   UNL     1     -21.061 -18.694  29.516  1.00  0.00     0.000 C 
BRANCH   5   6
ATOM      6  C   UNL     1     -21.298 -19.073  30.991  1.00  0.00     0.000 C 
BRANCH   6   7
ATOM      7  C   UNL     1     -20.105 -18.807  31.930  1.00  0.00     0.000 C 
BRANCH   7   8
ATOM      8  C   UNL     1     -18.811 -18.353  31.228  1.00  0.00     0.000 C 
BRANCH   8   9
ATOM      9  C   UNL     1     -18.272 -16.982  31.680  1.00  0.00     0.000 C 
BRANCH   9  10
ATOM     10  C   UNL     1     -18.286 -15.888  30.595  1.00  0.00     0.000 C 
BRANCH  10  11
ATOM     11  C   UNL     1     -18.289 -16.411  29.144  1.00  0.00     0.000 C 
BRANCH  11  12
ATOM     12  C   UNL     1     -17.778 -15.410  28.088  1.00  0.00     0.006 C 
BRANCH  12  13
ATOM     13  C   UNL     1     -17.206 -16.058  26.816  1.00  0.00     0.053 C 
BRANCH  13  14
ATOM     14  C   UNL     1     -17.436 -15.211  25.603  1.00  0.00     0.041 C 
ATOM     15  O   UNL     1     -16.476 -14.597  25.069  1.00  0.00    -0.550 OA
ATOM     16  O   UNL     1     -18.699 -15.142  25.030  1.00  0.00    -0.550 OA
ENDBRANCH  13  14
ENDBRANCH  12  13
ENDBRANCH  11  12
ENDBRANCH  10  11
ENDBRANCH   9  10
ENDBRANCH   8   9
ENDBRANCH   7   8
ENDBRANCH   6   7
ENDBRANCH   5   6
ENDBRANCH   4   5
ENDBRANCH   3   4
ENDBRANCH   2   3
ENDBRANCH   1   2
BRANCH   1  17
ATOM     17  C   UNL     1     -21.457 -23.098  30.435  1.00  0.00     0.000 C 
BRANCH  17  18
ATOM     18  C   UNL     1     -22.263 -22.562  31.634  1.00  0.00     0.000 C 
BRANCH  18  19
ATOM     19  C   UNL     1     -23.507 -23.393  32.009  1.00  0.00     0.000 C 
BRANCH  19  20
ATOM     20  C   UNL     1     -23.359 -24.918  31.838  1.00  0.00     0.000 C 
BRANCH  20  21
ATOM     21  C   UNL     1     -24.675 -25.714  31.934  1.00  0.00     0.000 C 
BRANCH  21  22
ATOM     22  C   UNL     1     -25.458 -25.724  30.611  1.00  0.00    -0.000 C 
BRANCH  22  23
ATOM     23  C   UNL     1     -24.548 -25.891  29.384  1.00  0.00    -0.000 C 
BRANCH  23  24
ATOM     24  C   UNL     1     -24.776 -27.223  28.645  1.00  0.00    -0.000 C 
BRANCH  24  25
ATOM     25  C   UNL     1     -25.831 -28.112  29.336  1.00  0.00    -0.000 C 
BRANCH  25  26
ATOM     26  C   UNL     1     -26.746 -28.879  28.360  1.00  0.00    -0.000 C 
BRANCH  26  27
ATOM     27  C   UNL     1     -27.328 -28.037  27.212  1.00  0.00    -0.000 C 
BRANCH  27  28
ATOM     28  C   UNL     1     -26.871 -28.519  25.827  1.00  0.00    -0.000 C 
BRANCH  28  29
ATOM     29  C   UNL     1     -28.055 -29.059  25.016  1.00  0.00    -0.003 C 
ATOM     30  C   UNL     1     -28.667 -27.966  24.141  1.00  0.00     0.004 C 
ENDBRANCH  28  29
ENDBRANCH  27  28
ENDBRANCH  26  27
ENDBRANCH  25  26
ENDBRANCH  24  25
ENDBRANCH  23  24
ENDBRANCH  22  23
ENDBRANCH  21  22
ENDBRANCH  20  21
ENDBRANCH  19  20
ENDBRANCH  18  19
ENDBRANCH  17  18
ENDBRANCH   1  17
TORSDOF 26
ENDMDL
MODEL 6
REMARK VINA RESULT:    -6.226      4.617     12.525
REMARK INTER + INTRA:         -17.994
REMARK INTER:                 -16.098
REMARK INTRA:                  -1.895
REMARK UNBOUND:                -2.304
REMARK SMILES CCCCCCCCCCCCCCCCCCCCCCCCCCCC(=O)[O-]
REMARK SMILES IDX 15 1 16 2 17 3 18 4 19 5 20 6 21 7 22 8 23 9 24 10 25 11
REMARK SMILES IDX 26 12 27 13 28 14 29 15 30 16 14 17 13 18 12 19 11 20 10 21
REMARK SMILES IDX 9 22 8 23 7 24 6 25 5 26 4 27 3 28 2 29 1 30
REMARK H PARENT
REMARK Flexibility Score: inf
ROOT
ATOM      1  C   UNL     1     -22.005 -22.011  28.603  1.00  0.00     0.000 C 
ENDROOT
BRANCH   1   2
ATOM      2  C   UNL     1     -22.370 -20.596  29.073  1.00  0.00     0.000 C 
BRANCH   2   3
ATOM      3  C   UNL     1     -21.415 -19.519  28.527  1.00  0.00     0.000 C 
BRANCH   3   4
ATOM      4  C   UNL     1     -21.004 -18.436  29.545  1.00  0.00     0.000 C 
BRANCH   4   5
ATOM      5  C   UNL     1     -21.194 -18.825  31.024  1.00  0.00     0.000 C 
BRANCH   5   6
ATOM      6  C   UNL     1     -19.887 -19.006  31.821  1.00  0.00     0.000 C 
BRANCH   6   7
ATOM      7  C   UNL     1     -18.636 -18.388  31.168  1.00  0.00     0.000 C 
BRANCH   7   8
ATOM      8  C   UNL     1     -18.260 -16.983  31.680  1.00  0.00     0.000 C 
BRANCH   8   9
ATOM      9  C   UNL     1     -18.145 -15.902  30.587  1.00  0.00     0.000 C 
BRANCH   9  10
ATOM     10  C   UNL     1     -18.463 -16.385  29.159  1.00  0.00     0.000 C 
BRANCH  10  11
ATOM     11  C   UNL     1     -17.965 -15.457  28.032  1.00  0.00     0.000 C 
BRANCH  11  12
ATOM     12  C   UNL     1     -17.640 -16.163  26.700  1.00  0.00     0.006 C 
BRANCH  12  13
ATOM     13  C   UNL     1     -17.407 -15.213  25.514  1.00  0.00     0.053 C 
BRANCH  13  14
ATOM     14  C   UNL     1     -15.998 -15.282  25.008  1.00  0.00     0.041 C 
ATOM     15  O   UNL     1     -15.701 -16.065  24.069  1.00  0.00    -0.550 OA
ATOM     16  O   UNL     1     -15.026 -14.444  25.538  1.00  0.00    -0.550 OA
ENDBRANCH  13  14
ENDBRANCH  12  13
ENDBRANCH  11  12
ENDBRANCH  10  11
ENDBRANCH   9  10
ENDBRANCH   8   9
ENDBRANCH   7   8
ENDBRANCH   6   7
ENDBRANCH   5   6
ENDBRANCH   4   5
ENDBRANCH   3   4
ENDBRANCH   2   3
ENDBRANCH   1   2
BRANCH   1  17
ATOM     17  C   UNL     1     -21.995 -22.995  29.783  1.00  0.00     0.000 C 
BRANCH  17  18
ATOM     18  C   UNL     1     -21.880 -22.288  31.147  1.00  0.00     0.000 C 
BRANCH  18  19
ATOM     19  C   UNL     1     -22.896 -22.753  32.212  1.00  0.00     0.000 C 
BRANCH  19  20
ATOM     20  C   UNL     1     -23.920 -23.801  31.733  1.00  0.00     0.000 C 
BRANCH  20  21
ATOM     21  C   UNL     1     -23.522 -25.266  31.998  1.00  0.00     0.000 C 
BRANCH  21  22
ATOM     22  C   UNL     1     -24.597 -26.263  31.537  1.00  0.00    -0.000 C 
BRANCH  22  23
ATOM     23  C   UNL     1     -25.239 -25.868  30.198  1.00  0.00    -0.000 C 
BRANCH  23  24
ATOM     24  C   UNL     1     -25.204 -27.003  29.157  1.00  0.00    -0.000 C 
BRANCH  24  25
ATOM     25  C   UNL     1     -26.441 -27.923  29.243  1.00  0.00    -0.000 C 
BRANCH  25  26
ATOM     26  C   UNL     1     -26.709 -28.738  27.961  1.00  0.00    -0.000 C 
BRANCH  26  27
ATOM     27  C   UNL     1     -26.411 -28.001  26.645  1.00  0.00    -0.000 C 
BRANCH  27  28
ATOM     28  C   UNL     1     -26.627 -28.882  25.405  1.00  0.00    -0.000 C 
BRANCH  28  29
ATOM     29  C   UNL     1     -28.122 -29.110  25.147  1.00  0.00    -0.003 C 
ATOM     30  C   UNL     1     -28.719 -27.964  24.332  1.00  0.00     0.004 C 
ENDBRANCH  28  29
ENDBRANCH  27  28
ENDBRANCH  26  27
ENDBRANCH  25  26
ENDBRANCH  24  25
ENDBRANCH  23  24
ENDBRANCH  22  23
ENDBRANCH  21  22
ENDBRANCH  20  21
ENDBRANCH  19  20
ENDBRANCH  18  19
ENDBRANCH  17  18
ENDBRANCH   1  17
TORSDOF 26
ENDMDL
MODEL 7
REMARK VINA RESULT:    -5.339      1.214      2.405
REMARK INTER + INTRA:         -15.759
REMARK INTER:                 -13.427
REMARK INTRA:                  -2.331
REMARK UNBOUND:                -2.304
REMARK SMILES CCCCCCCCCCCCCCCCCCCCCCCCCCCC(=O)[O-]
REMARK SMILES IDX 15 1 16 2 17 3 18 4 19 5 20 6 21 7 22 8 23 9 24 10 25 11
REMARK SMILES IDX 26 12 27 13 28 14 29 15 30 16 14 17 13 18 12 19 11 20 10 21
REMARK SMILES IDX 9 22 8 23 7 24 6 25 5 26 4 27 3 28 2 29 1 30
REMARK H PARENT
REMARK Flexibility Score: inf
ROOT
ATOM      1  C   UNL     1     -22.017 -19.932  28.461  1.00  0.00     0.000 C 
ENDROOT
BRANCH   1   2
ATOM      2  C   UNL     1     -22.805 -21.054  29.149  1.00  0.00     0.000 C 
BRANCH   2   3
ATOM      3  C   UNL     1     -22.179 -22.444  28.936  1.00  0.00     0.000 C 
BRANCH   3   4
ATOM      4  C   UNL     1     -21.638 -23.120  30.212  1.00  0.00     0.000 C 
BRANCH   4   5
ATOM      5  C   UNL     1     -22.217 -22.576  31.533  1.00  0.00     0.000 C 
BRANCH   5   6
ATOM      6  C   UNL     1     -23.504 -23.275  32.014  1.00  0.00     0.000 C 
BRANCH   6   7
ATOM      7  C   UNL     1     -23.478 -24.814  31.931  1.00  0.00     0.000 C 
BRANCH   7   8
ATOM      8  C   UNL     1     -24.393 -25.424  30.851  1.00  0.00     0.000 C 
BRANCH   8   9
ATOM      9  C   UNL     1     -23.663 -25.935  29.593  1.00  0.00     0.000 C 
BRANCH   9  10
ATOM     10  C   UNL     1     -24.502 -26.853  28.684  1.00  0.00     0.000 C 
BRANCH  10  11
ATOM     11  C   UNL     1     -26.029 -26.665  28.799  1.00  0.00     0.000 C 
BRANCH  11  12
ATOM     12  C   UNL     1     -26.874 -27.849  28.286  1.00  0.00     0.006 C 
BRANCH  12  13
ATOM     13  C   UNL     1     -26.156 -28.756  27.274  1.00  0.00     0.053 C 
BRANCH  13  14
ATOM     14  C   UNL     1     -26.675 -28.565  25.882  1.00  0.00     0.041 C 
ATOM     15  O   UNL     1     -26.107 -29.132  24.912  1.00  0.00    -0.550 OA
ATOM     16  O   UNL     1     -27.816 -27.805  25.662  1.00  0.00    -0.550 OA
ENDBRANCH  13  14
ENDBRANCH  12  13
ENDBRANCH  11  12
ENDBRANCH  10  11
ENDBRANCH   9  10
ENDBRANCH   8   9
ENDBRANCH   7   8
ENDBRANCH   6   7
ENDBRANCH   5   6
ENDBRANCH   4   5
ENDBRANCH   3   4
ENDBRANCH   2   3
ENDBRANCH   1   2
BRANCH   1  17
ATOM     17  C   UNL     1     -20.819 -19.497  29.318  1.00  0.00     0.000 C 
BRANCH  17  18
ATOM     18  C   UNL     1     -21.214 -19.164  30.769  1.00  0.00     0.000 C 
BRANCH  18  19
ATOM     19  C   UNL     1     -20.095 -19.362  31.813  1.00  0.00     0.000 C 
BRANCH  19  20
ATOM     20  C   UNL     1     -18.893 -18.405  31.681  1.00  0.00     0.000 C 
BRANCH  20  21
ATOM     21  C   UNL     1     -19.262 -16.920  31.505  1.00  0.00     0.000 C 
BRANCH  21  22
ATOM     22  C   UNL     1     -18.049 -16.049  31.137  1.00  0.00    -0.000 C 
BRANCH  22  23
ATOM     23  C   UNL     1     -18.068 -15.594  29.670  1.00  0.00    -0.000 C 
BRANCH  23  24
ATOM     24  C   UNL     1     -18.933 -16.499  28.772  1.00  0.00    -0.000 C 
BRANCH  24  25
ATOM     25  C   UNL     1     -18.510 -16.440  27.288  1.00  0.00    -0.000 C 
BRANCH  25  26
ATOM     26  C   UNL     1     -17.340 -15.476  27.005  1.00  0.00    -0.000 C 
BRANCH  26  27
ATOM     27  C   UNL     1     -17.207 -15.023  25.542  1.00  0.00    -0.000 C 
BRANCH  27  28
ATOM     28  C   UNL     1     -15.780 -14.582  25.181  1.00  0.00    -0.000 C 
BRANCH  28  29
ATOM     29  C   UNL     1     -15.154 -15.534  24.155  1.00  0.00    -0.003 C 
ATOM     30  C   UNL     1     -15.906 -16.862  24.107  1.00  0.00     0.004 C 
ENDBRANCH  28  29
ENDBRANCH  27  28
ENDBRANCH  26  27
ENDBRANCH  25  26
ENDBRANCH  24  25
ENDBRANCH  23  24
ENDBRANCH  22  23
ENDBRANCH  21  22
ENDBRANCH  20  21
ENDBRANCH  19  20
ENDBRANCH  18  19
ENDBRANCH  17  18
ENDBRANCH   1  17
TORSDOF 26
ENDMDL
MODEL 8
REMARK VINA RESULT:    -4.983      5.353     13.708
REMARK INTER + INTRA:         -14.861
REMARK INTER:                 -13.904
REMARK INTRA:                  -0.957
REMARK UNBOUND:                -2.304
REMARK SMILES CCCCCCCCCCCCCCCCCCCCCCCCCCCC(=O)[O-]
REMARK SMILES IDX 15 1 16 2 17 3 18 4 19 5 20 6 21 7 22 8 23 9 24 10 25 11
REMARK SMILES IDX 26 12 27 13 28 14 29 15 30 16 14 17 13 18 12 19 11 20 10 21
REMARK SMILES IDX 9 22 8 23 7 24 6 25 5 26 4 27 3 28 2 29 1 30
REMARK H PARENT
REMARK Flexibility Score: inf
ROOT
ATOM      1  C   UNL     1     -21.340 -19.806  29.142  1.00  0.00     0.000 C 
ENDROOT
BRANCH   1   2
ATOM      2  C   UNL     1     -20.861 -18.372  28.882  1.00  0.00     0.000 C 
BRANCH   2   3
ATOM      3  C   UNL     1     -19.589 -18.013  29.671  1.00  0.00     0.000 C 
BRANCH   3   4
ATOM      4  C   UNL     1     -18.390 -17.569  28.809  1.00  0.00     0.000 C 
BRANCH   4   5
ATOM      5  C   UNL     1     -18.361 -16.069  28.455  1.00  0.00     0.000 C 
BRANCH   5   6
ATOM      6  C   UNL     1     -17.196 -15.640  27.541  1.00  0.00     0.000 C 
BRANCH   6   7
ATOM      7  C   UNL     1     -17.538 -15.576  26.040  1.00  0.00     0.000 C 
BRANCH   7   8
ATOM      8  C   UNL     1     -16.353 -15.236  25.115  1.00  0.00     0.000 C 
BRANCH   8   9
ATOM      9  C   UNL     1     -15.865 -16.400  24.229  1.00  0.00     0.000 C 
BRANCH   9  10
ATOM     10  C   UNL     1     -14.859 -16.003  23.131  1.00  0.00     0.000 C 
BRANCH  10  11
ATOM     11  C   UNL     1     -15.025 -16.753  21.794  1.00  0.00     0.000 C 
BRANCH  11  12
ATOM     12  C   UNL     1     -13.901 -16.513  20.766  1.00  0.00     0.006 C 
BRANCH  12  13
ATOM     13  C   UNL     1     -13.863 -17.528  19.612  1.00  0.00     0.053 C 
BRANCH  13  14
ATOM     14  C   UNL     1     -13.068 -17.024  18.447  1.00  0.00     0.041 C 
ATOM     15  O   UNL     1     -12.975 -15.787  18.233  1.00  0.00    -0.550 OA
ATOM     16  O   UNL     1     -12.387 -17.916  17.630  1.00  0.00    -0.550 OA
ENDBRANCH  13  14
ENDBRANCH  12  13
ENDBRANCH  11  12
ENDBRANCH  10  11
ENDBRANCH   9  10
ENDBRANCH   8   9
ENDBRANCH   7   8
ENDBRANCH   6   7
ENDBRANCH   5   6
ENDBRANCH   4   5
ENDBRANCH   3   4
ENDBRANCH   2   3
ENDBRANCH   1   2
BRANCH   1  17
ATOM     17  C   UNL     1     -21.860 -19.959  30.580  1.00  0.00     0.000 C 
BRANCH  17  18
ATOM     18  C   UNL     1     -21.396 -21.268  31.246  1.00  0.00     0.000 C 
BRANCH  18  19
ATOM     19  C   UNL     1     -22.460 -22.384  31.304  1.00  0.00     0.000 C 
BRANCH  19  20
ATOM     20  C   UNL     1     -22.044 -23.726  30.669  1.00  0.00     0.000 C 
BRANCH  20  21
ATOM     21  C   UNL     1     -23.211 -24.676  30.335  1.00  0.00     0.000 C 
BRANCH  21  22
ATOM     22  C   UNL     1     -23.865 -25.273  31.592  1.00  0.00    -0.000 C 
BRANCH  22  23
ATOM     23  C   UNL     1     -25.274 -25.824  31.323  1.00  0.00    -0.000 C 
BRANCH  23  24
ATOM     24  C   UNL     1     -25.580 -25.983  29.821  1.00  0.00    -0.000 C 
BRANCH  24  25
ATOM     25  C   UNL     1     -25.186 -27.374  29.280  1.00  0.00    -0.000 C 
BRANCH  25  26
ATOM     26  C   UNL     1     -26.300 -28.434  29.402  1.00  0.00    -0.000 C 
BRANCH  26  27
ATOM     27  C   UNL     1     -27.100 -28.692  28.114  1.00  0.00    -0.000 C 
BRANCH  27  28
ATOM     28  C   UNL     1     -26.578 -27.883  26.916  1.00  0.00    -0.000 C 
BRANCH  28  29
ATOM     29  C   UNL     1     -26.574 -28.734  25.640  1.00  0.00    -0.003 C 
ATOM     30  C   UNL     1     -27.997 -29.079  25.205  1.00  0.00     0.004 C 
ENDBRANCH  28  29
ENDBRANCH  27  28
ENDBRANCH  26  27
ENDBRANCH  25  26
ENDBRANCH  24  25
ENDBRANCH  23  24
ENDBRANCH  22  23
ENDBRANCH  21  22
ENDBRANCH  20  21
ENDBRANCH  19  20
ENDBRANCH  18  19
ENDBRANCH  17  18
ENDBRANCH   1  17
TORSDOF 26
ENDMDL
MODEL 9
REMARK VINA RESULT:    -4.981      1.785      2.676
REMARK INTER + INTRA:         -14.855
REMARK INTER:                 -13.156
REMARK INTRA:                  -1.699
REMARK UNBOUND:                -2.304
REMARK SMILES CCCCCCCCCCCCCCCCCCCCCCCCCCCC(=O)[O-]
REMARK SMILES IDX 15 1 16 2 17 3 18 4 19 5 20 6 21 7 22 8 23 9 24 10 25 11
REMARK SMILES IDX 26 12 27 13 28 14 29 15 30 16 14 17 13 18 12 19 11 20 10 21
REMARK SMILES IDX 9 22 8 23 7 24 6 25 5 26 4 27 3 28 2 29 1 30
REMARK H PARENT
REMARK Flexibility Score: inf
ROOT
ATOM      1  C   UNL     1     -22.002 -21.569  28.360  1.00  0.00     0.000 C 
ENDROOT
BRANCH   1   2
ATOM      2  C   UNL     1     -22.357 -22.921  28.993  1.00  0.00     0.000 C 
BRANCH   2   3
ATOM      3  C   UNL     1     -21.569 -23.203  30.285  1.00  0.00     0.000 C 
BRANCH   3   4
ATOM      4  C   UNL     1     -22.107 -22.495  31.545  1.00  0.00     0.000 C 
BRANCH   4   5
ATOM      5  C   UNL     1     -23.516 -22.934  31.989  1.00  0.00     0.000 C 
BRANCH   5   6
ATOM      6  C   UNL     1     -23.587 -24.331  32.636  1.00  0.00     0.000 C 
BRANCH   6   7
ATOM      7  C   UNL     1     -23.624 -25.507  31.642  1.00  0.00     0.000 C 
BRANCH   7   8
ATOM      8  C   UNL     1     -24.655 -25.367  30.504  1.00  0.00     0.000 C 
BRANCH   8   9
ATOM      9  C   UNL     1     -24.466 -26.349  29.331  1.00  0.00     0.000 C 
BRANCH   9  10
ATOM     10  C   UNL     1     -25.711 -26.548  28.444  1.00  0.00     0.000 C 
BRANCH  10  11
ATOM     11  C   UNL     1     -25.603 -27.695  27.419  1.00  0.00     0.000 C 
BRANCH  11  12
ATOM     12  C   UNL     1     -26.495 -28.919  27.712  1.00  0.00     0.006 C 
BRANCH  12  13
ATOM     13  C   UNL     1     -27.340 -28.803  28.991  1.00  0.00     0.053 C 
BRANCH  13  14
ATOM     14  C   UNL     1     -26.637 -29.380  30.181  1.00  0.00     0.041 C 
ATOM     15  O   UNL     1     -26.164 -28.620  31.066  1.00  0.00    -0.550 OA
ATOM     16  O   UNL     1     -26.551 -30.757  30.341  1.00  0.00    -0.550 OA
ENDBRANCH  13  14
ENDBRANCH  12  13
ENDBRANCH  11  12
ENDBRANCH  10  11
ENDBRANCH   9  10
ENDBRANCH   8   9
ENDBRANCH   7   8
ENDBRANCH   6   7
ENDBRANCH   5   6
ENDBRANCH   4   5
ENDBRANCH   3   4
ENDBRANCH   2   3
ENDBRANCH   1   2
BRANCH   1  17
ATOM     17  C   UNL     1     -22.677 -20.415  29.116  1.00  0.00     0.000 C 
BRANCH  17  18
ATOM     18  C   UNL     1     -21.664 -19.483  29.808  1.00  0.00     0.000 C 
BRANCH  18  19
ATOM     19  C   UNL     1     -20.882 -18.549  28.861  1.00  0.00     0.000 C 
BRANCH  19  20
ATOM     20  C   UNL     1     -19.427 -18.256  29.277  1.00  0.00     0.000 C 
BRANCH  20  21
ATOM     21  C   UNL     1     -19.049 -18.728  30.694  1.00  0.00     0.000 C 
BRANCH  21  22
ATOM     22  C   UNL     1     -19.135 -17.600  31.736  1.00  0.00    -0.000 C 
BRANCH  22  23
ATOM     23  C   UNL     1     -19.263 -16.210  31.095  1.00  0.00    -0.000 C 
BRANCH  23  24
ATOM     24  C   UNL     1     -17.906 -15.615  30.673  1.00  0.00    -0.000 C 
BRANCH  24  25
ATOM     25  C   UNL     1     -17.985 -14.853  29.333  1.00  0.00    -0.000 C 
BRANCH  25  26
ATOM     26  C   UNL     1     -17.130 -15.469  28.207  1.00  0.00    -0.000 C 
BRANCH  26  27
ATOM     27  C   UNL     1     -17.825 -15.566  26.838  1.00  0.00    -0.000 C 
BRANCH  27  28
ATOM     28  C   UNL     1     -16.929 -15.100  25.680  1.00  0.00    -0.000 C 
BRANCH  28  29
ATOM     29  C   UNL     1     -16.388 -16.296  24.888  1.00  0.00    -0.003 C 
ATOM     30  C   UNL     1     -15.245 -15.874  23.967  1.00  0.00     0.004 C 
ENDBRANCH  28  29
ENDBRANCH  27  28
ENDBRANCH  26  27
ENDBRANCH  25  26
ENDBRANCH  24  25
ENDBRANCH  23  24
ENDBRANCH  22  23
ENDBRANCH  21  22
ENDBRANCH  20  21
ENDBRANCH  19  20
ENDBRANCH  18  19
ENDBRANCH  17  18
ENDBRANCH   1  17
TORSDOF 26
ENDMDL
