MODEL 1
REMARK VINA RESULT:    -5.665      0.000      0.000
REMARK INTER + INTRA:          -5.996
REMARK INTER:                  -5.996
REMARK INTRA:                   0.000
REMARK UNBOUND:                 0.000
REMARK SMILES O=c1ccc2cc(O)c(O)cc2o1
REMARK SMILES IDX 4 1 3 2 2 3 1 4 13 5 12 6 11 7 9 8 7 9 6 10 5 11 8 12 10 14
REMARK H PARENT 8 13 10 15
REMARK Flexibility Score: inf
ROOT
ATOM      1  C   UNL     1     -20.001 -36.808 120.331  1.00  0.00     0.019 A 
ATOM      2  C   UNL     1     -19.408 -36.119 121.388  1.00  0.00     0.094 A 
ATOM      3  C   UNL     1     -19.390 -34.721 121.361  1.00  0.00     0.336 A 
ATOM      4  O   UNL     1     -18.859 -34.080 122.306  1.00  0.00    -0.246 OA
ATOM      5  O   UNL     1     -19.931 -34.060 120.340  1.00  0.00    -0.423 OA
ATOM      6  C   UNL     1     -20.507 -34.679 119.311  1.00  0.00     0.142 A 
ATOM      7  C   UNL     1     -21.059 -33.932 118.267  1.00  0.00     0.098 A 
ATOM      8  C   UNL     1     -21.666 -34.575 117.181  1.00  0.00     0.161 A 
ATOM      9  C   UNL     1     -21.722 -35.980 117.139  1.00  0.00     0.158 A 
ATOM     10  C   UNL     1     -21.170 -36.734 118.185  1.00  0.00     0.062 A 
ATOM     11  C   UNL     1     -20.561 -36.088 119.271  1.00  0.00     0.022 A 
ENDROOT
BRANCH   9  12
ATOM     12  O   UNL     1     -22.326 -36.622 116.060  1.00  0.00    -0.504 OA
ATOM     13  H   UNL     1     -22.153 -37.600 115.857  1.00  0.00     0.293 HD
ENDBRANCH   9  12
BRANCH   8  14
ATOM     14  O   UNL     1     -22.207 -33.802 116.155  1.00  0.00    -0.504 OA
ATOM     15  H   UNL     1     -23.166 -33.911 115.848  1.00  0.00     0.293 HD
ENDBRANCH   8  14
TORSDOF 2
ENDMDL
MODEL 2
REMARK VINA RESULT:    -5.631      1.078      2.246
REMARK INTER + INTRA:          -5.960
REMARK INTER:                  -5.960
REMARK INTRA:                   0.000
REMARK UNBOUND:                 0.000
REMARK SMILES O=c1ccc2cc(O)c(O)cc2o1
REMARK SMILES IDX 4 1 3 2 2 3 1 4 13 5 12 6 11 7 9 8 7 9 6 10 5 11 8 12 10 14
REMARK H PARENT 8 13 10 15
REMARK Flexibility Score: inf
ROOT
ATOM      1  C   UNL     1     -19.958 -33.795 120.430  1.00  0.00     0.019 A 
ATOM      2  C   UNL     1     -19.445 -34.532 121.497  1.00  0.00     0.094 A 
ATOM      3  C   UNL     1     -19.535 -35.927 121.462  1.00  0.00     0.336 A 
ATOM      4  O   UNL     1     -19.078 -36.610 122.416  1.00  0.00    -0.246 OA
ATOM      5  O   UNL     1     -20.101 -36.540 120.425  1.00  0.00    -0.423 OA
ATOM      6  C   UNL     1     -20.603 -35.875 119.387  1.00  0.00     0.142 A 
ATOM      7  C   UNL     1     -21.186 -36.573 118.325  1.00  0.00     0.098 A 
ATOM      8  C   UNL     1     -21.717 -35.881 117.230  1.00  0.00     0.161 A 
ATOM      9  C   UNL     1     -21.663 -34.475 117.194  1.00  0.00     0.158 A 
ATOM     10  C   UNL     1     -21.078 -33.770 118.257  1.00  0.00     0.062 A 
ATOM     11  C   UNL     1     -20.548 -34.465 119.354  1.00  0.00     0.022 A 
ENDROOT
BRANCH   9  12
ATOM     12  O   UNL     1     -22.189 -33.785 116.105  1.00  0.00    -0.504 OA
ATOM     13  H   UNL     1     -23.117 -33.378 116.131  1.00  0.00     0.293 HD
ENDBRANCH   9  12
BRANCH   8  14
ATOM     14  O   UNL     1     -22.292 -36.606 116.187  1.00  0.00    -0.504 OA
ATOM     15  H   UNL     1     -21.783 -37.325 115.688  1.00  0.00     0.293 HD
ENDBRANCH   8  14
TORSDOF 2
ENDMDL
MODEL 3
REMARK VINA RESULT:    -5.491      2.138      2.599
REMARK INTER + INTRA:          -5.812
REMARK INTER:                  -5.812
REMARK INTRA:                   0.000
REMARK UNBOUND:                 0.000
REMARK SMILES O=c1ccc2cc(O)c(O)cc2o1
REMARK SMILES IDX 4 1 3 2 2 3 1 4 13 5 12 6 11 7 9 8 7 9 6 10 5 11 8 12 10 14
REMARK H PARENT 8 13 10 15
REMARK Flexibility Score: inf
ROOT
ATOM      1  C   UNL     1     -19.785 -37.437 117.281  1.00  0.00     0.019 A 
ATOM      2  C   UNL     1     -18.500 -37.557 117.808  1.00  0.00     0.094 A 
ATOM      3  C   UNL     1     -18.001 -36.532 118.618  1.00  0.00     0.336 A 
ATOM      4  O   UNL     1     -16.843 -36.622 119.104  1.00  0.00    -0.246 OA
ATOM      5  O   UNL     1     -18.743 -35.460 118.882  1.00  0.00    -0.423 OA
ATOM      6  C   UNL     1     -19.974 -35.306 118.398  1.00  0.00     0.142 A 
ATOM      7  C   UNL     1     -20.708 -34.156 118.709  1.00  0.00     0.098 A 
ATOM      8  C   UNL     1     -22.003 -33.986 118.205  1.00  0.00     0.161 A 
ATOM      9  C   UNL     1     -22.572 -34.976 117.382  1.00  0.00     0.158 A 
ATOM     10  C   UNL     1     -21.840 -36.131 117.068  1.00  0.00     0.062 A 
ATOM     11  C   UNL     1     -20.542 -36.299 117.573  1.00  0.00     0.022 A 
ENDROOT
BRANCH   9  12
ATOM     12  O   UNL     1     -23.861 -34.809 116.880  1.00  0.00    -0.504 OA
ATOM     13  H   UNL     1     -24.067 -34.921 115.893  1.00  0.00     0.293 HD
ENDBRANCH   9  12
BRANCH   8  14
ATOM     14  O   UNL     1     -22.709 -32.829 118.532  1.00  0.00    -0.504 OA
ATOM     15  H   UNL     1     -23.116 -32.689 119.449  1.00  0.00     0.293 HD
ENDBRANCH   8  14
TORSDOF 2
ENDMDL
MODEL 4
REMARK VINA RESULT:    -5.491      2.077      3.192
REMARK INTER + INTRA:          -5.812
REMARK INTER:                  -5.812
REMARK INTRA:                   0.000
REMARK UNBOUND:                 0.000
REMARK SMILES O=c1ccc2cc(O)c(O)cc2o1
REMARK SMILES IDX 4 1 3 2 2 3 1 4 13 5 12 6 11 7 9 8 7 9 6 10 5 11 8 12 10 14
REMARK H PARENT 8 13 10 15
REMARK Flexibility Score: inf
ROOT
ATOM      1  C   UNL     1     -23.374 -33.030 119.026  1.00  0.00     0.019 A 
ATOM      2  C   UNL     1     -23.184 -32.397 120.255  1.00  0.00     0.094 A 
ATOM      3  C   UNL     1     -22.264 -32.936 121.160  1.00  0.00     0.336 A 
ATOM      4  O   UNL     1     -22.079 -32.380 122.274  1.00  0.00    -0.246 OA
ATOM      5  O   UNL     1     -21.580 -34.035 120.852  1.00  0.00    -0.423 OA
ATOM      6  C   UNL     1     -21.731 -34.669 119.691  1.00  0.00     0.142 A 
ATOM      7  C   UNL     1     -20.984 -35.821 119.422  1.00  0.00     0.098 A 
ATOM      8  C   UNL     1     -21.136 -36.495 118.204  1.00  0.00     0.161 A 
ATOM      9  C   UNL     1     -22.044 -36.011 117.243  1.00  0.00     0.158 A 
ATOM     10  C   UNL     1     -22.795 -34.856 117.508  1.00  0.00     0.062 A 
ATOM     11  C   UNL     1     -22.642 -34.183 118.729  1.00  0.00     0.022 A 
ENDROOT
BRANCH   9  12
ATOM     12  O   UNL     1     -22.196 -36.680 116.030  1.00  0.00    -0.504 OA
ATOM     13  H   UNL     1     -21.504 -37.341 115.696  1.00  0.00     0.293 HD
ENDBRANCH   9  12
BRANCH   8  14
ATOM     14  O   UNL     1     -20.378 -37.640 117.966  1.00  0.00    -0.504 OA
ATOM     15  H   UNL     1     -20.805 -38.548 117.829  1.00  0.00     0.293 HD
ENDBRANCH   8  14
TORSDOF 2
ENDMDL
MODEL 5
REMARK VINA RESULT:    -5.480      2.513      3.589
REMARK INTER + INTRA:          -5.800
REMARK INTER:                  -5.800
REMARK INTRA:                   0.000
REMARK UNBOUND:                 0.000
REMARK SMILES O=c1ccc2cc(O)c(O)cc2o1
REMARK SMILES IDX 4 1 3 2 2 3 1 4 13 5 12 6 11 7 9 8 7 9 6 10 5 11 8 12 10 14
REMARK H PARENT 8 13 10 15
REMARK Flexibility Score: inf
ROOT
ATOM      1  C   UNL     1     -18.744 -35.580 118.677  1.00  0.00     0.019 A 
ATOM      2  C   UNL     1     -18.096 -36.742 118.261  1.00  0.00     0.094 A 
ATOM      3  C   UNL     1     -18.778 -37.640 117.434  1.00  0.00     0.336 A 
ATOM      4  O   UNL     1     -18.210 -38.695 117.048  1.00  0.00    -0.246 OA
ATOM      5  O   UNL     1     -20.027 -37.387 117.050  1.00  0.00    -0.423 OA
ATOM      6  C   UNL     1     -20.682 -36.290 117.424  1.00  0.00     0.142 A 
ATOM      7  C   UNL     1     -21.994 -36.077 116.989  1.00  0.00     0.098 A 
ATOM      8  C   UNL     1     -22.690 -34.926 117.378  1.00  0.00     0.161 A 
ATOM      9  C   UNL     1     -22.068 -33.977 118.210  1.00  0.00     0.158 A 
ATOM     10  C   UNL     1     -20.752 -34.186 118.648  1.00  0.00     0.062 A 
ATOM     11  C   UNL     1     -20.057 -35.340 118.258  1.00  0.00     0.022 A 
ENDROOT
BRANCH   9  12
ATOM     12  O   UNL     1     -22.760 -32.831 118.597  1.00  0.00    -0.504 OA
ATOM     13  H   UNL     1     -23.075 -32.696 119.551  1.00  0.00     0.293 HD
ENDBRANCH   9  12
BRANCH   8  14
ATOM     14  O   UNL     1     -23.997 -34.743 116.928  1.00  0.00    -0.504 OA
ATOM     15  H   UNL     1     -24.796 -34.850 117.540  1.00  0.00     0.293 HD
ENDBRANCH   8  14
TORSDOF 2
ENDMDL
MODEL 6
REMARK VINA RESULT:    -5.457      2.464      3.376
REMARK INTER + INTRA:          -5.776
REMARK INTER:                  -5.776
REMARK INTRA:                   0.000
REMARK UNBOUND:                 0.000
REMARK SMILES O=c1ccc2cc(O)c(O)cc2o1
REMARK SMILES IDX 4 1 3 2 2 3 1 4 13 5 12 6 11 7 9 8 7 9 6 10 5 11 8 12 10 14
REMARK H PARENT 8 13 10 15
REMARK Flexibility Score: inf
ROOT
ATOM      1  C   UNL     1     -21.745 -34.018 120.773  1.00  0.00     0.019 A 
ATOM      2  C   UNL     1     -22.583 -32.914 120.928  1.00  0.00     0.094 A 
ATOM      3  C   UNL     1     -23.420 -32.545 119.870  1.00  0.00     0.336 A 
ATOM      4  O   UNL     1     -24.183 -31.551 119.990  1.00  0.00    -0.246 OA
ATOM      5  O   UNL     1     -23.416 -33.238 118.735  1.00  0.00    -0.423 OA
ATOM      6  C   UNL     1     -22.633 -34.298 118.546  1.00  0.00     0.142 A 
ATOM      7  C   UNL     1     -22.672 -34.988 117.330  1.00  0.00     0.098 A 
ATOM      8  C   UNL     1     -21.851 -36.103 117.123  1.00  0.00     0.161 A 
ATOM      9  C   UNL     1     -20.982 -36.534 118.142  1.00  0.00     0.158 A 
ATOM     10  C   UNL     1     -20.939 -35.845 119.364  1.00  0.00     0.062 A 
ATOM     11  C   UNL     1     -21.762 -34.728 119.569  1.00  0.00     0.022 A 
ENDROOT
BRANCH   9  12
ATOM     12  O   UNL     1     -20.164 -37.644 117.938  1.00  0.00    -0.504 OA
ATOM     13  H   UNL     1     -19.255 -37.562 117.498  1.00  0.00     0.293 HD
ENDBRANCH   9  12
BRANCH   8  14
ATOM     14  O   UNL     1     -21.913 -36.770 115.900  1.00  0.00    -0.504 OA
ATOM     15  H   UNL     1     -21.101 -36.876 115.304  1.00  0.00     0.293 HD
ENDBRANCH   8  14
TORSDOF 2
ENDMDL
MODEL 7
REMARK VINA RESULT:    -5.329      2.913      3.386
REMARK INTER + INTRA:          -5.640
REMARK INTER:                  -5.640
REMARK INTRA:                   0.000
REMARK UNBOUND:                 0.000
REMARK SMILES O=c1ccc2cc(O)c(O)cc2o1
REMARK SMILES IDX 4 1 3 2 2 3 1 4 13 5 12 6 11 7 9 8 7 9 6 10 5 11 8 12 10 14
REMARK H PARENT 8 13 10 15
REMARK Flexibility Score: inf
ROOT
ATOM      1  C   UNL     1     -17.810 -37.684 117.033  1.00  0.00     0.019 A 
ATOM      2  C   UNL     1     -16.553 -37.524 117.614  1.00  0.00     0.094 A 
ATOM      3  C   UNL     1     -16.453 -36.866 118.844  1.00  0.00     0.336 A 
ATOM      4  O   UNL     1     -15.327 -36.711 119.385  1.00  0.00    -0.246 OA
ATOM      5  O   UNL     1     -17.543 -36.401 119.450  1.00  0.00    -0.423 OA
ATOM      6  C   UNL     1     -18.762 -36.533 118.930  1.00  0.00     0.142 A 
ATOM      7  C   UNL     1     -19.871 -36.024 119.612  1.00  0.00     0.098 A 
ATOM      8  C   UNL     1     -21.156 -36.158 119.072  1.00  0.00     0.161 A 
ATOM      9  C   UNL     1     -21.335 -36.809 117.838  1.00  0.00     0.158 A 
ATOM     10  C   UNL     1     -20.224 -37.322 117.149  1.00  0.00     0.062 A 
ATOM     11  C   UNL     1     -18.938 -37.185 117.691  1.00  0.00     0.022 A 
ENDROOT
BRANCH   9  12
ATOM     12  O   UNL     1     -22.613 -36.944 117.299  1.00  0.00    -0.504 OA
ATOM     13  H   UNL     1     -22.757 -37.207 116.331  1.00  0.00     0.293 HD
ENDBRANCH   9  12
BRANCH   8  14
ATOM     14  O   UNL     1     -22.242 -35.640 119.776  1.00  0.00    -0.504 OA
ATOM     15  H   UNL     1     -23.072 -36.189 119.966  1.00  0.00     0.293 HD
ENDBRANCH   8  14
TORSDOF 2
ENDMDL
MODEL 8
REMARK VINA RESULT:    -5.213      2.413      4.391
REMARK INTER + INTRA:          -5.518
REMARK INTER:                  -5.518
REMARK INTRA:                   0.000
REMARK UNBOUND:                 0.000
REMARK SMILES O=c1ccc2cc(O)c(O)cc2o1
REMARK SMILES IDX 4 1 3 2 2 3 1 4 13 5 12 6 11 7 9 8 7 9 6 10 5 11 8 12 10 14
REMARK H PARENT 8 13 10 15
REMARK Flexibility Score: inf
ROOT
ATOM      1  C   UNL     1     -20.528 -34.087 119.000  1.00  0.00     0.019 A 
ATOM      2  C   UNL     1     -21.823 -33.719 118.636  1.00  0.00     0.094 A 
ATOM      3  C   UNL     1     -22.555 -34.560 117.792  1.00  0.00     0.336 A 
ATOM      4  O   UNL     1     -23.726 -34.244 117.452  1.00  0.00    -0.246 OA
ATOM      5  O   UNL     1     -22.024 -35.695 117.346  1.00  0.00    -0.423 OA
ATOM      6  C   UNL     1     -20.792 -36.084 117.669  1.00  0.00     0.142 A 
ATOM      7  C   UNL     1     -20.286 -37.288 117.168  1.00  0.00     0.098 A 
ATOM      8  C   UNL     1     -18.992 -37.704 117.503  1.00  0.00     0.161 A 
ATOM      9  C   UNL     1     -18.195 -36.910 118.347  1.00  0.00     0.158 A 
ATOM     10  C   UNL     1     -18.698 -35.701 118.852  1.00  0.00     0.062 A 
ATOM     11  C   UNL     1     -19.995 -35.285 118.515  1.00  0.00     0.022 A 
ENDROOT
BRANCH   9  12
ATOM     12  O   UNL     1     -16.907 -37.323 118.682  1.00  0.00    -0.504 OA
ATOM     13  H   UNL     1     -16.175 -37.403 117.984  1.00  0.00     0.293 HD
ENDBRANCH   9  12
BRANCH   8  14
ATOM     14  O   UNL     1     -18.516 -38.909 116.988  1.00  0.00    -0.504 OA
ATOM     15  H   UNL     1     -17.547 -39.190 117.085  1.00  0.00     0.293 HD
ENDBRANCH   8  14
TORSDOF 2
ENDMDL
MODEL 9
REMARK VINA RESULT:    -5.200      9.768     11.317
REMARK INTER + INTRA:          -5.504
REMARK INTER:                  -5.504
REMARK INTRA:                   0.000
REMARK UNBOUND:                 0.000
REMARK SMILES O=c1ccc2cc(O)c(O)cc2o1
REMARK SMILES IDX 4 1 3 2 2 3 1 4 13 5 12 6 11 7 9 8 7 9 6 10 5 11 8 12 10 14
REMARK H PARENT 8 13 10 15
REMARK Flexibility Score: inf
ROOT
ATOM      1  C   UNL     1     -14.028 -44.748 115.272  1.00  0.00     0.019 A 
ATOM      2  C   UNL     1     -14.383 -44.342 113.986  1.00  0.00     0.094 A 
ATOM      3  C   UNL     1     -14.721 -43.002 113.768  1.00  0.00     0.336 A 
ATOM      4  O   UNL     1     -15.044 -42.616 112.614  1.00  0.00    -0.246 OA
ATOM      5  O   UNL     1     -14.702 -42.130 114.773  1.00  0.00    -0.423 OA
ATOM      6  C   UNL     1     -14.369 -42.476 116.015  1.00  0.00     0.142 A 
ATOM      7  C   UNL     1     -14.368 -41.516 117.031  1.00  0.00     0.098 A 
ATOM      8  C   UNL     1     -14.020 -41.872 118.340  1.00  0.00     0.161 A 
ATOM      9  C   UNL     1     -13.668 -43.202 118.636  1.00  0.00     0.158 A 
ATOM     10  C   UNL     1     -13.667 -44.169 117.619  1.00  0.00     0.062 A 
ATOM     11  C   UNL     1     -14.018 -43.811 116.309  1.00  0.00     0.022 A 
ENDROOT
BRANCH   9  12
ATOM     12  O   UNL     1     -13.320 -43.557 119.937  1.00  0.00    -0.504 OA
ATOM     13  H   UNL     1     -13.965 -43.442 120.711  1.00  0.00     0.293 HD
ENDBRANCH   9  12
BRANCH   8  14
ATOM     14  O   UNL     1     -14.028 -40.892 119.331  1.00  0.00    -0.504 OA
ATOM     15  H   UNL     1     -13.393 -40.920 120.120  1.00  0.00     0.293 HD
ENDBRANCH   8  14
TORSDOF 2
ENDMDL
