MODEL 1
REMARK VINA RESULT:    -3.674      0.000      0.000
REMARK INTER + INTRA:          -8.121
REMARK INTER:                  -7.111
REMARK INTRA:                  -1.010
REMARK UNBOUND:                -1.010
REMARK SMILES CCCCCCCCCCCCCCCCCC(=O)[O-]
REMARK SMILES IDX 10 1 11 2 12 3 13 4 14 5 15 6 16 7 17 8 18 9 19 10 20 11
REMARK SMILES IDX 9 12 8 13 7 14 6 15 5 16 4 17 3 18 2 19 1 20
REMARK H PARENT
REMARK Flexibility Score: inf
ROOT
ATOM      1  C   UNL     1    -116.622 -98.647  42.454  1.00  0.00     0.000 C 
ENDROOT
BRANCH   1   2
ATOM      2  C   UNL     1    -116.427 -99.422  41.143  1.00  0.00     0.000 C 
BRANCH   2   3
ATOM      3  C   UNL     1    -117.559 -99.184  40.128  1.00  0.00     0.000 C 
BRANCH   3   4
ATOM      4  C   UNL     1    -117.278 -99.867  38.772  1.00  0.00     0.000 C 
BRANCH   4   5
ATOM      5  C   UNL     1    -116.555 -98.955  37.763  1.00  0.00     0.000 C 
BRANCH   5   6
ATOM      6  C   UNL     1    -116.230 -99.619  36.411  1.00  0.00     0.000 C 
BRANCH   6   7
ATOM      7  C   UNL     1    -115.425 -98.742  35.433  1.00  0.00     0.006 C 
BRANCH   7   8
ATOM      8  C   UNL     1    -115.844 -98.937  33.969  1.00  0.00     0.053 C 
BRANCH   8   9
ATOM      9  C   UNL     1    -116.739 -97.821  33.525  1.00  0.00     0.041 C 
ATOM     10  O   UNL     1    -117.978 -97.869  33.759  1.00  0.00    -0.550 OA
ATOM     11  O   UNL     1    -116.211 -96.739  32.830  1.00  0.00    -0.550 OA
ENDBRANCH   8   9
ENDBRANCH   7   8
ENDBRANCH   6   7
ENDBRANCH   5   6
ENDBRANCH   4   5
ENDBRANCH   3   4
ENDBRANCH   2   3
ENDBRANCH   1   2
BRANCH   1  12
ATOM     12  C   UNL     1    -118.085 -98.239  42.694  1.00  0.00     0.000 C 
BRANCH  12  13
ATOM     13  C   UNL     1    -118.441 -98.154  44.189  1.00  0.00    -0.000 C 
BRANCH  13  14
ATOM     14  C   UNL     1    -117.609 -99.108  45.073  1.00  0.00    -0.000 C 
BRANCH  14  15
ATOM     15  C   UNL     1    -118.492-100.124  45.821  1.00  0.00    -0.000 C 
BRANCH  15  16
ATOM     16  C   UNL     1    -118.837 -99.665  47.247  1.00  0.00    -0.000 C 
BRANCH  16  17
ATOM     17  C   UNL     1    -117.584 -99.300  48.063  1.00  0.00    -0.000 C 
BRANCH  17  18
ATOM     18  C   UNL     1    -117.811 -98.093  48.988  1.00  0.00    -0.000 C 
BRANCH  18  19
ATOM     19  C   UNL     1    -117.579 -96.751  48.277  1.00  0.00    -0.003 C 
ATOM     20  C   UNL     1    -118.900 -96.136  47.820  1.00  0.00     0.004 C 
ENDBRANCH  18  19
ENDBRANCH  17  18
ENDBRANCH  16  17
ENDBRANCH  15  16
ENDBRANCH  14  15
ENDBRANCH  13  14
ENDBRANCH  12  13
ENDBRANCH   1  12
TORSDOF 16
ENDMDL
MODEL 2
REMARK VINA RESULT:    -3.659      4.687     11.284
REMARK INTER + INTRA:          -8.091
REMARK INTER:                  -7.657
REMARK INTRA:                  -0.433
REMARK UNBOUND:                -1.010
REMARK SMILES CCCCCCCCCCCCCCCCCC(=O)[O-]
REMARK SMILES IDX 10 1 11 2 12 3 13 4 14 5 15 6 16 7 17 8 18 9 19 10 20 11
REMARK SMILES IDX 9 12 8 13 7 14 6 15 5 16 4 17 3 18 2 19 1 20
REMARK H PARENT
REMARK Flexibility Score: inf
ROOT
ATOM      1  C   UNL     1    -117.437 -98.810  41.195  1.00  0.00     0.000 C 
ENDROOT
BRANCH   1   2
ATOM      2  C   UNL     1    -116.596 -98.608  42.464  1.00  0.00     0.000 C 
BRANCH   2   3
ATOM      3  C   UNL     1    -117.202 -99.292  43.703  1.00  0.00     0.000 C 
BRANCH   3   4
ATOM      4  C   UNL     1    -117.989 -98.300  44.587  1.00  0.00     0.000 C 
BRANCH   4   5
ATOM      5  C   UNL     1    -118.446 -98.902  45.929  1.00  0.00     0.000 C 
BRANCH   5   6
ATOM      6  C   UNL     1    -117.898 -98.186  47.178  1.00  0.00     0.000 C 
BRANCH   6   7
ATOM      7  C   UNL     1    -118.966 -97.517  48.065  1.00  0.00     0.006 C 
BRANCH   7   8
ATOM      8  C   UNL     1    -118.415 -96.338  48.879  1.00  0.00     0.053 C 
BRANCH   8   9
ATOM      9  C   UNL     1    -118.523 -95.063  48.101  1.00  0.00     0.041 C 
ATOM     10  O   UNL     1    -118.417 -95.077  46.844  1.00  0.00    -0.550 OA
ATOM     11  O   UNL     1    -118.716 -93.856  48.763  1.00  0.00    -0.550 OA
ENDBRANCH   8   9
ENDBRANCH   7   8
ENDBRANCH   6   7
ENDBRANCH   5   6
ENDBRANCH   4   5
ENDBRANCH   3   4
ENDBRANCH   2   3
ENDBRANCH   1   2
BRANCH   1  12
ATOM     12  C   UNL     1    -117.089-100.109  40.449  1.00  0.00     0.000 C 
BRANCH  12  13
ATOM     13  C   UNL     1    -117.621-100.125  39.005  1.00  0.00    -0.000 C 
BRANCH  13  14
ATOM     14  C   UNL     1    -116.818 -99.222  38.045  1.00  0.00    -0.000 C 
BRANCH  14  15
ATOM     15  C   UNL     1    -116.558 -99.903  36.689  1.00  0.00    -0.000 C 
BRANCH  15  16
ATOM     16  C   UNL     1    -115.712 -99.032  35.747  1.00  0.00    -0.000 C 
BRANCH  16  17
ATOM     17  C   UNL     1    -115.539 -99.671  34.357  1.00  0.00    -0.000 C 
BRANCH  17  18
ATOM     18  C   UNL     1    -115.829 -98.686  33.212  1.00  0.00    -0.000 C 
BRANCH  18  19
ATOM     19  C   UNL     1    -116.764 -97.543  33.637  1.00  0.00    -0.003 C 
ATOM     20  C   UNL     1    -117.075 -96.622  32.460  1.00  0.00     0.004 C 
ENDBRANCH  18  19
ENDBRANCH  17  18
ENDBRANCH  16  17
ENDBRANCH  15  16
ENDBRANCH  14  15
ENDBRANCH  13  14
ENDBRANCH  12  13
ENDBRANCH   1  12
TORSDOF 16
ENDMDL
MODEL 3
REMARK VINA RESULT:    -3.588      4.617     10.992
REMARK INTER + INTRA:          -7.954
REMARK INTER:                  -7.132
REMARK INTRA:                  -0.822
REMARK UNBOUND:                -1.010
REMARK SMILES CCCCCCCCCCCCCCCCCC(=O)[O-]
REMARK SMILES IDX 10 1 11 2 12 3 13 4 14 5 15 6 16 7 17 8 18 9 19 10 20 11
REMARK SMILES IDX 9 12 8 13 7 14 6 15 5 16 4 17 3 18 2 19 1 20
REMARK H PARENT
REMARK Flexibility Score: inf
ROOT
ATOM      1  C   UNL     1    -118.068 -98.559  40.033  1.00  0.00     0.000 C 
ENDROOT
BRANCH   1   2
ATOM      2  C   UNL     1    -117.376 -97.904  41.238  1.00  0.00     0.000 C 
BRANCH   2   3
ATOM      3  C   UNL     1    -116.360 -98.832  41.927  1.00  0.00     0.000 C 
BRANCH   3   4
ATOM      4  C   UNL     1    -116.705 -99.072  43.413  1.00  0.00     0.000 C 
BRANCH   4   5
ATOM      5  C   UNL     1    -118.112 -99.659  43.630  1.00  0.00     0.000 C 
BRANCH   5   6
ATOM      6  C   UNL     1    -118.811 -99.199  44.923  1.00  0.00     0.000 C 
BRANCH   6   7
ATOM      7  C   UNL     1    -118.319 -97.850  45.483  1.00  0.00     0.006 C 
BRANCH   7   8
ATOM      8  C   UNL     1    -118.336 -97.796  47.017  1.00  0.00     0.053 C 
BRANCH   8   9
ATOM      9  C   UNL     1    -118.144 -96.391  47.497  1.00  0.00     0.041 C 
ATOM     10  O   UNL     1    -117.779 -96.170  48.684  1.00  0.00    -0.550 OA
ATOM     11  O   UNL     1    -118.391 -95.322  46.642  1.00  0.00    -0.550 OA
ENDBRANCH   8   9
ENDBRANCH   7   8
ENDBRANCH   6   7
ENDBRANCH   5   6
ENDBRANCH   4   5
ENDBRANCH   3   4
ENDBRANCH   2   3
ENDBRANCH   1   2
BRANCH   1  12
ATOM     12  C   UNL     1    -117.503 -99.951  39.706  1.00  0.00     0.000 C 
BRANCH  12  13
ATOM     13  C   UNL     1    -117.178-100.124  38.212  1.00  0.00    -0.000 C 
BRANCH  13  14
ATOM     14  C   UNL     1    -116.569 -98.862  37.565  1.00  0.00    -0.000 C 
BRANCH  14  15
ATOM     15  C   UNL     1    -115.984 -99.149  36.171  1.00  0.00    -0.000 C 
BRANCH  15  16
ATOM     16  C   UNL     1    -116.814 -98.512  35.044  1.00  0.00    -0.000 C 
BRANCH  16  17
ATOM     17  C   UNL     1    -115.953 -98.137  33.824  1.00  0.00    -0.000 C 
BRANCH  17  18
ATOM     18  C   UNL     1    -116.331 -96.770  33.229  1.00  0.00    -0.000 C 
BRANCH  18  19
ATOM     19  C   UNL     1    -117.228 -96.893  31.988  1.00  0.00    -0.003 C 
ATOM     20  C   UNL     1    -117.794 -98.305  31.856  1.00  0.00     0.004 C 
ENDBRANCH  18  19
ENDBRANCH  17  18
ENDBRANCH  16  17
ENDBRANCH  15  16
ENDBRANCH  14  15
ENDBRANCH  13  14
ENDBRANCH  12  13
ENDBRANCH   1  12
TORSDOF 16
ENDMDL
MODEL 4
REMARK VINA RESULT:    -3.373      1.038      1.895
REMARK INTER + INTRA:          -7.539
REMARK INTER:                  -6.832
REMARK INTRA:                  -0.707
REMARK UNBOUND:                -1.010
REMARK SMILES CCCCCCCCCCCCCCCCCC(=O)[O-]
REMARK SMILES IDX 10 1 11 2 12 3 13 4 14 5 15 6 16 7 17 8 18 9 19 10 20 11
REMARK SMILES IDX 9 12 8 13 7 14 6 15 5 16 4 17 3 18 2 19 1 20
REMARK H PARENT
REMARK Flexibility Score: inf
ROOT
ATOM      1  C   UNL     1    -116.939 -99.123  40.571  1.00  0.00     0.000 C 
ENDROOT
BRANCH   1   2
ATOM      2  C   UNL     1    -117.301 -99.789  39.234  1.00  0.00     0.000 C 
BRANCH   2   3
ATOM      3  C   UNL     1    -116.874 -98.956  38.013  1.00  0.00     0.000 C 
BRANCH   3   4
ATOM      4  C   UNL     1    -116.479 -99.844  36.813  1.00  0.00     0.000 C 
BRANCH   4   5
ATOM      5  C   UNL     1    -115.546 -99.141  35.809  1.00  0.00     0.000 C 
BRANCH   5   6
ATOM      6  C   UNL     1    -115.382 -99.870  34.462  1.00  0.00     0.000 C 
BRANCH   6   7
ATOM      7  C   UNL     1    -116.278 -99.343  33.325  1.00  0.00     0.006 C 
BRANCH   7   8
ATOM      8  C   UNL     1    -117.137 -98.142  33.746  1.00  0.00     0.053 C 
BRANCH   8   9
ATOM      9  C   UNL     1    -116.663 -96.892  33.072  1.00  0.00     0.041 C 
ATOM     10  O   UNL     1    -115.575 -96.356  33.421  1.00  0.00    -0.550 OA
ATOM     11  O   UNL     1    -117.432 -96.303  32.075  1.00  0.00    -0.550 OA
ENDBRANCH   8   9
ENDBRANCH   7   8
ENDBRANCH   6   7
ENDBRANCH   5   6
ENDBRANCH   4   5
ENDBRANCH   3   4
ENDBRANCH   2   3
ENDBRANCH   1   2
BRANCH   1  12
ATOM     12  C   UNL     1    -117.927 -98.014  40.971  1.00  0.00     0.000 C 
BRANCH  12  13
ATOM     13  C   UNL     1    -118.505 -98.215  42.383  1.00  0.00    -0.000 C 
BRANCH  13  14
ATOM     14  C   UNL     1    -117.447 -98.633  43.426  1.00  0.00    -0.000 C 
BRANCH  14  15
ATOM     15  C   UNL     1    -117.978 -99.707  44.393  1.00  0.00    -0.000 C 
BRANCH  15  16
ATOM     16  C   UNL     1    -118.662 -99.100  45.628  1.00  0.00    -0.000 C 
BRANCH  16  17
ATOM     17  C   UNL     1    -117.761 -99.142  46.875  1.00  0.00    -0.000 C 
BRANCH  17  18
ATOM     18  C   UNL     1    -118.563 -99.253  48.182  1.00  0.00    -0.000 C 
BRANCH  18  19
ATOM     19  C   UNL     1    -118.402 -98.018  49.082  1.00  0.00    -0.003 C 
ATOM     20  C   UNL     1    -117.424 -97.017  48.472  1.00  0.00     0.004 C 
ENDBRANCH  18  19
ENDBRANCH  17  18
ENDBRANCH  16  17
ENDBRANCH  15  16
ENDBRANCH  14  15
ENDBRANCH  13  14
ENDBRANCH  12  13
ENDBRANCH   1  12
TORSDOF 16
ENDMDL
MODEL 5
REMARK VINA RESULT:    -2.785      4.337     11.415
REMARK INTER + INTRA:          -6.400
REMARK INTER:                  -5.206
REMARK INTRA:                  -1.194
REMARK UNBOUND:                -1.010
REMARK SMILES CCCCCCCCCCCCCCCCCC(=O)[O-]
REMARK SMILES IDX 10 1 11 2 12 3 13 4 14 5 15 6 16 7 17 8 18 9 19 10 20 11
REMARK SMILES IDX 9 12 8 13 7 14 6 15 5 16 4 17 3 18 2 19 1 20
REMARK H PARENT
REMARK Flexibility Score: inf
ROOT
ATOM      1  C   UNL     1    -115.738 -98.064  34.967  1.00  0.00     0.000 C 
ENDROOT
BRANCH   1   2
ATOM      2  C   UNL     1    -114.859 -99.051  35.749  1.00  0.00     0.000 C 
BRANCH   2   3
ATOM      3  C   UNL     1    -115.673-100.125  36.492  1.00  0.00     0.000 C 
BRANCH   3   4
ATOM      4  C   UNL     1    -116.961 -99.548  37.119  1.00  0.00     0.000 C 
BRANCH   4   5
ATOM      5  C   UNL     1    -117.245-100.076  38.537  1.00  0.00     0.000 C 
BRANCH   5   6
ATOM      6  C   UNL     1    -117.263 -98.997  39.636  1.00  0.00     0.000 C 
BRANCH   6   7
ATOM      7  C   UNL     1    -117.012 -99.519  41.064  1.00  0.00     0.006 C 
BRANCH   7   8
ATOM      8  C   UNL     1    -116.695 -98.398  42.064  1.00  0.00     0.053 C 
BRANCH   8   9
ATOM      9  C   UNL     1    -117.445 -98.606  43.344  1.00  0.00     0.041 C 
ATOM     10  O   UNL     1    -117.290 -99.668  44.005  1.00  0.00    -0.550 OA
ATOM     11  O   UNL     1    -118.336 -97.637  43.794  1.00  0.00    -0.550 OA
ENDBRANCH   8   9
ENDBRANCH   7   8
ENDBRANCH   6   7
ENDBRANCH   5   6
ENDBRANCH   4   5
ENDBRANCH   3   4
ENDBRANCH   2   3
ENDBRANCH   1   2
BRANCH   1  12
ATOM     12  C   UNL     1    -115.823 -98.400  33.468  1.00  0.00     0.000 C 
BRANCH  12  13
ATOM     13  C   UNL     1    -115.787 -97.146  32.576  1.00  0.00    -0.000 C 
BRANCH  13  14
ATOM     14  C   UNL     1    -116.868 -96.105  32.937  1.00  0.00    -0.000 C 
BRANCH  14  15
ATOM     15  C   UNL     1    -118.058 -96.142  31.960  1.00  0.00    -0.000 C 
BRANCH  15  16
ATOM     16  C   UNL     1    -117.863 -97.171  30.836  1.00  0.00    -0.000 C 
BRANCH  16  17
ATOM     17  C   UNL     1    -119.125 -98.018  30.594  1.00  0.00    -0.000 C 
BRANCH  17  18
ATOM     18  C   UNL     1    -118.818 -99.522  30.491  1.00  0.00    -0.000 C 
BRANCH  18  19
ATOM     19  C   UNL     1    -118.166-100.081  31.765  1.00  0.00    -0.003 C 
ATOM     20  C   UNL     1    -119.125-100.011  32.950  1.00  0.00     0.004 C 
ENDBRANCH  18  19
ENDBRANCH  17  18
ENDBRANCH  16  17
ENDBRANCH  15  16
ENDBRANCH  14  15
ENDBRANCH  13  14
ENDBRANCH  12  13
ENDBRANCH   1  12
TORSDOF 16
ENDMDL
MODEL 6
REMARK VINA RESULT:    -2.604      1.976      5.343
REMARK INTER + INTRA:          -6.050
REMARK INTER:                  -5.210
REMARK INTRA:                  -0.840
REMARK UNBOUND:                -1.010
REMARK SMILES CCCCCCCCCCCCCCCCCC(=O)[O-]
REMARK SMILES IDX 10 1 11 2 12 3 13 4 14 5 15 6 16 7 17 8 18 9 19 10 20 11
REMARK SMILES IDX 9 12 8 13 7 14 6 15 5 16 4 17 3 18 2 19 1 20
REMARK H PARENT
REMARK Flexibility Score: inf
ROOT
ATOM      1  C   UNL     1    -115.746 -98.709  36.538  1.00  0.00     0.000 C 
ENDROOT
BRANCH   1   2
ATOM      2  C   UNL     1    -115.454 -98.370  35.069  1.00  0.00     0.000 C 
BRANCH   2   3
ATOM      3  C   UNL     1    -115.287 -99.619  34.185  1.00  0.00     0.000 C 
BRANCH   3   4
ATOM      4  C   UNL     1    -116.128 -99.534  32.893  1.00  0.00     0.000 C 
BRANCH   4   5
ATOM      5  C   UNL     1    -117.543-100.125  33.041  1.00  0.00     0.000 C 
BRANCH   5   6
ATOM      6  C   UNL     1    -118.510 -99.277  33.889  1.00  0.00     0.000 C 
BRANCH   6   7
ATOM      7  C   UNL     1    -119.120 -98.063  33.161  1.00  0.00     0.006 C 
BRANCH   7   8
ATOM      8  C   UNL     1    -119.068 -98.194  31.632  1.00  0.00     0.053 C 
BRANCH   8   9
ATOM      9  C   UNL     1    -118.307 -97.053  31.031  1.00  0.00     0.041 C 
ATOM     10  O   UNL     1    -117.233 -96.657  31.560  1.00  0.00    -0.550 OA
ATOM     11  O   UNL     1    -118.796 -96.408  29.899  1.00  0.00    -0.550 OA
ENDBRANCH   8   9
ENDBRANCH   7   8
ENDBRANCH   6   7
ENDBRANCH   5   6
ENDBRANCH   4   5
ENDBRANCH   3   4
ENDBRANCH   2   3
ENDBRANCH   1   2
BRANCH   1  12
ATOM     12  C   UNL     1    -116.999 -99.583  36.710  1.00  0.00     0.000 C 
BRANCH  12  13
ATOM     13  C   UNL     1    -117.154-100.123  38.143  1.00  0.00    -0.000 C 
BRANCH  13  14
ATOM     14  C   UNL     1    -118.590 -99.996  38.696  1.00  0.00    -0.000 C 
BRANCH  14  15
ATOM     15  C   UNL     1    -118.638 -99.187  40.004  1.00  0.00    -0.000 C 
BRANCH  15  16
ATOM     16  C   UNL     1    -117.258 -99.061  40.669  1.00  0.00    -0.000 C 
BRANCH  16  17
ATOM     17  C   UNL     1    -117.313 -98.265  41.985  1.00  0.00    -0.000 C 
BRANCH  17  18
ATOM     18  C   UNL     1    -116.787 -99.069  43.186  1.00  0.00    -0.000 C 
BRANCH  18  19
ATOM     19  C   UNL     1    -117.912 -99.536  44.124  1.00  0.00    -0.003 C 
ATOM     20  C   UNL     1    -118.041 -98.609  45.329  1.00  0.00     0.004 C 
ENDBRANCH  18  19
ENDBRANCH  17  18
ENDBRANCH  16  17
ENDBRANCH  15  16
ENDBRANCH  14  15
ENDBRANCH  13  14
ENDBRANCH  12  13
ENDBRANCH   1  12
TORSDOF 16
ENDMDL
MODEL 7
REMARK VINA RESULT:    -2.333      4.451     11.300
REMARK INTER + INTRA:          -5.525
REMARK INTER:                  -4.673
REMARK INTRA:                  -0.852
REMARK UNBOUND:                -1.010
REMARK SMILES CCCCCCCCCCCCCCCCCC(=O)[O-]
REMARK SMILES IDX 10 1 11 2 12 3 13 4 14 5 15 6 16 7 17 8 18 9 19 10 20 11
REMARK SMILES IDX 9 12 8 13 7 14 6 15 5 16 4 17 3 18 2 19 1 20
REMARK H PARENT
REMARK Flexibility Score: inf
ROOT
ATOM      1  C   UNL     1    -115.213 -97.975  35.150  1.00  0.00     0.000 C 
ENDROOT
BRANCH   1   2
ATOM      2  C   UNL     1    -115.432 -99.145  36.121  1.00  0.00     0.000 C 
BRANCH   2   3
ATOM      3  C   UNL     1    -116.750 -99.036  36.907  1.00  0.00     0.000 C 
BRANCH   3   4
ATOM      4  C   UNL     1    -116.777 -99.978  38.131  1.00  0.00     0.000 C 
BRANCH   4   5
ATOM      5  C   UNL     1    -118.172-100.121  38.767  1.00  0.00     0.000 C 
BRANCH   5   6
ATOM      6  C   UNL     1    -118.232 -99.798  40.272  1.00  0.00     0.000 C 
BRANCH   6   7
ATOM      7  C   UNL     1    -117.513 -98.500  40.687  1.00  0.00     0.006 C 
BRANCH   7   8
ATOM      8  C   UNL     1    -116.505 -98.712  41.825  1.00  0.00     0.053 C 
BRANCH   8   9
ATOM      9  C   UNL     1    -117.215 -98.932  43.125  1.00  0.00     0.041 C 
ATOM     10  O   UNL     1    -117.422-100.103  43.545  1.00  0.00    -0.550 OA
ATOM     11  O   UNL     1    -117.672 -97.844  43.862  1.00  0.00    -0.550 OA
ENDBRANCH   8   9
ENDBRANCH   7   8
ENDBRANCH   6   7
ENDBRANCH   5   6
ENDBRANCH   4   5
ENDBRANCH   3   4
ENDBRANCH   2   3
ENDBRANCH   1   2
BRANCH   1  12
ATOM     12  C   UNL     1    -115.788 -98.246  33.750  1.00  0.00     0.000 C 
BRANCH  12  13
ATOM     13  C   UNL     1    -117.250 -98.725  33.791  1.00  0.00    -0.000 C 
BRANCH  13  14
ATOM     14  C   UNL     1    -117.461-100.111  33.143  1.00  0.00    -0.000 C 
BRANCH  14  15
ATOM     15  C   UNL     1    -117.798-100.005  31.645  1.00  0.00    -0.000 C 
BRANCH  15  16
ATOM     16  C   UNL     1    -119.112 -99.250  31.390  1.00  0.00    -0.000 C 
BRANCH  16  17
ATOM     17  C   UNL     1    -119.115 -98.525  30.032  1.00  0.00    -0.000 C 
BRANCH  17  18
ATOM     18  C   UNL     1    -118.815 -97.022  30.163  1.00  0.00    -0.000 C 
BRANCH  18  19
ATOM     19  C   UNL     1    -119.079 -96.486  31.579  1.00  0.00    -0.003 C 
ATOM     20  C   UNL     1    -119.107 -94.960  31.592  1.00  0.00     0.004 C 
ENDBRANCH  18  19
ENDBRANCH  17  18
ENDBRANCH  16  17
ENDBRANCH  15  16
ENDBRANCH  14  15
ENDBRANCH  13  14
ENDBRANCH  12  13
ENDBRANCH   1  12
TORSDOF 16
ENDMDL
MODEL 8
REMARK VINA RESULT:    -2.150      4.263     11.365
REMARK INTER + INTRA:          -5.170
REMARK INTER:                  -4.620
REMARK INTRA:                  -0.551
REMARK UNBOUND:                -1.010
REMARK SMILES CCCCCCCCCCCCCCCCCC(=O)[O-]
REMARK SMILES IDX 10 1 11 2 12 3 13 4 14 5 15 6 16 7 17 8 18 9 19 10 20 11
REMARK SMILES IDX 9 12 8 13 7 14 6 15 5 16 4 17 3 18 2 19 1 20
REMARK H PARENT
REMARK Flexibility Score: inf
ROOT
ATOM      1  C   UNL     1    -116.239 -98.957  35.899  1.00  0.00     0.000 C 
ENDROOT
BRANCH   1   2
ATOM      2  C   UNL     1    -116.358 -99.859  37.137  1.00  0.00     0.000 C 
BRANCH   2   3
ATOM      3  C   UNL     1    -117.340 -99.312  38.188  1.00  0.00     0.000 C 
BRANCH   3   4
ATOM      4  C   UNL     1    -117.288-100.115  39.506  1.00  0.00     0.000 C 
BRANCH   4   5
ATOM      5  C   UNL     1    -118.442 -99.788  40.471  1.00  0.00     0.000 C 
BRANCH   5   6
ATOM      6  C   UNL     1    -118.222 -98.535  41.340  1.00  0.00     0.000 C 
BRANCH   6   7
ATOM      7  C   UNL     1    -118.858 -98.596  42.742  1.00  0.00     0.006 C 
BRANCH   7   8
ATOM      8  C   UNL     1    -117.819 -98.698  43.867  1.00  0.00     0.053 C 
BRANCH   8   9
ATOM      9  C   UNL     1    -118.269 -97.928  45.071  1.00  0.00     0.041 C 
ATOM     10  O   UNL     1    -118.302 -98.484  46.203  1.00  0.00    -0.550 OA
ATOM     11  O   UNL     1    -118.675 -96.605  44.940  1.00  0.00    -0.550 OA
ENDBRANCH   8   9
ENDBRANCH   7   8
ENDBRANCH   6   7
ENDBRANCH   5   6
ENDBRANCH   4   5
ENDBRANCH   3   4
ENDBRANCH   2   3
ENDBRANCH   1   2
BRANCH   1  12
ATOM     12  C   UNL     1    -117.405 -99.139  34.913  1.00  0.00     0.000 C 
BRANCH  12  13
ATOM     13  C   UNL     1    -117.074-100.124  33.778  1.00  0.00    -0.000 C 
BRANCH  13  14
ATOM     14  C   UNL     1    -118.106-100.108  32.630  1.00  0.00    -0.000 C 
BRANCH  14  15
ATOM     15  C   UNL     1    -118.883 -98.780  32.567  1.00  0.00    -0.000 C 
BRANCH  15  16
ATOM     16  C   UNL     1    -119.125 -98.310  31.124  1.00  0.00    -0.000 C 
BRANCH  16  17
ATOM     17  C   UNL     1    -118.949 -96.789  30.968  1.00  0.00    -0.000 C 
BRANCH  17  18
ATOM     18  C   UNL     1    -117.498 -96.333  31.200  1.00  0.00    -0.000 C 
BRANCH  18  19
ATOM     19  C   UNL     1    -117.118 -96.304  32.688  1.00  0.00    -0.003 C 
ATOM     20  C   UNL     1    -115.750 -96.941  32.918  1.00  0.00     0.004 C 
ENDBRANCH  18  19
ENDBRANCH  17  18
ENDBRANCH  16  17
ENDBRANCH  15  16
ENDBRANCH  14  15
ENDBRANCH  13  14
ENDBRANCH  12  13
ENDBRANCH   1  12
TORSDOF 16
ENDMDL
MODEL 9
REMARK VINA RESULT:    -1.961      2.702      6.159
REMARK INTER + INTRA:          -4.805
REMARK INTER:                  -3.591
REMARK INTRA:                  -1.214
REMARK UNBOUND:                -1.010
REMARK SMILES CCCCCCCCCCCCCCCCCC(=O)[O-]
REMARK SMILES IDX 10 1 11 2 12 3 13 4 14 5 15 6 16 7 17 8 18 9 19 10 20 11
REMARK SMILES IDX 9 12 8 13 7 14 6 15 5 16 4 17 3 18 2 19 1 20
REMARK H PARENT
REMARK Flexibility Score: inf
ROOT
ATOM      1  C   UNL     1    -115.102 -98.685  34.563  1.00  0.00     0.000 C 
ENDROOT
BRANCH   1   2
ATOM      2  C   UNL     1    -115.079 -99.966  33.715  1.00  0.00     0.000 C 
BRANCH   2   3
ATOM      3  C   UNL     1    -116.266-100.064  32.741  1.00  0.00     0.000 C 
BRANCH   3   4
ATOM      4  C   UNL     1    -117.621-100.125  33.479  1.00  0.00     0.000 C 
BRANCH   4   5
ATOM      5  C   UNL     1    -118.829 -99.820  32.574  1.00  0.00     0.000 C 
BRANCH   5   6
ATOM      6  C   UNL     1    -119.122 -98.321  32.372  1.00  0.00     0.000 C 
BRANCH   6   7
ATOM      7  C   UNL     1    -118.856 -97.793  30.949  1.00  0.00     0.006 C 
BRANCH   7   8
ATOM      8  C   UNL     1    -117.605 -96.908  30.863  1.00  0.00     0.053 C 
BRANCH   8   9
ATOM      9  C   UNL     1    -117.650 -95.829  31.901  1.00  0.00     0.041 C 
ATOM     10  O   UNL     1    -116.776 -95.785  32.809  1.00  0.00    -0.550 OA
ATOM     11  O   UNL     1    -118.671 -94.885  31.881  1.00  0.00    -0.550 OA
ENDBRANCH   8   9
ENDBRANCH   7   8
ENDBRANCH   6   7
ENDBRANCH   5   6
ENDBRANCH   4   5
ENDBRANCH   3   4
ENDBRANCH   2   3
ENDBRANCH   1   2
BRANCH   1  12
ATOM     12  C   UNL     1    -115.102 -98.969  36.074  1.00  0.00     0.000 C 
BRANCH  12  13
ATOM     13  C   UNL     1    -116.485 -98.764  36.717  1.00  0.00    -0.000 C 
BRANCH  13  14
ATOM     14  C   UNL     1    -116.978 -99.987  37.518  1.00  0.00    -0.000 C 
BRANCH  14  15
ATOM     15  C   UNL     1    -117.744 -99.577  38.789  1.00  0.00    -0.000 C 
BRANCH  15  16
ATOM     16  C   UNL     1    -116.877 -99.677  40.055  1.00  0.00    -0.000 C 
BRANCH  16  17
ATOM     17  C   UNL     1    -117.307 -98.672  41.138  1.00  0.00    -0.000 C 
BRANCH  17  18
ATOM     18  C   UNL     1    -116.537 -98.857  42.457  1.00  0.00    -0.000 C 
BRANCH  18  19
ATOM     19  C   UNL     1    -117.288 -98.278  43.667  1.00  0.00    -0.003 C 
ATOM     20  C   UNL     1    -118.759 -98.038  43.337  1.00  0.00     0.004 C 
ENDBRANCH  18  19
ENDBRANCH  17  18
ENDBRANCH  16  17
ENDBRANCH  15  16
ENDBRANCH  14  15
ENDBRANCH  13  14
ENDBRANCH  12  13
ENDBRANCH   1  12
TORSDOF 16
ENDMDL
