MODEL 1
REMARK VINA RESULT:    -5.149      0.000      0.000
REMARK INTER + INTRA:         -16.629
REMARK INTER:                 -12.975
REMARK INTRA:                  -3.653
REMARK UNBOUND:                -3.653
REMARK SMILES CCCCCCCCCCCCCCCCCCCCCCCCCCCC(=O)[O-]
REMARK SMILES IDX 15 1 16 2 17 3 18 4 19 5 20 6 21 7 22 8 23 9 24 10 25 11
REMARK SMILES IDX 26 12 27 13 28 14 29 15 30 16 14 17 13 18 12 19 11 20 10 21
REMARK SMILES IDX 9 22 8 23 7 24 6 25 5 26 4 27 3 28 2 29 1 30
REMARK H PARENT
REMARK Flexibility Score: inf
ROOT
ATOM      1  C   UNL     1      27.573  13.064  35.378  1.00  0.00     0.000 C 
ENDROOT
BRANCH   1   2
ATOM      2  C   UNL     1      27.871  11.720  34.683  1.00  0.00     0.000 C 
BRANCH   2   3
ATOM      3  C   UNL     1      28.511  11.832  33.286  1.00  0.00     0.000 C 
BRANCH   3   4
ATOM      4  C   UNL     1      27.988  13.000  32.427  1.00  0.00     0.000 C 
BRANCH   4   5
ATOM      5  C   UNL     1      27.758  12.659  30.939  1.00  0.00     0.000 C 
BRANCH   5   6
ATOM      6  C   UNL     1      26.283  12.573  30.504  1.00  0.00     0.000 C 
BRANCH   6   7
ATOM      7  C   UNL     1      25.281  12.206  31.616  1.00  0.00     0.000 C 
BRANCH   7   8
ATOM      8  C   UNL     1      25.239  10.701  31.964  1.00  0.00     0.000 C 
BRANCH   8   9
ATOM      9  C   UNL     1      25.280   9.794  30.719  1.00  0.00     0.000 C 
BRANCH   9  10
ATOM     10  C   UNL     1      24.002   9.890  29.871  1.00  0.00     0.000 C 
BRANCH  10  11
ATOM     11  C   UNL     1      22.722   9.651  30.693  1.00  0.00     0.000 C 
BRANCH  11  12
ATOM     12  C   UNL     1      21.728  10.826  30.588  1.00  0.00     0.006 C 
BRANCH  12  13
ATOM     13  C   UNL     1      21.057  11.182  31.924  1.00  0.00     0.053 C 
BRANCH  13  14
ATOM     14  C   UNL     1      19.620  10.762  31.971  1.00  0.00     0.041 C 
ATOM     15  O   UNL     1      19.316   9.541  31.932  1.00  0.00    -0.550 OA
ATOM     16  O   UNL     1      18.618  11.719  32.057  1.00  0.00    -0.550 OA
ENDBRANCH  13  14
ENDBRANCH  12  13
ENDBRANCH  11  12
ENDBRANCH  10  11
ENDBRANCH   9  10
ENDBRANCH   8   9
ENDBRANCH   7   8
ENDBRANCH   6   7
ENDBRANCH   5   6
ENDBRANCH   4   5
ENDBRANCH   3   4
ENDBRANCH   2   3
ENDBRANCH   1   2
BRANCH   1  17
ATOM     17  C   UNL     1      26.084  13.351  35.653  1.00  0.00     0.000 C 
BRANCH  17  18
ATOM     18  C   UNL     1      25.168  12.172  35.288  1.00  0.00     0.000 C 
BRANCH  18  19
ATOM     19  C   UNL     1      23.762  12.304  35.896  1.00  0.00     0.000 C 
BRANCH  19  20
ATOM     20  C   UNL     1      22.667  12.642  34.862  1.00  0.00     0.000 C 
BRANCH  20  21
ATOM     21  C   UNL     1      21.252  12.501  35.448  1.00  0.00     0.000 C 
BRANCH  21  22
ATOM     22  C   UNL     1      20.359  13.712  35.130  1.00  0.00    -0.000 C 
BRANCH  22  23
ATOM     23  C   UNL     1      18.867  13.342  35.061  1.00  0.00    -0.000 C 
BRANCH  23  24
ATOM     24  C   UNL     1      18.262  13.041  36.444  1.00  0.00    -0.000 C 
BRANCH  24  25
ATOM     25  C   UNL     1      18.014  11.547  36.724  1.00  0.00    -0.000 C 
BRANCH  25  26
ATOM     26  C   UNL     1      17.984  10.696  35.445  1.00  0.00    -0.000 C 
BRANCH  26  27
ATOM     27  C   UNL     1      18.943   9.505  35.554  1.00  0.00    -0.000 C 
BRANCH  27  28
ATOM     28  C   UNL     1      19.167   9.108  37.020  1.00  0.00    -0.000 C 
BRANCH  28  29
ATOM     29  C   UNL     1      18.533   7.753  37.371  1.00  0.00    -0.003 C 
ATOM     30  C   UNL     1      19.470   6.575  37.104  1.00  0.00     0.004 C 
ENDBRANCH  28  29
ENDBRANCH  27  28
ENDBRANCH  26  27
ENDBRANCH  25  26
ENDBRANCH  24  25
ENDBRANCH  23  24
ENDBRANCH  22  23
ENDBRANCH  21  22
ENDBRANCH  20  21
ENDBRANCH  19  20
ENDBRANCH  18  19
ENDBRANCH  17  18
ENDBRANCH   1  17
TORSDOF 26
ENDMDL
MODEL 2
REMARK VINA RESULT:    -4.936      2.127      4.669
REMARK INTER + INTRA:         -16.093
REMARK INTER:                 -12.954
REMARK INTRA:                  -3.139
REMARK UNBOUND:                -3.653
REMARK SMILES CCCCCCCCCCCCCCCCCCCCCCCCCCCC(=O)[O-]
REMARK SMILES IDX 15 1 16 2 17 3 18 4 19 5 20 6 21 7 22 8 23 9 24 10 25 11
REMARK SMILES IDX 26 12 27 13 28 14 29 15 30 16 14 17 13 18 12 19 11 20 10 21
REMARK SMILES IDX 9 22 8 23 7 24 6 25 5 26 4 27 3 28 2 29 1 30
REMARK H PARENT
REMARK Flexibility Score: inf
ROOT
ATOM      1  C   UNL     1      22.006  11.127  31.838  1.00  0.00     0.000 C 
ENDROOT
BRANCH   1   2
ATOM      2  C   UNL     1      22.786  10.067  31.033  1.00  0.00     0.000 C 
BRANCH   2   3
ATOM      3  C   UNL     1      24.154  10.530  30.496  1.00  0.00     0.000 C 
BRANCH   3   4
ATOM      4  C   UNL     1      25.366  10.071  31.330  1.00  0.00     0.000 C 
BRANCH   4   5
ATOM      5  C   UNL     1      26.693   9.970  30.549  1.00  0.00     0.000 C 
BRANCH   5   6
ATOM      6  C   UNL     1      27.013  11.172  29.640  1.00  0.00     0.000 C 
BRANCH   6   7
ATOM      7  C   UNL     1      27.062  12.543  30.342  1.00  0.00     0.000 C 
BRANCH   7   8
ATOM      8  C   UNL     1      28.377  12.822  31.104  1.00  0.00     0.000 C 
BRANCH   8   9
ATOM      9  C   UNL     1      28.169  12.998  32.620  1.00  0.00     0.000 C 
BRANCH   9  10
ATOM     10  C   UNL     1      28.323  11.682  33.398  1.00  0.00     0.000 C 
BRANCH  10  11
ATOM     11  C   UNL     1      27.691  11.742  34.801  1.00  0.00     0.000 C 
BRANCH  11  12
ATOM     12  C   UNL     1      26.294  11.089  34.845  1.00  0.00     0.006 C 
BRANCH  12  13
ATOM     13  C   UNL     1      25.165  12.029  34.392  1.00  0.00     0.053 C 
BRANCH  13  14
ATOM     14  C   UNL     1      24.353  12.540  35.542  1.00  0.00     0.041 C 
ATOM     15  O   UNL     1      23.095  12.534  35.481  1.00  0.00    -0.550 OA
ATOM     16  O   UNL     1      24.985  13.023  36.680  1.00  0.00    -0.550 OA
ENDBRANCH  13  14
ENDBRANCH  12  13
ENDBRANCH  11  12
ENDBRANCH  10  11
ENDBRANCH   9  10
ENDBRANCH   8   9
ENDBRANCH   7   8
ENDBRANCH   6   7
ENDBRANCH   5   6
ENDBRANCH   4   5
ENDBRANCH   3   4
ENDBRANCH   2   3
ENDBRANCH   1   2
BRANCH   1  17
ATOM     17  C   UNL     1      20.656  11.557  31.232  1.00  0.00     0.000 C 
BRANCH  17  18
ATOM     18  C   UNL     1      19.448  10.992  31.995  1.00  0.00     0.000 C 
BRANCH  18  19
ATOM     19  C   UNL     1      18.502  12.092  32.505  1.00  0.00     0.000 C 
BRANCH  19  20
ATOM     20  C   UNL     1      18.785  13.484  31.900  1.00  0.00     0.000 C 
BRANCH  20  21
ATOM     21  C   UNL     1      19.125  14.527  32.977  1.00  0.00     0.000 C 
BRANCH  21  22
ATOM     22  C   UNL     1      20.084  13.977  34.047  1.00  0.00    -0.000 C 
BRANCH  22  23
ATOM     23  C   UNL     1      19.407  13.822  35.420  1.00  0.00    -0.000 C 
BRANCH  23  24
ATOM     24  C   UNL     1      19.638  12.436  36.047  1.00  0.00    -0.000 C 
BRANCH  24  25
ATOM     25  C   UNL     1      18.473  11.920  36.912  1.00  0.00    -0.000 C 
BRANCH  25  26
ATOM     26  C   UNL     1      17.987  10.525  36.490  1.00  0.00    -0.000 C 
BRANCH  26  27
ATOM     27  C   UNL     1      19.066   9.786  35.688  1.00  0.00    -0.000 C 
BRANCH  27  28
ATOM     28  C   UNL     1      18.906   8.265  35.821  1.00  0.00    -0.000 C 
BRANCH  28  29
ATOM     29  C   UNL     1      19.374   7.737  37.185  1.00  0.00    -0.003 C 
ATOM     30  C   UNL     1      19.310   6.212  37.284  1.00  0.00     0.004 C 
ENDBRANCH  28  29
ENDBRANCH  27  28
ENDBRANCH  26  27
ENDBRANCH  25  26
ENDBRANCH  24  25
ENDBRANCH  23  24
ENDBRANCH  22  23
ENDBRANCH  21  22
ENDBRANCH  20  21
ENDBRANCH  19  20
ENDBRANCH  18  19
ENDBRANCH  17  18
ENDBRANCH   1  17
TORSDOF 26
ENDMDL
MODEL 3
REMARK VINA RESULT:    -4.758      1.197      1.641
REMARK INTER + INTRA:         -15.643
REMARK INTER:                 -12.475
REMARK INTRA:                  -3.168
REMARK UNBOUND:                -3.653
REMARK SMILES CCCCCCCCCCCCCCCCCCCCCCCCCCCC(=O)[O-]
REMARK SMILES IDX 15 1 16 2 17 3 18 4 19 5 20 6 21 7 22 8 23 9 24 10 25 11
REMARK SMILES IDX 26 12 27 13 28 14 29 15 30 16 14 17 13 18 12 19 11 20 10 21
REMARK SMILES IDX 9 22 8 23 7 24 6 25 5 26 4 27 3 28 2 29 1 30
REMARK H PARENT
REMARK Flexibility Score: inf
ROOT
ATOM      1  C   UNL     1      27.159  12.911  35.066  1.00  0.00     0.000 C 
ENDROOT
BRANCH   1   2
ATOM      2  C   UNL     1      27.927  13.733  34.011  1.00  0.00     0.000 C 
BRANCH   2   3
ATOM      3  C   UNL     1      27.643  13.347  32.547  1.00  0.00     0.000 C 
BRANCH   3   4
ATOM      4  C   UNL     1      26.458  12.380  32.350  1.00  0.00     0.000 C 
BRANCH   4   5
ATOM      5  C   UNL     1      26.854  10.931  31.996  1.00  0.00     0.000 C 
BRANCH   5   6
ATOM      6  C   UNL     1      27.724  10.777  30.735  1.00  0.00     0.000 C 
BRANCH   6   7
ATOM      7  C   UNL     1      26.955  10.559  29.417  1.00  0.00     0.000 C 
BRANCH   7   8
ATOM      8  C   UNL     1      25.922   9.411  29.465  1.00  0.00     0.000 C 
BRANCH   8   9
ATOM      9  C   UNL     1      24.555   9.806  28.875  1.00  0.00     0.000 C 
BRANCH   9  10
ATOM     10  C   UNL     1      23.821  10.854  29.725  1.00  0.00     0.000 C 
BRANCH  10  11
ATOM     11  C   UNL     1      23.188  10.255  30.994  1.00  0.00     0.000 C 
BRANCH  11  12
ATOM     12  C   UNL     1      21.650  10.378  30.999  1.00  0.00     0.006 C 
BRANCH  12  13
ATOM     13  C   UNL     1      21.124  11.523  30.119  1.00  0.00     0.053 C 
BRANCH  13  14
ATOM     14  C   UNL     1      19.787  12.023  30.573  1.00  0.00     0.041 C 
ATOM     15  O   UNL     1      18.882  11.209  30.893  1.00  0.00    -0.550 OA
ATOM     16  O   UNL     1      19.542  13.388  30.643  1.00  0.00    -0.550 OA
ENDBRANCH  13  14
ENDBRANCH  12  13
ENDBRANCH  11  12
ENDBRANCH  10  11
ENDBRANCH   9  10
ENDBRANCH   8   9
ENDBRANCH   7   8
ENDBRANCH   6   7
ENDBRANCH   5   6
ENDBRANCH   4   5
ENDBRANCH   3   4
ENDBRANCH   2   3
ENDBRANCH   1   2
BRANCH   1  17
ATOM     17  C   UNL     1      26.252  13.727  36.008  1.00  0.00     0.000 C 
BRANCH  17  18
ATOM     18  C   UNL     1      24.996  12.958  36.447  1.00  0.00     0.000 C 
BRANCH  18  19
ATOM     19  C   UNL     1      24.281  12.270  35.272  1.00  0.00     0.000 C 
BRANCH  19  20
ATOM     20  C   UNL     1      22.743  12.395  35.322  1.00  0.00     0.000 C 
BRANCH  20  21
ATOM     21  C   UNL     1      22.125  12.524  33.920  1.00  0.00     0.000 C 
BRANCH  21  22
ATOM     22  C   UNL     1      20.875  13.420  33.908  1.00  0.00    -0.000 C 
BRANCH  22  23
ATOM     23  C   UNL     1      20.303  13.651  35.318  1.00  0.00    -0.000 C 
BRANCH  23  24
ATOM     24  C   UNL     1      18.876  13.098  35.482  1.00  0.00    -0.000 C 
BRANCH  24  25
ATOM     25  C   UNL     1      18.572  12.509  36.872  1.00  0.00    -0.000 C 
BRANCH  25  26
ATOM     26  C   UNL     1      18.109  11.045  36.812  1.00  0.00    -0.000 C 
BRANCH  26  27
ATOM     27  C   UNL     1      18.789  10.300  35.656  1.00  0.00    -0.000 C 
BRANCH  27  28
ATOM     28  C   UNL     1      18.603   8.782  35.793  1.00  0.00    -0.000 C 
BRANCH  28  29
ATOM     29  C   UNL     1      18.804   8.288  37.234  1.00  0.00    -0.003 C 
ATOM     30  C   UNL     1      19.430   6.895  37.301  1.00  0.00     0.004 C 
ENDBRANCH  28  29
ENDBRANCH  27  28
ENDBRANCH  26  27
ENDBRANCH  25  26
ENDBRANCH  24  25
ENDBRANCH  23  24
ENDBRANCH  22  23
ENDBRANCH  21  22
ENDBRANCH  20  21
ENDBRANCH  19  20
ENDBRANCH  18  19
ENDBRANCH  17  18
ENDBRANCH   1  17
TORSDOF 26
ENDMDL
MODEL 4
REMARK VINA RESULT:    -4.634      1.731      7.671
REMARK INTER + INTRA:         -15.332
REMARK INTER:                 -11.855
REMARK INTRA:                  -3.476
REMARK UNBOUND:                -3.653
REMARK SMILES CCCCCCCCCCCCCCCCCCCCCCCCCCCC(=O)[O-]
REMARK SMILES IDX 15 1 16 2 17 3 18 4 19 5 20 6 21 7 22 8 23 9 24 10 25 11
REMARK SMILES IDX 26 12 27 13 28 14 29 15 30 16 14 17 13 18 12 19 11 20 10 21
REMARK SMILES IDX 9 22 8 23 7 24 6 25 5 26 4 27 3 28 2 29 1 30
REMARK H PARENT
REMARK Flexibility Score: inf
ROOT
ATOM      1  C   UNL     1      22.394  11.116  31.599  1.00  0.00     0.000 C 
ENDROOT
BRANCH   1   2
ATOM      2  C   UNL     1      20.955  11.007  32.144  1.00  0.00     0.000 C 
BRANCH   2   3
ATOM      3  C   UNL     1      19.870  11.656  31.262  1.00  0.00     0.000 C 
BRANCH   3   4
ATOM      4  C   UNL     1      18.442  11.588  31.838  1.00  0.00     0.000 C 
BRANCH   4   5
ATOM      5  C   UNL     1      17.999  12.837  32.627  1.00  0.00     0.000 C 
BRANCH   5   6
ATOM      6  C   UNL     1      18.855  14.097  32.400  1.00  0.00     0.000 C 
BRANCH   6   7
ATOM      7  C   UNL     1      19.604  14.625  33.639  1.00  0.00     0.000 C 
BRANCH   7   8
ATOM      8  C   UNL     1      20.873  13.825  34.005  1.00  0.00     0.000 C 
BRANCH   8   9
ATOM      9  C   UNL     1      20.843  13.274  35.443  1.00  0.00     0.000 C 
BRANCH   9  10
ATOM     10  C   UNL     1      19.759  12.204  35.648  1.00  0.00     0.000 C 
BRANCH  10  11
ATOM     11  C   UNL     1      20.342  10.790  35.821  1.00  0.00     0.000 C 
BRANCH  11  12
ATOM     12  C   UNL     1      19.249   9.728  36.058  1.00  0.00     0.006 C 
BRANCH  12  13
ATOM     13  C   UNL     1      18.621   9.195  34.761  1.00  0.00     0.053 C 
BRANCH  13  14
ATOM     14  C   UNL     1      18.381   7.717  34.809  1.00  0.00     0.041 C 
ATOM     15  O   UNL     1      18.049   7.095  33.765  1.00  0.00    -0.550 OA
ATOM     16  O   UNL     1      18.525   7.027  36.005  1.00  0.00    -0.550 OA
ENDBRANCH  13  14
ENDBRANCH  12  13
ENDBRANCH  11  12
ENDBRANCH  10  11
ENDBRANCH   9  10
ENDBRANCH   8   9
ENDBRANCH   7   8
ENDBRANCH   6   7
ENDBRANCH   5   6
ENDBRANCH   4   5
ENDBRANCH   3   4
ENDBRANCH   2   3
ENDBRANCH   1   2
BRANCH   1  17
ATOM     17  C   UNL     1      22.551  10.851  30.089  1.00  0.00     0.000 C 
BRANCH  17  18
ATOM     18  C   UNL     1      23.713   9.901  29.763  1.00  0.00     0.000 C 
BRANCH  18  19
ATOM     19  C   UNL     1      24.845   9.971  30.802  1.00  0.00     0.000 C 
BRANCH  19  20
ATOM     20  C   UNL     1      26.126   9.223  30.375  1.00  0.00     0.000 C 
BRANCH  20  21
ATOM     21  C   UNL     1      27.109  10.135  29.623  1.00  0.00     0.000 C 
BRANCH  21  22
ATOM     22  C   UNL     1      27.932  11.024  30.571  1.00  0.00    -0.000 C 
BRANCH  22  23
ATOM     23  C   UNL     1      27.389  12.462  30.650  1.00  0.00    -0.000 C 
BRANCH  23  24
ATOM     24  C   UNL     1      26.793  12.802  32.028  1.00  0.00    -0.000 C 
BRANCH  24  25
ATOM     25  C   UNL     1      27.776  13.478  33.002  1.00  0.00    -0.000 C 
BRANCH  25  26
ATOM     26  C   UNL     1      27.910  12.724  34.333  1.00  0.00    -0.000 C 
BRANCH  26  27
ATOM     27  C   UNL     1      27.353  11.299  34.218  1.00  0.00    -0.000 C 
BRANCH  27  28
ATOM     28  C   UNL     1      26.204  11.074  35.211  1.00  0.00    -0.000 C 
BRANCH  28  29
ATOM     29  C   UNL     1      25.082  12.113  35.063  1.00  0.00    -0.003 C 
ATOM     30  C   UNL     1      24.766  12.833  36.375  1.00  0.00     0.004 C 
ENDBRANCH  28  29
ENDBRANCH  27  28
ENDBRANCH  26  27
ENDBRANCH  25  26
ENDBRANCH  24  25
ENDBRANCH  23  24
ENDBRANCH  22  23
ENDBRANCH  21  22
ENDBRANCH  20  21
ENDBRANCH  19  20
ENDBRANCH  18  19
ENDBRANCH  17  18
ENDBRANCH   1  17
TORSDOF 26
ENDMDL
MODEL 5
REMARK VINA RESULT:    -4.633      2.531      5.679
REMARK INTER + INTRA:         -15.328
REMARK INTER:                 -11.717
REMARK INTRA:                  -3.611
REMARK UNBOUND:                -3.653
REMARK SMILES CCCCCCCCCCCCCCCCCCCCCCCCCCCC(=O)[O-]
REMARK SMILES IDX 15 1 16 2 17 3 18 4 19 5 20 6 21 7 22 8 23 9 24 10 25 11
REMARK SMILES IDX 26 12 27 13 28 14 29 15 30 16 14 17 13 18 12 19 11 20 10 21
REMARK SMILES IDX 9 22 8 23 7 24 6 25 5 26 4 27 3 28 2 29 1 30
REMARK H PARENT
REMARK Flexibility Score: inf
ROOT
ATOM      1  C   UNL     1      18.886   9.074  31.600  1.00  0.00     0.000 C 
ENDROOT
BRANCH   1   2
ATOM      2  C   UNL     1      19.099   8.785  30.100  1.00  0.00     0.000 C 
BRANCH   2   3
ATOM      3  C   UNL     1      20.473   8.189  29.737  1.00  0.00     0.000 C 
BRANCH   3   4
ATOM      4  C   UNL     1      21.674   8.864  30.427  1.00  0.00     0.000 C 
BRANCH   4   5
ATOM      5  C   UNL     1      22.262  10.075  29.672  1.00  0.00     0.000 C 
BRANCH   5   6
ATOM      6  C   UNL     1      23.793  10.220  29.751  1.00  0.00     0.000 C 
BRANCH   6   7
ATOM      7  C   UNL     1      24.360  10.540  31.148  1.00  0.00     0.000 C 
BRANCH   7   8
ATOM      8  C   UNL     1      25.874  10.845  31.166  1.00  0.00     0.000 C 
BRANCH   8   9
ATOM      9  C   UNL     1      26.185  12.348  31.300  1.00  0.00     0.000 C 
BRANCH   9  10
ATOM     10  C   UNL     1      27.554  12.617  31.943  1.00  0.00     0.000 C 
BRANCH  10  11
ATOM     11  C   UNL     1      27.961  11.530  32.954  1.00  0.00     0.000 C 
BRANCH  11  12
ATOM     12  C   UNL     1      27.674  11.945  34.412  1.00  0.00     0.006 C 
BRANCH  12  13
ATOM     13  C   UNL     1      26.175  12.049  34.736  1.00  0.00     0.053 C 
BRANCH  13  14
ATOM     14  C   UNL     1      25.884  13.110  35.752  1.00  0.00     0.041 C 
ATOM     15  O   UNL     1      24.904  12.986  36.533  1.00  0.00    -0.550 OA
ATOM     16  O   UNL     1      26.694  14.235  35.836  1.00  0.00    -0.550 OA
ENDBRANCH  13  14
ENDBRANCH  12  13
ENDBRANCH  11  12
ENDBRANCH  10  11
ENDBRANCH   9  10
ENDBRANCH   8   9
ENDBRANCH   7   8
ENDBRANCH   6   7
ENDBRANCH   5   6
ENDBRANCH   4   5
ENDBRANCH   3   4
ENDBRANCH   2   3
ENDBRANCH   1   2
BRANCH   1  17
ATOM     17  C   UNL     1      18.419  10.503  31.938  1.00  0.00     0.000 C 
BRANCH  17  18
ATOM     18  C   UNL     1      19.241  11.588  31.225  1.00  0.00     0.000 C 
BRANCH  18  19
ATOM     19  C   UNL     1      20.073  12.438  32.200  1.00  0.00     0.000 C 
BRANCH  19  20
ATOM     20  C   UNL     1      21.233  11.665  32.865  1.00  0.00     0.000 C 
BRANCH  20  21
ATOM     21  C   UNL     1      22.006  12.530  33.873  1.00  0.00     0.000 C 
BRANCH  21  22
ATOM     22  C   UNL     1      21.541  12.303  35.322  1.00  0.00    -0.000 C 
BRANCH  22  23
ATOM     23  C   UNL     1      20.273  13.104  35.666  1.00  0.00    -0.000 C 
BRANCH  23  24
ATOM     24  C   UNL     1      19.193  12.248  36.352  1.00  0.00    -0.000 C 
BRANCH  24  25
ATOM     25  C   UNL     1      18.310  11.434  35.387  1.00  0.00    -0.000 C 
BRANCH  25  26
ATOM     26  C   UNL     1      18.271   9.938  35.732  1.00  0.00    -0.000 C 
BRANCH  26  27
ATOM     27  C   UNL     1      19.672   9.415  36.077  1.00  0.00    -0.000 C 
BRANCH  27  28
ATOM     28  C   UNL     1      19.594   8.066  36.805  1.00  0.00    -0.000 C 
BRANCH  28  29
ATOM     29  C   UNL     1      18.189   7.446  36.753  1.00  0.00    -0.003 C 
ATOM     30  C   UNL     1      18.217   5.917  36.758  1.00  0.00     0.004 C 
ENDBRANCH  28  29
ENDBRANCH  27  28
ENDBRANCH  26  27
ENDBRANCH  25  26
ENDBRANCH  24  25
ENDBRANCH  23  24
ENDBRANCH  22  23
ENDBRANCH  21  22
ENDBRANCH  20  21
ENDBRANCH  19  20
ENDBRANCH  18  19
ENDBRANCH  17  18
ENDBRANCH   1  17
TORSDOF 26
ENDMDL
MODEL 6
REMARK VINA RESULT:    -4.605      1.812      4.894
REMARK INTER + INTRA:         -15.257
REMARK INTER:                 -11.740
REMARK INTRA:                  -3.518
REMARK UNBOUND:                -3.653
REMARK SMILES CCCCCCCCCCCCCCCCCCCCCCCCCCCC(=O)[O-]
REMARK SMILES IDX 15 1 16 2 17 3 18 4 19 5 20 6 21 7 22 8 23 9 24 10 25 11
REMARK SMILES IDX 26 12 27 13 28 14 29 15 30 16 14 17 13 18 12 19 11 20 10 21
REMARK SMILES IDX 9 22 8 23 7 24 6 25 5 26 4 27 3 28 2 29 1 30
REMARK H PARENT
REMARK Flexibility Score: inf
ROOT
ATOM      1  C   UNL     1      28.394  12.502  31.433  1.00  0.00     0.000 C 
ENDROOT
BRANCH   1   2
ATOM      2  C   UNL     1      27.451  11.671  30.537  1.00  0.00     0.000 C 
BRANCH   2   3
ATOM      3  C   UNL     1      27.289  10.195  30.950  1.00  0.00     0.000 C 
BRANCH   3   4
ATOM      4  C   UNL     1      25.845   9.660  30.885  1.00  0.00     0.000 C 
BRANCH   4   5
ATOM      5  C   UNL     1      25.187   9.734  29.491  1.00  0.00     0.000 C 
BRANCH   5   6
ATOM      6  C   UNL     1      23.760  10.313  29.467  1.00  0.00     0.000 C 
BRANCH   6   7
ATOM      7  C   UNL     1      22.951  10.147  30.768  1.00  0.00     0.000 C 
BRANCH   7   8
ATOM      8  C   UNL     1      21.737  11.094  30.889  1.00  0.00     0.000 C 
BRANCH   8   9
ATOM      9  C   UNL     1      20.431  10.357  31.242  1.00  0.00     0.000 C 
BRANCH   9  10
ATOM     10  C   UNL     1      19.741  10.933  32.488  1.00  0.00     0.000 C 
BRANCH  10  11
ATOM     11  C   UNL     1      18.673   9.988  33.068  1.00  0.00     0.000 C 
BRANCH  11  12
ATOM     12  C   UNL     1      18.504  10.157  34.593  1.00  0.00     0.006 C 
BRANCH  12  13
ATOM     13  C   UNL     1      18.225   8.837  35.328  1.00  0.00     0.053 C 
BRANCH  13  14
ATOM     14  C   UNL     1      19.279   8.516  36.342  1.00  0.00     0.041 C 
ATOM     15  O   UNL     1      20.342   9.190  36.387  1.00  0.00    -0.550 OA
ATOM     16  O   UNL     1      19.087   7.473  37.240  1.00  0.00    -0.550 OA
ENDBRANCH  13  14
ENDBRANCH  12  13
ENDBRANCH  11  12
ENDBRANCH  10  11
ENDBRANCH   9  10
ENDBRANCH   8   9
ENDBRANCH   7   8
ENDBRANCH   6   7
ENDBRANCH   5   6
ENDBRANCH   4   5
ENDBRANCH   3   4
ENDBRANCH   2   3
ENDBRANCH   1   2
BRANCH   1  17
ATOM     17  C   UNL     1      27.697  13.486  32.392  1.00  0.00     0.000 C 
BRANCH  17  18
ATOM     18  C   UNL     1      27.840  13.088  33.869  1.00  0.00     0.000 C 
BRANCH  18  19
ATOM     19  C   UNL     1      27.998  11.570  34.062  1.00  0.00     0.000 C 
BRANCH  19  20
ATOM     20  C   UNL     1      26.855  10.926  34.877  1.00  0.00     0.000 C 
BRANCH  20  21
ATOM     21  C   UNL     1      25.619  11.836  34.963  1.00  0.00     0.000 C 
BRANCH  21  22
ATOM     22  C   UNL     1      24.831  11.885  33.643  1.00  0.00    -0.000 C 
BRANCH  22  23
ATOM     23  C   UNL     1      23.371  12.326  33.845  1.00  0.00    -0.000 C 
BRANCH  23  24
ATOM     24  C   UNL     1      22.961  12.374  35.327  1.00  0.00    -0.000 C 
BRANCH  24  25
ATOM     25  C   UNL     1      21.443  12.287  35.576  1.00  0.00    -0.000 C 
BRANCH  25  26
ATOM     26  C   UNL     1      20.677  13.499  35.026  1.00  0.00    -0.000 C 
BRANCH  26  27
ATOM     27  C   UNL     1      19.209  13.470  35.469  1.00  0.00    -0.000 C 
BRANCH  27  28
ATOM     28  C   UNL     1      18.287  13.994  34.358  1.00  0.00    -0.000 C 
BRANCH  28  29
ATOM     29  C   UNL     1      19.065  14.570  33.166  1.00  0.00    -0.003 C 
ATOM     30  C   UNL     1      18.333  14.383  31.836  1.00  0.00     0.004 C 
ENDBRANCH  28  29
ENDBRANCH  27  28
ENDBRANCH  26  27
ENDBRANCH  25  26
ENDBRANCH  24  25
ENDBRANCH  23  24
ENDBRANCH  22  23
ENDBRANCH  21  22
ENDBRANCH  20  21
ENDBRANCH  19  20
ENDBRANCH  18  19
ENDBRANCH  17  18
ENDBRANCH   1  17
TORSDOF 26
ENDMDL
MODEL 7
REMARK VINA RESULT:    -4.461      1.905      5.899
REMARK INTER + INTRA:         -14.895
REMARK INTER:                 -11.405
REMARK INTRA:                  -3.490
REMARK UNBOUND:                -3.653
REMARK SMILES CCCCCCCCCCCCCCCCCCCCCCCCCCCC(=O)[O-]
REMARK SMILES IDX 15 1 16 2 17 3 18 4 19 5 20 6 21 7 22 8 23 9 24 10 25 11
REMARK SMILES IDX 26 12 27 13 28 14 29 15 30 16 14 17 13 18 12 19 11 20 10 21
REMARK SMILES IDX 9 22 8 23 7 24 6 25 5 26 4 27 3 28 2 29 1 30
REMARK H PARENT
REMARK Flexibility Score: inf
ROOT
ATOM      1  C   UNL     1      28.066  12.326  33.235  1.00  0.00     0.000 C 
ENDROOT
BRANCH   1   2
ATOM      2  C   UNL     1      27.275  13.469  33.903  1.00  0.00     0.000 C 
BRANCH   2   3
ATOM      3  C   UNL     1      27.175  13.387  35.438  1.00  0.00     0.000 C 
BRANCH   3   4
ATOM      4  C   UNL     1      25.766  13.077  35.980  1.00  0.00     0.000 C 
BRANCH   4   5
ATOM      5  C   UNL     1      24.842  12.329  34.997  1.00  0.00     0.000 C 
BRANCH   5   6
ATOM      6  C   UNL     1      23.341  12.651  35.130  1.00  0.00     0.000 C 
BRANCH   6   7
ATOM      7  C   UNL     1      22.476  12.314  33.900  1.00  0.00     0.000 C 
BRANCH   7   8
ATOM      8  C   UNL     1      21.200  13.174  33.764  1.00  0.00     0.000 C 
BRANCH   8   9
ATOM      9  C   UNL     1      20.641  13.642  35.121  1.00  0.00     0.000 C 
BRANCH   9  10
ATOM     10  C   UNL     1      19.807  12.560  35.825  1.00  0.00     0.000 C 
BRANCH  10  11
ATOM     11  C   UNL     1      18.777  11.900  34.890  1.00  0.00     0.000 C 
BRANCH  11  12
ATOM     12  C   UNL     1      18.693  10.372  35.092  1.00  0.00     0.006 C 
BRANCH  12  13
ATOM     13  C   UNL     1      19.833   9.804  35.953  1.00  0.00     0.053 C 
BRANCH  13  14
ATOM     14  C   UNL     1      19.426   8.570  36.695  1.00  0.00     0.041 C 
ATOM     15  O   UNL     1      19.877   7.446  36.352  1.00  0.00    -0.550 OA
ATOM     16  O   UNL     1      18.548   8.661  37.768  1.00  0.00    -0.550 OA
ENDBRANCH  13  14
ENDBRANCH  12  13
ENDBRANCH  11  12
ENDBRANCH  10  11
ENDBRANCH   9  10
ENDBRANCH   8   9
ENDBRANCH   7   8
ENDBRANCH   6   7
ENDBRANCH   5   6
ENDBRANCH   4   5
ENDBRANCH   3   4
ENDBRANCH   2   3
ENDBRANCH   1   2
BRANCH   1  17
ATOM     17  C   UNL     1      28.388  12.529  31.742  1.00  0.00     0.000 C 
BRANCH  17  18
ATOM     18  C   UNL     1      27.517  11.667  30.816  1.00  0.00     0.000 C 
BRANCH  18  19
ATOM     19  C   UNL     1      26.569  10.737  31.591  1.00  0.00     0.000 C 
BRANCH  19  20
ATOM     20  C   UNL     1      26.081   9.523  30.771  1.00  0.00     0.000 C 
BRANCH  20  21
ATOM     21  C   UNL     1      25.053   9.922  29.699  1.00  0.00     0.000 C 
BRANCH  21  22
ATOM     22  C   UNL     1      24.010  10.922  30.227  1.00  0.00    -0.000 C 
BRANCH  22  23
ATOM     23  C   UNL     1      22.790  10.225  30.853  1.00  0.00    -0.000 C 
BRANCH  23  24
ATOM     24  C   UNL     1      21.861   9.589  29.804  1.00  0.00    -0.000 C 
BRANCH  24  25
ATOM     25  C   UNL     1      20.886   8.537  30.364  1.00  0.00    -0.000 C 
BRANCH  25  26
ATOM     26  C   UNL     1      19.421   8.998  30.323  1.00  0.00    -0.000 C 
BRANCH  26  27
ATOM     27  C   UNL     1      19.123   9.985  31.459  1.00  0.00    -0.000 C 
BRANCH  27  28
ATOM     28  C   UNL     1      18.124  11.060  31.008  1.00  0.00    -0.000 C 
BRANCH  28  29
ATOM     29  C   UNL     1      18.673  12.485  31.175  1.00  0.00    -0.003 C 
ATOM     30  C   UNL     1      19.907  12.749  30.312  1.00  0.00     0.004 C 
ENDBRANCH  28  29
ENDBRANCH  27  28
ENDBRANCH  26  27
ENDBRANCH  25  26
ENDBRANCH  24  25
ENDBRANCH  23  24
ENDBRANCH  22  23
ENDBRANCH  21  22
ENDBRANCH  20  21
ENDBRANCH  19  20
ENDBRANCH  18  19
ENDBRANCH  17  18
ENDBRANCH   1  17
TORSDOF 26
ENDMDL
MODEL 8
REMARK VINA RESULT:    -4.398      1.879      6.286
REMARK INTER + INTRA:         -14.736
REMARK INTER:                 -11.587
REMARK INTRA:                  -3.149
REMARK UNBOUND:                -3.653
REMARK SMILES CCCCCCCCCCCCCCCCCCCCCCCCCCCC(=O)[O-]
REMARK SMILES IDX 15 1 16 2 17 3 18 4 19 5 20 6 21 7 22 8 23 9 24 10 25 11
REMARK SMILES IDX 26 12 27 13 28 14 29 15 30 16 14 17 13 18 12 19 11 20 10 21
REMARK SMILES IDX 9 22 8 23 7 24 6 25 5 26 4 27 3 28 2 29 1 30
REMARK H PARENT
REMARK Flexibility Score: inf
ROOT
ATOM      1  C   UNL     1      27.578  12.693  34.883  1.00  0.00     0.000 C 
ENDROOT
BRANCH   1   2
ATOM      2  C   UNL     1      26.662  13.680  35.634  1.00  0.00     0.000 C 
BRANCH   2   3
ATOM      3  C   UNL     1      25.457  13.040  36.350  1.00  0.00     0.000 C 
BRANCH   3   4
ATOM      4  C   UNL     1      24.794  11.876  35.586  1.00  0.00     0.000 C 
BRANCH   4   5
ATOM      5  C   UNL     1      23.755  12.302  34.528  1.00  0.00     0.000 C 
BRANCH   5   6
ATOM      6  C   UNL     1      22.361  12.655  35.080  1.00  0.00     0.000 C 
BRANCH   6   7
ATOM      7  C   UNL     1      21.188  12.463  34.099  1.00  0.00     0.000 C 
BRANCH   7   8
ATOM      8  C   UNL     1      20.392  13.751  33.798  1.00  0.00     0.000 C 
BRANCH   8   9
ATOM      9  C   UNL     1      19.287  14.033  34.835  1.00  0.00     0.000 C 
BRANCH   9  10
ATOM     10  C   UNL     1      18.443  12.790  35.156  1.00  0.00     0.000 C 
BRANCH  10  11
ATOM     11  C   UNL     1      18.620  12.308  36.608  1.00  0.00     0.000 C 
BRANCH  11  12
ATOM     12  C   UNL     1      18.354  10.796  36.763  1.00  0.00     0.006 C 
BRANCH  12  13
ATOM     13  C   UNL     1      19.350   9.916  35.991  1.00  0.00     0.053 C 
BRANCH  13  14
ATOM     14  C   UNL     1      19.280   8.479  36.405  1.00  0.00     0.041 C 
ATOM     15  O   UNL     1      19.058   7.584  35.548  1.00  0.00    -0.550 OA
ATOM     16  O   UNL     1      19.462   8.128  37.736  1.00  0.00    -0.550 OA
ENDBRANCH  13  14
ENDBRANCH  12  13
ENDBRANCH  11  12
ENDBRANCH  10  11
ENDBRANCH   9  10
ENDBRANCH   8   9
ENDBRANCH   7   8
ENDBRANCH   6   7
ENDBRANCH   5   6
ENDBRANCH   4   5
ENDBRANCH   3   4
ENDBRANCH   2   3
ENDBRANCH   1   2
BRANCH   1  17
ATOM     17  C   UNL     1      27.961  13.107  33.449  1.00  0.00     0.000 C 
BRANCH  17  18
ATOM     18  C   UNL     1      26.936  12.654  32.398  1.00  0.00     0.000 C 
BRANCH  18  19
ATOM     19  C   UNL     1      27.114  11.181  31.992  1.00  0.00     0.000 C 
BRANCH  19  20
ATOM     20  C   UNL     1      27.900  10.991  30.677  1.00  0.00     0.000 C 
BRANCH  20  21
ATOM     21  C   UNL     1      26.990  11.065  29.440  1.00  0.00     0.000 C 
BRANCH  21  22
ATOM     22  C   UNL     1      26.279   9.732  29.152  1.00  0.00    -0.000 C 
BRANCH  22  23
ATOM     23  C   UNL     1      24.746   9.873  29.142  1.00  0.00    -0.000 C 
BRANCH  23  24
ATOM     24  C   UNL     1      24.121   9.701  30.537  1.00  0.00    -0.000 C 
BRANCH  24  25
ATOM     25  C   UNL     1      23.292  10.905  31.022  1.00  0.00    -0.000 C 
BRANCH  25  26
ATOM     26  C   UNL     1      21.797  10.583  31.163  1.00  0.00    -0.000 C 
BRANCH  26  27
ATOM     27  C   UNL     1      21.298   9.755  29.972  1.00  0.00    -0.000 C 
BRANCH  27  28
ATOM     28  C   UNL     1      20.464   8.555  30.445  1.00  0.00    -0.000 C 
BRANCH  28  29
ATOM     29  C   UNL     1      19.394   8.948  31.476  1.00  0.00    -0.003 C 
ATOM     30  C   UNL     1      18.508   7.772  31.887  1.00  0.00     0.004 C 
ENDBRANCH  28  29
ENDBRANCH  27  28
ENDBRANCH  26  27
ENDBRANCH  25  26
ENDBRANCH  24  25
ENDBRANCH  23  24
ENDBRANCH  22  23
ENDBRANCH  21  22
ENDBRANCH  20  21
ENDBRANCH  19  20
ENDBRANCH  18  19
ENDBRANCH  17  18
ENDBRANCH   1  17
TORSDOF 26
ENDMDL
MODEL 9
REMARK VINA RESULT:    -4.261      1.922      6.079
REMARK INTER + INTRA:         -14.392
REMARK INTER:                 -10.875
REMARK INTRA:                  -3.517
REMARK UNBOUND:                -3.653
REMARK SMILES CCCCCCCCCCCCCCCCCCCCCCCCCCCC(=O)[O-]
REMARK SMILES IDX 15 1 16 2 17 3 18 4 19 5 20 6 21 7 22 8 23 9 24 10 25 11
REMARK SMILES IDX 26 12 27 13 28 14 29 15 30 16 14 17 13 18 12 19 11 20 10 21
REMARK SMILES IDX 9 22 8 23 7 24 6 25 5 26 4 27 3 28 2 29 1 30
REMARK H PARENT
REMARK Flexibility Score: inf
ROOT
ATOM      1  C   UNL     1      27.265  13.263  35.576  1.00  0.00     0.000 C 
ENDROOT
BRANCH   1   2
ATOM      2  C   UNL     1      25.774  13.372  35.958  1.00  0.00     0.000 C 
BRANCH   2   3
ATOM      3  C   UNL     1      24.916  12.142  35.603  1.00  0.00     0.000 C 
BRANCH   3   4
ATOM      4  C   UNL     1      24.248  12.198  34.215  1.00  0.00     0.000 C 
BRANCH   4   5
ATOM      5  C   UNL     1      22.755  12.588  34.228  1.00  0.00     0.000 C 
BRANCH   5   6
ATOM      6  C   UNL     1      21.997  12.243  35.524  1.00  0.00     0.000 C 
BRANCH   6   7
ATOM      7  C   UNL     1      20.527  12.704  35.579  1.00  0.00     0.000 C 
BRANCH   7   8
ATOM      8  C   UNL     1      19.568  11.698  36.252  1.00  0.00     0.000 C 
BRANCH   8   9
ATOM      9  C   UNL     1      19.181  10.526  35.331  1.00  0.00     0.000 C 
BRANCH   9  10
ATOM     10  C   UNL     1      18.305  10.964  34.146  1.00  0.00     0.000 C 
BRANCH  10  11
ATOM     11  C   UNL     1      19.067  10.959  32.809  1.00  0.00     0.000 C 
BRANCH  11  12
ATOM     12  C   UNL     1      18.658  12.132  31.894  1.00  0.00     0.006 C 
BRANCH  12  13
ATOM     13  C   UNL     1      19.533  13.383  32.072  1.00  0.00     0.053 C 
BRANCH  13  14
ATOM     14  C   UNL     1      18.739  14.580  32.491  1.00  0.00     0.041 C 
ATOM     15  O   UNL     1      18.257  14.646  33.652  1.00  0.00    -0.550 OA
ATOM     16  O   UNL     1      18.530  15.624  31.599  1.00  0.00    -0.550 OA
ENDBRANCH  13  14
ENDBRANCH  12  13
ENDBRANCH  11  12
ENDBRANCH  10  11
ENDBRANCH   9  10
ENDBRANCH   8   9
ENDBRANCH   7   8
ENDBRANCH   6   7
ENDBRANCH   5   6
ENDBRANCH   4   5
ENDBRANCH   3   4
ENDBRANCH   2   3
ENDBRANCH   1   2
BRANCH   1  17
ATOM     17  C   UNL     1      27.596  13.587  34.106  1.00  0.00     0.000 C 
BRANCH  17  18
ATOM     18  C   UNL     1      27.913  12.337  33.272  1.00  0.00     0.000 C 
BRANCH  18  19
ATOM     19  C   UNL     1      28.452  12.679  31.873  1.00  0.00     0.000 C 
BRANCH  19  20
ATOM     20  C   UNL     1      27.713  11.953  30.728  1.00  0.00     0.000 C 
BRANCH  20  21
ATOM     21  C   UNL     1      26.440  11.244  31.217  1.00  0.00     0.000 C 
BRANCH  21  22
ATOM     22  C   UNL     1      26.452   9.736  30.912  1.00  0.00    -0.000 C 
BRANCH  22  23
ATOM     23  C   UNL     1      25.545   9.368  29.725  1.00  0.00    -0.000 C 
BRANCH  23  24
ATOM     24  C   UNL     1      24.279  10.239  29.647  1.00  0.00    -0.000 C 
BRANCH  24  25
ATOM     25  C   UNL     1      23.209   9.911  30.705  1.00  0.00    -0.000 C 
BRANCH  25  26
ATOM     26  C   UNL     1      21.919  10.724  30.522  1.00  0.00    -0.000 C 
BRANCH  26  27
ATOM     27  C   UNL     1      20.886   9.942  29.700  1.00  0.00    -0.000 C 
BRANCH  27  28
ATOM     28  C   UNL     1      20.889   8.455  30.083  1.00  0.00    -0.000 C 
BRANCH  28  29
ATOM     29  C   UNL     1      19.509   7.800  29.923  1.00  0.00    -0.003 C 
ATOM     30  C   UNL     1      18.716   7.765  31.230  1.00  0.00     0.004 C 
ENDBRANCH  28  29
ENDBRANCH  27  28
ENDBRANCH  26  27
ENDBRANCH  25  26
ENDBRANCH  24  25
ENDBRANCH  23  24
ENDBRANCH  22  23
ENDBRANCH  21  22
ENDBRANCH  20  21
ENDBRANCH  19  20
ENDBRANCH  18  19
ENDBRANCH  17  18
ENDBRANCH   1  17
TORSDOF 26
ENDMDL
