MODEL 1
REMARK VINA RESULT:     0.153      0.000      0.000
REMARK INTER + INTRA:          -0.035
REMARK INTER:                   0.288
REMARK INTRA:                  -0.322
REMARK UNBOUND:                -0.322
REMARK SMILES CCCCCCCCC=CCCCCCCCC(=O)[O-]
REMARK SMILES IDX 10 1 9 2 11 3 12 4 13 5 14 6 15 7 16 8 17 9 18 10 19 11
REMARK SMILES IDX 20 12 8 13 7 14 6 15 5 16 4 17 3 18 2 19 1 20
REMARK H PARENT
REMARK Flexibility Score: inf
ROOT
ATOM      1  C   UNL     1      20.743  14.942  42.059  1.00  0.00    -0.031 C 
ATOM      2  C   UNL     1      20.436  16.043  41.347  1.00  0.00    -0.031 C 
ENDROOT
BRANCH   1   3
ATOM      3  C   UNL     1      20.460  13.523  41.632  1.00  0.00     0.027 C 
BRANCH   3   4
ATOM      4  C   UNL     1      19.011  13.122  41.937  1.00  0.00     0.004 C 
BRANCH   4   5
ATOM      5  C   UNL     1      18.521  12.054  40.947  1.00  0.00     0.000 C 
BRANCH   5   6
ATOM      6  C   UNL     1      19.673  11.393  40.172  1.00  0.00     0.000 C 
BRANCH   6   7
ATOM      7  C   UNL     1      19.725  11.843  38.701  1.00  0.00     0.000 C 
BRANCH   7   8
ATOM      8  C   UNL     1      20.536  10.882  37.816  1.00  0.00     0.006 C 
BRANCH   8   9
ATOM      9  C   UNL     1      21.600  11.603  36.975  1.00  0.00     0.053 C 
BRANCH   9  10
ATOM     10  C   UNL     1      22.678  12.153  37.854  1.00  0.00     0.041 C 
ATOM     11  O   UNL     1      22.809  11.733  39.034  1.00  0.00    -0.550 OA
ATOM     12  O   UNL     1      23.514  13.157  37.384  1.00  0.00    -0.550 OA
ENDBRANCH   9  10
ENDBRANCH   8   9
ENDBRANCH   7   8
ENDBRANCH   6   7
ENDBRANCH   5   6
ENDBRANCH   4   5
ENDBRANCH   3   4
ENDBRANCH   1   3
BRANCH   2  13
ATOM     13  C   UNL     1      19.728  16.052  40.010  1.00  0.00     0.027 C 
BRANCH  13  14
ATOM     14  C   UNL     1      20.230  14.928  39.086  1.00  0.00     0.004 C 
BRANCH  14  15
ATOM     15  C   UNL     1      20.843  15.414  37.760  1.00  0.00     0.000 C 
BRANCH  15  16
ATOM     16  C   UNL     1      20.340  14.617  36.543  1.00  0.00     0.000 C 
BRANCH  16  17
ATOM     17  C   UNL     1      21.395  14.513  35.429  1.00  0.00    -0.000 C 
BRANCH  17  18
ATOM     18  C   UNL     1      20.936  13.622  34.265  1.00  0.00    -0.000 C 
BRANCH  18  19
ATOM     19  C   UNL     1      19.428  13.356  34.340  1.00  0.00    -0.003 C 
ATOM     20  C   UNL     1      18.957  12.515  33.157  1.00  0.00     0.004 C 
ENDBRANCH  18  19
ENDBRANCH  17  18
ENDBRANCH  16  17
ENDBRANCH  15  16
ENDBRANCH  14  15
ENDBRANCH  13  14
ENDBRANCH   2  13
TORSDOF 15
ENDMDL
MODEL 2
REMARK VINA RESULT:     0.846      1.609      4.772
REMARK INTER + INTRA:           1.265
REMARK INTER:                   2.133
REMARK INTRA:                  -0.868
REMARK UNBOUND:                -0.322
REMARK SMILES CCCCCCCCC=CCCCCCCCC(=O)[O-]
REMARK SMILES IDX 10 1 9 2 11 3 12 4 13 5 14 6 15 7 16 8 17 9 18 10 19 11
REMARK SMILES IDX 20 12 8 13 7 14 6 15 5 16 4 17 3 18 2 19 1 20
REMARK H PARENT
REMARK Flexibility Score: inf
ROOT
ATOM      1  C   UNL     1      21.699  14.926  36.539  1.00  0.00    -0.031 C 
ATOM      2  C   UNL     1      21.625  14.492  35.265  1.00  0.00    -0.031 C 
ENDROOT
BRANCH   1   3
ATOM      3  C   UNL     1      20.578  15.593  37.296  1.00  0.00     0.027 C 
BRANCH   3   4
ATOM      4  C   UNL     1      20.589  15.201  38.779  1.00  0.00     0.004 C 
BRANCH   4   5
ATOM      5  C   UNL     1      19.270  15.599  39.458  1.00  0.00     0.000 C 
BRANCH   5   6
ATOM      6  C   UNL     1      18.263  14.439  39.520  1.00  0.00     0.000 C 
BRANCH   6   7
ATOM      7  C   UNL     1      18.954  13.065  39.603  1.00  0.00     0.000 C 
BRANCH   7   8
ATOM      8  C   UNL     1      18.455  12.223  40.788  1.00  0.00     0.006 C 
BRANCH   8   9
ATOM      9  C   UNL     1      19.081  12.649  42.125  1.00  0.00     0.053 C 
BRANCH   9  10
ATOM     10  C   UNL     1      20.440  13.232  41.903  1.00  0.00     0.041 C 
ATOM     11  O   UNL     1      20.650  14.453  42.125  1.00  0.00    -0.550 OA
ATOM     12  O   UNL     1      21.468  12.435  41.415  1.00  0.00    -0.550 OA
ENDBRANCH   9  10
ENDBRANCH   8   9
ENDBRANCH   7   8
ENDBRANCH   6   7
ENDBRANCH   5   6
ENDBRANCH   4   5
ENDBRANCH   3   4
ENDBRANCH   1   3
BRANCH   2  13
ATOM     13  C   UNL     1      20.417  14.624  34.364  1.00  0.00     0.027 C 
BRANCH  13  14
ATOM     14  C   UNL     1      19.568  13.340  34.348  1.00  0.00     0.004 C 
BRANCH  14  15
ATOM     15  C   UNL     1      20.185  12.154  35.112  1.00  0.00     0.000 C 
BRANCH  15  16
ATOM     16  C   UNL     1      19.938  12.228  36.629  1.00  0.00     0.000 C 
BRANCH  16  17
ATOM     17  C   UNL     1      20.162  10.877  37.330  1.00  0.00    -0.000 C 
BRANCH  17  18
ATOM     18  C   UNL     1      21.390  10.891  38.254  1.00  0.00    -0.000 C 
BRANCH  18  19
ATOM     19  C   UNL     1      22.544  11.678  37.621  1.00  0.00    -0.003 C 
ATOM     20  C   UNL     1      23.406  12.347  38.687  1.00  0.00     0.004 C 
ENDBRANCH  18  19
ENDBRANCH  17  18
ENDBRANCH  16  17
ENDBRANCH  15  16
ENDBRANCH  14  15
ENDBRANCH  13  14
ENDBRANCH   2  13
TORSDOF 15
ENDMDL
MODEL 3
REMARK VINA RESULT:     0.859      2.127      3.968
REMARK INTER + INTRA:           1.290
REMARK INTER:                   3.052
REMARK INTRA:                  -1.762
REMARK UNBOUND:                -0.322
REMARK SMILES CCCCCCCCC=CCCCCCCCC(=O)[O-]
REMARK SMILES IDX 10 1 9 2 11 3 12 4 13 5 14 6 15 7 16 8 17 9 18 10 19 11
REMARK SMILES IDX 20 12 8 13 7 14 6 15 5 16 4 17 3 18 2 19 1 20
REMARK H PARENT
REMARK Flexibility Score: inf
ROOT
ATOM      1  C   UNL     1      21.015  13.084  41.776  1.00  0.00    -0.031 C 
ATOM      2  C   UNL     1      19.714  13.113  42.125  1.00  0.00    -0.031 C 
ENDROOT
BRANCH   1   3
ATOM      3  C   UNL     1      21.672  11.998  40.962  1.00  0.00     0.027 C 
BRANCH   3   4
ATOM      4  C   UNL     1      22.531  12.583  39.833  1.00  0.00     0.004 C 
BRANCH   4   5
ATOM      5  C   UNL     1      22.211  11.899  38.495  1.00  0.00     0.000 C 
BRANCH   5   6
ATOM      6  C   UNL     1      20.940  11.037  38.559  1.00  0.00     0.000 C 
BRANCH   6   7
ATOM      7  C   UNL     1      20.139  11.073  37.245  1.00  0.00     0.000 C 
BRANCH   7   8
ATOM      8  C   UNL     1      20.752  12.026  36.206  1.00  0.00     0.006 C 
BRANCH   8   9
ATOM      9  C   UNL     1      19.772  13.118  35.749  1.00  0.00     0.053 C 
BRANCH   9  10
ATOM     10  C   UNL     1      19.749  13.208  34.256  1.00  0.00     0.041 C 
ATOM     11  O   UNL     1      18.963  12.487  33.589  1.00  0.00    -0.550 OA
ATOM     12  O   UNL     1      20.625  14.063  33.598  1.00  0.00    -0.550 OA
ENDBRANCH   9  10
ENDBRANCH   8   9
ENDBRANCH   7   8
ENDBRANCH   6   7
ENDBRANCH   5   6
ENDBRANCH   4   5
ENDBRANCH   3   4
ENDBRANCH   1   3
BRANCH   2  13
ATOM     13  C   UNL     1      18.693  12.049  41.786  1.00  0.00     0.027 C 
BRANCH  13  14
ATOM     14  C   UNL     1      18.256  12.120  40.312  1.00  0.00     0.004 C 
BRANCH  14  15
ATOM     15  C   UNL     1      17.876  13.529  39.823  1.00  0.00     0.000 C 
BRANCH  15  16
ATOM     16  C   UNL     1      18.960  14.165  38.934  1.00  0.00     0.000 C 
BRANCH  16  17
ATOM     17  C   UNL     1      19.686  15.328  39.630  1.00  0.00    -0.000 C 
BRANCH  17  18
ATOM     18  C   UNL     1      20.754  15.975  38.735  1.00  0.00    -0.000 C 
BRANCH  18  19
ATOM     19  C   UNL     1      21.227  14.999  37.651  1.00  0.00    -0.003 C 
ATOM     20  C   UNL     1      21.811  15.743  36.455  1.00  0.00     0.004 C 
ENDBRANCH  18  19
ENDBRANCH  17  18
ENDBRANCH  16  17
ENDBRANCH  15  16
ENDBRANCH  14  15
ENDBRANCH  13  14
ENDBRANCH   2  13
TORSDOF 15
ENDMDL
MODEL 4
REMARK VINA RESULT:     1.093      2.101      5.194
REMARK INTER + INTRA:           1.729
REMARK INTER:                   2.577
REMARK INTRA:                  -0.848
REMARK UNBOUND:                -0.322
REMARK SMILES CCCCCCCCC=CCCCCCCCC(=O)[O-]
REMARK SMILES IDX 10 1 9 2 11 3 12 4 13 5 14 6 15 7 16 8 17 9 18 10 19 11
REMARK SMILES IDX 20 12 8 13 7 14 6 15 5 16 4 17 3 18 2 19 1 20
REMARK H PARENT
REMARK Flexibility Score: inf
ROOT
ATOM      1  C   UNL     1      21.700  15.249  36.884  1.00  0.00    -0.031 C 
ATOM      2  C   UNL     1      20.587  15.374  37.632  1.00  0.00    -0.031 C 
ENDROOT
BRANCH   1   3
ATOM      3  C   UNL     1      22.890  14.391  37.233  1.00  0.00     0.027 C 
BRANCH   3   4
ATOM      4  C   UNL     1      22.705  12.947  36.751  1.00  0.00     0.004 C 
BRANCH   4   5
ATOM      5  C   UNL     1      22.683  11.974  37.939  1.00  0.00     0.000 C 
BRANCH   5   6
ATOM      6  C   UNL     1      21.595  10.897  37.802  1.00  0.00     0.000 C 
BRANCH   6   7
ATOM      7  C   UNL     1      20.186  11.500  37.658  1.00  0.00     0.000 C 
BRANCH   7   8
ATOM      8  C   UNL     1      19.763  11.671  36.190  1.00  0.00     0.006 C 
BRANCH   8   9
ATOM      9  C   UNL     1      19.768  13.139  35.737  1.00  0.00     0.053 C 
BRANCH   9  10
ATOM     10  C   UNL     1      19.920  13.226  34.251  1.00  0.00     0.041 C 
ATOM     11  O   UNL     1      19.055  12.713  33.494  1.00  0.00    -0.550 OA
ATOM     12  O   UNL     1      21.038  13.842  33.701  1.00  0.00    -0.550 OA
ENDBRANCH   9  10
ENDBRANCH   8   9
ENDBRANCH   7   8
ENDBRANCH   6   7
ENDBRANCH   5   6
ENDBRANCH   4   5
ENDBRANCH   3   4
ENDBRANCH   1   3
BRANCH   2  13
ATOM     13  C   UNL     1      20.348  14.701  38.965  1.00  0.00     0.027 C 
BRANCH  13  14
ATOM     14  C   UNL     1      18.936  14.983  39.508  1.00  0.00     0.004 C 
BRANCH  14  15
ATOM     15  C   UNL     1      18.009  13.755  39.554  1.00  0.00     0.000 C 
BRANCH  15  16
ATOM     16  C   UNL     1      18.664  12.538  40.232  1.00  0.00     0.000 C 
BRANCH  16  17
ATOM     17  C   UNL     1      18.835  12.729  41.748  1.00  0.00    -0.000 C 
BRANCH  17  18
ATOM     18  C   UNL     1      20.245  13.211  42.124  1.00  0.00    -0.000 C 
BRANCH  18  19
ATOM     19  C   UNL     1      21.315  12.445  41.336  1.00  0.00    -0.003 C 
ATOM     20  C   UNL     1      22.716  12.784  41.836  1.00  0.00     0.004 C 
ENDBRANCH  18  19
ENDBRANCH  17  18
ENDBRANCH  16  17
ENDBRANCH  15  16
ENDBRANCH  14  15
ENDBRANCH  13  14
ENDBRANCH   2  13
TORSDOF 15
ENDMDL
MODEL 5
REMARK VINA RESULT:     1.238      1.643      4.054
REMARK INTER + INTRA:           2.001
REMARK INTER:                   2.470
REMARK INTRA:                  -0.469
REMARK UNBOUND:                -0.322
REMARK SMILES CCCCCCCCC=CCCCCCCCC(=O)[O-]
REMARK SMILES IDX 10 1 9 2 11 3 12 4 13 5 14 6 15 7 16 8 17 9 18 10 19 11
REMARK SMILES IDX 20 12 8 13 7 14 6 15 5 16 4 17 3 18 2 19 1 20
REMARK H PARENT
REMARK Flexibility Score: inf
ROOT
ATOM      1  C   UNL     1      22.168  14.841  36.702  1.00  0.00    -0.031 C 
ATOM      2  C   UNL     1      22.809  13.731  37.115  1.00  0.00    -0.031 C 
ENDROOT
BRANCH   1   3
ATOM      3  C   UNL     1      20.855  15.341  37.250  1.00  0.00     0.027 C 
BRANCH   3   4
ATOM      4  C   UNL     1      20.601  14.818  38.669  1.00  0.00     0.004 C 
BRANCH   4   5
ATOM      5  C   UNL     1      19.298  15.397  39.239  1.00  0.00     0.000 C 
BRANCH   5   6
ATOM      6  C   UNL     1      18.248  14.312  39.534  1.00  0.00     0.000 C 
BRANCH   6   7
ATOM      7  C   UNL     1      18.859  12.900  39.576  1.00  0.00     0.000 C 
BRANCH   7   8
ATOM      8  C   UNL     1      18.576  12.173  40.901  1.00  0.00     0.006 C 
BRANCH   8   9
ATOM      9  C   UNL     1      19.087  12.947  42.125  1.00  0.00     0.053 C 
BRANCH   9  10
ATOM     10  C   UNL     1      20.488  13.420  41.896  1.00  0.00     0.041 C 
ATOM     11  O   UNL     1      20.794  14.621  42.116  1.00  0.00    -0.550 OA
ATOM     12  O   UNL     1      21.446  12.544  41.403  1.00  0.00    -0.550 OA
ENDBRANCH   9  10
ENDBRANCH   8   9
ENDBRANCH   7   8
ENDBRANCH   6   7
ENDBRANCH   5   6
ENDBRANCH   4   5
ENDBRANCH   3   4
ENDBRANCH   1   3
BRANCH   2  13
ATOM     13  C   UNL     1      22.311  12.776  38.177  1.00  0.00     0.027 C 
BRANCH  13  14
ATOM     14  C   UNL     1      22.133  11.349  37.630  1.00  0.00     0.004 C 
BRANCH  14  15
ATOM     15  C   UNL     1      20.671  10.875  37.536  1.00  0.00     0.000 C 
BRANCH  15  16
ATOM     16  C   UNL     1      19.766  11.876  36.795  1.00  0.00     0.000 C 
BRANCH  16  17
ATOM     17  C   UNL     1      20.325  12.270  35.418  1.00  0.00    -0.000 C 
BRANCH  17  18
ATOM     18  C   UNL     1      19.341  13.127  34.607  1.00  0.00    -0.000 C 
BRANCH  18  19
ATOM     19  C   UNL     1      20.087  14.176  33.773  1.00  0.00    -0.003 C 
ATOM     20  C   UNL     1      21.544  13.778  33.560  1.00  0.00     0.004 C 
ENDBRANCH  18  19
ENDBRANCH  17  18
ENDBRANCH  16  17
ENDBRANCH  15  16
ENDBRANCH  14  15
ENDBRANCH  13  14
ENDBRANCH   2  13
TORSDOF 15
ENDMDL
MODEL 6
REMARK VINA RESULT:     1.253      1.049      5.168
REMARK INTER + INTRA:           2.030
REMARK INTER:                   2.639
REMARK INTRA:                  -0.609
REMARK UNBOUND:                -0.322
REMARK SMILES CCCCCCCCC=CCCCCCCCC(=O)[O-]
REMARK SMILES IDX 10 1 9 2 11 3 12 4 13 5 14 6 15 7 16 8 17 9 18 10 19 11
REMARK SMILES IDX 20 12 8 13 7 14 6 15 5 16 4 17 3 18 2 19 1 20
REMARK H PARENT
REMARK Flexibility Score: inf
ROOT
ATOM      1  C   UNL     1      21.814  15.281  35.943  1.00  0.00    -0.031 C 
ATOM      2  C   UNL     1      21.228  15.604  37.113  1.00  0.00    -0.031 C 
ENDROOT
BRANCH   1   3
ATOM      3  C   UNL     1      21.819  13.906  35.325  1.00  0.00     0.027 C 
BRANCH   3   4
ATOM      4  C   UNL     1      20.889  13.832  34.107  1.00  0.00     0.004 C 
BRANCH   4   5
ATOM      5  C   UNL     1      19.504  13.305  34.510  1.00  0.00     0.000 C 
BRANCH   5   6
ATOM      6  C   UNL     1      19.572  11.946  35.226  1.00  0.00     0.000 C 
BRANCH   6   7
ATOM      7  C   UNL     1      19.907  12.087  36.722  1.00  0.00     0.000 C 
BRANCH   7   8
ATOM      8  C   UNL     1      20.810  10.953  37.235  1.00  0.00     0.006 C 
BRANCH   8   9
ATOM      9  C   UNL     1      21.391  11.241  38.627  1.00  0.00     0.053 C 
BRANCH   9  10
ATOM     10  C   UNL     1      22.721  11.916  38.509  1.00  0.00     0.041 C 
ATOM     11  O   UNL     1      23.237  12.104  37.377  1.00  0.00    -0.550 OA
ATOM     12  O   UNL     1      23.409  12.303  39.652  1.00  0.00    -0.550 OA
ENDBRANCH   9  10
ENDBRANCH   8   9
ENDBRANCH   7   8
ENDBRANCH   6   7
ENDBRANCH   5   6
ENDBRANCH   4   5
ENDBRANCH   3   4
ENDBRANCH   1   3
BRANCH   2  13
ATOM     13  C   UNL     1      20.500  14.640  38.023  1.00  0.00     0.027 C 
BRANCH  13  14
ATOM     14  C   UNL     1      19.516  15.364  38.959  1.00  0.00     0.004 C 
BRANCH  14  15
ATOM     15  C   UNL     1      18.403  14.470  39.536  1.00  0.00     0.000 C 
BRANCH  15  16
ATOM     16  C   UNL     1      18.786  12.979  39.557  1.00  0.00     0.000 C 
BRANCH  16  17
ATOM     17  C   UNL     1      18.395  12.288  40.873  1.00  0.00    -0.000 C 
BRANCH  17  18
ATOM     18  C   UNL     1      19.175  12.836  42.079  1.00  0.00    -0.000 C 
BRANCH  18  19
ATOM     19  C   UNL     1      20.615  13.190  41.686  1.00  0.00    -0.003 C 
ATOM     20  C   UNL     1      20.972  14.607  42.122  1.00  0.00     0.004 C 
ENDBRANCH  18  19
ENDBRANCH  17  18
ENDBRANCH  16  17
ENDBRANCH  15  16
ENDBRANCH  14  15
ENDBRANCH  13  14
ENDBRANCH   2  13
TORSDOF 15
ENDMDL
MODEL 7
REMARK VINA RESULT:     1.281     14.848     17.442
REMARK INTER + INTRA:           2.082
REMARK INTER:                   2.661
REMARK INTRA:                  -0.579
REMARK UNBOUND:                -0.322
REMARK SMILES CCCCCCCCC=CCCCCCCCC(=O)[O-]
REMARK SMILES IDX 10 1 9 2 11 3 12 4 13 5 14 6 15 7 16 8 17 9 18 10 19 11
REMARK SMILES IDX 20 12 8 13 7 14 6 15 5 16 4 17 3 18 2 19 1 20
REMARK H PARENT
REMARK Flexibility Score: inf
ROOT
ATOM      1  C   UNL     1      25.487  28.670  33.801  1.00  0.00    -0.031 C 
ATOM      2  C   UNL     1      24.967  28.933  35.016  1.00  0.00    -0.031 C 
ENDROOT
BRANCH   1   3
ATOM      3  C   UNL     1      24.689  28.316  32.572  1.00  0.00     0.027 C 
BRANCH   3   4
ATOM      4  C   UNL     1      24.950  29.303  31.427  1.00  0.00     0.004 C 
BRANCH   4   5
ATOM      5  C   UNL     1      25.280  28.555  30.127  1.00  0.00     0.000 C 
BRANCH   5   6
ATOM      6  C   UNL     1      26.551  27.698  30.243  1.00  0.00     0.000 C 
BRANCH   6   7
ATOM      7  C   UNL     1      27.145  27.339  28.869  1.00  0.00     0.000 C 
BRANCH   7   8
ATOM      8  C   UNL     1      28.383  26.434  28.978  1.00  0.00     0.006 C 
BRANCH   8   9
ATOM      9  C   UNL     1      29.631  27.053  28.331  1.00  0.00     0.053 C 
BRANCH   9  10
ATOM     10  C   UNL     1      30.502  25.985  27.748  1.00  0.00     0.041 C 
ATOM     11  O   UNL     1      31.700  26.235  27.456  1.00  0.00    -0.550 OA
ATOM     12  O   UNL     1      29.979  24.724  27.492  1.00  0.00    -0.550 OA
ENDBRANCH   9  10
ENDBRANCH   8   9
ENDBRANCH   7   8
ENDBRANCH   6   7
ENDBRANCH   5   6
ENDBRANCH   4   5
ENDBRANCH   3   4
ENDBRANCH   1   3
BRANCH   2  13
ATOM     13  C   UNL     1      23.496  28.891  35.366  1.00  0.00     0.027 C 
BRANCH  13  14
ATOM     14  C   UNL     1      23.263  28.990  36.884  1.00  0.00     0.004 C 
BRANCH  14  15
ATOM     15  C   UNL     1      21.796  28.817  37.321  1.00  0.00     0.000 C 
BRANCH  15  16
ATOM     16  C   UNL     1      21.634  27.820  38.483  1.00  0.00     0.000 C 
BRANCH  16  17
ATOM     17  C   UNL     1      21.145  28.496  39.775  1.00  0.00    -0.000 C 
BRANCH  17  18
ATOM     18  C   UNL     1      20.792  27.480  40.872  1.00  0.00    -0.000 C 
BRANCH  18  19
ATOM     19  C   UNL     1      19.468  27.846  41.553  1.00  0.00    -0.003 C 
ATOM     20  C   UNL     1      18.591  28.691  40.635  1.00  0.00     0.004 C 
ENDBRANCH  18  19
ENDBRANCH  17  18
ENDBRANCH  16  17
ENDBRANCH  15  16
ENDBRANCH  14  15
ENDBRANCH  13  14
ENDBRANCH   2  13
TORSDOF 15
ENDMDL
