MODEL 1
REMARK VINA RESULT:    -4.753      0.000      0.000
REMARK INTER + INTRA:          -5.852
REMARK INTER:                  -5.586
REMARK INTRA:                  -0.266
REMARK UNBOUND:                -0.266
REMARK SMILES O=c1cc(-c2ccc(O)c(O)c2)oc2cc(O)cc(O)c12
REMARK SMILES IDX 4 1 3 2 2 3 1 4 21 5 19 6 18 7 16 8 15 9 14 10 13 11 5 12
REMARK SMILES IDX 6 13 7 14 8 15 12 16 10 17 9 18 11 20 20 22 17 24
REMARK H PARENT 9 19 11 21 20 23 17 25
REMARK Flexibility Score: inf
ROOT
ATOM      1  C   UNL     1     -15.129  15.412  11.337  1.00  0.00     0.138 A 
ATOM      2  C   UNL     1     -16.222  16.108  10.804  1.00  0.00     0.100 A 
ATOM      3  C   UNL     1     -16.358  16.228   9.421  1.00  0.00     0.197 A 
ATOM      4  O   UNL     1     -17.319  16.905   8.975  1.00  0.00    -0.289 OA
ATOM      5  C   UNL     1     -15.410  15.615   8.565  1.00  0.00     0.107 A 
ATOM      6  C   UNL     1     -15.464  15.642   7.139  1.00  0.00     0.134 A 
ATOM      7  C   UNL     1     -14.414  15.083   6.398  1.00  0.00     0.093 A 
ATOM      8  C   UNL     1     -13.345  14.450   7.029  1.00  0.00     0.123 A 
ATOM      9  C   UNL     1     -13.306  14.374   8.422  1.00  0.00     0.094 A 
ATOM     10  C   UNL     1     -14.319  14.952   9.190  1.00  0.00     0.146 A 
ATOM     11  O   UNL     1     -14.236  14.874  10.514  1.00  0.00    -0.456 OA
ENDROOT
BRANCH   1  12
ATOM     12  C   UNL     1     -14.937  15.252  12.800  1.00  0.00     0.021 A 
ATOM     13  C   UNL     1     -15.645  14.285  13.540  1.00  0.00     0.016 A 
ATOM     14  C   UNL     1     -15.451  14.164  14.918  1.00  0.00     0.051 A 
ATOM     15  C   UNL     1     -14.553  15.008  15.583  1.00  0.00     0.157 A 
ATOM     16  C   UNL     1     -14.048  16.105  13.479  1.00  0.00     0.062 A 
ATOM     17  C   UNL     1     -13.851  15.984  14.859  1.00  0.00     0.158 A 
BRANCH  15  18
ATOM     18  O   UNL     1     -14.361  14.882  16.958  1.00  0.00    -0.504 OA
ATOM     19  H   UNL     1     -15.126  14.993  17.614  1.00  0.00     0.293 HD
ENDBRANCH  15  18
BRANCH  17  20
ATOM     20  O   UNL     1     -12.953  16.844  15.493  1.00  0.00    -0.504 OA
ATOM     21  H   UNL     1     -13.093  17.846  15.516  1.00  0.00     0.293 HD
ENDBRANCH  17  20
ENDBRANCH   1  12
BRANCH   6  22
ATOM     22  O   UNL     1     -16.526  16.178   6.405  1.00  0.00    -0.507 OA
ATOM     23  H   UNL     1     -16.805  17.146   6.411  1.00  0.00     0.293 HD
ENDBRANCH   6  22
BRANCH   8  24
ATOM     24  O   UNL     1     -12.326  13.892   6.259  1.00  0.00    -0.508 OA
ATOM     25  H   UNL     1     -11.440  14.365   6.129  1.00  0.00     0.293 HD
ENDBRANCH   8  24
TORSDOF 5
ENDMDL
MODEL 2
REMARK VINA RESULT:    -4.183     11.923     14.980
REMARK INTER + INTRA:          -5.183
REMARK INTER:                  -4.918
REMARK INTRA:                  -0.264
REMARK UNBOUND:                -0.266
REMARK SMILES O=c1cc(-c2ccc(O)c(O)c2)oc2cc(O)cc(O)c12
REMARK SMILES IDX 4 1 3 2 2 3 1 4 21 5 19 6 18 7 16 8 15 9 14 10 13 11 5 12
REMARK SMILES IDX 6 13 7 14 8 15 12 16 10 17 9 18 11 20 20 22 17 24
REMARK H PARENT 9 19 11 21 20 23 17 25
REMARK Flexibility Score: inf
ROOT
ATOM      1  C   UNL     1     -25.977  15.446  19.193  1.00  0.00     0.138 A 
ATOM      2  C   UNL     1     -24.939  14.599  18.784  1.00  0.00     0.100 A 
ATOM      3  C   UNL     1     -23.616  15.033  18.871  1.00  0.00     0.197 A 
ATOM      4  O   UNL     1     -22.712  14.271  18.444  1.00  0.00    -0.289 OA
ATOM      5  C   UNL     1     -23.330  16.313  19.406  1.00  0.00     0.107 A 
ATOM      6  C   UNL     1     -22.018  16.849  19.575  1.00  0.00     0.134 A 
ATOM      7  C   UNL     1     -21.865  18.167  20.024  1.00  0.00     0.093 A 
ATOM      8  C   UNL     1     -22.969  18.946  20.365  1.00  0.00     0.123 A 
ATOM      9  C   UNL     1     -24.255  18.414  20.251  1.00  0.00     0.094 A 
ATOM     10  C   UNL     1     -24.443  17.116  19.773  1.00  0.00     0.146 A 
ATOM     11  O   UNL     1     -25.684  16.654  19.662  1.00  0.00    -0.456 OA
ENDROOT
BRANCH   1  12
ATOM     12  C   UNL     1     -27.402  15.034  19.125  1.00  0.00     0.021 A 
ATOM     13  C   UNL     1     -28.004  14.276  20.148  1.00  0.00     0.016 A 
ATOM     14  C   UNL     1     -29.345  13.894  20.051  1.00  0.00     0.051 A 
ATOM     15  C   UNL     1     -30.105  14.256  18.932  1.00  0.00     0.157 A 
ATOM     16  C   UNL     1     -28.169  15.381  17.998  1.00  0.00     0.062 A 
ATOM     17  C   UNL     1     -29.512  15.001  17.900  1.00  0.00     0.158 A 
BRANCH  15  18
ATOM     18  O   UNL     1     -31.443  13.875  18.840  1.00  0.00    -0.504 OA
ATOM     19  H   UNL     1     -31.939  13.888  17.956  1.00  0.00     0.293 HD
ENDBRANCH  15  18
BRANCH  17  20
ATOM     20  O   UNL     1     -30.240  15.373  16.770  1.00  0.00    -0.504 OA
ATOM     21  H   UNL     1     -31.197  15.699  16.830  1.00  0.00     0.293 HD
ENDBRANCH  17  20
ENDBRANCH   1  12
BRANCH   6  22
ATOM     22  O   UNL     1     -20.842  16.131  19.342  1.00  0.00    -0.507 OA
ATOM     23  H   UNL     1     -20.588  15.269  19.798  1.00  0.00     0.293 HD
ENDBRANCH   6  22
BRANCH   8  24
ATOM     24  O   UNL     1     -22.777  20.248  20.823  1.00  0.00    -0.508 OA
ATOM     25  H   UNL     1     -22.352  20.958  20.239  1.00  0.00     0.293 HD
ENDBRANCH   8  24
TORSDOF 5
ENDMDL
MODEL 3
REMARK VINA RESULT:    -3.856      1.430      2.007
REMARK INTER + INTRA:          -4.799
REMARK INTER:                  -4.504
REMARK INTRA:                  -0.295
REMARK UNBOUND:                -0.266
REMARK SMILES O=c1cc(-c2ccc(O)c(O)c2)oc2cc(O)cc(O)c12
REMARK SMILES IDX 4 1 3 2 2 3 1 4 21 5 19 6 18 7 16 8 15 9 14 10 13 11 5 12
REMARK SMILES IDX 6 13 7 14 8 15 12 16 10 17 9 18 11 20 20 22 17 24
REMARK H PARENT 9 19 11 21 20 23 17 25
REMARK Flexibility Score: inf
ROOT
ATOM      1  C   UNL     1     -15.068  15.409  12.598  1.00  0.00     0.138 A 
ATOM      2  C   UNL     1     -16.253  16.155  12.537  1.00  0.00     0.100 A 
ATOM      3  C   UNL     1     -16.788  16.501  11.297  1.00  0.00     0.197 A 
ATOM      4  O   UNL     1     -17.822  17.217  11.276  1.00  0.00    -0.289 OA
ATOM      5  C   UNL     1     -16.151  16.067  10.109  1.00  0.00     0.107 A 
ATOM      6  C   UNL     1     -16.623  16.331   8.788  1.00  0.00     0.134 A 
ATOM      7  C   UNL     1     -15.853  15.934   7.688  1.00  0.00     0.093 A 
ATOM      8  C   UNL     1     -14.661  15.233   7.858  1.00  0.00     0.123 A 
ATOM      9  C   UNL     1     -14.214  14.925   9.144  1.00  0.00     0.094 A 
ATOM     10  C   UNL     1     -14.941  15.338  10.263  1.00  0.00     0.146 A 
ATOM     11  O   UNL     1     -14.471  15.041  11.470  1.00  0.00    -0.456 OA
ENDROOT
BRANCH   1  12
ATOM     12  C   UNL     1     -14.455  15.011  13.891  1.00  0.00     0.021 A 
ATOM     13  C   UNL     1     -13.262  14.264  13.947  1.00  0.00     0.016 A 
ATOM     14  C   UNL     1     -12.715  13.895  15.179  1.00  0.00     0.051 A 
ATOM     15  C   UNL     1     -13.350  14.257  16.373  1.00  0.00     0.157 A 
ATOM     16  C   UNL     1     -15.094  15.358  15.095  1.00  0.00     0.062 A 
ATOM     17  C   UNL     1     -14.546  14.991  16.329  1.00  0.00     0.158 A 
BRANCH  15  18
ATOM     18  O   UNL     1     -12.799  13.889  17.599  1.00  0.00    -0.504 OA
ATOM     19  H   UNL     1     -11.874  13.478  17.664  1.00  0.00     0.293 HD
ENDBRANCH  15  18
BRANCH  17  20
ATOM     20  O   UNL     1     -15.206  15.363  17.501  1.00  0.00    -0.504 OA
ATOM     21  H   UNL     1     -14.714  15.757  18.293  1.00  0.00     0.293 HD
ENDBRANCH  17  20
ENDBRANCH   1  12
BRANCH   6  22
ATOM     22  O   UNL     1     -17.842  16.954   8.502  1.00  0.00    -0.507 OA
ATOM     23  H   UNL     1     -18.536  16.603   7.861  1.00  0.00     0.293 HD
ENDBRANCH   6  22
BRANCH   8  24
ATOM     24  O   UNL     1     -13.929  14.840   6.739  1.00  0.00    -0.508 OA
ATOM     25  H   UNL     1     -13.965  15.361   5.872  1.00  0.00     0.293 HD
ENDBRANCH   8  24
TORSDOF 5
ENDMDL
MODEL 4
REMARK VINA RESULT:    -3.675      1.572      3.393
REMARK INTER + INTRA:          -4.586
REMARK INTER:                  -4.291
REMARK INTRA:                  -0.295
REMARK UNBOUND:                -0.266
REMARK SMILES O=c1cc(-c2ccc(O)c(O)c2)oc2cc(O)cc(O)c12
REMARK SMILES IDX 4 1 3 2 2 3 1 4 21 5 19 6 18 7 16 8 15 9 14 10 13 11 5 12
REMARK SMILES IDX 6 13 7 14 8 15 12 16 10 17 9 18 11 20 20 22 17 24
REMARK H PARENT 9 19 11 21 20 23 17 25
REMARK Flexibility Score: inf
ROOT
ATOM      1  C   UNL     1     -13.817  15.219  12.704  1.00  0.00     0.138 A 
ATOM      2  C   UNL     1     -12.908  14.565  11.862  1.00  0.00     0.100 A 
ATOM      3  C   UNL     1     -13.149  14.516  10.489  1.00  0.00     0.197 A 
ATOM      4  O   UNL     1     -12.343  13.875   9.768  1.00  0.00    -0.289 OA
ATOM      5  C   UNL     1     -14.292  15.158   9.952  1.00  0.00     0.107 A 
ATOM      6  C   UNL     1     -14.623  15.203   8.564  1.00  0.00     0.134 A 
ATOM      7  C   UNL     1     -15.833  15.784   8.163  1.00  0.00     0.093 A 
ATOM      8  C   UNL     1     -16.694  16.371   9.089  1.00  0.00     0.123 A 
ATOM      9  C   UNL     1     -16.356  16.376  10.443  1.00  0.00     0.094 A 
ATOM     10  C   UNL     1     -15.174  15.774  10.880  1.00  0.00     0.146 A 
ATOM     11  O   UNL     1     -14.899  15.786  12.180  1.00  0.00    -0.456 OA
ENDROOT
BRANCH   1  12
ATOM     12  C   UNL     1     -13.609  15.303  14.172  1.00  0.00     0.021 A 
ATOM     13  C   UNL     1     -12.343  15.576  14.726  1.00  0.00     0.016 A 
ATOM     14  C   UNL     1     -12.176  15.640  16.112  1.00  0.00     0.051 A 
ATOM     15  C   UNL     1     -13.264  15.427  16.967  1.00  0.00     0.157 A 
ATOM     16  C   UNL     1     -14.693  15.077  15.039  1.00  0.00     0.062 A 
ATOM     17  C   UNL     1     -14.527  15.142  16.426  1.00  0.00     0.158 A 
BRANCH  15  18
ATOM     18  O   UNL     1     -13.092  15.494  18.349  1.00  0.00    -0.504 OA
ATOM     19  H   UNL     1     -13.717  16.037  18.936  1.00  0.00     0.293 HD
ENDBRANCH  15  18
BRANCH  17  20
ATOM     20  O   UNL     1     -15.630  14.920  17.251  1.00  0.00    -0.504 OA
ATOM     21  H   UNL     1     -16.384  14.298  16.987  1.00  0.00     0.293 HD
ENDBRANCH  17  20
ENDBRANCH   1  12
BRANCH   6  22
ATOM     22  O   UNL     1     -13.798  14.718   7.545  1.00  0.00    -0.507 OA
ATOM     23  H   UNL     1     -13.715  13.750   7.277  1.00  0.00     0.293 HD
ENDBRANCH   6  22
BRANCH   8  24
ATOM     24  O   UNL     1     -17.881  16.952   8.651  1.00  0.00    -0.508 OA
ATOM     25  H   UNL     1     -18.706  16.982   9.238  1.00  0.00     0.293 HD
ENDBRANCH   8  24
TORSDOF 5
ENDMDL
MODEL 5
REMARK VINA RESULT:    -3.172      1.769      7.265
REMARK INTER + INTRA:          -3.994
REMARK INTER:                  -3.731
REMARK INTRA:                  -0.263
REMARK UNBOUND:                -0.266
REMARK SMILES O=c1cc(-c2ccc(O)c(O)c2)oc2cc(O)cc(O)c12
REMARK SMILES IDX 4 1 3 2 2 3 1 4 21 5 19 6 18 7 16 8 15 9 14 10 13 11 5 12
REMARK SMILES IDX 6 13 7 14 8 15 12 16 10 17 9 18 11 20 20 22 17 24
REMARK H PARENT 9 19 11 21 20 23 17 25
REMARK Flexibility Score: inf
ROOT
ATOM      1  C   UNL     1     -14.654  15.316  11.704  1.00  0.00     0.138 A 
ATOM      2  C   UNL     1     -13.452  16.011  11.893  1.00  0.00     0.100 A 
ATOM      3  C   UNL     1     -12.926  16.146  13.178  1.00  0.00     0.197 A 
ATOM      4  O   UNL     1     -11.875  16.822  13.320  1.00  0.00    -0.289 OA
ATOM      5  C   UNL     1     -13.591  15.550  14.276  1.00  0.00     0.107 A 
ATOM      6  C   UNL     1     -13.131  15.593  15.627  1.00  0.00     0.134 A 
ATOM      7  C   UNL     1     -13.927  15.051  16.644  1.00  0.00     0.093 A 
ATOM      8  C   UNL     1     -15.134  14.417  16.355  1.00  0.00     0.123 A 
ATOM      9  C   UNL     1     -15.570  14.326  15.032  1.00  0.00     0.094 A 
ATOM     10  C   UNL     1     -14.817  14.887  13.999  1.00  0.00     0.146 A 
ATOM     11  O   UNL     1     -15.276  14.794  12.756  1.00  0.00    -0.456 OA
ENDROOT
BRANCH   1  12
ATOM     12  C   UNL     1     -15.258  15.140  10.359  1.00  0.00     0.021 A 
ATOM     13  C   UNL     1     -14.914  14.056   9.528  1.00  0.00     0.016 A 
ATOM     14  C   UNL     1     -15.491  13.922   8.263  1.00  0.00     0.051 A 
ATOM     15  C   UNL     1     -16.415  14.868   7.802  1.00  0.00     0.157 A 
ATOM     16  C   UNL     1     -16.176  16.093   9.882  1.00  0.00     0.062 A 
ATOM     17  C   UNL     1     -16.756  15.959   8.616  1.00  0.00     0.158 A 
BRANCH  15  18
ATOM     18  O   UNL     1     -16.990  14.729   6.540  1.00  0.00    -0.504 OA
ATOM     19  H   UNL     1     -16.464  14.917   5.693  1.00  0.00     0.293 HD
ENDBRANCH  15  18
BRANCH  17  20
ATOM     20  O   UNL     1     -17.669  16.921   8.184  1.00  0.00    -0.504 OA
ATOM     21  H   UNL     1     -17.404  17.887   8.038  1.00  0.00     0.293 HD
ENDBRANCH  17  20
ENDBRANCH   1  12
BRANCH   6  22
ATOM     22  O   UNL     1     -11.902  16.130  16.020  1.00  0.00    -0.507 OA
ATOM     23  H   UNL     1     -11.762  16.746  16.806  1.00  0.00     0.293 HD
ENDBRANCH   6  22
BRANCH   8  24
ATOM     24  O   UNL     1     -15.892  13.876  17.391  1.00  0.00    -0.508 OA
ATOM     25  H   UNL     1     -15.613  13.024  17.863  1.00  0.00     0.293 HD
ENDBRANCH   8  24
TORSDOF 5
ENDMDL
MODEL 6
REMARK VINA RESULT:    -3.078      1.228      2.665
REMARK INTER + INTRA:          -3.885
REMARK INTER:                  -3.621
REMARK INTRA:                  -0.264
REMARK UNBOUND:                -0.266
REMARK SMILES O=c1cc(-c2ccc(O)c(O)c2)oc2cc(O)cc(O)c12
REMARK SMILES IDX 4 1 3 2 2 3 1 4 21 5 19 6 18 7 16 8 15 9 14 10 13 11 5 12
REMARK SMILES IDX 6 13 7 14 8 15 12 16 10 17 9 18 11 20 20 22 17 24
REMARK H PARENT 9 19 11 21 20 23 17 25
REMARK Flexibility Score: inf
ROOT
ATOM      1  C   UNL     1     -14.354  14.807  11.236  1.00  0.00     0.138 A 
ATOM      2  C   UNL     1     -13.122  14.412  10.700  1.00  0.00     0.100 A 
ATOM      3  C   UNL     1     -12.977  14.285   9.318  1.00  0.00     0.197 A 
ATOM      4  O   UNL     1     -11.875  13.875   8.873  1.00  0.00    -0.289 OA
ATOM      5  C   UNL     1     -14.065  14.593   8.466  1.00  0.00     0.107 A 
ATOM      6  C   UNL     1     -14.024  14.533   7.040  1.00  0.00     0.134 A 
ATOM      7  C   UNL     1     -15.195  14.765   6.306  1.00  0.00     0.093 A 
ATOM      8  C   UNL     1     -16.387  15.111   6.941  1.00  0.00     0.123 A 
ATOM      9  C   UNL     1     -16.426  15.221   8.332  1.00  0.00     0.094 A 
ATOM     10  C   UNL     1     -15.285  14.961   9.094  1.00  0.00     0.146 A 
ATOM     11  O   UNL     1     -15.369  15.060  10.416  1.00  0.00    -0.456 OA
ENDROOT
BRANCH   1  12
ATOM     12  C   UNL     1     -14.564  14.960  12.698  1.00  0.00     0.021 A 
ATOM     13  C   UNL     1     -14.952  13.876  13.509  1.00  0.00     0.016 A 
ATOM     14  C   UNL     1     -15.151  14.053  14.880  1.00  0.00     0.051 A 
ATOM     15  C   UNL     1     -14.973  15.312  15.465  1.00  0.00     0.157 A 
ATOM     16  C   UNL     1     -14.401  16.225  13.292  1.00  0.00     0.062 A 
ATOM     17  C   UNL     1     -14.598  16.403  14.665  1.00  0.00     0.158 A 
BRANCH  15  18
ATOM     18  O   UNL     1     -15.170  15.484  16.834  1.00  0.00    -0.504 OA
ATOM     19  H   UNL     1     -14.985  14.737  17.495  1.00  0.00     0.293 HD
ENDBRANCH  15  18
BRANCH  17  20
ATOM     20  O   UNL     1     -14.417  17.672  15.216  1.00  0.00    -0.504 OA
ATOM     21  H   UNL     1     -13.505  18.015  15.491  1.00  0.00     0.293 HD
ENDBRANCH  17  20
ENDBRANCH   1  12
BRANCH   6  22
ATOM     22  O   UNL     1     -12.867  14.276   6.299  1.00  0.00    -0.507 OA
ATOM     23  H   UNL     1     -12.023  14.825   6.332  1.00  0.00     0.293 HD
ENDBRANCH   6  22
BRANCH   8  24
ATOM     24  O   UNL     1     -17.527  15.350   6.177  1.00  0.00    -0.508 OA
ATOM     25  H   UNL     1     -17.479  15.835   5.289  1.00  0.00     0.293 HD
ENDBRANCH   8  24
TORSDOF 5
ENDMDL
MODEL 7
REMARK VINA RESULT:    -2.967      2.048      7.349
REMARK INTER + INTRA:          -3.754
REMARK INTER:                  -3.478
REMARK INTRA:                  -0.276
REMARK UNBOUND:                -0.266
REMARK SMILES O=c1cc(-c2ccc(O)c(O)c2)oc2cc(O)cc(O)c12
REMARK SMILES IDX 4 1 3 2 2 3 1 4 21 5 19 6 18 7 16 8 15 9 14 10 13 11 5 12
REMARK SMILES IDX 6 13 7 14 8 15 12 16 10 17 9 18 11 20 20 22 17 24
REMARK H PARENT 9 19 11 21 20 23 17 25
REMARK Flexibility Score: inf
ROOT
ATOM      1  C   UNL     1     -15.057  15.146   9.499  1.00  0.00     0.138 A 
ATOM      2  C   UNL     1     -13.690  14.852   9.588  1.00  0.00     0.100 A 
ATOM      3  C   UNL     1     -13.114  14.613  10.836  1.00  0.00     0.197 A 
ATOM      4  O   UNL     1     -11.875  14.407  10.887  1.00  0.00    -0.289 OA
ATOM      5  C   UNL     1     -13.922  14.634  11.999  1.00  0.00     0.107 A 
ATOM      6  C   UNL     1     -13.452  14.373  13.321  1.00  0.00     0.134 A 
ATOM      7  C   UNL     1     -14.326  14.520  14.406  1.00  0.00     0.093 A 
ATOM      8  C   UNL     1     -15.664  14.861  14.212  1.00  0.00     0.123 A 
ATOM      9  C   UNL     1     -16.146  15.070  12.920  1.00  0.00     0.094 A 
ATOM     10  C   UNL     1     -15.292  14.966  11.820  1.00  0.00     0.146 A 
ATOM     11  O   UNL     1     -15.787  15.191  10.608  1.00  0.00    -0.456 OA
ENDROOT
BRANCH   1  12
ATOM     12  C   UNL     1     -15.722  15.405   8.196  1.00  0.00     0.021 A 
ATOM     13  C   UNL     1     -15.370  16.505   7.390  1.00  0.00     0.016 A 
ATOM     14  C   UNL     1     -16.020  16.729   6.174  1.00  0.00     0.051 A 
ATOM     15  C   UNL     1     -17.036  15.866   5.745  1.00  0.00     0.157 A 
ATOM     16  C   UNL     1     -16.754  14.552   7.764  1.00  0.00     0.062 A 
ATOM     17  C   UNL     1     -17.405  14.774   6.546  1.00  0.00     0.158 A 
BRANCH  15  18
ATOM     18  O   UNL     1     -17.681  16.092   4.530  1.00  0.00    -0.504 OA
ATOM     19  H   UNL     1     -18.689  16.018   4.442  1.00  0.00     0.293 HD
ENDBRANCH  15  18
BRANCH  17  20
ATOM     20  O   UNL     1     -18.416  13.899   6.149  1.00  0.00    -0.504 OA
ATOM     21  H   UNL     1     -18.842  13.949   5.232  1.00  0.00     0.293 HD
ENDBRANCH  17  20
ENDBRANCH   1  12
BRANCH   6  22
ATOM     22  O   UNL     1     -12.155  13.947  13.622  1.00  0.00    -0.507 OA
ATOM     23  H   UNL     1     -11.799  13.781  14.550  1.00  0.00     0.293 HD
ENDBRANCH   6  22
BRANCH   8  24
ATOM     24  O   UNL     1     -16.508  14.983  15.314  1.00  0.00    -0.508 OA
ATOM     25  H   UNL     1     -17.171  14.257  15.557  1.00  0.00     0.293 HD
ENDBRANCH   8  24
TORSDOF 5
ENDMDL
MODEL 8
REMARK VINA RESULT:    -2.923      1.618      7.137
REMARK INTER + INTRA:          -3.701
REMARK INTER:                  -3.414
REMARK INTRA:                  -0.287
REMARK UNBOUND:                -0.266
REMARK SMILES O=c1cc(-c2ccc(O)c(O)c2)oc2cc(O)cc(O)c12
REMARK SMILES IDX 4 1 3 2 2 3 1 4 21 5 19 6 18 7 16 8 15 9 14 10 13 11 5 12
REMARK SMILES IDX 6 13 7 14 8 15 12 16 10 17 9 18 11 20 20 22 17 24
REMARK H PARENT 9 19 11 21 20 23 17 25
REMARK Flexibility Score: inf
ROOT
ATOM      1  C   UNL     1     -14.069  15.287  11.341  1.00  0.00     0.138 A 
ATOM      2  C   UNL     1     -15.258  14.644  11.709  1.00  0.00     0.100 A 
ATOM      3  C   UNL     1     -15.580  14.506  13.060  1.00  0.00     0.197 A 
ATOM      4  O   UNL     1     -16.626  13.875  13.359  1.00  0.00    -0.289 OA
ATOM      5  C   UNL     1     -14.721  15.049  14.046  1.00  0.00     0.107 A 
ATOM      6  C   UNL     1     -14.963  14.999  15.453  1.00  0.00     0.134 A 
ATOM      7  C   UNL     1     -13.992  15.484  16.337  1.00  0.00     0.093 A 
ATOM      8  C   UNL     1     -12.817  16.069  15.868  1.00  0.00     0.123 A 
ATOM      9  C   UNL     1     -12.592  16.168  14.494  1.00  0.00     0.094 A 
ATOM     10  C   UNL     1     -13.525  15.662  13.586  1.00  0.00     0.146 A 
ATOM     11  O   UNL     1     -13.265  15.760  12.287  1.00  0.00    -0.456 OA
ENDROOT
BRANCH   1  12
ATOM     12  C   UNL     1     -13.678  15.464   9.919  1.00  0.00     0.021 A 
ATOM     13  C   UNL     1     -12.330  15.582   9.530  1.00  0.00     0.016 A 
ATOM     14  C   UNL     1     -11.993  15.757   8.186  1.00  0.00     0.051 A 
ATOM     15  C   UNL     1     -12.994  15.825   7.208  1.00  0.00     0.157 A 
ATOM     16  C   UNL     1     -14.677  15.547   8.933  1.00  0.00     0.062 A 
ATOM     17  C   UNL     1     -14.342  15.721   7.586  1.00  0.00     0.158 A 
BRANCH  15  18
ATOM     18  O   UNL     1     -12.653  15.997   5.868  1.00  0.00    -0.504 OA
ATOM     19  H   UNL     1     -12.159  15.280   5.349  1.00  0.00     0.293 HD
ENDBRANCH  15  18
BRANCH  17  20
ATOM     20  O   UNL     1     -15.362  15.790   6.637  1.00  0.00    -0.504 OA
ATOM     21  H   UNL     1     -16.037  15.044   6.517  1.00  0.00     0.293 HD
ENDBRANCH  17  20
ENDBRANCH   1  12
BRANCH   6  22
ATOM     22  O   UNL     1     -16.139  14.509  16.029  1.00  0.00    -0.507 OA
ATOM     23  H   UNL     1     -16.959  14.221  15.518  1.00  0.00     0.293 HD
ENDBRANCH   6  22
BRANCH   8  24
ATOM     24  O   UNL     1     -11.880  16.555  16.777  1.00  0.00    -0.508 OA
ATOM     25  H   UNL     1     -11.823  16.196  17.723  1.00  0.00     0.293 HD
ENDBRANCH   8  24
TORSDOF 5
ENDMDL
