MODEL 1
REMARK VINA RESULT:    -4.237      0.000      0.000
REMARK INTER + INTRA:          -7.230
REMARK INTER:                  -6.713
REMARK INTRA:                  -0.517
REMARK UNBOUND:                -0.517
REMARK SMILES CCCCCCCCCCCC(=O)[O-]
REMARK SMILES IDX 7 1 8 2 9 3 10 4 11 5 12 6 13 7 14 8 6 9 5 10 4 11 3 12 2 13
REMARK SMILES IDX 1 14
REMARK H PARENT
REMARK Flexibility Score: inf
ROOT
ATOM      1  C   UNL     1      -0.358  -0.008  -0.234  1.00  0.00     0.000 C 
ENDROOT
BRANCH   1   2
ATOM      2  C   UNL     1      -0.778  -1.259  -1.024  1.00  0.00     0.000 C 
BRANCH   2   3
ATOM      3  C   UNL     1      -2.098  -1.117  -1.807  1.00  0.00     0.000 C 
BRANCH   3   4
ATOM      4  C   UNL     1      -3.091  -2.274  -1.567  1.00  0.00     0.006 C 
BRANCH   4   5
ATOM      5  C   UNL     1      -2.726  -3.108  -0.332  1.00  0.00     0.053 C 
BRANCH   5   6
ATOM      6  C   UNL     1      -2.992  -4.558  -0.582  1.00  0.00     0.041 C 
ATOM      7  O   UNL     1      -2.160  -5.253  -1.224  1.00  0.00    -0.550 OA
ATOM      8  O   UNL     1      -4.134  -5.155  -0.065  1.00  0.00    -0.550 OA
ENDBRANCH   5   6
ENDBRANCH   4   5
ENDBRANCH   3   4
ENDBRANCH   2   3
ENDBRANCH   1   2
BRANCH   1   9
ATOM      9  C   UNL     1       0.232   1.092  -1.129  1.00  0.00     0.000 C 
BRANCH   9  10
ATOM     10  C   UNL     1       1.615   0.687  -1.655  1.00  0.00    -0.000 C 
BRANCH  10  11
ATOM     11  C   UNL     1       2.731   1.316  -0.813  1.00  0.00    -0.000 C 
BRANCH  11  12
ATOM     12  C   UNL     1       2.992   2.767  -1.241  1.00  0.00    -0.000 C 
BRANCH  12  13
ATOM     13  C   UNL     1       2.623   3.780  -0.146  1.00  0.00    -0.003 C 
ATOM     14  C   UNL     1       2.556   5.216  -0.667  1.00  0.00     0.004 C 
ENDBRANCH  12  13
ENDBRANCH  11  12
ENDBRANCH  10  11
ENDBRANCH   9  10
ENDBRANCH   1   9
TORSDOF 10
ENDMDL
MODEL 2
REMARK VINA RESULT:    -4.228      4.461      8.135
REMARK INTER + INTRA:          -7.216
REMARK INTER:                  -6.779
REMARK INTRA:                  -0.437
REMARK UNBOUND:                -0.517
REMARK SMILES CCCCCCCCCCCC(=O)[O-]
REMARK SMILES IDX 7 1 8 2 9 3 10 4 11 5 12 6 13 7 14 8 6 9 5 10 4 11 3 12 2 13
REMARK SMILES IDX 1 14
REMARK H PARENT
REMARK Flexibility Score: inf
ROOT
ATOM      1  C   UNL     1      -0.099   0.014  -0.271  1.00  0.00     0.000 C 
ENDROOT
BRANCH   1   2
ATOM      2  C   UNL     1       0.479   1.156  -1.123  1.00  0.00     0.000 C 
BRANCH   2   3
ATOM      3  C   UNL     1       1.931   0.941  -1.595  1.00  0.00     0.000 C 
BRANCH   3   4
ATOM      4  C   UNL     1       2.859   2.143  -1.319  1.00  0.00     0.006 C 
BRANCH   4   5
ATOM      5  C   UNL     1       2.363   3.007  -0.153  1.00  0.00     0.053 C 
BRANCH   5   6
ATOM      6  C   UNL     1       2.760   4.435  -0.354  1.00  0.00     0.041 C 
ATOM      7  O   UNL     1       1.947   5.254  -0.860  1.00  0.00    -0.550 OA
ATOM      8  O   UNL     1       4.009   4.874   0.063  1.00  0.00    -0.550 OA
ENDBRANCH   5   6
ENDBRANCH   4   5
ENDBRANCH   3   4
ENDBRANCH   2   3
ENDBRANCH   1   2
BRANCH   1   9
ATOM      9  C   UNL     1      -0.496  -1.211  -1.109  1.00  0.00     0.000 C 
BRANCH   9  10
ATOM     10  C   UNL     1      -1.879  -1.015  -1.744  1.00  0.00    -0.000 C 
BRANCH  10  11
ATOM     11  C   UNL     1      -2.980  -1.618  -0.864  1.00  0.00    -0.000 C 
BRANCH  11  12
ATOM     12  C   UNL     1      -3.316  -3.050  -1.306  1.00  0.00    -0.000 C 
BRANCH  12  13
ATOM     13  C   UNL     1      -2.559  -4.111  -0.493  1.00  0.00    -0.003 C 
ATOM     14  C   UNL     1      -3.025  -5.534  -0.800  1.00  0.00     0.004 C 
ENDBRANCH  12  13
ENDBRANCH  11  12
ENDBRANCH  10  11
ENDBRANCH   9  10
ENDBRANCH   1   9
TORSDOF 10
ENDMDL
MODEL 3
REMARK VINA RESULT:    -3.984      4.116      7.803
REMARK INTER + INTRA:          -6.829
REMARK INTER:                  -6.357
REMARK INTRA:                  -0.472
REMARK UNBOUND:                -0.517
REMARK SMILES CCCCCCCCCCCC(=O)[O-]
REMARK SMILES IDX 7 1 8 2 9 3 10 4 11 5 12 6 13 7 14 8 6 9 5 10 4 11 3 12 2 13
REMARK SMILES IDX 1 14
REMARK H PARENT
REMARK Flexibility Score: inf
ROOT
ATOM      1  C   UNL     1      -0.869   0.207  -1.031  1.00  0.00     0.000 C 
ENDROOT
BRANCH   1   2
ATOM      2  C   UNL     1       0.572  -0.259  -0.767  1.00  0.00     0.000 C 
BRANCH   2   3
ATOM      3  C   UNL     1       1.648   0.460  -1.605  1.00  0.00     0.000 C 
BRANCH   3   4
ATOM      4  C   UNL     1       2.654   1.272  -0.761  1.00  0.00     0.006 C 
BRANCH   4   5
ATOM      5  C   UNL     1       2.979   2.632  -1.392  1.00  0.00     0.053 C 
BRANCH   5   6
ATOM      6  C   UNL     1       2.594   3.743  -0.468  1.00  0.00     0.041 C 
ATOM      7  O   UNL     1       3.476   4.507   0.006  1.00  0.00    -0.550 OA
ATOM      8  O   UNL     1       1.257   3.967  -0.168  1.00  0.00    -0.550 OA
ENDBRANCH   5   6
ENDBRANCH   4   5
ENDBRANCH   3   4
ENDBRANCH   2   3
ENDBRANCH   1   2
BRANCH   1   9
ATOM      9  C   UNL     1      -1.707  -0.841  -1.781  1.00  0.00     0.000 C 
BRANCH   9  10
ATOM     10  C   UNL     1      -2.715  -1.511  -0.840  1.00  0.00    -0.000 C 
BRANCH  10  11
ATOM     11  C   UNL     1      -3.234  -2.826  -1.434  1.00  0.00    -0.000 C 
BRANCH  11  12
ATOM     12  C   UNL     1      -3.167  -3.960  -0.401  1.00  0.00    -0.000 C 
BRANCH  12  13
ATOM     13  C   UNL     1      -2.152  -5.048  -0.784  1.00  0.00    -0.003 C 
ATOM     14  C   UNL     1      -0.710  -4.648  -0.470  1.00  0.00     0.004 C 
ENDBRANCH  12  13
ENDBRANCH  11  12
ENDBRANCH  10  11
ENDBRANCH   9  10
ENDBRANCH   1   9
TORSDOF 10
ENDMDL
MODEL 4
REMARK VINA RESULT:    -3.455      1.338      2.203
REMARK INTER + INTRA:          -5.992
REMARK INTER:                  -5.291
REMARK INTRA:                  -0.701
REMARK UNBOUND:                -0.517
REMARK SMILES CCCCCCCCCCCC(=O)[O-]
REMARK SMILES IDX 7 1 8 2 9 3 10 4 11 5 12 6 13 7 14 8 6 9 5 10 4 11 3 12 2 13
REMARK SMILES IDX 1 14
REMARK H PARENT
REMARK Flexibility Score: inf
ROOT
ATOM      1  C   UNL     1       0.272   1.170  -1.145  1.00  0.00     0.000 C 
ENDROOT
BRANCH   1   2
ATOM      2  C   UNL     1      -0.357   0.282  -0.059  1.00  0.00     0.000 C 
BRANCH   2   3
ATOM      3  C   UNL     1       0.094  -1.192  -0.087  1.00  0.00     0.000 C 
BRANCH   3   4
ATOM      4  C   UNL     1      -0.641  -2.048  -1.141  1.00  0.00     0.006 C 
BRANCH   4   5
ATOM      5  C   UNL     1      -2.000  -1.452  -1.530  1.00  0.00     0.053 C 
BRANCH   5   6
ATOM      6  C   UNL     1      -3.107  -2.170  -0.827  1.00  0.00     0.041 C 
ATOM      7  O   UNL     1      -4.076  -1.525  -0.345  1.00  0.00    -0.550 OA
ATOM      8  O   UNL     1      -3.096  -3.557  -0.746  1.00  0.00    -0.550 OA
ENDBRANCH   5   6
ENDBRANCH   4   5
ENDBRANCH   3   4
ENDBRANCH   2   3
ENDBRANCH   1   2
BRANCH   1   9
ATOM      9  C   UNL     1       1.631   0.645  -1.631  1.00  0.00     0.000 C 
BRANCH   9  10
ATOM     10  C   UNL     1       2.781   1.303  -0.859  1.00  0.00    -0.000 C 
BRANCH  10  11
ATOM     11  C   UNL     1       3.063   2.715  -1.387  1.00  0.00    -0.000 C 
BRANCH  11  12
ATOM     12  C   UNL     1       3.087   3.736  -0.241  1.00  0.00    -0.000 C 
BRANCH  12  13
ATOM     13  C   UNL     1       2.144   4.923  -0.489  1.00  0.00    -0.003 C 
ATOM     14  C   UNL     1       0.671   4.555  -0.311  1.00  0.00     0.004 C 
ENDBRANCH  12  13
ENDBRANCH  11  12
ENDBRANCH  10  11
ENDBRANCH   9  10
ENDBRANCH   1   9
TORSDOF 10
ENDMDL
MODEL 5
REMARK VINA RESULT:    -1.944      3.793      7.201
REMARK INTER + INTRA:          -3.598
REMARK INTER:                  -3.188
REMARK INTRA:                  -0.410
REMARK UNBOUND:                -0.517
REMARK SMILES CCCCCCCCCCCC(=O)[O-]
REMARK SMILES IDX 7 1 8 2 9 3 10 4 11 5 12 6 13 7 14 8 6 9 5 10 4 11 3 12 2 13
REMARK SMILES IDX 1 14
REMARK H PARENT
REMARK Flexibility Score: inf
ROOT
ATOM      1  C   UNL     1       0.053  -2.010  -0.742  1.00  0.00     0.000 C 
ENDROOT
BRANCH   1   2
ATOM      2  C   UNL     1      -0.114  -0.657  -0.033  1.00  0.00     0.000 C 
BRANCH   2   3
ATOM      3  C   UNL     1       0.318   0.568  -0.864  1.00  0.00     0.000 C 
BRANCH   3   4
ATOM      4  C   UNL     1       1.499   0.288  -1.816  1.00  0.00     0.006 C 
BRANCH   4   5
ATOM      5  C   UNL     1       2.347   1.540  -2.077  1.00  0.00     0.053 C 
BRANCH   5   6
ATOM      6  C   UNL     1       2.948   2.040  -0.802  1.00  0.00     0.041 C 
ATOM      7  O   UNL     1       3.645   1.272  -0.087  1.00  0.00    -0.550 OA
ATOM      8  O   UNL     1       2.780   3.366  -0.426  1.00  0.00    -0.550 OA
ENDBRANCH   5   6
ENDBRANCH   4   5
ENDBRANCH   3   4
ENDBRANCH   2   3
ENDBRANCH   1   2
BRANCH   1   9
ATOM      9  C   UNL     1      -0.431  -3.194   0.110  1.00  0.00     0.000 C 
BRANCH   9  10
ATOM     10  C   UNL     1      -0.611  -4.451  -0.750  1.00  0.00    -0.000 C 
BRANCH  10  11
ATOM     11  C   UNL     1      -2.059  -4.951  -0.698  1.00  0.00    -0.000 C 
BRANCH  11  12
ATOM     12  C   UNL     1      -3.015  -3.826  -0.277  1.00  0.00    -0.000 C 
BRANCH  12  13
ATOM     13  C   UNL     1      -3.252  -2.803  -1.397  1.00  0.00    -0.003 C 
ATOM     14  C   UNL     1      -3.504  -1.391  -0.866  1.00  0.00     0.004 C 
ENDBRANCH  12  13
ENDBRANCH  11  12
ENDBRANCH  10  11
ENDBRANCH   9  10
ENDBRANCH   1   9
TORSDOF 10
ENDMDL
MODEL 6
REMARK VINA RESULT:    -1.329      3.612      7.403
REMARK INTER + INTRA:          -2.624
REMARK INTER:                  -1.977
REMARK INTRA:                  -0.647
REMARK UNBOUND:                -0.517
REMARK SMILES CCCCCCCCCCCC(=O)[O-]
REMARK SMILES IDX 7 1 8 2 9 3 10 4 11 5 12 6 13 7 14 8 6 9 5 10 4 11 3 12 2 13
REMARK SMILES IDX 1 14
REMARK H PARENT
REMARK Flexibility Score: inf
ROOT
ATOM      1  C   UNL     1       1.357   0.532  -1.485  1.00  0.00     0.000 C 
ENDROOT
BRANCH   1   2
ATOM      2  C   UNL     1       2.608   1.147  -0.836  1.00  0.00     0.000 C 
BRANCH   2   3
ATOM      3  C   UNL     1       3.015   2.525  -1.393  1.00  0.00     0.000 C 
BRANCH   3   4
ATOM      4  C   UNL     1       2.939   3.663  -0.353  1.00  0.00     0.006 C 
BRANCH   4   5
ATOM      5  C   UNL     1       1.742   4.592  -0.592  1.00  0.00     0.053 C 
BRANCH   5   6
ATOM      6  C   UNL     1       0.466   3.910  -0.211  1.00  0.00     0.041 C 
ATOM      7  O   UNL     1       0.277   3.540   0.978  1.00  0.00    -0.550 OA
ATOM      8  O   UNL     1      -0.534   3.726  -1.157  1.00  0.00    -0.550 OA
ENDBRANCH   5   6
ENDBRANCH   4   5
ENDBRANCH   3   4
ENDBRANCH   2   3
ENDBRANCH   1   2
BRANCH   1   9
ATOM      9  C   UNL     1       0.223   0.285  -0.478  1.00  0.00     0.000 C 
BRANCH   9  10
ATOM     10  C   UNL     1      -1.130   0.178  -1.192  1.00  0.00    -0.000 C 
BRANCH  10  11
ATOM     11  C   UNL     1      -1.450  -1.278  -1.551  1.00  0.00    -0.000 C 
BRANCH  11  12
ATOM     12  C   UNL     1      -2.652  -1.792  -0.746  1.00  0.00    -0.000 C 
BRANCH  12  13
ATOM     13  C   UNL     1      -3.200  -3.121  -1.287  1.00  0.00    -0.003 C 
ATOM     14  C   UNL     1      -2.677  -4.334  -0.516  1.00  0.00     0.004 C 
ENDBRANCH  12  13
ENDBRANCH  11  12
ENDBRANCH  10  11
ENDBRANCH   9  10
ENDBRANCH   1   9
TORSDOF 10
ENDMDL
MODEL 7
REMARK VINA RESULT:    -1.237      3.629      7.261
REMARK INTER + INTRA:          -2.477
REMARK INTER:                  -1.817
REMARK INTRA:                  -0.660
REMARK UNBOUND:                -0.517
REMARK SMILES CCCCCCCCCCCC(=O)[O-]
REMARK SMILES IDX 7 1 8 2 9 3 10 4 11 5 12 6 13 7 14 8 6 9 5 10 4 11 3 12 2 13
REMARK SMILES IDX 1 14
REMARK H PARENT
REMARK Flexibility Score: inf
ROOT
ATOM      1  C   UNL     1      -2.334  -1.252  -0.787  1.00  0.00     0.000 C 
ENDROOT
BRANCH   1   2
ATOM      2  C   UNL     1      -1.466  -0.681  -1.921  1.00  0.00     0.000 C 
BRANCH   2   3
ATOM      3  C   UNL     1       0.040  -0.593  -1.603  1.00  0.00     0.000 C 
BRANCH   3   4
ATOM      4  C   UNL     1       0.384   0.433  -0.502  1.00  0.00     0.006 C 
BRANCH   4   5
ATOM      5  C   UNL     1       0.897   1.758  -1.081  1.00  0.00     0.053 C 
BRANCH   5   6
ATOM      6  C   UNL     1       2.353   1.929  -0.786  1.00  0.00     0.041 C 
ATOM      7  O   UNL     1       3.105   0.922  -0.700  1.00  0.00    -0.550 OA
ATOM      8  O   UNL     1       2.891   3.202  -0.655  1.00  0.00    -0.550 OA
ENDBRANCH   5   6
ENDBRANCH   4   5
ENDBRANCH   3   4
ENDBRANCH   2   3
ENDBRANCH   1   2
BRANCH   1   9
ATOM      9  C   UNL     1      -3.170  -2.463  -1.228  1.00  0.00     0.000 C 
BRANCH   9  10
ATOM     10  C   UNL     1      -3.431  -3.407  -0.048  1.00  0.00    -0.000 C 
BRANCH  10  11
ATOM     11  C   UNL     1      -3.410  -4.872  -0.499  1.00  0.00    -0.000 C 
BRANCH  11  12
ATOM     12  C   UNL     1      -2.029  -5.259  -1.048  1.00  0.00    -0.000 C 
BRANCH  12  13
ATOM     13  C   UNL     1      -0.888  -4.889  -0.089  1.00  0.00    -0.003 C 
ATOM     14  C   UNL     1       0.116  -3.919  -0.711  1.00  0.00     0.004 C 
ENDBRANCH  12  13
ENDBRANCH  11  12
ENDBRANCH  10  11
ENDBRANCH   9  10
ENDBRANCH   1   9
TORSDOF 10
ENDMDL
