MODEL 1
REMARK VINA RESULT:    -6.376      0.000      0.000
REMARK INTER + INTRA:          -7.786
REMARK INTER:                  -7.494
REMARK INTRA:                  -0.292
REMARK UNBOUND:                -0.292
REMARK SMILES O=c1c(O)c(-c2ccc(O)cc2)oc2cc(O)cc(O)c12
REMARK SMILES IDX 5 1 3 2 2 3 1 4 21 5 19 6 18 7 16 8 15 9 14 10 13 11 6 12
REMARK SMILES IDX 7 13 8 14 9 15 12 16 11 17 10 18 4 20 20 22 17 24
REMARK H PARENT 10 19 4 21 20 23 17 25
REMARK Flexibility Score: inf
ROOT
ATOM      1  C   UNL     1     479.572  37.706 459.477  1.00  0.00     0.180 A 
ATOM      2  C   UNL     1     478.676  38.757 459.739  1.00  0.00     0.208 A 
ATOM      3  C   UNL     1     477.612  38.539 460.630  1.00  0.00     0.238 A 
ATOM      4  O   UNL     1     476.782  39.466 460.818  1.00  0.00    -0.285 OA
ATOM      5  C   UNL     1     477.468  37.280 461.259  1.00  0.00     0.111 A 
ATOM      6  C   UNL     1     476.451  36.961 462.210  1.00  0.00     0.134 A 
ATOM      7  C   UNL     1     476.324  35.644 462.670  1.00  0.00     0.093 A 
ATOM      8  C   UNL     1     477.219  34.651 462.264  1.00  0.00     0.123 A 
ATOM      9  C   UNL     1     478.250  34.965 461.384  1.00  0.00     0.094 A 
ATOM     10  C   UNL     1     478.380  36.262 460.879  1.00  0.00     0.146 A 
ATOM     11  O   UNL     1     479.371  36.517 460.033  1.00  0.00    -0.452 OA
ENDROOT
BRANCH   1  12
ATOM     12  C   UNL     1     480.731  37.867 458.570  1.00  0.00     0.021 A 
ATOM     13  C   UNL     1     481.946  38.414 459.022  1.00  0.00     0.016 A 
ATOM     14  C   UNL     1     483.035  38.533 458.153  1.00  0.00     0.047 A 
ATOM     15  C   UNL     1     482.928  38.097 456.826  1.00  0.00     0.115 A 
ATOM     16  C   UNL     1     480.639  37.412 457.244  1.00  0.00     0.016 A 
ATOM     17  C   UNL     1     481.729  37.535 456.376  1.00  0.00     0.047 A 
BRANCH  15  18
ATOM     18  O   UNL     1     484.005  38.211 455.951  1.00  0.00    -0.508 OA
ATOM     19  H   UNL     1     484.429  37.396 455.524  1.00  0.00     0.293 HD
ENDBRANCH  15  18
ENDBRANCH   1  12
BRANCH   2  20
ATOM     20  O   UNL     1     478.823  39.986 459.089  1.00  0.00    -0.502 OA
ATOM     21  H   UNL     1     479.260  40.071 458.179  1.00  0.00     0.293 HD
ENDBRANCH   2  20
BRANCH   6  22
ATOM     22  O   UNL     1     475.565  37.898 462.750  1.00  0.00    -0.507 OA
ATOM     23  H   UNL     1     474.686  38.164 462.333  1.00  0.00     0.293 HD
ENDBRANCH   6  22
BRANCH   8  24
ATOM     24  O   UNL     1     477.096  33.346 462.740  1.00  0.00    -0.508 OA
ATOM     25  H   UNL     1     476.745  32.599 462.152  1.00  0.00     0.293 HD
ENDBRANCH   8  24
TORSDOF 5
ENDMDL
MODEL 2
REMARK VINA RESULT:    -5.968      1.818      6.871
REMARK INTER + INTRA:          -7.307
REMARK INTER:                  -7.071
REMARK INTRA:                  -0.236
REMARK UNBOUND:                -0.292
REMARK SMILES O=c1c(O)c(-c2ccc(O)cc2)oc2cc(O)cc(O)c12
REMARK SMILES IDX 5 1 3 2 2 3 1 4 21 5 19 6 18 7 16 8 15 9 14 10 13 11 6 12
REMARK SMILES IDX 7 13 8 14 9 15 12 16 11 17 10 18 4 20 20 22 17 24
REMARK H PARENT 10 19 4 21 20 23 17 25
REMARK Flexibility Score: inf
ROOT
ATOM      1  C   UNL     1     480.178  37.927 459.234  1.00  0.00     0.180 A 
ATOM      2  C   UNL     1     479.684  38.718 458.182  1.00  0.00     0.208 A 
ATOM      3  C   UNL     1     480.591  39.444 457.392  1.00  0.00     0.238 A 
ATOM      4  O   UNL     1     480.139  40.193 456.487  1.00  0.00    -0.285 OA
ATOM      5  C   UNL     1     481.979  39.356 457.653  1.00  0.00     0.111 A 
ATOM      6  C   UNL     1     482.990  40.016 456.891  1.00  0.00     0.134 A 
ATOM      7  C   UNL     1     484.323  39.963 457.318  1.00  0.00     0.093 A 
ATOM      8  C   UNL     1     484.688  39.219 458.443  1.00  0.00     0.123 A 
ATOM      9  C   UNL     1     483.718  38.523 459.159  1.00  0.00     0.094 A 
ATOM     10  C   UNL     1     482.375  38.587 458.778  1.00  0.00     0.146 A 
ATOM     11  O   UNL     1     481.480  37.917 459.493  1.00  0.00    -0.452 OA
ENDROOT
BRANCH   1  12
ATOM     12  C   UNL     1     479.287  37.115 460.093  1.00  0.00     0.021 A 
ATOM     13  C   UNL     1     479.204  35.717 459.950  1.00  0.00     0.016 A 
ATOM     14  C   UNL     1     478.373  34.969 460.790  1.00  0.00     0.047 A 
ATOM     15  C   UNL     1     477.628  35.604 461.791  1.00  0.00     0.115 A 
ATOM     16  C   UNL     1     478.552  37.741 461.114  1.00  0.00     0.016 A 
ATOM     17  C   UNL     1     477.721  36.989 461.951  1.00  0.00     0.047 A 
BRANCH  15  18
ATOM     18  O   UNL     1     476.796  34.868 462.633  1.00  0.00    -0.508 OA
ATOM     19  H   UNL     1     476.778  35.032 463.633  1.00  0.00     0.293 HD
ENDBRANCH  15  18
ENDBRANCH   1  12
BRANCH   2  20
ATOM     20  O   UNL     1     478.308  38.809 457.956  1.00  0.00    -0.502 OA
ATOM     21  H   UNL     1     477.723  39.487 458.428  1.00  0.00     0.293 HD
ENDBRANCH   2  20
BRANCH   6  22
ATOM     22  O   UNL     1     482.744  40.708 455.700  1.00  0.00    -0.507 OA
ATOM     23  H   UNL     1     482.872  40.324 454.776  1.00  0.00     0.293 HD
ENDBRANCH   6  22
BRANCH   8  24
ATOM     24  O   UNL     1     486.020  39.158 458.853  1.00  0.00    -0.508 OA
ATOM     25  H   UNL     1     486.271  39.153 459.834  1.00  0.00     0.293 HD
ENDBRANCH   8  24
TORSDOF 5
ENDMDL
MODEL 3
REMARK VINA RESULT:    -5.888      2.016      7.067
REMARK INTER + INTRA:          -7.212
REMARK INTER:                  -6.912
REMARK INTRA:                  -0.300
REMARK UNBOUND:                -0.292
REMARK SMILES O=c1c(O)c(-c2ccc(O)cc2)oc2cc(O)cc(O)c12
REMARK SMILES IDX 5 1 3 2 2 3 1 4 21 5 19 6 18 7 16 8 15 9 14 10 13 11 6 12
REMARK SMILES IDX 7 13 8 14 9 15 12 16 11 17 10 18 4 20 20 22 17 24
REMARK H PARENT 10 19 4 21 20 23 17 25
REMARK Flexibility Score: inf
ROOT
ATOM      1  C   UNL     1     480.415  38.271 459.639  1.00  0.00     0.180 A 
ATOM      2  C   UNL     1     480.517  38.045 458.255  1.00  0.00     0.208 A 
ATOM      3  C   UNL     1     481.770  38.178 457.634  1.00  0.00     0.238 A 
ATOM      4  O   UNL     1     481.844  38.028 456.386  1.00  0.00    -0.285 OA
ATOM      5  C   UNL     1     482.906  38.518 458.406  1.00  0.00     0.111 A 
ATOM      6  C   UNL     1     484.231  38.639 457.888  1.00  0.00     0.134 A 
ATOM      7  C   UNL     1     485.257  39.108 458.718  1.00  0.00     0.093 A 
ATOM      8  C   UNL     1     485.018  39.396 460.064  1.00  0.00     0.123 A 
ATOM      9  C   UNL     1     483.743  39.224 460.594  1.00  0.00     0.094 A 
ATOM     10  C   UNL     1     482.691  38.793 459.781  1.00  0.00     0.146 A 
ATOM     11  O   UNL     1     481.487  38.651 460.324  1.00  0.00    -0.452 OA
ENDROOT
BRANCH   1  12
ATOM     12  C   UNL     1     479.135  38.126 460.368  1.00  0.00     0.021 A 
ATOM     13  C   UNL     1     478.741  36.893 460.922  1.00  0.00     0.016 A 
ATOM     14  C   UNL     1     477.539  36.787 461.627  1.00  0.00     0.047 A 
ATOM     15  C   UNL     1     476.722  37.911 461.800  1.00  0.00     0.115 A 
ATOM     16  C   UNL     1     478.319  39.253 460.565  1.00  0.00     0.016 A 
ATOM     17  C   UNL     1     477.117  39.142 461.269  1.00  0.00     0.047 A 
BRANCH  15  18
ATOM     18  O   UNL     1     475.521  37.817 462.500  1.00  0.00    -0.508 OA
ATOM     19  H   UNL     1     475.321  38.419 463.290  1.00  0.00     0.293 HD
ENDBRANCH  15  18
ENDBRANCH   1  12
BRANCH   2  20
ATOM     20  O   UNL     1     479.378  37.733 457.507  1.00  0.00    -0.502 OA
ATOM     21  H   UNL     1     478.462  38.098 457.734  1.00  0.00     0.293 HD
ENDBRANCH   2  20
BRANCH   6  22
ATOM     22  O   UNL     1     484.595  38.288 456.584  1.00  0.00    -0.507 OA
ATOM     23  H   UNL     1     484.320  37.436 456.121  1.00  0.00     0.293 HD
ENDBRANCH   6  22
BRANCH   8  24
ATOM     24  O   UNL     1     486.049  39.847 460.888  1.00  0.00    -0.508 OA
ATOM     25  H   UNL     1     486.796  39.231 461.187  1.00  0.00     0.293 HD
ENDBRANCH   8  24
TORSDOF 5
ENDMDL
MODEL 4
REMARK VINA RESULT:    -5.465      1.246      3.189
REMARK INTER + INTRA:          -6.715
REMARK INTER:                  -6.486
REMARK INTRA:                  -0.229
REMARK UNBOUND:                -0.292
REMARK SMILES O=c1c(O)c(-c2ccc(O)cc2)oc2cc(O)cc(O)c12
REMARK SMILES IDX 5 1 3 2 2 3 1 4 21 5 19 6 18 7 16 8 15 9 14 10 13 11 6 12
REMARK SMILES IDX 7 13 8 14 9 15 12 16 11 17 10 18 4 20 20 22 17 24
REMARK H PARENT 10 19 4 21 20 23 17 25
REMARK Flexibility Score: inf
ROOT
ATOM      1  C   UNL     1     479.624  37.484 459.521  1.00  0.00     0.180 A 
ATOM      2  C   UNL     1     479.287  36.211 460.012  1.00  0.00     0.208 A 
ATOM      3  C   UNL     1     478.241  36.095 460.943  1.00  0.00     0.238 A 
ATOM      4  O   UNL     1     477.980  34.960 461.420  1.00  0.00    -0.285 OA
ATOM      5  C   UNL     1     477.537  37.250 461.357  1.00  0.00     0.111 A 
ATOM      6  C   UNL     1     476.434  37.245 462.264  1.00  0.00     0.134 A 
ATOM      7  C   UNL     1     475.896  38.460 462.705  1.00  0.00     0.093 A 
ATOM      8  C   UNL     1     476.378  39.679 462.219  1.00  0.00     0.123 A 
ATOM      9  C   UNL     1     477.414  39.693 461.289  1.00  0.00     0.094 A 
ATOM     10  C   UNL     1     477.995  38.497 460.859  1.00  0.00     0.146 A 
ATOM     11  O   UNL     1     478.987  38.555 459.978  1.00  0.00    -0.452 OA
ENDROOT
BRANCH   1  12
ATOM     12  C   UNL     1     480.697  37.683 458.520  1.00  0.00     0.021 A 
ATOM     13  C   UNL     1     480.527  37.300 457.176  1.00  0.00     0.016 A 
ATOM     14  C   UNL     1     481.546  37.521 456.244  1.00  0.00     0.047 A 
ATOM     15  C   UNL     1     482.740  38.138 456.638  1.00  0.00     0.115 A 
ATOM     16  C   UNL     1     481.890  38.320 458.902  1.00  0.00     0.016 A 
ATOM     17  C   UNL     1     482.907  38.537 457.967  1.00  0.00     0.047 A 
BRANCH  15  18
ATOM     18  O   UNL     1     483.762  38.361 455.718  1.00  0.00    -0.508 OA
ATOM     19  H   UNL     1     484.659  37.898 455.802  1.00  0.00     0.293 HD
ENDBRANCH  15  18
ENDBRANCH   1  12
BRANCH   2  20
ATOM     20  O   UNL     1     480.011  35.086 459.607  1.00  0.00    -0.502 OA
ATOM     21  H   UNL     1     480.932  34.873 459.968  1.00  0.00     0.293 HD
ENDBRANCH   2  20
BRANCH   6  22
ATOM     22  O   UNL     1     475.817  36.082 462.737  1.00  0.00    -0.507 OA
ATOM     23  H   UNL     1     474.832  35.995 462.935  1.00  0.00     0.293 HD
ENDBRANCH   6  22
BRANCH   8  24
ATOM     24  O   UNL     1     475.826  40.884 462.651  1.00  0.00    -0.508 OA
ATOM     25  H   UNL     1     474.942  41.221 462.289  1.00  0.00     0.293 HD
ENDBRANCH   8  24
TORSDOF 5
ENDMDL
MODEL 5
REMARK VINA RESULT:    -5.379      2.941      7.193
REMARK INTER + INTRA:          -6.614
REMARK INTER:                  -6.331
REMARK INTRA:                  -0.282
REMARK UNBOUND:                -0.292
REMARK SMILES O=c1c(O)c(-c2ccc(O)cc2)oc2cc(O)cc(O)c12
REMARK SMILES IDX 5 1 3 2 2 3 1 4 21 5 19 6 18 7 16 8 15 9 14 10 13 11 6 12
REMARK SMILES IDX 7 13 8 14 9 15 12 16 11 17 10 18 4 20 20 22 17 24
REMARK H PARENT 10 19 4 21 20 23 17 25
REMARK Flexibility Score: inf
ROOT
ATOM      1  C   UNL     1     480.841  38.699 460.522  1.00  0.00     0.180 A 
ATOM      2  C   UNL     1     481.322  38.368 459.243  1.00  0.00     0.208 A 
ATOM      3  C   UNL     1     482.691  38.526 458.969  1.00  0.00     0.238 A 
ATOM      4  O   UNL     1     483.106  38.281 457.806  1.00  0.00    -0.285 OA
ATOM      5  C   UNL     1     483.562  38.995 459.981  1.00  0.00     0.111 A 
ATOM      6  C   UNL     1     484.973  39.153 459.826  1.00  0.00     0.134 A 
ATOM      7  C   UNL     1     485.718  39.749 460.851  1.00  0.00     0.093 A 
ATOM      8  C   UNL     1     485.113  40.129 462.052  1.00  0.00     0.123 A 
ATOM      9  C   UNL     1     483.749  39.924 462.236  1.00  0.00     0.094 A 
ATOM     10  C   UNL     1     482.973  39.367 461.216  1.00  0.00     0.146 A 
ATOM     11  O   UNL     1     481.673  39.197 461.429  1.00  0.00    -0.452 OA
ENDROOT
BRANCH   1  12
ATOM     12  C   UNL     1     479.417  38.536 460.894  1.00  0.00     0.021 A 
ATOM     13  C   UNL     1     478.896  37.285 461.275  1.00  0.00     0.016 A 
ATOM     14  C   UNL     1     477.554  37.162 461.645  1.00  0.00     0.047 A 
ATOM     15  C   UNL     1     476.719  38.286 461.653  1.00  0.00     0.115 A 
ATOM     16  C   UNL     1     478.578  39.663 460.926  1.00  0.00     0.016 A 
ATOM     17  C   UNL     1     477.235  39.535 461.295  1.00  0.00     0.047 A 
BRANCH  15  18
ATOM     18  O   UNL     1     475.380  38.175 462.019  1.00  0.00    -0.508 OA
ATOM     19  H   UNL     1     475.108  37.950 462.969  1.00  0.00     0.293 HD
ENDBRANCH  15  18
ENDBRANCH   1  12
BRANCH   2  20
ATOM     20  O   UNL     1     480.440  37.929 458.252  1.00  0.00    -0.502 OA
ATOM     21  H   UNL     1     479.636  38.470 457.961  1.00  0.00     0.293 HD
ENDBRANCH   2  20
BRANCH   6  22
ATOM     22  O   UNL     1     485.689  38.721 458.705  1.00  0.00    -0.507 OA
ATOM     23  H   UNL     1     486.681  38.845 458.574  1.00  0.00     0.293 HD
ENDBRANCH   6  22
BRANCH   8  24
ATOM     24  O   UNL     1     485.865  40.706 463.074  1.00  0.00    -0.508 OA
ATOM     25  H   UNL     1     486.341  40.139 463.766  1.00  0.00     0.293 HD
ENDBRANCH   8  24
TORSDOF 5
ENDMDL
MODEL 6
REMARK VINA RESULT:    -5.375      3.911      6.724
REMARK INTER + INTRA:          -6.609
REMARK INTER:                  -6.319
REMARK INTRA:                  -0.290
REMARK UNBOUND:                -0.292
REMARK SMILES O=c1c(O)c(-c2ccc(O)cc2)oc2cc(O)cc(O)c12
REMARK SMILES IDX 5 1 3 2 2 3 1 4 21 5 19 6 18 7 16 8 15 9 14 10 13 11 6 12
REMARK SMILES IDX 7 13 8 14 9 15 12 16 11 17 10 18 4 20 20 22 17 24
REMARK H PARENT 10 19 4 21 20 23 17 25
REMARK Flexibility Score: inf
ROOT
ATOM      1  C   UNL     1     484.204  39.919 459.734  1.00  0.00     0.180 A 
ATOM      2  C   UNL     1     484.707  39.316 458.568  1.00  0.00     0.208 A 
ATOM      3  C   UNL     1     483.845  38.538 457.778  1.00  0.00     0.238 A 
ATOM      4  O   UNL     1     484.314  37.955 456.766  1.00  0.00    -0.285 OA
ATOM      5  C   UNL     1     482.489  38.387 458.154  1.00  0.00     0.111 A 
ATOM      6  C   UNL     1     481.517  37.655 457.407  1.00  0.00     0.134 A 
ATOM      7  C   UNL     1     480.237  37.462 457.940  1.00  0.00     0.093 A 
ATOM      8  C   UNL     1     479.874  38.032 459.164  1.00  0.00     0.123 A 
ATOM      9  C   UNL     1     480.796  38.797 459.872  1.00  0.00     0.094 A 
ATOM     10  C   UNL     1     482.092  38.976 459.383  1.00  0.00     0.146 A 
ATOM     11  O   UNL     1     482.944  39.705 460.094  1.00  0.00    -0.452 OA
ENDROOT
BRANCH   1  12
ATOM     12  C   UNL     1     485.044  40.773 460.604  1.00  0.00     0.021 A 
ATOM     13  C   UNL     1     485.250  42.136 460.315  1.00  0.00     0.016 A 
ATOM     14  C   UNL     1     486.029  42.928 461.165  1.00  0.00     0.047 A 
ATOM     15  C   UNL     1     486.598  42.374 462.319  1.00  0.00     0.115 A 
ATOM     16  C   UNL     1     485.601  40.232 461.774  1.00  0.00     0.016 A 
ATOM     17  C   UNL     1     486.380  41.027 462.621  1.00  0.00     0.047 A 
BRANCH  15  18
ATOM     18  O   UNL     1     487.375  43.154 463.172  1.00  0.00    -0.508 OA
ATOM     19  H   UNL     1     487.050  43.412 464.097  1.00  0.00     0.293 HD
ENDBRANCH  15  18
ENDBRANCH   1  12
BRANCH   2  20
ATOM     20  O   UNL     1     486.055  39.459 458.227  1.00  0.00    -0.502 OA
ATOM     21  H   UNL     1     486.593  38.709 457.811  1.00  0.00     0.293 HD
ENDBRANCH   2  20
BRANCH   6  22
ATOM     22  O   UNL     1     481.748  37.124 456.134  1.00  0.00    -0.507 OA
ATOM     23  H   UNL     1     481.366  36.254 455.796  1.00  0.00     0.293 HD
ENDBRANCH   6  22
BRANCH   8  24
ATOM     24  O   UNL     1     478.592  37.849 459.680  1.00  0.00    -0.508 OA
ATOM     25  H   UNL     1     477.776  37.837 459.079  1.00  0.00     0.293 HD
ENDBRANCH   8  24
TORSDOF 5
ENDMDL
MODEL 7
REMARK VINA RESULT:    -5.310      1.786      6.655
REMARK INTER + INTRA:          -6.533
REMARK INTER:                  -6.498
REMARK INTRA:                  -0.035
REMARK UNBOUND:                -0.292
REMARK SMILES O=c1c(O)c(-c2ccc(O)cc2)oc2cc(O)cc(O)c12
REMARK SMILES IDX 5 1 3 2 2 3 1 4 21 5 19 6 18 7 16 8 15 9 14 10 13 11 6 12
REMARK SMILES IDX 7 13 8 14 9 15 12 16 11 17 10 18 4 20 20 22 17 24
REMARK H PARENT 10 19 4 21 20 23 17 25
REMARK Flexibility Score: inf
ROOT
ATOM      1  C   UNL     1     479.141  37.248 460.626  1.00  0.00     0.180 A 
ATOM      2  C   UNL     1     479.890  38.250 461.268  1.00  0.00     0.208 A 
ATOM      3  C   UNL     1     480.805  39.005 460.515  1.00  0.00     0.238 A 
ATOM      4  O   UNL     1     481.512  39.862 461.106  1.00  0.00    -0.285 OA
ATOM      5  C   UNL     1     480.946  38.759 459.128  1.00  0.00     0.111 A 
ATOM      6  C   UNL     1     481.813  39.490 458.260  1.00  0.00     0.134 A 
ATOM      7  C   UNL     1     481.970  39.076 456.932  1.00  0.00     0.093 A 
ATOM      8  C   UNL     1     481.241  37.998 456.423  1.00  0.00     0.123 A 
ATOM      9  C   UNL     1     480.349  37.315 457.246  1.00  0.00     0.094 A 
ATOM     10  C   UNL     1     480.199  37.682 458.585  1.00  0.00     0.146 A 
ATOM     11  O   UNL     1     479.345  36.999 459.338  1.00  0.00    -0.452 OA
ENDROOT
BRANCH   1  12
ATOM     12  C   UNL     1     478.141  36.429 461.347  1.00  0.00     0.021 A 
ATOM     13  C   UNL     1     478.246  35.027 461.407  1.00  0.00     0.016 A 
ATOM     14  C   UNL     1     477.301  34.277 462.115  1.00  0.00     0.047 A 
ATOM     15  C   UNL     1     476.250  34.917 462.783  1.00  0.00     0.115 A 
ATOM     16  C   UNL     1     477.095  37.065 462.038  1.00  0.00     0.016 A 
ATOM     17  C   UNL     1     476.152  36.312 462.743  1.00  0.00     0.047 A 
BRANCH  15  18
ATOM     18  O   UNL     1     475.303  34.180 463.490  1.00  0.00    -0.508 OA
ATOM     19  H   UNL     1     474.310  34.331 463.358  1.00  0.00     0.293 HD
ENDBRANCH  15  18
ENDBRANCH   1  12
BRANCH   2  20
ATOM     20  O   UNL     1     479.752  38.460 462.643  1.00  0.00    -0.502 OA
ATOM     21  H   UNL     1     478.849  38.575 463.087  1.00  0.00     0.293 HD
ENDBRANCH   2  20
BRANCH   6  22
ATOM     22  O   UNL     1     482.515  40.638 458.643  1.00  0.00    -0.507 OA
ATOM     23  H   UNL     1     482.609  40.963 459.593  1.00  0.00     0.293 HD
ENDBRANCH   6  22
BRANCH   8  24
ATOM     24  O   UNL     1     481.392  37.602 455.095  1.00  0.00    -0.508 OA
ATOM     25  H   UNL     1     480.759  36.936 454.666  1.00  0.00     0.293 HD
ENDBRANCH   8  24
TORSDOF 5
ENDMDL
MODEL 8
REMARK VINA RESULT:    -5.142      2.057      7.079
REMARK INTER + INTRA:          -6.336
REMARK INTER:                  -6.212
REMARK INTRA:                  -0.124
REMARK UNBOUND:                -0.292
REMARK SMILES O=c1c(O)c(-c2ccc(O)cc2)oc2cc(O)cc(O)c12
REMARK SMILES IDX 5 1 3 2 2 3 1 4 21 5 19 6 18 7 16 8 15 9 14 10 13 11 6 12
REMARK SMILES IDX 7 13 8 14 9 15 12 16 11 17 10 18 4 20 20 22 17 24
REMARK H PARENT 10 19 4 21 20 23 17 25
REMARK Flexibility Score: inf
ROOT
ATOM      1  C   UNL     1     480.335  37.720 458.710  1.00  0.00     0.180 A 
ATOM      2  C   UNL     1     481.397  38.547 459.117  1.00  0.00     0.208 A 
ATOM      3  C   UNL     1     482.179  39.181 458.139  1.00  0.00     0.238 A 
ATOM      4  O   UNL     1     483.162  39.876 458.507  1.00  0.00    -0.285 OA
ATOM      5  C   UNL     1     481.880  38.994 456.768  1.00  0.00     0.111 A 
ATOM      6  C   UNL     1     482.580  39.621 455.693  1.00  0.00     0.134 A 
ATOM      7  C   UNL     1     482.283  39.262 454.372  1.00  0.00     0.093 A 
ATOM      8  C   UNL     1     481.264  38.349 454.087  1.00  0.00     0.123 A 
ATOM      9  C   UNL     1     480.535  37.778 455.126  1.00  0.00     0.094 A 
ATOM     10  C   UNL     1     480.834  38.088 456.455  1.00  0.00     0.146 A 
ATOM     11  O   UNL     1     480.121  37.514 457.416  1.00  0.00    -0.452 OA
ENDROOT
BRANCH   1  12
ATOM     12  C   UNL     1     479.452  37.037 459.683  1.00  0.00     0.021 A 
ATOM     13  C   UNL     1     479.431  35.634 459.797  1.00  0.00     0.016 A 
ATOM     14  C   UNL     1     478.606  35.014 460.740  1.00  0.00     0.047 A 
ATOM     15  C   UNL     1     477.802  35.786 461.589  1.00  0.00     0.115 A 
ATOM     16  C   UNL     1     478.658  37.804 460.552  1.00  0.00     0.016 A 
ATOM     17  C   UNL     1     477.832  37.180 461.493  1.00  0.00     0.047 A 
BRANCH  15  18
ATOM     18  O   UNL     1     476.975  35.178 462.531  1.00  0.00    -0.508 OA
ATOM     19  H   UNL     1     476.811  34.178 462.524  1.00  0.00     0.293 HD
ENDBRANCH  15  18
ENDBRANCH   1  12
BRANCH   2  20
ATOM     20  O   UNL     1     481.690  38.699 460.476  1.00  0.00    -0.502 OA
ATOM     21  H   UNL     1     481.050  39.141 461.123  1.00  0.00     0.293 HD
ENDBRANCH   2  20
BRANCH   6  22
ATOM     22  O   UNL     1     483.550  40.613 455.866  1.00  0.00    -0.507 OA
ATOM     23  H   UNL     1     483.484  41.551 455.500  1.00  0.00     0.293 HD
ENDBRANCH   6  22
BRANCH   8  24
ATOM     24  O   UNL     1     480.963  38.010 452.769  1.00  0.00    -0.508 OA
ATOM     25  H   UNL     1     480.038  37.694 452.502  1.00  0.00     0.293 HD
ENDBRANCH   8  24
TORSDOF 5
ENDMDL
MODEL 9
REMARK VINA RESULT:    -5.071      2.848      7.148
REMARK INTER + INTRA:          -6.252
REMARK INTER:                  -5.957
REMARK INTRA:                  -0.295
REMARK UNBOUND:                -0.292
REMARK SMILES O=c1c(O)c(-c2ccc(O)cc2)oc2cc(O)cc(O)c12
REMARK SMILES IDX 5 1 3 2 2 3 1 4 21 5 19 6 18 7 16 8 15 9 14 10 13 11 6 12
REMARK SMILES IDX 7 13 8 14 9 15 12 16 11 17 10 18 4 20 20 22 17 24
REMARK H PARENT 10 19 4 21 20 23 17 25
REMARK Flexibility Score: inf
ROOT
ATOM      1  C   UNL     1     480.740  38.998 461.237  1.00  0.00     0.180 A 
ATOM      2  C   UNL     1     481.631  39.391 462.250  1.00  0.00     0.208 A 
ATOM      3  C   UNL     1     483.001  39.483 461.955  1.00  0.00     0.238 A 
ATOM      4  O   UNL     1     483.800  39.781 462.880  1.00  0.00    -0.285 OA
ATOM      5  C   UNL     1     483.459  39.197 460.647  1.00  0.00     0.111 A 
ATOM      6  C   UNL     1     484.820  39.296 460.225  1.00  0.00     0.134 A 
ATOM      7  C   UNL     1     485.180  38.863 458.943  1.00  0.00     0.093 A 
ATOM      8  C   UNL     1     484.217  38.396 458.045  1.00  0.00     0.123 A 
ATOM      9  C   UNL     1     482.878  38.351 458.426  1.00  0.00     0.094 A 
ATOM     10  C   UNL     1     482.494  38.742 459.711  1.00  0.00     0.146 A 
ATOM     11  O   UNL     1     481.209  38.674 460.038  1.00  0.00    -0.452 OA
ENDROOT
BRANCH   1  12
ATOM     12  C   UNL     1     479.280  38.903 461.465  1.00  0.00     0.021 A 
ATOM     13  C   UNL     1     478.443  40.029 461.344  1.00  0.00     0.016 A 
ATOM     14  C   UNL     1     477.064  39.909 461.541  1.00  0.00     0.047 A 
ATOM     15  C   UNL     1     476.502  38.663 461.846  1.00  0.00     0.115 A 
ATOM     16  C   UNL     1     478.704  37.653 461.750  1.00  0.00     0.016 A 
ATOM     17  C   UNL     1     477.325  37.538 461.948  1.00  0.00     0.047 A 
BRANCH  15  18
ATOM     18  O   UNL     1     475.129  38.532 462.045  1.00  0.00    -0.508 OA
ATOM     19  H   UNL     1     474.700  38.758 462.934  1.00  0.00     0.293 HD
ENDBRANCH  15  18
ENDBRANCH   1  12
BRANCH   2  20
ATOM     20  O   UNL     1     481.159  39.647 463.541  1.00  0.00    -0.502 OA
ATOM     21  H   UNL     1     480.855  38.909 464.165  1.00  0.00     0.293 HD
ENDBRANCH   2  20
BRANCH   6  22
ATOM     22  O   UNL     1     485.844  39.835 461.012  1.00  0.00    -0.507 OA
ATOM     23  H   UNL     1     486.659  40.305 460.649  1.00  0.00     0.293 HD
ENDBRANCH   6  22
BRANCH   8  24
ATOM     24  O   UNL     1     484.581  37.982 456.765  1.00  0.00    -0.508 OA
ATOM     25  H   UNL     1     484.505  38.602 455.966  1.00  0.00     0.293 HD
ENDBRANCH   8  24
TORSDOF 5
ENDMDL
