MODEL 1
REMARK VINA RESULT:    -4.504      0.000      0.000
REMARK INTER + INTRA:          -8.454
REMARK INTER:                  -7.664
REMARK INTRA:                  -0.791
REMARK UNBOUND:                -0.791
REMARK SMILES CCCCCCCCCCCCCC(=O)[O-]
REMARK SMILES IDX 8 1 9 2 10 3 11 4 12 5 13 6 14 7 15 8 16 9 7 10 6 11 5 12
REMARK SMILES IDX 4 13 3 14 2 15 1 16
REMARK H PARENT
REMARK Flexibility Score: inf
ROOT
ATOM      1  C   UNL     1      -8.453   4.700 -11.789  1.00  0.00     0.000 C 
ENDROOT
BRANCH   1   2
ATOM      2  C   UNL     1      -9.500   5.144 -10.753  1.00  0.00     0.000 C 
BRANCH   2   3
ATOM      3  C   UNL     1      -9.361   4.494  -9.361  1.00  0.00     0.000 C 
BRANCH   3   4
ATOM      4  C   UNL     1      -9.081   5.476  -8.205  1.00  0.00     0.000 C 
BRANCH   4   5
ATOM      5  C   UNL     1      -7.602   5.575  -7.779  1.00  0.00     0.006 C 
BRANCH   5   6
ATOM      6  C   UNL     1      -7.383   6.193  -6.389  1.00  0.00     0.053 C 
BRANCH   6   7
ATOM      7  C   UNL     1      -7.919   5.320  -5.296  1.00  0.00     0.041 C 
ATOM      8  O   UNL     1      -7.239   4.351  -4.868  1.00  0.00    -0.550 OA
ATOM      9  O   UNL     1      -9.184   5.557  -4.773  1.00  0.00    -0.550 OA
ENDBRANCH   6   7
ENDBRANCH   5   6
ENDBRANCH   4   5
ENDBRANCH   3   4
ENDBRANCH   2   3
ENDBRANCH   1   2
BRANCH   1  10
ATOM     10  C   UNL     1      -7.225   5.627 -11.831  1.00  0.00     0.000 C 
BRANCH  10  11
ATOM     11  C   UNL     1      -6.258   5.274 -12.973  1.00  0.00    -0.000 C 
BRANCH  11  12
ATOM     12  C   UNL     1      -6.766   4.113 -13.842  1.00  0.00    -0.000 C 
BRANCH  12  13
ATOM     13  C   UNL     1      -5.958   4.010 -15.144  1.00  0.00    -0.000 C 
BRANCH  13  14
ATOM     14  C   UNL     1      -5.549   5.383 -15.708  1.00  0.00    -0.000 C 
BRANCH  14  15
ATOM     15  C   UNL     1      -6.450   5.915 -16.836  1.00  0.00    -0.003 C 
ATOM     16  C   UNL     1      -7.744   6.543 -16.322  1.00  0.00     0.004 C 
ENDBRANCH  14  15
ENDBRANCH  13  14
ENDBRANCH  12  13
ENDBRANCH  11  12
ENDBRANCH  10  11
ENDBRANCH   1  10
TORSDOF 12
ENDMDL
MODEL 2
REMARK VINA RESULT:    -4.429      1.851      3.531
REMARK INTER + INTRA:          -8.327
REMARK INTER:                  -7.747
REMARK INTRA:                  -0.580
REMARK UNBOUND:                -0.791
REMARK SMILES CCCCCCCCCCCCCC(=O)[O-]
REMARK SMILES IDX 8 1 9 2 10 3 11 4 12 5 13 6 14 7 15 8 16 9 7 10 6 11 5 12
REMARK SMILES IDX 4 13 3 14 2 15 1 16
REMARK H PARENT
REMARK Flexibility Score: inf
ROOT
ATOM      1  C   UNL     1      -9.007   5.618  -8.190  1.00  0.00     0.000 C 
ENDROOT
BRANCH   1   2
ATOM      2  C   UNL     1      -7.679   5.463  -7.428  1.00  0.00     0.000 C 
BRANCH   2   3
ATOM      3  C   UNL     1      -7.811   5.365  -5.895  1.00  0.00     0.000 C 
BRANCH   3   4
ATOM      4  C   UNL     1      -9.207   5.700  -5.335  1.00  0.00     0.000 C 
BRANCH   4   5
ATOM      5  C   UNL     1      -9.275   6.981  -4.477  1.00  0.00     0.006 C 
BRANCH   5   6
ATOM      6  C   UNL     1      -8.465   6.915  -3.173  1.00  0.00     0.053 C 
BRANCH   6   7
ATOM      7  C   UNL     1      -9.213   6.213  -2.083  1.00  0.00     0.041 C 
ATOM      8  O   UNL     1      -8.930   5.022  -1.787  1.00  0.00    -0.550 OA
ATOM      9  O   UNL     1     -10.244   6.861  -1.415  1.00  0.00    -0.550 OA
ENDBRANCH   6   7
ENDBRANCH   5   6
ENDBRANCH   4   5
ENDBRANCH   3   4
ENDBRANCH   2   3
ENDBRANCH   1   2
BRANCH   1  10
ATOM     10  C   UNL     1      -9.212   4.531  -9.260  1.00  0.00     0.000 C 
BRANCH  10  11
ATOM     11  C   UNL     1      -9.536   5.119 -10.643  1.00  0.00    -0.000 C 
BRANCH  11  12
ATOM     12  C   UNL     1      -8.308   5.178 -11.566  1.00  0.00    -0.000 C 
BRANCH  12  13
ATOM     13  C   UNL     1      -8.572   4.423 -12.877  1.00  0.00    -0.000 C 
BRANCH  13  14
ATOM     14  C   UNL     1      -7.313   4.278 -13.751  1.00  0.00    -0.000 C 
BRANCH  14  15
ATOM     15  C   UNL     1      -6.122   5.155 -13.322  1.00  0.00    -0.003 C 
ATOM     16  C   UNL     1      -5.297   5.662 -14.504  1.00  0.00     0.004 C 
ENDBRANCH  14  15
ENDBRANCH  13  14
ENDBRANCH  12  13
ENDBRANCH  11  12
ENDBRANCH  10  11
ENDBRANCH   1  10
TORSDOF 12
ENDMDL
MODEL 3
REMARK VINA RESULT:    -4.421      4.889      8.867
REMARK INTER + INTRA:          -8.313
REMARK INTER:                  -7.771
REMARK INTRA:                  -0.542
REMARK UNBOUND:                -0.791
REMARK SMILES CCCCCCCCCCCCCC(=O)[O-]
REMARK SMILES IDX 8 1 9 2 10 3 11 4 12 5 13 6 14 7 15 8 16 9 7 10 6 11 5 12
REMARK SMILES IDX 4 13 3 14 2 15 1 16
REMARK H PARENT
REMARK Flexibility Score: inf
ROOT
ATOM      1  C   UNL     1      -8.656   4.482 -11.917  1.00  0.00     0.000 C 
ENDROOT
BRANCH   1   2
ATOM      2  C   UNL     1      -7.632   5.390 -12.622  1.00  0.00     0.000 C 
BRANCH   2   3
ATOM      3  C   UNL     1      -6.432   4.657 -13.253  1.00  0.00     0.000 C 
BRANCH   3   4
ATOM      4  C   UNL     1      -6.436   4.599 -14.794  1.00  0.00     0.000 C 
BRANCH   4   5
ATOM      5  C   UNL     1      -6.531   5.968 -15.497  1.00  0.00     0.006 C 
BRANCH   5   6
ATOM      6  C   UNL     1      -7.872   6.228 -16.202  1.00  0.00     0.053 C 
BRANCH   6   7
ATOM      7  C   UNL     1      -7.776   6.024 -17.683  1.00  0.00     0.041 C 
ATOM      8  O   UNL     1      -6.661   6.107 -18.262  1.00  0.00    -0.550 OA
ATOM      9  O   UNL     1      -8.921   5.773 -18.428  1.00  0.00    -0.550 OA
ENDBRANCH   6   7
ENDBRANCH   5   6
ENDBRANCH   4   5
ENDBRANCH   3   4
ENDBRANCH   2   3
ENDBRANCH   1   2
BRANCH   1  10
ATOM     10  C   UNL     1      -9.398   5.197 -10.774  1.00  0.00     0.000 C 
BRANCH  10  11
ATOM     11  C   UNL     1      -9.249   4.469  -9.428  1.00  0.00    -0.000 C 
BRANCH  11  12
ATOM     12  C   UNL     1      -9.133   5.437  -8.240  1.00  0.00    -0.000 C 
BRANCH  12  13
ATOM     13  C   UNL     1      -7.714   5.413  -7.651  1.00  0.00    -0.000 C 
BRANCH  13  14
ATOM     14  C   UNL     1      -7.700   5.516  -6.115  1.00  0.00    -0.000 C 
BRANCH  14  15
ATOM     15  C   UNL     1      -9.088   5.634  -5.460  1.00  0.00    -0.003 C 
ATOM     16  C   UNL     1      -9.353   7.018  -4.869  1.00  0.00     0.004 C 
ENDBRANCH  14  15
ENDBRANCH  13  14
ENDBRANCH  12  13
ENDBRANCH  11  12
ENDBRANCH  10  11
ENDBRANCH   1  10
TORSDOF 12
ENDMDL
MODEL 4
REMARK VINA RESULT:    -4.401      1.225      1.928
REMARK INTER + INTRA:          -8.278
REMARK INTER:                  -7.779
REMARK INTRA:                  -0.499
REMARK UNBOUND:                -0.791
REMARK SMILES CCCCCCCCCCCCCC(=O)[O-]
REMARK SMILES IDX 8 1 9 2 10 3 11 4 12 5 13 6 14 7 15 8 16 9 7 10 6 11 5 12
REMARK SMILES IDX 4 13 3 14 2 15 1 16
REMARK H PARENT
REMARK Flexibility Score: inf
ROOT
ATOM      1  C   UNL     1      -9.493   5.222 -10.658  1.00  0.00     0.000 C 
ENDROOT
BRANCH   1   2
ATOM      2  C   UNL     1      -9.183   4.529  -9.319  1.00  0.00     0.000 C 
BRANCH   2   3
ATOM      3  C   UNL     1      -9.123   5.465  -8.095  1.00  0.00     0.000 C 
BRANCH   3   4
ATOM      4  C   UNL     1      -7.720   5.651  -7.482  1.00  0.00     0.000 C 
BRANCH   4   5
ATOM      5  C   UNL     1      -7.596   5.235  -6.002  1.00  0.00     0.006 C 
BRANCH   5   6
ATOM      6  C   UNL     1      -8.814   5.595  -5.137  1.00  0.00     0.053 C 
BRANCH   6   7
ATOM      7  C   UNL     1      -8.417   6.026  -3.759  1.00  0.00     0.041 C 
ATOM      8  O   UNL     1      -7.518   6.894  -3.603  1.00  0.00    -0.550 OA
ATOM      9  O   UNL     1      -9.015   5.447  -2.647  1.00  0.00    -0.550 OA
ENDBRANCH   6   7
ENDBRANCH   5   6
ENDBRANCH   4   5
ENDBRANCH   3   4
ENDBRANCH   2   3
ENDBRANCH   1   2
BRANCH   1  10
ATOM     10  C   UNL     1      -8.724   4.606 -11.840  1.00  0.00     0.000 C 
BRANCH  10  11
ATOM     11  C   UNL     1      -7.458   5.402 -12.198  1.00  0.00    -0.000 C 
BRANCH  11  12
ATOM     12  C   UNL     1      -7.046   5.230 -13.668  1.00  0.00    -0.000 C 
BRANCH  12  13
ATOM     13  C   UNL     1      -8.206   5.590 -14.607  1.00  0.00    -0.000 C 
BRANCH  13  14
ATOM     14  C   UNL     1      -7.737   6.257 -15.914  1.00  0.00    -0.000 C 
BRANCH  14  15
ATOM     15  C   UNL     1      -6.368   5.778 -16.430  1.00  0.00    -0.003 C 
ATOM     16  C   UNL     1      -6.449   5.107 -17.800  1.00  0.00     0.004 C 
ENDBRANCH  14  15
ENDBRANCH  13  14
ENDBRANCH  12  13
ENDBRANCH  11  12
ENDBRANCH  10  11
ENDBRANCH   1  10
TORSDOF 12
ENDMDL
MODEL 5
REMARK VINA RESULT:    -4.305      4.186      8.416
REMARK INTER + INTRA:          -8.115
REMARK INTER:                  -7.447
REMARK INTRA:                  -0.668
REMARK UNBOUND:                -0.791
REMARK SMILES CCCCCCCCCCCCCC(=O)[O-]
REMARK SMILES IDX 8 1 9 2 10 3 11 4 12 5 13 6 14 7 15 8 16 9 7 10 6 11 5 12
REMARK SMILES IDX 4 13 3 14 2 15 1 16
REMARK H PARENT
REMARK Flexibility Score: inf
ROOT
ATOM      1  C   UNL     1      -9.559   5.241 -10.521  1.00  0.00     0.000 C 
ENDROOT
BRANCH   1   2
ATOM      2  C   UNL     1      -8.365   5.133 -11.487  1.00  0.00     0.000 C 
BRANCH   2   3
ATOM      3  C   UNL     1      -8.682   4.487 -12.850  1.00  0.00     0.000 C 
BRANCH   3   4
ATOM      4  C   UNL     1      -7.451   4.127 -13.706  1.00  0.00     0.000 C 
BRANCH   4   5
ATOM      5  C   UNL     1      -6.169   4.914 -13.367  1.00  0.00     0.006 C 
BRANCH   5   6
ATOM      6  C   UNL     1      -5.396   5.427 -14.592  1.00  0.00     0.053 C 
BRANCH   6   7
ATOM      7  C   UNL     1      -5.242   4.369 -15.642  1.00  0.00     0.041 C 
ATOM      8  O   UNL     1      -4.504   3.371 -15.431  1.00  0.00    -0.550 OA
ATOM      9  O   UNL     1      -5.887   4.501 -16.865  1.00  0.00    -0.550 OA
ENDBRANCH   6   7
ENDBRANCH   5   6
ENDBRANCH   4   5
ENDBRANCH   3   4
ENDBRANCH   2   3
ENDBRANCH   1   2
BRANCH   1  10
ATOM     10  C   UNL     1      -9.304   4.535  -9.177  1.00  0.00     0.000 C 
BRANCH  10  11
ATOM     11  C   UNL     1      -8.946   5.521  -8.052  1.00  0.00    -0.000 C 
BRANCH  11  12
ATOM     12  C   UNL     1      -7.429   5.670  -7.855  1.00  0.00    -0.000 C 
BRANCH  12  13
ATOM     13  C   UNL     1      -7.104   6.092  -6.415  1.00  0.00    -0.000 C 
BRANCH  13  14
ATOM     14  C   UNL     1      -7.976   5.377  -5.367  1.00  0.00    -0.000 C 
BRANCH  14  15
ATOM     15  C   UNL     1      -8.474   6.272  -4.218  1.00  0.00    -0.003 C 
ATOM     16  C   UNL     1      -9.661   7.149  -4.615  1.00  0.00     0.004 C 
ENDBRANCH  14  15
ENDBRANCH  13  14
ENDBRANCH  12  13
ENDBRANCH  11  12
ENDBRANCH  10  11
ENDBRANCH   1  10
TORSDOF 12
ENDMDL
MODEL 6
REMARK VINA RESULT:    -4.247      1.154      2.183
REMARK INTER + INTRA:          -8.017
REMARK INTER:                  -7.137
REMARK INTRA:                  -0.880
REMARK UNBOUND:                -0.791
REMARK SMILES CCCCCCCCCCCCCC(=O)[O-]
REMARK SMILES IDX 8 1 9 2 10 3 11 4 12 5 13 6 14 7 15 8 16 9 7 10 6 11 5 12
REMARK SMILES IDX 4 13 3 14 2 15 1 16
REMARK H PARENT
REMARK Flexibility Score: inf
ROOT
ATOM      1  C   UNL     1      -7.708   5.467 -13.445  1.00  0.00     0.000 C 
ENDROOT
BRANCH   1   2
ATOM      2  C   UNL     1      -8.567   4.567 -12.539  1.00  0.00     0.000 C 
BRANCH   2   3
ATOM      3  C   UNL     1      -8.489   4.888 -11.033  1.00  0.00     0.000 C 
BRANCH   3   4
ATOM      4  C   UNL     1      -9.848   5.100 -10.336  1.00  0.00     0.000 C 
BRANCH   4   5
ATOM      5  C   UNL     1      -9.762   5.584  -8.875  1.00  0.00     0.006 C 
BRANCH   5   6
ATOM      6  C   UNL     1      -8.416   5.298  -8.189  1.00  0.00     0.053 C 
BRANCH   6   7
ATOM      7  C   UNL     1      -8.451   5.624  -6.728  1.00  0.00     0.041 C 
ATOM      8  O   UNL     1      -9.522   6.011  -6.191  1.00  0.00    -0.550 OA
ATOM      9  O   UNL     1      -7.293   5.533  -5.966  1.00  0.00    -0.550 OA
ENDBRANCH   6   7
ENDBRANCH   5   6
ENDBRANCH   4   5
ENDBRANCH   3   4
ENDBRANCH   2   3
ENDBRANCH   1   2
BRANCH   1  10
ATOM     10  C   UNL     1      -6.199   5.223 -13.269  1.00  0.00     0.000 C 
BRANCH  10  11
ATOM     11  C   UNL     1      -5.492   4.914 -14.599  1.00  0.00    -0.000 C 
BRANCH  11  12
ATOM     12  C   UNL     1      -4.808   6.149 -15.207  1.00  0.00    -0.000 C 
BRANCH  12  13
ATOM     13  C   UNL     1      -5.351   6.436 -16.615  1.00  0.00    -0.000 C 
BRANCH  13  14
ATOM     14  C   UNL     1      -6.457   5.455 -17.044  1.00  0.00    -0.000 C 
BRANCH  14  15
ATOM     15  C   UNL     1      -7.877   6.050 -17.071  1.00  0.00    -0.003 C 
ATOM     16  C   UNL     1      -7.900   7.553 -16.797  1.00  0.00     0.004 C 
ENDBRANCH  14  15
ENDBRANCH  13  14
ENDBRANCH  12  13
ENDBRANCH  11  12
ENDBRANCH  10  11
ENDBRANCH   1  10
TORSDOF 12
ENDMDL
MODEL 7
REMARK VINA RESULT:    -4.216      4.126      9.041
REMARK INTER + INTRA:          -7.964
REMARK INTER:                  -7.365
REMARK INTRA:                  -0.599
REMARK UNBOUND:                -0.791
REMARK SMILES CCCCCCCCCCCCCC(=O)[O-]
REMARK SMILES IDX 8 1 9 2 10 3 11 4 12 5 13 6 14 7 15 8 16 9 7 10 6 11 5 12
REMARK SMILES IDX 4 13 3 14 2 15 1 16
REMARK H PARENT
REMARK Flexibility Score: inf
ROOT
ATOM      1  C   UNL     1      -7.459   5.634  -7.767  1.00  0.00     0.000 C 
ENDROOT
BRANCH   1   2
ATOM      2  C   UNL     1      -8.917   5.636  -8.258  1.00  0.00     0.000 C 
BRANCH   2   3
ATOM      3  C   UNL     1      -9.267   4.531  -9.275  1.00  0.00     0.000 C 
BRANCH   3   4
ATOM      4  C   UNL     1      -9.563   5.027 -10.705  1.00  0.00     0.000 C 
BRANCH   4   5
ATOM      5  C   UNL     1      -8.364   4.977 -11.674  1.00  0.00     0.006 C 
BRANCH   5   6
ATOM      6  C   UNL     1      -8.746   4.761 -13.146  1.00  0.00     0.053 C 
BRANCH   6   7
ATOM      7  C   UNL     1      -7.719   5.324 -14.080  1.00  0.00     0.041 C 
ATOM      8  O   UNL     1      -6.493   5.163 -13.844  1.00  0.00    -0.550 OA
ATOM      9  O   UNL     1      -8.116   6.053 -15.194  1.00  0.00    -0.550 OA
ENDBRANCH   6   7
ENDBRANCH   5   6
ENDBRANCH   4   5
ENDBRANCH   3   4
ENDBRANCH   2   3
ENDBRANCH   1   2
BRANCH   1  10
ATOM     10  C   UNL     1      -7.305   6.224  -6.354  1.00  0.00     0.000 C 
BRANCH  10  11
ATOM     11  C   UNL     1      -7.634   5.204  -5.251  1.00  0.00    -0.000 C 
BRANCH  11  12
ATOM     12  C   UNL     1      -8.749   5.687  -4.310  1.00  0.00    -0.000 C 
BRANCH  12  13
ATOM     13  C   UNL     1      -8.758   7.220  -4.213  1.00  0.00    -0.000 C 
BRANCH  13  14
ATOM     14  C   UNL     1     -10.163   7.797  -3.963  1.00  0.00    -0.000 C 
BRANCH  14  15
ATOM     15  C   UNL     1     -10.245   8.831  -2.825  1.00  0.00    -0.003 C 
ATOM     16  C   UNL     1     -10.953   8.295  -1.581  1.00  0.00     0.004 C 
ENDBRANCH  14  15
ENDBRANCH  13  14
ENDBRANCH  12  13
ENDBRANCH  11  12
ENDBRANCH  10  11
ENDBRANCH   1  10
TORSDOF 12
ENDMDL
MODEL 8
REMARK VINA RESULT:    -4.214      4.038      8.162
REMARK INTER + INTRA:          -7.961
REMARK INTER:                  -7.295
REMARK INTRA:                  -0.666
REMARK UNBOUND:                -0.791
REMARK SMILES CCCCCCCCCCCCCC(=O)[O-]
REMARK SMILES IDX 8 1 9 2 10 3 11 4 12 5 13 6 14 7 15 8 16 9 7 10 6 11 5 12
REMARK SMILES IDX 4 13 3 14 2 15 1 16
REMARK H PARENT
REMARK Flexibility Score: inf
ROOT
ATOM      1  C   UNL     1      -9.163   4.464  -9.055  1.00  0.00     0.000 C 
ENDROOT
BRANCH   1   2
ATOM      2  C   UNL     1      -9.506   5.143 -10.393  1.00  0.00     0.000 C 
BRANCH   2   3
ATOM      3  C   UNL     1      -8.359   5.179 -11.422  1.00  0.00     0.000 C 
BRANCH   3   4
ATOM      4  C   UNL     1      -8.686   4.548 -12.791  1.00  0.00     0.000 C 
BRANCH   4   5
ATOM      5  C   UNL     1      -7.870   5.103 -13.976  1.00  0.00     0.006 C 
BRANCH   5   6
ATOM      6  C   UNL     1      -6.372   5.285 -13.685  1.00  0.00     0.053 C 
BRANCH   6   7
ATOM      7  C   UNL     1      -5.568   5.407 -14.943  1.00  0.00     0.041 C 
ATOM      8  O   UNL     1      -4.434   5.955 -14.918  1.00  0.00    -0.550 OA
ATOM      9  O   UNL     1      -6.083   4.945 -16.148  1.00  0.00    -0.550 OA
ENDBRANCH   6   7
ENDBRANCH   5   6
ENDBRANCH   4   5
ENDBRANCH   3   4
ENDBRANCH   2   3
ENDBRANCH   1   2
BRANCH   1  10
ATOM     10  C   UNL     1      -8.533   5.433  -8.039  1.00  0.00     0.000 C 
BRANCH  10  11
ATOM     11  C   UNL     1      -9.523   5.867  -6.945  1.00  0.00    -0.000 C 
BRANCH  11  12
ATOM     12  C   UNL     1      -9.006   5.574  -5.528  1.00  0.00    -0.000 C 
BRANCH  12  13
ATOM     13  C   UNL     1      -7.572   5.026  -5.570  1.00  0.00    -0.000 C 
BRANCH  13  14
ATOM     14  C   UNL     1      -6.552   5.958  -4.892  1.00  0.00    -0.000 C 
BRANCH  14  15
ATOM     15  C   UNL     1      -6.407   7.345  -5.545  1.00  0.00    -0.003 C 
ATOM     16  C   UNL     1      -5.214   7.436  -6.495  1.00  0.00     0.004 C 
ENDBRANCH  14  15
ENDBRANCH  13  14
ENDBRANCH  12  13
ENDBRANCH  11  12
ENDBRANCH  10  11
ENDBRANCH   1  10
TORSDOF 12
ENDMDL
MODEL 9
REMARK VINA RESULT:    -4.172      2.084      4.298
REMARK INTER + INTRA:          -7.889
REMARK INTER:                  -7.306
REMARK INTRA:                  -0.583
REMARK UNBOUND:                -0.791
REMARK SMILES CCCCCCCCCCCCCC(=O)[O-]
REMARK SMILES IDX 8 1 9 2 10 3 11 4 12 5 13 6 14 7 15 8 16 9 7 10 6 11 5 12
REMARK SMILES IDX 4 13 3 14 2 15 1 16
REMARK H PARENT
REMARK Flexibility Score: inf
ROOT
ATOM      1  C   UNL     1      -7.597   5.688  -7.829  1.00  0.00     0.000 C 
ENDROOT
BRANCH   1   2
ATOM      2  C   UNL     1      -7.324   5.995  -6.346  1.00  0.00     0.000 C 
BRANCH   2   3
ATOM      3  C   UNL     1      -8.214   5.233  -5.344  1.00  0.00     0.000 C 
BRANCH   3   4
ATOM      4  C   UNL     1      -8.642   6.041  -4.102  1.00  0.00     0.000 C 
BRANCH   4   5
ATOM      5  C   UNL     1      -7.646   6.002  -2.925  1.00  0.00     0.006 C 
BRANCH   5   6
ATOM      6  C   UNL     1      -6.767   4.742  -2.879  1.00  0.00     0.053 C 
BRANCH   6   7
ATOM      7  C   UNL     1      -7.194   3.800  -1.796  1.00  0.00     0.041 C 
ATOM      8  O   UNL     1      -7.761   4.240  -0.761  1.00  0.00    -0.550 OA
ATOM      9  O   UNL     1      -6.935   2.440  -1.913  1.00  0.00    -0.550 OA
ENDBRANCH   6   7
ENDBRANCH   5   6
ENDBRANCH   4   5
ENDBRANCH   3   4
ENDBRANCH   2   3
ENDBRANCH   1   2
BRANCH   1  10
ATOM     10  C   UNL     1      -9.080   5.387  -8.112  1.00  0.00     0.000 C 
BRANCH  10  11
ATOM     11  C   UNL     1      -9.271   4.430  -9.299  1.00  0.00    -0.000 C 
BRANCH  11  12
ATOM     12  C   UNL     1      -9.530   5.169 -10.622  1.00  0.00    -0.000 C 
BRANCH  12  13
ATOM     13  C   UNL     1      -8.297   5.107 -11.535  1.00  0.00    -0.000 C 
BRANCH  13  14
ATOM     14  C   UNL     1      -8.562   4.354 -12.851  1.00  0.00    -0.000 C 
BRANCH  14  15
ATOM     15  C   UNL     1      -7.347   4.245 -13.791  1.00  0.00    -0.003 C 
ATOM     16  C   UNL     1      -6.158   5.086 -13.330  1.00  0.00     0.004 C 
ENDBRANCH  14  15
ENDBRANCH  13  14
ENDBRANCH  12  13
ENDBRANCH  11  12
ENDBRANCH  10  11
ENDBRANCH   1  10
TORSDOF 12
ENDMDL
