MODEL 1
REMARK VINA RESULT:    -4.207      0.000      0.000
REMARK INTER + INTRA:         -13.252
REMARK INTER:                  -9.619
REMARK INTRA:                  -3.634
REMARK UNBOUND:                -3.634
REMARK SMILES CCCCCCCCCCCCCCCCCCCCCCCC(=O)[O-]
REMARK SMILES IDX 13 1 14 2 15 3 16 4 17 5 18 6 19 7 20 8 21 9 22 10 23 11
REMARK SMILES IDX 24 12 25 13 26 14 12 15 11 16 10 17 9 18 8 19 7 20 6 21 5 22
REMARK SMILES IDX 4 23 3 24 2 25 1 26
REMARK H PARENT
REMARK Flexibility Score: inf
ROOT
ATOM      1  C   UNL     1      27.741  -3.008  -1.749  1.00  0.00     0.000 C 
ENDROOT
BRANCH   1   2
ATOM      2  C   UNL     1      29.271  -2.990  -1.914  1.00  0.00     0.000 C 
BRANCH   2   3
ATOM      3  C   UNL     1      29.739  -3.665  -3.215  1.00  0.00     0.000 C 
BRANCH   3   4
ATOM      4  C   UNL     1      29.773  -2.680  -4.403  1.00  0.00     0.000 C 
BRANCH   4   5
ATOM      5  C   UNL     1      28.848  -3.078  -5.566  1.00  0.00     0.000 C 
BRANCH   5   6
ATOM      6  C   UNL     1      27.437  -2.490  -5.437  1.00  0.00     0.000 C 
BRANCH   6   7
ATOM      7  C   UNL     1      26.491  -3.472  -4.733  1.00  0.00     0.000 C 
BRANCH   7   8
ATOM      8  C   UNL     1      26.558  -4.861  -5.382  1.00  0.00     0.000 C 
BRANCH   8   9
ATOM      9  C   UNL     1      26.356  -5.998  -4.355  1.00  0.00     0.000 C 
BRANCH   9  10
ATOM     10  C   UNL     1      27.663  -6.722  -3.981  1.00  0.00     0.006 C 
BRANCH  10  11
ATOM     11  C   UNL     1      28.707  -6.743  -5.107  1.00  0.00     0.053 C 
BRANCH  11  12
ATOM     12  C   UNL     1      28.493  -7.895  -6.041  1.00  0.00     0.041 C 
ATOM     13  O   UNL     1      29.229  -8.916  -5.973  1.00  0.00    -0.550 OA
ATOM     14  O   UNL     1      27.460  -7.855  -6.968  1.00  0.00    -0.550 OA
ENDBRANCH  11  12
ENDBRANCH  10  11
ENDBRANCH   9  10
ENDBRANCH   8   9
ENDBRANCH   7   8
ENDBRANCH   6   7
ENDBRANCH   5   6
ENDBRANCH   4   5
ENDBRANCH   3   4
ENDBRANCH   2   3
ENDBRANCH   1   2
BRANCH   1  15
ATOM     15  C   UNL     1      27.157  -1.760  -1.063  1.00  0.00     0.000 C 
BRANCH  15  16
ATOM     16  C   UNL     1      27.819  -0.458  -1.537  1.00  0.00     0.000 C 
BRANCH  16  17
ATOM     17  C   UNL     1      27.812   0.603  -0.429  1.00  0.00     0.000 C 
BRANCH  17  18
ATOM     18  C   UNL     1      26.688   0.332   0.583  1.00  0.00    -0.000 C 
BRANCH  18  19
ATOM     19  C   UNL     1      27.182   0.434   2.043  1.00  0.00    -0.000 C 
BRANCH  19  20
ATOM     20  C   UNL     1      28.714   0.502   2.169  1.00  0.00    -0.000 C 
BRANCH  20  21
ATOM     21  C   UNL     1      29.330  -0.829   2.629  1.00  0.00    -0.000 C 
BRANCH  21  22
ATOM     22  C   UNL     1      29.960  -1.621   1.472  1.00  0.00    -0.000 C 
BRANCH  22  23
ATOM     23  C   UNL     1      29.596  -3.116   1.499  1.00  0.00    -0.000 C 
BRANCH  23  24
ATOM     24  C   UNL     1      28.215  -3.368   2.140  1.00  0.00    -0.000 C 
BRANCH  24  25
ATOM     25  C   UNL     1      28.104  -4.733   2.841  1.00  0.00    -0.003 C 
ATOM     26  C   UNL     1      28.226  -4.638   4.360  1.00  0.00     0.004 C 
ENDBRANCH  24  25
ENDBRANCH  23  24
ENDBRANCH  22  23
ENDBRANCH  21  22
ENDBRANCH  20  21
ENDBRANCH  19  20
ENDBRANCH  18  19
ENDBRANCH  17  18
ENDBRANCH  16  17
ENDBRANCH  15  16
ENDBRANCH   1  15
TORSDOF 22
ENDMDL
MODEL 2
REMARK VINA RESULT:    -3.896      6.424      8.930
REMARK INTER + INTRA:         -12.539
REMARK INTER:                 -10.019
REMARK INTRA:                  -2.520
REMARK UNBOUND:                -3.634
REMARK SMILES CCCCCCCCCCCCCCCCCCCCCCCC(=O)[O-]
REMARK SMILES IDX 13 1 14 2 15 3 16 4 17 5 18 6 19 7 20 8 21 9 22 10 23 11
REMARK SMILES IDX 24 12 25 13 26 14 12 15 11 16 10 17 9 18 8 19 7 20 6 21 5 22
REMARK SMILES IDX 4 23 3 24 2 25 1 26
REMARK H PARENT
REMARK Flexibility Score: inf
ROOT
ATOM      1  C   UNL     1      22.423   0.469  -4.776  1.00  0.00     0.000 C 
ENDROOT
BRANCH   1   2
ATOM      2  C   UNL     1      23.625   1.125  -5.479  1.00  0.00     0.000 C 
BRANCH   2   3
ATOM      3  C   UNL     1      24.899   1.114  -4.618  1.00  0.00     0.000 C 
BRANCH   3   4
ATOM      4  C   UNL     1      26.178   0.977  -5.470  1.00  0.00     0.000 C 
BRANCH   4   5
ATOM      5  C   UNL     1      27.478   0.986  -4.648  1.00  0.00     0.000 C 
BRANCH   5   6
ATOM      6  C   UNL     1      28.317  -0.283  -4.839  1.00  0.00     0.000 C 
BRANCH   6   7
ATOM      7  C   UNL     1      27.808  -1.108  -6.028  1.00  0.00     0.000 C 
BRANCH   7   8
ATOM      8  C   UNL     1      27.719  -2.597  -5.665  1.00  0.00     0.000 C 
BRANCH   8   9
ATOM      9  C   UNL     1      26.631  -2.877  -4.604  1.00  0.00     0.000 C 
BRANCH   9  10
ATOM     10  C   UNL     1      26.346  -4.377  -4.403  1.00  0.00     0.006 C 
BRANCH  10  11
ATOM     11  C   UNL     1      26.487  -5.214  -5.682  1.00  0.00     0.053 C 
BRANCH  11  12
ATOM     12  C   UNL     1      27.663  -6.140  -5.613  1.00  0.00     0.041 C 
ATOM     13  O   UNL     1      27.929  -6.905  -6.578  1.00  0.00    -0.550 OA
ATOM     14  O   UNL     1      28.485  -6.136  -4.494  1.00  0.00    -0.550 OA
ENDBRANCH  11  12
ENDBRANCH  10  11
ENDBRANCH   9  10
ENDBRANCH   8   9
ENDBRANCH   7   8
ENDBRANCH   6   7
ENDBRANCH   5   6
ENDBRANCH   4   5
ENDBRANCH   3   4
ENDBRANCH   2   3
ENDBRANCH   1   2
BRANCH   1  15
ATOM     15  C   UNL     1      21.060   0.769  -5.426  1.00  0.00     0.000 C 
BRANCH  15  16
ATOM     16  C   UNL     1      21.154   0.945  -6.948  1.00  0.00     0.000 C 
BRANCH  16  17
ATOM     17  C   UNL     1      19.792   0.722  -7.618  1.00  0.00     0.000 C 
BRANCH  17  18
ATOM     18  C   UNL     1      18.654   0.807  -6.589  1.00  0.00    -0.000 C 
BRANCH  18  19
ATOM     19  C   UNL     1      17.359   0.137  -7.097  1.00  0.00    -0.000 C 
BRANCH  19  20
ATOM     20  C   UNL     1      16.327  -0.123  -5.986  1.00  0.00    -0.000 C 
BRANCH  20  21
ATOM     21  C   UNL     1      16.889   0.146  -4.581  1.00  0.00    -0.000 C 
BRANCH  21  22
ATOM     22  C   UNL     1      16.341  -0.830  -3.527  1.00  0.00    -0.000 C 
BRANCH  22  23
ATOM     23  C   UNL     1      17.399  -1.829  -3.026  1.00  0.00    -0.000 C 
BRANCH  23  24
ATOM     24  C   UNL     1      18.804  -1.518  -3.584  1.00  0.00    -0.000 C 
BRANCH  24  25
ATOM     25  C   UNL     1      19.454  -2.710  -4.309  1.00  0.00    -0.003 C 
ATOM     26  C   UNL     1      19.427  -2.574  -5.829  1.00  0.00     0.004 C 
ENDBRANCH  24  25
ENDBRANCH  23  24
ENDBRANCH  22  23
ENDBRANCH  21  22
ENDBRANCH  20  21
ENDBRANCH  19  20
ENDBRANCH  18  19
ENDBRANCH  17  18
ENDBRANCH  16  17
ENDBRANCH  15  16
ENDBRANCH   1  15
TORSDOF 22
ENDMDL
MODEL 3
REMARK VINA RESULT:    -3.686      3.570      8.282
REMARK INTER + INTRA:         -12.060
REMARK INTER:                  -9.208
REMARK INTRA:                  -2.852
REMARK UNBOUND:                -3.634
REMARK SMILES CCCCCCCCCCCCCCCCCCCCCCCC(=O)[O-]
REMARK SMILES IDX 13 1 14 2 15 3 16 4 17 5 18 6 19 7 20 8 21 9 22 10 23 11
REMARK SMILES IDX 24 12 25 13 26 14 12 15 11 16 10 17 9 18 8 19 7 20 6 21 5 22
REMARK SMILES IDX 4 23 3 24 2 25 1 26
REMARK H PARENT
REMARK Flexibility Score: inf
ROOT
ATOM      1  C   UNL     1      26.509  -5.153  -4.974  1.00  0.00     0.000 C 
ENDROOT
BRANCH   1   2
ATOM      2  C   UNL     1      26.357  -4.961  -3.453  1.00  0.00     0.000 C 
BRANCH   2   3
ATOM      3  C   UNL     1      26.871  -3.594  -2.970  1.00  0.00     0.000 C 
BRANCH   3   4
ATOM      4  C   UNL     1      26.571  -3.354  -1.475  1.00  0.00     0.000 C 
BRANCH   4   5
ATOM      5  C   UNL     1      27.638  -2.513  -0.754  1.00  0.00     0.000 C 
BRANCH   5   6
ATOM      6  C   UNL     1      27.842  -1.132  -1.390  1.00  0.00     0.000 C 
BRANCH   6   7
ATOM      7  C   UNL     1      26.757  -0.148  -0.934  1.00  0.00     0.000 C 
BRANCH   7   8
ATOM      8  C   UNL     1      27.079   0.421   0.454  1.00  0.00     0.000 C 
BRANCH   8   9
ATOM      9  C   UNL     1      28.568   0.245   0.828  1.00  0.00     0.000 C 
BRANCH   9  10
ATOM     10  C   UNL     1      28.846   0.434   2.331  1.00  0.00     0.006 C 
BRANCH  10  11
ATOM     11  C   UNL     1      27.747  -0.128   3.243  1.00  0.00     0.053 C 
BRANCH  11  12
ATOM     12  C   UNL     1      28.038  -1.538   3.660  1.00  0.00     0.041 C 
ATOM     13  O   UNL     1      28.091  -1.842   4.881  1.00  0.00    -0.550 OA
ATOM     14  O   UNL     1      28.220  -2.522   2.698  1.00  0.00    -0.550 OA
ENDBRANCH  11  12
ENDBRANCH  10  11
ENDBRANCH   9  10
ENDBRANCH   8   9
ENDBRANCH   7   8
ENDBRANCH   6   7
ENDBRANCH   5   6
ENDBRANCH   4   5
ENDBRANCH   3   4
ENDBRANCH   2   3
ENDBRANCH   1   2
BRANCH   1  15
ATOM     15  C   UNL     1      26.513  -6.622  -5.435  1.00  0.00     0.000 C 
BRANCH  15  16
ATOM     16  C   UNL     1      27.629  -6.922  -6.446  1.00  0.00     0.000 C 
BRANCH  16  17
ATOM     17  C   UNL     1      28.686  -7.856  -5.844  1.00  0.00     0.000 C 
BRANCH  17  18
ATOM     18  C   UNL     1      28.762  -7.687  -4.319  1.00  0.00    -0.000 C 
BRANCH  18  19
ATOM     19  C   UNL     1      30.124  -7.120  -3.863  1.00  0.00    -0.000 C 
BRANCH  19  20
ATOM     20  C   UNL     1      30.057  -5.650  -3.413  1.00  0.00    -0.000 C 
BRANCH  20  21
ATOM     21  C   UNL     1      30.125  -4.667  -4.592  1.00  0.00    -0.000 C 
BRANCH  21  22
ATOM     22  C   UNL     1      29.915  -3.208  -4.159  1.00  0.00    -0.000 C 
BRANCH  22  23
ATOM     23  C   UNL     1      29.832  -2.234  -5.348  1.00  0.00    -0.000 C 
BRANCH  23  24
ATOM     24  C   UNL     1      28.384  -2.046  -5.847  1.00  0.00    -0.000 C 
BRANCH  24  25
ATOM     25  C   UNL     1      27.941  -0.574  -5.906  1.00  0.00    -0.003 C 
ATOM     26  C   UNL     1      26.914  -0.214  -4.836  1.00  0.00     0.004 C 
ENDBRANCH  24  25
ENDBRANCH  23  24
ENDBRANCH  22  23
ENDBRANCH  21  22
ENDBRANCH  20  21
ENDBRANCH  19  20
ENDBRANCH  18  19
ENDBRANCH  17  18
ENDBRANCH  16  17
ENDBRANCH  15  16
ENDBRANCH   1  15
TORSDOF 22
ENDMDL
MODEL 4
REMARK VINA RESULT:    -3.628      1.772      3.347
REMARK INTER + INTRA:         -11.928
REMARK INTER:                  -9.006
REMARK INTRA:                  -2.921
REMARK UNBOUND:                -3.634
REMARK SMILES CCCCCCCCCCCCCCCCCCCCCCCC(=O)[O-]
REMARK SMILES IDX 13 1 14 2 15 3 16 4 17 5 18 6 19 7 20 8 21 9 22 10 23 11
REMARK SMILES IDX 24 12 25 13 26 14 12 15 11 16 10 17 9 18 8 19 7 20 6 21 5 22
REMARK SMILES IDX 4 23 3 24 2 25 1 26
REMARK H PARENT
REMARK Flexibility Score: inf
ROOT
ATOM      1  C   UNL     1      28.281  -0.541  -5.939  1.00  0.00     0.000 C 
ENDROOT
BRANCH   1   2
ATOM      2  C   UNL     1      27.230  -1.350  -5.155  1.00  0.00     0.000 C 
BRANCH   2   3
ATOM      3  C   UNL     1      27.472  -2.867  -5.224  1.00  0.00     0.000 C 
BRANCH   3   4
ATOM      4  C   UNL     1      28.867  -3.210  -5.788  1.00  0.00     0.000 C 
BRANCH   4   5
ATOM      5  C   UNL     1      29.848  -3.751  -4.734  1.00  0.00     0.000 C 
BRANCH   5   6
ATOM      6  C   UNL     1      29.184  -4.702  -3.730  1.00  0.00     0.000 C 
BRANCH   6   7
ATOM      7  C   UNL     1      29.612  -6.154  -3.978  1.00  0.00     0.000 C 
BRANCH   7   8
ATOM      8  C   UNL     1      28.407  -7.102  -3.906  1.00  0.00     0.000 C 
BRANCH   8   9
ATOM      9  C   UNL     1      27.063  -6.340  -3.890  1.00  0.00     0.000 C 
BRANCH   9  10
ATOM     10  C   UNL     1      26.432  -6.186  -5.287  1.00  0.00     0.006 C 
BRANCH  10  11
ATOM     11  C   UNL     1      26.497  -7.458  -6.143  1.00  0.00     0.053 C 
BRANCH  11  12
ATOM     12  C   UNL     1      27.540  -7.356  -7.214  1.00  0.00     0.041 C 
ATOM     13  O   UNL     1      28.530  -8.135  -7.215  1.00  0.00    -0.550 OA
ATOM     14  O   UNL     1      27.401  -6.420  -8.230  1.00  0.00    -0.550 OA
ENDBRANCH  11  12
ENDBRANCH  10  11
ENDBRANCH   9  10
ENDBRANCH   8   9
ENDBRANCH   7   8
ENDBRANCH   6   7
ENDBRANCH   5   6
ENDBRANCH   4   5
ENDBRANCH   3   4
ENDBRANCH   2   3
ENDBRANCH   1   2
BRANCH   1  15
ATOM     15  C   UNL     1      29.217   0.310  -5.062  1.00  0.00     0.000 C 
BRANCH  15  16
ATOM     16  C   UNL     1      28.915   0.171  -3.563  1.00  0.00     0.000 C 
BRANCH  16  17
ATOM     17  C   UNL     1      30.053  -0.553  -2.832  1.00  0.00     0.000 C 
BRANCH  17  18
ATOM     18  C   UNL     1      29.499  -1.517  -1.772  1.00  0.00    -0.000 C 
BRANCH  18  19
ATOM     19  C   UNL     1      27.955  -1.545  -1.760  1.00  0.00    -0.000 C 
BRANCH  19  20
ATOM     20  C   UNL     1      27.352  -1.517  -0.345  1.00  0.00    -0.000 C 
BRANCH  20  21
ATOM     21  C   UNL     1      26.992  -0.097   0.117  1.00  0.00    -0.000 C 
BRANCH  21  22
ATOM     22  C   UNL     1      27.755   0.325   1.383  1.00  0.00    -0.000 C 
BRANCH  22  23
ATOM     23  C   UNL     1      27.961  -0.834   2.374  1.00  0.00    -0.000 C 
BRANCH  23  24
ATOM     24  C   UNL     1      28.773  -0.402   3.614  1.00  0.00    -0.000 C 
BRANCH  24  25
ATOM     25  C   UNL     1      27.900   0.135   4.762  1.00  0.00    -0.003 C 
ATOM     26  C   UNL     1      26.747  -0.797   5.124  1.00  0.00     0.004 C 
ENDBRANCH  24  25
ENDBRANCH  23  24
ENDBRANCH  22  23
ENDBRANCH  21  22
ENDBRANCH  20  21
ENDBRANCH  19  20
ENDBRANCH  18  19
ENDBRANCH  17  18
ENDBRANCH  16  17
ENDBRANCH  15  16
ENDBRANCH   1  15
TORSDOF 22
ENDMDL
MODEL 5
REMARK VINA RESULT:    -3.453      3.088      7.936
REMARK INTER + INTRA:         -11.527
REMARK INTER:                  -8.610
REMARK INTRA:                  -2.917
REMARK UNBOUND:                -3.634
REMARK SMILES CCCCCCCCCCCCCCCCCCCCCCCC(=O)[O-]
REMARK SMILES IDX 13 1 14 2 15 3 16 4 17 5 18 6 19 7 20 8 21 9 22 10 23 11
REMARK SMILES IDX 24 12 25 13 26 14 12 15 11 16 10 17 9 18 8 19 7 20 6 21 5 22
REMARK SMILES IDX 4 23 3 24 2 25 1 26
REMARK H PARENT
REMARK Flexibility Score: inf
ROOT
ATOM      1  C   UNL     1      29.367  -2.356  -1.071  1.00  0.00     0.000 C 
ENDROOT
BRANCH   1   2
ATOM      2  C   UNL     1      27.834  -2.327  -0.936  1.00  0.00     0.000 C 
BRANCH   2   3
ATOM      3  C   UNL     1      27.322  -1.079  -0.198  1.00  0.00     0.000 C 
BRANCH   3   4
ATOM      4  C   UNL     1      28.463  -0.302   0.494  1.00  0.00     0.000 C 
BRANCH   4   5
ATOM      5  C   UNL     1      27.987   0.619   1.630  1.00  0.00     0.000 C 
BRANCH   5   6
ATOM      6  C   UNL     1      26.461   0.754   1.693  1.00  0.00     0.000 C 
BRANCH   6   7
ATOM      7  C   UNL     1      25.955   0.648   3.137  1.00  0.00     0.000 C 
BRANCH   7   8
ATOM      8  C   UNL     1      27.119   0.416   4.112  1.00  0.00     0.000 C 
BRANCH   8   9
ATOM      9  C   UNL     1      27.062  -0.981   4.769  1.00  0.00     0.000 C 
BRANCH   9  10
ATOM     10  C   UNL     1      28.156  -1.939   4.262  1.00  0.00     0.006 C 
BRANCH  10  11
ATOM     11  C   UNL     1      27.854  -3.422   4.520  1.00  0.00     0.053 C 
BRANCH  11  12
ATOM     12  C   UNL     1      28.052  -4.252   3.289  1.00  0.00     0.041 C 
ATOM     13  O   UNL     1      27.729  -5.470   3.283  1.00  0.00    -0.550 OA
ATOM     14  O   UNL     1      28.565  -3.673   2.136  1.00  0.00    -0.550 OA
ENDBRANCH  11  12
ENDBRANCH  10  11
ENDBRANCH   9  10
ENDBRANCH   8   9
ENDBRANCH   7   8
ENDBRANCH   6   7
ENDBRANCH   5   6
ENDBRANCH   4   5
ENDBRANCH   3   4
ENDBRANCH   2   3
ENDBRANCH   1   2
BRANCH   1  15
ATOM     15  C   UNL     1      29.887  -2.142  -2.504  1.00  0.00     0.000 C 
BRANCH  15  16
ATOM     16  C   UNL     1      29.473  -0.784  -3.089  1.00  0.00     0.000 C 
BRANCH  16  17
ATOM     17  C   UNL     1      28.862  -0.945  -4.487  1.00  0.00     0.000 C 
BRANCH  17  18
ATOM     18  C   UNL     1      27.352  -1.215  -4.397  1.00  0.00    -0.000 C 
BRANCH  18  19
ATOM     19  C   UNL     1      27.015  -2.708  -4.601  1.00  0.00    -0.000 C 
BRANCH  19  20
ATOM     20  C   UNL     1      27.971  -3.427  -5.568  1.00  0.00    -0.000 C 
BRANCH  20  21
ATOM     21  C   UNL     1      28.712  -4.599  -4.906  1.00  0.00    -0.000 C 
BRANCH  21  22
ATOM     22  C   UNL     1      27.899  -5.252  -3.777  1.00  0.00    -0.000 C 
BRANCH  22  23
ATOM     23  C   UNL     1      27.534  -6.718  -4.069  1.00  0.00    -0.000 C 
BRANCH  23  24
ATOM     24  C   UNL     1      28.681  -7.474  -4.772  1.00  0.00    -0.000 C 
BRANCH  24  25
ATOM     25  C   UNL     1      28.340  -7.908  -6.208  1.00  0.00    -0.003 C 
ATOM     26  C   UNL     1      26.991  -7.382  -6.688  1.00  0.00     0.004 C 
ENDBRANCH  24  25
ENDBRANCH  23  24
ENDBRANCH  22  23
ENDBRANCH  21  22
ENDBRANCH  20  21
ENDBRANCH  19  20
ENDBRANCH  18  19
ENDBRANCH  17  18
ENDBRANCH  16  17
ENDBRANCH  15  16
ENDBRANCH   1  15
TORSDOF 22
ENDMDL
MODEL 6
REMARK VINA RESULT:    -3.328      6.912      9.648
REMARK INTER + INTRA:         -11.241
REMARK INTER:                  -9.698
REMARK INTRA:                  -1.543
REMARK UNBOUND:                -3.634
REMARK SMILES CCCCCCCCCCCCCCCCCCCCCCCC(=O)[O-]
REMARK SMILES IDX 13 1 14 2 15 3 16 4 17 5 18 6 19 7 20 8 21 9 22 10 23 11
REMARK SMILES IDX 24 12 25 13 26 14 12 15 11 16 10 17 9 18 8 19 7 20 6 21 5 22
REMARK SMILES IDX 4 23 3 24 2 25 1 26
REMARK H PARENT
REMARK Flexibility Score: inf
ROOT
ATOM      1  C   UNL     1      24.652   0.279  -4.948  1.00  0.00     0.000 C 
ENDROOT
BRANCH   1   2
ATOM      2  C   UNL     1      23.413   1.125  -4.602  1.00  0.00     0.000 C 
BRANCH   2   3
ATOM      3  C   UNL     1      22.191   0.777  -5.469  1.00  0.00     0.000 C 
BRANCH   3   4
ATOM      4  C   UNL     1      21.024   0.212  -4.632  1.00  0.00     0.000 C 
BRANCH   4   5
ATOM      5  C   UNL     1      20.419  -1.082  -5.203  1.00  0.00     0.000 C 
BRANCH   5   6
ATOM      6  C   UNL     1      19.568  -0.842  -6.456  1.00  0.00     0.000 C 
BRANCH   6   7
ATOM      7  C   UNL     1      18.378  -1.809  -6.508  1.00  0.00     0.000 C 
BRANCH   7   8
ATOM      8  C   UNL     1      17.057  -1.046  -6.680  1.00  0.00     0.000 C 
BRANCH   8   9
ATOM      9  C   UNL     1      17.085   0.336  -5.990  1.00  0.00     0.000 C 
BRANCH   9  10
ATOM     10  C   UNL     1      16.182   0.414  -4.744  1.00  0.00     0.006 C 
BRANCH  10  11
ATOM     11  C   UNL     1      15.811  -0.955  -4.157  1.00  0.00     0.053 C 
BRANCH  11  12
ATOM     12  C   UNL     1      16.645  -1.290  -2.959  1.00  0.00     0.041 C 
ATOM     13  O   UNL     1      17.712  -1.947  -3.089  1.00  0.00    -0.550 OA
ATOM     14  O   UNL     1      16.260  -0.849  -1.700  1.00  0.00    -0.550 OA
ENDBRANCH  11  12
ENDBRANCH  10  11
ENDBRANCH   9  10
ENDBRANCH   8   9
ENDBRANCH   7   8
ENDBRANCH   6   7
ENDBRANCH   5   6
ENDBRANCH   4   5
ENDBRANCH   3   4
ENDBRANCH   2   3
ENDBRANCH   1   2
BRANCH   1  15
ATOM     15  C   UNL     1      25.964   1.078  -5.048  1.00  0.00     0.000 C 
BRANCH  15  16
ATOM     16  C   UNL     1      27.200   0.237  -4.696  1.00  0.00     0.000 C 
BRANCH  16  17
ATOM     17  C   UNL     1      28.290   0.377  -5.765  1.00  0.00     0.000 C 
BRANCH  17  18
ATOM     18  C   UNL     1      28.274  -0.822  -6.726  1.00  0.00    -0.000 C 
BRANCH  18  19
ATOM     19  C   UNL     1      29.410  -1.824  -6.427  1.00  0.00    -0.000 C 
BRANCH  19  20
ATOM     20  C   UNL     1      28.997  -2.951  -5.465  1.00  0.00    -0.000 C 
BRANCH  20  21
ATOM     21  C   UNL     1      27.604  -3.519  -5.783  1.00  0.00    -0.000 C 
BRANCH  21  22
ATOM     22  C   UNL     1      27.053  -4.401  -4.651  1.00  0.00    -0.000 C 
BRANCH  22  23
ATOM     23  C   UNL     1      26.998  -5.893  -5.026  1.00  0.00    -0.000 C 
BRANCH  23  24
ATOM     24  C   UNL     1      28.034  -6.260  -6.109  1.00  0.00    -0.000 C 
BRANCH  24  25
ATOM     25  C   UNL     1      28.120  -7.771  -6.389  1.00  0.00    -0.003 C 
ATOM     26  C   UNL     1      28.969  -8.522  -5.368  1.00  0.00     0.004 C 
ENDBRANCH  24  25
ENDBRANCH  23  24
ENDBRANCH  22  23
ENDBRANCH  21  22
ENDBRANCH  20  21
ENDBRANCH  19  20
ENDBRANCH  18  19
ENDBRANCH  17  18
ENDBRANCH  16  17
ENDBRANCH  15  16
ENDBRANCH   1  15
TORSDOF 22
ENDMDL
MODEL 7
REMARK VINA RESULT:    -3.310      3.016      7.884
REMARK INTER + INTRA:         -11.201
REMARK INTER:                  -8.185
REMARK INTRA:                  -3.016
REMARK UNBOUND:                -3.634
REMARK SMILES CCCCCCCCCCCCCCCCCCCCCCCC(=O)[O-]
REMARK SMILES IDX 13 1 14 2 15 3 16 4 17 5 18 6 19 7 20 8 21 9 22 10 23 11
REMARK SMILES IDX 24 12 25 13 26 14 12 15 11 16 10 17 9 18 8 19 7 20 6 21 5 22
REMARK SMILES IDX 4 23 3 24 2 25 1 26
REMARK H PARENT
REMARK Flexibility Score: inf
ROOT
ATOM      1  C   UNL     1      26.765  -2.680  -1.545  1.00  0.00     0.000 C 
ENDROOT
BRANCH   1   2
ATOM      2  C   UNL     1      26.860  -1.391  -0.709  1.00  0.00     0.000 C 
BRANCH   2   3
ATOM      3  C   UNL     1      27.755  -0.322  -1.361  1.00  0.00     0.000 C 
BRANCH   3   4
ATOM      4  C   UNL     1      28.047   0.854  -0.406  1.00  0.00     0.000 C 
BRANCH   4   5
ATOM      5  C   UNL     1      26.977   1.053   0.682  1.00  0.00     0.000 C 
BRANCH   5   6
ATOM      6  C   UNL     1      27.557   1.037   2.102  1.00  0.00     0.000 C 
BRANCH   6   7
ATOM      7  C   UNL     1      26.858  -0.015   2.972  1.00  0.00     0.000 C 
BRANCH   7   8
ATOM      8  C   UNL     1      27.860  -1.060   3.484  1.00  0.00     0.000 C 
BRANCH   8   9
ATOM      9  C   UNL     1      29.102  -1.175   2.572  1.00  0.00     0.000 C 
BRANCH   9  10
ATOM     10  C   UNL     1      29.130  -2.470   1.739  1.00  0.00     0.006 C 
BRANCH  10  11
ATOM     11  C   UNL     1      28.050  -3.487   2.133  1.00  0.00     0.053 C 
BRANCH  11  12
ATOM     12  C   UNL     1      28.625  -4.643   2.893  1.00  0.00     0.041 C 
ATOM     13  O   UNL     1      29.475  -5.400   2.353  1.00  0.00    -0.550 OA
ATOM     14  O   UNL     1      28.245  -4.866   4.209  1.00  0.00    -0.550 OA
ENDBRANCH  11  12
ENDBRANCH  10  11
ENDBRANCH   9  10
ENDBRANCH   8   9
ENDBRANCH   7   8
ENDBRANCH   6   7
ENDBRANCH   5   6
ENDBRANCH   4   5
ENDBRANCH   3   4
ENDBRANCH   2   3
ENDBRANCH   1   2
BRANCH   1  15
ATOM     15  C   UNL     1      27.581  -2.659  -2.850  1.00  0.00     0.000 C 
BRANCH  15  16
ATOM     16  C   UNL     1      26.764  -3.110  -4.069  1.00  0.00     0.000 C 
BRANCH  16  17
ATOM     17  C   UNL     1      27.656  -3.266  -5.307  1.00  0.00     0.000 C 
BRANCH  17  18
ATOM     18  C   UNL     1      29.014  -2.580  -5.096  1.00  0.00    -0.000 C 
BRANCH  18  19
ATOM     19  C   UNL     1      30.125  -3.589  -4.729  1.00  0.00    -0.000 C 
BRANCH  19  20
ATOM     20  C   UNL     1      29.710  -5.057  -4.929  1.00  0.00    -0.000 C 
BRANCH  20  21
ATOM     21  C   UNL     1      29.642  -5.837  -3.607  1.00  0.00    -0.000 C 
BRANCH  21  22
ATOM     22  C   UNL     1      28.779  -7.105  -3.712  1.00  0.00    -0.000 C 
BRANCH  22  23
ATOM     23  C   UNL     1      28.259  -7.361  -5.138  1.00  0.00    -0.000 C 
BRANCH  23  24
ATOM     24  C   UNL     1      26.747  -7.080  -5.266  1.00  0.00    -0.000 C 
BRANCH  24  25
ATOM     25  C   UNL     1      26.377  -6.275  -6.523  1.00  0.00    -0.003 C 
ATOM     26  C   UNL     1      27.228  -6.635  -7.738  1.00  0.00     0.004 C 
ENDBRANCH  24  25
ENDBRANCH  23  24
ENDBRANCH  22  23
ENDBRANCH  21  22
ENDBRANCH  20  21
ENDBRANCH  19  20
ENDBRANCH  18  19
ENDBRANCH  17  18
ENDBRANCH  16  17
ENDBRANCH  15  16
ENDBRANCH   1  15
TORSDOF 22
ENDMDL
MODEL 8
REMARK VINA RESULT:    -1.400      6.448      9.140
REMARK INTER + INTRA:          -6.834
REMARK INTER:                  -4.301
REMARK INTRA:                  -2.533
REMARK UNBOUND:                -3.634
REMARK SMILES CCCCCCCCCCCCCCCCCCCCCCCC(=O)[O-]
REMARK SMILES IDX 13 1 14 2 15 3 16 4 17 5 18 6 19 7 20 8 21 9 22 10 23 11
REMARK SMILES IDX 24 12 25 13 26 14 12 15 11 16 10 17 9 18 8 19 7 20 6 21 5 22
REMARK SMILES IDX 4 23 3 24 2 25 1 26
REMARK H PARENT
REMARK Flexibility Score: inf
ROOT
ATOM      1  C   UNL     1      21.991   0.346  -4.807  1.00  0.00     0.000 C 
ENDROOT
BRANCH   1   2
ATOM      2  C   UNL     1      23.262   1.120  -4.411  1.00  0.00     0.000 C 
BRANCH   2   3
ATOM      3  C   UNL     1      24.329   1.124  -5.518  1.00  0.00     0.000 C 
BRANCH   3   4
ATOM      4  C   UNL     1      25.762   1.125  -4.947  1.00  0.00     0.000 C 
BRANCH   4   5
ATOM      5  C   UNL     1      26.836   0.692  -5.959  1.00  0.00     0.000 C 
BRANCH   5   6
ATOM      6  C   UNL     1      28.180   0.357  -5.301  1.00  0.00     0.000 C 
BRANCH   6   7
ATOM      7  C   UNL     1      28.429  -1.157  -5.291  1.00  0.00     0.000 C 
BRANCH   7   8
ATOM      8  C   UNL     1      27.874  -1.797  -4.010  1.00  0.00     0.000 C 
BRANCH   8   9
ATOM      9  C   UNL     1      26.758  -2.824  -4.305  1.00  0.00     0.000 C 
BRANCH   9  10
ATOM     10  C   UNL     1      27.129  -3.827  -5.414  1.00  0.00     0.006 C 
BRANCH  10  11
ATOM     11  C   UNL     1      26.336  -5.140  -5.355  1.00  0.00     0.053 C 
BRANCH  11  12
ATOM     12  C   UNL     1      26.697  -5.954  -4.151  1.00  0.00     0.041 C 
ATOM     13  O   UNL     1      27.903  -6.211  -3.893  1.00  0.00    -0.550 OA
ATOM     14  O   UNL     1      25.701  -6.404  -3.294  1.00  0.00    -0.550 OA
ENDBRANCH  11  12
ENDBRANCH  10  11
ENDBRANCH   9  10
ENDBRANCH   8   9
ENDBRANCH   7   8
ENDBRANCH   6   7
ENDBRANCH   5   6
ENDBRANCH   4   5
ENDBRANCH   3   4
ENDBRANCH   2   3
ENDBRANCH   1   2
BRANCH   1  15
ATOM     15  C   UNL     1      21.552   0.544  -6.269  1.00  0.00     0.000 C 
BRANCH  15  16
ATOM     16  C   UNL     1      20.098   1.022  -6.393  1.00  0.00     0.000 C 
BRANCH  16  17
ATOM     17  C   UNL     1      19.264   0.050  -7.236  1.00  0.00     0.000 C 
BRANCH  17  18
ATOM     18  C   UNL     1      20.078  -1.202  -7.597  1.00  0.00    -0.000 C 
BRANCH  18  19
ATOM     19  C   UNL     1      19.436  -2.494  -7.046  1.00  0.00    -0.000 C 
BRANCH  19  20
ATOM     20  C   UNL     1      18.504  -2.251  -5.846  1.00  0.00    -0.000 C 
BRANCH  20  21
ATOM     21  C   UNL     1      19.132  -2.685  -4.512  1.00  0.00    -0.000 C 
BRANCH  21  22
ATOM     22  C   UNL     1      19.058  -1.588  -3.438  1.00  0.00    -0.000 C 
BRANCH  22  23
ATOM     23  C   UNL     1      17.981  -0.529  -3.735  1.00  0.00    -0.000 C 
BRANCH  23  24
ATOM     24  C   UNL     1      16.574  -0.992  -3.301  1.00  0.00    -0.000 C 
BRANCH  24  25
ATOM     25  C   UNL     1      15.464  -0.589  -4.287  1.00  0.00    -0.003 C 
ATOM     26  C   UNL     1      15.872   0.550  -5.216  1.00  0.00     0.004 C 
ENDBRANCH  24  25
ENDBRANCH  23  24
ENDBRANCH  22  23
ENDBRANCH  21  22
ENDBRANCH  20  21
ENDBRANCH  19  20
ENDBRANCH  18  19
ENDBRANCH  17  18
ENDBRANCH  16  17
ENDBRANCH  15  16
ENDBRANCH   1  15
TORSDOF 22
ENDMDL
