MODEL 1
REMARK VINA RESULT:    -1.617      0.000      0.000
REMARK INTER + INTRA:          -3.827
REMARK INTER:                  -2.563
REMARK INTRA:                  -1.264
REMARK UNBOUND:                -1.264
REMARK SMILES CCCCCCCCCCCC(=O)[O-]
REMARK SMILES IDX 7 1 8 2 9 3 10 4 11 5 12 6 13 7 14 8 6 9 5 10 4 11 3 12 2 13
REMARK SMILES IDX 1 14
REMARK H PARENT
REMARK Flexibility Score: inf
ROOT
ATOM      1  C   UNL     1     174.396 179.162 195.191  1.00  0.00     0.000 C 
ENDROOT
BRANCH   1   2
ATOM      2  C   UNL     1     173.123 180.001 195.384  1.00  0.00     0.000 C 
BRANCH   2   3
ATOM      3  C   UNL     1     173.154 180.744 196.725  1.00  0.00     0.000 C 
BRANCH   3   4
ATOM      4  C   UNL     1     173.702 179.843 197.842  1.00  0.00     0.006 C 
BRANCH   4   5
ATOM      5  C   UNL     1     172.604 179.381 198.808  1.00  0.00     0.053 C 
BRANCH   5   6
ATOM      6  C   UNL     1     172.558 177.888 198.924  1.00  0.00     0.041 C 
ATOM      7  O   UNL     1     173.295 177.173 198.196  1.00  0.00    -0.550 OA
ATOM      8  O   UNL     1     171.676 177.285 199.813  1.00  0.00    -0.550 OA
ENDBRANCH   5   6
ENDBRANCH   4   5
ENDBRANCH   3   4
ENDBRANCH   2   3
ENDBRANCH   1   2
BRANCH   1   9
ATOM      9  C   UNL     1     174.102 177.700 194.805  1.00  0.00     0.000 C 
BRANCH   9  10
ATOM     10  C   UNL     1     172.610 177.337 194.700  1.00  0.00    -0.000 C 
BRANCH  10  11
ATOM     11  C   UNL     1     172.194 176.910 193.281  1.00  0.00    -0.000 C 
BRANCH  11  12
ATOM     12  C   UNL     1     171.659 178.081 192.437  1.00  0.00    -0.000 C 
BRANCH  12  13
ATOM     13  C   UNL     1     172.716 178.812 191.589  1.00  0.00    -0.003 C 
ATOM     14  C   UNL     1     172.670 180.330 191.749  1.00  0.00     0.004 C 
ENDBRANCH  12  13
ENDBRANCH  11  12
ENDBRANCH  10  11
ENDBRANCH   9  10
ENDBRANCH   1   9
TORSDOF 10
ENDMDL
MODEL 2
REMARK VINA RESULT:    -1.603      1.508      2.274
REMARK INTER + INTRA:          -3.804
REMARK INTER:                  -2.883
REMARK INTRA:                  -0.921
REMARK UNBOUND:                -1.264
REMARK SMILES CCCCCCCCCCCC(=O)[O-]
REMARK SMILES IDX 7 1 8 2 9 3 10 4 11 5 12 6 13 7 14 8 6 9 5 10 4 11 3 12 2 13
REMARK SMILES IDX 1 14
REMARK H PARENT
REMARK Flexibility Score: inf
ROOT
ATOM      1  C   UNL     1     173.774 177.969 193.951  1.00  0.00     0.000 C 
ENDROOT
BRANCH   1   2
ATOM      2  C   UNL     1     174.276 178.094 195.398  1.00  0.00     0.000 C 
BRANCH   2   3
ATOM      3  C   UNL     1     173.103 178.193 196.380  1.00  0.00     0.000 C 
BRANCH   3   4
ATOM      4  C   UNL     1     173.121 177.025 197.379  1.00  0.00     0.006 C 
BRANCH   4   5
ATOM      5  C   UNL     1     173.450 177.485 198.805  1.00  0.00     0.053 C 
BRANCH   5   6
ATOM      6  C   UNL     1     172.237 177.999 199.517  1.00  0.00     0.041 C 
ATOM      7  O   UNL     1     171.359 177.198 199.934  1.00  0.00    -0.550 OA
ATOM      8  O   UNL     1     172.058 179.366 199.691  1.00  0.00    -0.550 OA
ENDBRANCH   5   6
ENDBRANCH   4   5
ENDBRANCH   3   4
ENDBRANCH   2   3
ENDBRANCH   1   2
BRANCH   1   9
ATOM      9  C   UNL     1     172.432 177.222 193.841  1.00  0.00     0.000 C 
BRANCH   9  10
ATOM     10  C   UNL     1     171.592 177.560 192.597  1.00  0.00    -0.000 C 
BRANCH  10  11
ATOM     11  C   UNL     1     172.124 178.782 191.827  1.00  0.00    -0.000 C 
BRANCH  11  12
ATOM     12  C   UNL     1     171.191 180.003 191.924  1.00  0.00    -0.000 C 
BRANCH  12  13
ATOM     13  C   UNL     1     171.845 181.281 192.481  1.00  0.00    -0.003 C 
ATOM     14  C   UNL     1     172.141 181.201 193.978  1.00  0.00     0.004 C 
ENDBRANCH  12  13
ENDBRANCH  11  12
ENDBRANCH  10  11
ENDBRANCH   9  10
ENDBRANCH   1   9
TORSDOF 10
ENDMDL
MODEL 3
REMARK VINA RESULT:    -1.593      3.156      5.514
REMARK INTER + INTRA:          -3.789
REMARK INTER:                  -2.344
REMARK INTRA:                  -1.445
REMARK UNBOUND:                -1.264
REMARK SMILES CCCCCCCCCCCC(=O)[O-]
REMARK SMILES IDX 7 1 8 2 9 3 10 4 11 5 12 6 13 7 14 8 6 9 5 10 4 11 3 12 2 13
REMARK SMILES IDX 1 14
REMARK H PARENT
REMARK Flexibility Score: inf
ROOT
ATOM      1  C   UNL     1     173.063 176.877 197.017  1.00  0.00     0.000 C 
ENDROOT
BRANCH   1   2
ATOM      2  C   UNL     1     173.132 177.879 195.855  1.00  0.00     0.000 C 
BRANCH   2   3
ATOM      3  C   UNL     1     174.422 178.705 195.918  1.00  0.00     0.000 C 
BRANCH   3   4
ATOM      4  C   UNL     1     174.294 179.992 195.089  1.00  0.00     0.006 C 
BRANCH   4   5
ATOM      5  C   UNL     1     172.977 180.731 195.362  1.00  0.00     0.053 C 
BRANCH   5   6
ATOM      6  C   UNL     1     172.241 181.041 194.095  1.00  0.00     0.041 C 
ATOM      7  O   UNL     1     171.605 182.122 193.980  1.00  0.00    -0.550 OA
ATOM      8  O   UNL     1     172.229 180.122 193.053  1.00  0.00    -0.550 OA
ENDBRANCH   5   6
ENDBRANCH   4   5
ENDBRANCH   3   4
ENDBRANCH   2   3
ENDBRANCH   1   2
BRANCH   1   9
ATOM      9  C   UNL     1     173.556 177.466 198.352  1.00  0.00     0.000 C 
BRANCH   9  10
ATOM     10  C   UNL     1     172.496 177.544 199.466  1.00  0.00    -0.000 C 
BRANCH  10  11
ATOM     11  C   UNL     1     172.290 178.972 200.001  1.00  0.00    -0.000 C 
BRANCH  11  12
ATOM     12  C   UNL     1     172.321 180.038 198.890  1.00  0.00    -0.000 C 
BRANCH  12  13
ATOM     13  C   UNL     1     173.253 181.233 199.159  1.00  0.00    -0.003 C 
ATOM     14  C   UNL     1     174.722 180.927 198.871  1.00  0.00     0.004 C 
ENDBRANCH  12  13
ENDBRANCH  11  12
ENDBRANCH  10  11
ENDBRANCH   9  10
ENDBRANCH   1   9
TORSDOF 10
ENDMDL
MODEL 4
REMARK VINA RESULT:    -1.545      1.554      3.308
REMARK INTER + INTRA:          -3.713
REMARK INTER:                  -2.387
REMARK INTRA:                  -1.326
REMARK UNBOUND:                -1.264
REMARK SMILES CCCCCCCCCCCC(=O)[O-]
REMARK SMILES IDX 7 1 8 2 9 3 10 4 11 5 12 6 13 7 14 8 6 9 5 10 4 11 3 12 2 13
REMARK SMILES IDX 1 14
REMARK H PARENT
REMARK Flexibility Score: inf
ROOT
ATOM      1  C   UNL     1     171.582 177.048 192.842  1.00  0.00     0.000 C 
ENDROOT
BRANCH   1   2
ATOM      2  C   UNL     1     172.208 177.175 194.239  1.00  0.00     0.000 C 
BRANCH   2   3
ATOM      3  C   UNL     1     173.720 177.410 194.145  1.00  0.00     0.000 C 
BRANCH   3   4
ATOM      4  C   UNL     1     174.384 177.285 195.525  1.00  0.00     0.006 C 
BRANCH   4   5
ATOM      5  C   UNL     1     173.357 177.109 196.651  1.00  0.00     0.053 C 
BRANCH   5   6
ATOM      6  C   UNL     1     173.487 178.175 197.694  1.00  0.00     0.041 C 
ATOM      7  O   UNL     1     172.838 179.249 197.588  1.00  0.00    -0.550 OA
ATOM      8  O   UNL     1     174.351 177.998 198.768  1.00  0.00    -0.550 OA
ENDBRANCH   5   6
ENDBRANCH   4   5
ENDBRANCH   3   4
ENDBRANCH   2   3
ENDBRANCH   1   2
BRANCH   1   9
ATOM      9  C   UNL     1     172.514 177.538 191.717  1.00  0.00     0.000 C 
BRANCH   9  10
ATOM     10  C   UNL     1     171.949 178.672 190.844  1.00  0.00    -0.000 C 
BRANCH  10  11
ATOM     11  C   UNL     1     171.320 179.809 191.668  1.00  0.00    -0.000 C 
BRANCH  11  12
ATOM     12  C   UNL     1     172.369 180.721 192.329  1.00  0.00    -0.000 C 
BRANCH  12  13
ATOM     13  C   UNL     1     172.102 181.060 193.807  1.00  0.00    -0.003 C 
ATOM     14  C   UNL     1     173.359 180.996 194.674  1.00  0.00     0.004 C 
ENDBRANCH  12  13
ENDBRANCH  11  12
ENDBRANCH  10  11
ENDBRANCH   9  10
ENDBRANCH   1   9
TORSDOF 10
ENDMDL
MODEL 5
REMARK VINA RESULT:    -1.528      3.404      6.501
REMARK INTER + INTRA:          -3.686
REMARK INTER:                  -2.950
REMARK INTRA:                  -0.737
REMARK UNBOUND:                -1.264
REMARK SMILES CCCCCCCCCCCC(=O)[O-]
REMARK SMILES IDX 7 1 8 2 9 3 10 4 11 5 12 6 13 7 14 8 6 9 5 10 4 11 3 12 2 13
REMARK SMILES IDX 1 14
REMARK H PARENT
REMARK Flexibility Score: inf
ROOT
ATOM      1  C   UNL     1     173.163 177.771 196.800  1.00  0.00     0.000 C 
ENDROOT
BRANCH   1   2
ATOM      2  C   UNL     1     172.728 176.875 195.631  1.00  0.00     0.000 C 
BRANCH   2   3
ATOM      3  C   UNL     1     173.666 177.043 194.431  1.00  0.00     0.000 C 
BRANCH   3   4
ATOM      4  C   UNL     1     172.890 176.958 193.108  1.00  0.00     0.006 C 
BRANCH   4   5
ATOM      5  C   UNL     1     172.090 178.235 192.819  1.00  0.00     0.053 C 
BRANCH   5   6
ATOM      6  C   UNL     1     171.788 178.384 191.359  1.00  0.00     0.041 C 
ATOM      7  O   UNL     1     171.197 179.412 190.936  1.00  0.00    -0.550 OA
ATOM      8  O   UNL     1     172.130 177.372 190.470  1.00  0.00    -0.550 OA
ENDBRANCH   5   6
ENDBRANCH   4   5
ENDBRANCH   3   4
ENDBRANCH   2   3
ENDBRANCH   1   2
BRANCH   1   9
ATOM      9  C   UNL     1     173.242 179.262 196.422  1.00  0.00     0.000 C 
BRANCH   9  10
ATOM     10  C   UNL     1     173.092 180.246 197.596  1.00  0.00    -0.000 C 
BRANCH  10  11
ATOM     11  C   UNL     1     172.918 179.541 198.953  1.00  0.00    -0.000 C 
BRANCH  11  12
ATOM     12  C   UNL     1     171.612 179.931 199.668  1.00  0.00    -0.000 C 
BRANCH  12  13
ATOM     13  C   UNL     1     170.935 178.796 200.457  1.00  0.00    -0.003 C 
ATOM     14  C   UNL     1     171.494 177.414 200.119  1.00  0.00     0.004 C 
ENDBRANCH  12  13
ENDBRANCH  11  12
ENDBRANCH  10  11
ENDBRANCH   9  10
ENDBRANCH   1   9
TORSDOF 10
ENDMDL
MODEL 6
REMARK VINA RESULT:    -1.518      2.176      5.130
REMARK INTER + INTRA:          -3.669
REMARK INTER:                  -2.174
REMARK INTRA:                  -1.495
REMARK UNBOUND:                -1.264
REMARK SMILES CCCCCCCCCCCC(=O)[O-]
REMARK SMILES IDX 7 1 8 2 9 3 10 4 11 5 12 6 13 7 14 8 6 9 5 10 4 11 3 12 2 13
REMARK SMILES IDX 1 14
REMARK H PARENT
REMARK Flexibility Score: inf
ROOT
ATOM      1  C   UNL     1     175.355 178.392 197.633  1.00  0.00     0.000 C 
ENDROOT
BRANCH   1   2
ATOM      2  C   UNL     1     175.457 178.879 196.180  1.00  0.00     0.000 C 
BRANCH   2   3
ATOM      3  C   UNL     1     174.512 180.060 195.929  1.00  0.00     0.000 C 
BRANCH   3   4
ATOM      4  C   UNL     1     173.114 179.571 195.521  1.00  0.00     0.006 C 
BRANCH   4   5
ATOM      5  C   UNL     1     173.078 179.048 194.080  1.00  0.00     0.053 C 
BRANCH   5   6
ATOM      6  C   UNL     1     172.743 177.588 194.026  1.00  0.00     0.041 C 
ATOM      7  O   UNL     1     172.345 176.991 195.061  1.00  0.00    -0.550 OA
ATOM      8  O   UNL     1     172.900 176.880 192.841  1.00  0.00    -0.550 OA
ENDBRANCH   5   6
ENDBRANCH   4   5
ENDBRANCH   3   4
ENDBRANCH   2   3
ENDBRANCH   1   2
BRANCH   1   9
ATOM      9  C   UNL     1     174.511 177.113 197.783  1.00  0.00     0.000 C 
BRANCH   9  10
ATOM     10  C   UNL     1     173.149 177.302 198.476  1.00  0.00    -0.000 C 
BRANCH  10  11
ATOM     11  C   UNL     1     173.181 178.371 199.582  1.00  0.00    -0.000 C 
BRANCH  11  12
ATOM     12  C   UNL     1     172.012 179.368 199.487  1.00  0.00    -0.000 C 
BRANCH  12  13
ATOM     13  C   UNL     1     172.386 180.763 198.954  1.00  0.00    -0.003 C 
ATOM     14  C   UNL     1     173.769 181.229 199.408  1.00  0.00     0.004 C 
ENDBRANCH  12  13
ENDBRANCH  11  12
ENDBRANCH  10  11
ENDBRANCH   9  10
ENDBRANCH   1   9
TORSDOF 10
ENDMDL
MODEL 7
REMARK VINA RESULT:    -1.462      2.534      4.867
REMARK INTER + INTRA:          -3.581
REMARK INTER:                  -1.962
REMARK INTRA:                  -1.619
REMARK UNBOUND:                -1.264
REMARK SMILES CCCCCCCCCCCC(=O)[O-]
REMARK SMILES IDX 7 1 8 2 9 3 10 4 11 5 12 6 13 7 14 8 6 9 5 10 4 11 3 12 2 13
REMARK SMILES IDX 1 14
REMARK H PARENT
REMARK Flexibility Score: inf
ROOT
ATOM      1  C   UNL     1     174.447 177.779 195.170  1.00  0.00     0.000 C 
ENDROOT
BRANCH   1   2
ATOM      2  C   UNL     1     173.072 177.818 195.853  1.00  0.00     0.000 C 
BRANCH   2   3
ATOM      3  C   UNL     1     173.032 176.875 197.061  1.00  0.00     0.000 C 
BRANCH   3   4
ATOM      4  C   UNL     1     172.894 177.666 198.372  1.00  0.00     0.006 C 
BRANCH   4   5
ATOM      5  C   UNL     1     172.782 179.176 198.131  1.00  0.00     0.053 C 
BRANCH   5   6
ATOM      6  C   UNL     1     172.150 179.879 199.294  1.00  0.00     0.041 C 
ATOM      7  O   UNL     1     172.573 181.007 199.659  1.00  0.00    -0.550 OA
ATOM      8  O   UNL     1     171.114 179.273 199.994  1.00  0.00    -0.550 OA
ENDBRANCH   5   6
ENDBRANCH   4   5
ENDBRANCH   3   4
ENDBRANCH   2   3
ENDBRANCH   1   2
BRANCH   1   9
ATOM      9  C   UNL     1     175.181 179.133 195.215  1.00  0.00     0.000 C 
BRANCH   9  10
ATOM     10  C   UNL     1     176.135 179.323 196.408  1.00  0.00    -0.000 C 
BRANCH  10  11
ATOM     11  C   UNL     1     176.661 177.993 196.975  1.00  0.00    -0.000 C 
BRANCH  11  12
ATOM     12  C   UNL     1     176.558 177.913 198.509  1.00  0.00    -0.000 C 
BRANCH  12  13
ATOM     13  C   UNL     1     176.276 179.253 199.215  1.00  0.00    -0.003 C 
ATOM     14  C   UNL     1     175.610 179.084 200.579  1.00  0.00     0.004 C 
ENDBRANCH  12  13
ENDBRANCH  11  12
ENDBRANCH  10  11
ENDBRANCH   9  10
ENDBRANCH   1   9
TORSDOF 10
ENDMDL
MODEL 8
REMARK VINA RESULT:    -1.147      2.769      5.845
REMARK INTER + INTRA:          -3.082
REMARK INTER:                  -1.724
REMARK INTRA:                  -1.358
REMARK UNBOUND:                -1.264
REMARK SMILES CCCCCCCCCCCC(=O)[O-]
REMARK SMILES IDX 7 1 8 2 9 3 10 4 11 5 12 6 13 7 14 8 6 9 5 10 4 11 3 12 2 13
REMARK SMILES IDX 1 14
REMARK H PARENT
REMARK Flexibility Score: inf
ROOT
ATOM      1  C   UNL     1     173.150 181.534 199.658  1.00  0.00     0.000 C 
ENDROOT
BRANCH   1   2
ATOM      2  C   UNL     1     172.780 181.256 198.193  1.00  0.00     0.000 C 
BRANCH   2   3
ATOM      3  C   UNL     1     173.756 180.258 197.560  1.00  0.00     0.000 C 
BRANCH   3   4
ATOM      4  C   UNL     1     173.134 179.586 196.326  1.00  0.00     0.006 C 
BRANCH   4   5
ATOM      5  C   UNL     1     173.147 178.056 196.428  1.00  0.00     0.053 C 
BRANCH   5   6
ATOM      6  C   UNL     1     173.312 177.410 195.086  1.00  0.00     0.041 C 
ATOM      7  O   UNL     1     172.332 177.323 194.300  1.00  0.00    -0.550 OA
ATOM      8  O   UNL     1     174.540 176.875 194.717  1.00  0.00    -0.550 OA
ENDBRANCH   5   6
ENDBRANCH   4   5
ENDBRANCH   3   4
ENDBRANCH   2   3
ENDBRANCH   1   2
BRANCH   1   9
ATOM      9  C   UNL     1     172.420 180.610 200.651  1.00  0.00     0.000 C 
BRANCH   9  10
ATOM     10  C   UNL     1     171.190 179.879 200.083  1.00  0.00    -0.000 C 
BRANCH  10  11
ATOM     11  C   UNL     1     171.217 178.363 200.348  1.00  0.00    -0.000 C 
BRANCH  11  12
ATOM     12  C   UNL     1     172.549 177.885 200.956  1.00  0.00    -0.000 C 
BRANCH  12  13
ATOM     13  C   UNL     1     173.522 177.228 199.960  1.00  0.00    -0.003 C 
ATOM     14  C   UNL     1     174.953 177.750 200.087  1.00  0.00     0.004 C 
ENDBRANCH  12  13
ENDBRANCH  11  12
ENDBRANCH  10  11
ENDBRANCH   9  10
ENDBRANCH   1   9
TORSDOF 10
ENDMDL
