MODEL 1
REMARK VINA RESULT:    -3.172      0.000      0.000
REMARK INTER + INTRA:         -10.801
REMARK INTER:                  -6.880
REMARK INTRA:                  -3.920
REMARK UNBOUND:                -3.920
REMARK SMILES CCCCCCCCCCCCCCCCCCCCCC(=O)[O-]
REMARK SMILES IDX 12 1 11 2 10 3 9 4 8 5 7 6 6 7 5 8 4 9 3 10 2 11 1 12 13 13
REMARK SMILES IDX 14 14 15 15 16 16 17 17 18 18 19 19 20 20 21 21 22 22 23 23
REMARK SMILES IDX 24 24
REMARK H PARENT
REMARK Flexibility Score: inf
ROOT
ATOM      1  C   UNL     1      52.205  52.757  48.897  1.00  0.00     0.000 C 
ENDROOT
BRANCH   1   2
ATOM      2  C   UNL     1      53.280  52.131  48.000  1.00  0.00     0.000 C 
BRANCH   2   3
ATOM      3  C   UNL     1      54.351  51.418  48.839  1.00  0.00     0.000 C 
BRANCH   3   4
ATOM      4  C   UNL     1      55.677  52.194  48.878  1.00  0.00    -0.000 C 
BRANCH   4   5
ATOM      5  C   UNL     1      56.178  52.433  50.313  1.00  0.00    -0.000 C 
BRANCH   5   6
ATOM      6  C   UNL     1      56.239  51.137  51.139  1.00  0.00    -0.000 C 
BRANCH   6   7
ATOM      7  C   UNL     1      55.740  51.334  52.582  1.00  0.00    -0.000 C 
BRANCH   7   8
ATOM      8  C   UNL     1      54.434  50.558  52.857  1.00  0.00    -0.000 C 
BRANCH   8   9
ATOM      9  C   UNL     1      54.417  49.147  52.245  1.00  0.00    -0.000 C 
BRANCH   9  10
ATOM     10  C   UNL     1      53.181  48.888  51.370  1.00  0.00    -0.000 C 
BRANCH  10  11
ATOM     11  C   UNL     1      53.033  47.394  51.060  1.00  0.00    -0.003 C 
ATOM     12  C   UNL     1      52.820  46.585  52.337  1.00  0.00     0.004 C 
ENDBRANCH  10  11
ENDBRANCH   9  10
ENDBRANCH   8   9
ENDBRANCH   7   8
ENDBRANCH   6   7
ENDBRANCH   5   6
ENDBRANCH   4   5
ENDBRANCH   3   4
ENDBRANCH   2   3
ENDBRANCH   1   2
BRANCH   1  13
ATOM     13  C   UNL     1      52.242  52.151  50.305  1.00  0.00     0.000 C 
BRANCH  13  14
ATOM     14  C   UNL     1      51.900  53.204  51.368  1.00  0.00     0.000 C 
BRANCH  14  15
ATOM     15  C   UNL     1      53.136  53.979  51.862  1.00  0.00     0.000 C 
BRANCH  15  16
ATOM     16  C   UNL     1      53.261  55.419  51.324  1.00  0.00     0.000 C 
BRANCH  16  17
ATOM     17  C   UNL     1      54.363  55.629  50.269  1.00  0.00     0.000 C 
BRANCH  17  18
ATOM     18  C   UNL     1      53.852  55.943  48.850  1.00  0.00     0.000 C 
BRANCH  18  19
ATOM     19  C   UNL     1      54.886  55.663  47.740  1.00  0.00     0.000 C 
BRANCH  19  20
ATOM     20  C   UNL     1      54.237  55.158  46.442  1.00  0.00     0.006 C 
BRANCH  20  21
ATOM     21  C   UNL     1      52.727  55.412  46.448  1.00  0.00     0.053 C 
BRANCH  21  22
ATOM     22  C   UNL     1      52.338  56.271  45.286  1.00  0.00     0.041 C 
ATOM     23  O   UNL     1      51.127  56.547  45.081  1.00  0.00    -0.550 OA
ATOM     24  O   UNL     1      53.307  56.719  44.396  1.00  0.00    -0.550 OA
ENDBRANCH  21  22
ENDBRANCH  20  21
ENDBRANCH  19  20
ENDBRANCH  18  19
ENDBRANCH  17  18
ENDBRANCH  16  17
ENDBRANCH  15  16
ENDBRANCH  14  15
ENDBRANCH  13  14
ENDBRANCH   1  13
TORSDOF 20
ENDMDL
MODEL 2
REMARK VINA RESULT:    -3.076      1.527      3.410
REMARK INTER + INTRA:         -10.594
REMARK INTER:                  -6.995
REMARK INTRA:                  -3.599
REMARK UNBOUND:                -3.920
REMARK SMILES CCCCCCCCCCCCCCCCCCCCCC(=O)[O-]
REMARK SMILES IDX 12 1 11 2 10 3 9 4 8 5 7 6 6 7 5 8 4 9 3 10 2 11 1 12 13 13
REMARK SMILES IDX 14 14 15 15 16 16 17 17 18 18 19 19 20 20 21 21 22 22 23 23
REMARK SMILES IDX 24 24
REMARK H PARENT
REMARK Flexibility Score: inf
ROOT
ATOM      1  C   UNL     1      53.869  54.697  49.012  1.00  0.00     0.000 C 
ENDROOT
BRANCH   1   2
ATOM      2  C   UNL     1      53.259  55.778  49.913  1.00  0.00     0.000 C 
BRANCH   2   3
ATOM      3  C   UNL     1      52.410  55.150  51.029  1.00  0.00     0.000 C 
BRANCH   3   4
ATOM      4  C   UNL     1      53.271  54.537  52.145  1.00  0.00    -0.000 C 
BRANCH   4   5
ATOM      5  C   UNL     1      53.070  53.017  52.277  1.00  0.00    -0.000 C 
BRANCH   5   6
ATOM      6  C   UNL     1      51.995  52.480  51.319  1.00  0.00    -0.000 C 
BRANCH   6   7
ATOM      7  C   UNL     1      52.514  51.330  50.437  1.00  0.00    -0.000 C 
BRANCH   7   8
ATOM      8  C   UNL     1      54.020  51.066  50.649  1.00  0.00    -0.000 C 
BRANCH   8   9
ATOM      9  C   UNL     1      54.348  49.596  50.963  1.00  0.00    -0.000 C 
BRANCH   9  10
ATOM     10  C   UNL     1      54.025  49.205  52.412  1.00  0.00    -0.000 C 
BRANCH  10  11
ATOM     11  C   UNL     1      53.470  47.778  52.483  1.00  0.00    -0.003 C 
ATOM     12  C   UNL     1      52.584  47.470  51.279  1.00  0.00     0.004 C 
ENDBRANCH  10  11
ENDBRANCH   9  10
ENDBRANCH   8   9
ENDBRANCH   7   8
ENDBRANCH   6   7
ENDBRANCH   5   6
ENDBRANCH   4   5
ENDBRANCH   3   4
ENDBRANCH   2   3
ENDBRANCH   1   2
BRANCH   1  13
ATOM     13  C   UNL     1      52.814  54.106  48.069  1.00  0.00     0.000 C 
BRANCH  13  14
ATOM     14  C   UNL     1      53.402  52.961  47.233  1.00  0.00     0.000 C 
BRANCH  14  15
ATOM     15  C   UNL     1      54.922  52.801  47.422  1.00  0.00     0.000 C 
BRANCH  15  16
ATOM     16  C   UNL     1      55.768  53.056  46.158  1.00  0.00     0.000 C 
BRANCH  16  17
ATOM     17  C   UNL     1      57.000  53.956  46.367  1.00  0.00     0.000 C 
BRANCH  17  18
ATOM     18  C   UNL     1      56.681  55.431  46.675  1.00  0.00     0.000 C 
BRANCH  18  19
ATOM     19  C   UNL     1      55.978  56.171  45.517  1.00  0.00     0.000 C 
BRANCH  19  20
ATOM     20  C   UNL     1      54.549  56.605  45.875  1.00  0.00     0.006 C 
BRANCH  20  21
ATOM     21  C   UNL     1      53.531  56.005  44.902  1.00  0.00     0.053 C 
BRANCH  21  22
ATOM     22  C   UNL     1      52.154  56.500  45.216  1.00  0.00     0.041 C 
ATOM     23  O   UNL     1      51.898  56.982  46.350  1.00  0.00    -0.550 OA
ATOM     24  O   UNL     1      51.138  56.375  44.275  1.00  0.00    -0.550 OA
ENDBRANCH  21  22
ENDBRANCH  20  21
ENDBRANCH  19  20
ENDBRANCH  18  19
ENDBRANCH  17  18
ENDBRANCH  16  17
ENDBRANCH  15  16
ENDBRANCH  14  15
ENDBRANCH  13  14
ENDBRANCH   1  13
TORSDOF 20
ENDMDL
MODEL 3
REMARK VINA RESULT:    -2.995      2.595      5.273
REMARK INTER + INTRA:         -10.417
REMARK INTER:                  -6.314
REMARK INTRA:                  -4.103
REMARK UNBOUND:                -3.920
REMARK SMILES CCCCCCCCCCCCCCCCCCCCCC(=O)[O-]
REMARK SMILES IDX 12 1 11 2 10 3 9 4 8 5 7 6 6 7 5 8 4 9 3 10 2 11 1 12 13 13
REMARK SMILES IDX 14 14 15 15 16 16 17 17 18 18 19 19 20 20 21 21 22 22 23 23
REMARK SMILES IDX 24 24
REMARK H PARENT
REMARK Flexibility Score: inf
ROOT
ATOM      1  C   UNL     1      53.052  55.104  46.679  1.00  0.00     0.000 C 
ENDROOT
BRANCH   1   2
ATOM      2  C   UNL     1      53.327  55.500  48.135  1.00  0.00     0.000 C 
BRANCH   2   3
ATOM      3  C   UNL     1      54.731  55.056  48.571  1.00  0.00     0.000 C 
BRANCH   3   4
ATOM      4  C   UNL     1      55.283  53.917  47.698  1.00  0.00    -0.000 C 
BRANCH   4   5
ATOM      5  C   UNL     1      55.476  52.610  48.487  1.00  0.00    -0.000 C 
BRANCH   5   6
ATOM      6  C   UNL     1      54.202  51.751  48.523  1.00  0.00    -0.000 C 
BRANCH   6   7
ATOM      7  C   UNL     1      53.548  51.726  49.917  1.00  0.00    -0.000 C 
BRANCH   7   8
ATOM      8  C   UNL     1      52.206  52.488  49.944  1.00  0.00    -0.000 C 
BRANCH   8   9
ATOM      9  C   UNL     1      52.046  53.408  51.167  1.00  0.00    -0.000 C 
BRANCH   9  10
ATOM     10  C   UNL     1      53.350  53.584  51.959  1.00  0.00    -0.000 C 
BRANCH  10  11
ATOM     11  C   UNL     1      53.680  55.069  52.147  1.00  0.00    -0.003 C 
ATOM     12  C   UNL     1      52.526  55.954  51.682  1.00  0.00     0.004 C 
ENDBRANCH  10  11
ENDBRANCH   9  10
ENDBRANCH   8   9
ENDBRANCH   7   8
ENDBRANCH   6   7
ENDBRANCH   5   6
ENDBRANCH   4   5
ENDBRANCH   3   4
ENDBRANCH   2   3
ENDBRANCH   1   2
BRANCH   1  13
ATOM     13  C   UNL     1      52.296  56.215  45.941  1.00  0.00     0.000 C 
BRANCH  13  14
ATOM     14  C   UNL     1      52.994  56.574  44.621  1.00  0.00     0.000 C 
BRANCH  14  15
ATOM     15  C   UNL     1      54.435  56.037  44.541  1.00  0.00     0.000 C 
BRANCH  15  16
ATOM     16  C   UNL     1      55.536  57.117  44.548  1.00  0.00     0.000 C 
BRANCH  16  17
ATOM     17  C   UNL     1      56.357  57.205  45.848  1.00  0.00     0.000 C 
BRANCH  17  18
ATOM     18  C   UNL     1      55.760  58.120  46.933  1.00  0.00     0.000 C 
BRANCH  18  19
ATOM     19  C   UNL     1      54.905  59.275  46.371  1.00  0.00     0.000 C 
BRANCH  19  20
ATOM     20  C   UNL     1      54.156  60.043  47.470  1.00  0.00     0.006 C 
BRANCH  20  21
ATOM     21  C   UNL     1      53.646  59.092  48.557  1.00  0.00     0.053 C 
BRANCH  21  22
ATOM     22  C   UNL     1      52.206  59.365  48.856  1.00  0.00     0.041 C 
ATOM     23  O   UNL     1      51.335  59.227  47.957  1.00  0.00    -0.550 OA
ATOM     24  O   UNL     1      51.831  59.828  50.112  1.00  0.00    -0.550 OA
ENDBRANCH  21  22
ENDBRANCH  20  21
ENDBRANCH  19  20
ENDBRANCH  18  19
ENDBRANCH  17  18
ENDBRANCH  16  17
ENDBRANCH  15  16
ENDBRANCH  14  15
ENDBRANCH  13  14
ENDBRANCH   1  13
TORSDOF 20
ENDMDL
MODEL 4
REMARK VINA RESULT:    -2.972      2.748      6.706
REMARK INTER + INTRA:         -10.367
REMARK INTER:                  -6.031
REMARK INTRA:                  -4.336
REMARK UNBOUND:                -3.920
REMARK SMILES CCCCCCCCCCCCCCCCCCCCCC(=O)[O-]
REMARK SMILES IDX 12 1 11 2 10 3 9 4 8 5 7 6 6 7 5 8 4 9 3 10 2 11 1 12 13 13
REMARK SMILES IDX 14 14 15 15 16 16 17 17 18 18 19 19 20 20 21 21 22 22 23 23
REMARK SMILES IDX 24 24
REMARK H PARENT
REMARK Flexibility Score: inf
ROOT
ATOM      1  C   UNL     1      54.390  52.249  47.710  1.00  0.00     0.000 C 
ENDROOT
BRANCH   1   2
ATOM      2  C   UNL     1      53.141  53.020  47.267  1.00  0.00     0.000 C 
BRANCH   2   3
ATOM      3  C   UNL     1      53.193  54.477  47.749  1.00  0.00     0.000 C 
BRANCH   3   4
ATOM      4  C   UNL     1      52.419  55.429  46.823  1.00  0.00    -0.000 C 
BRANCH   4   5
ATOM      5  C   UNL     1      53.327  56.488  46.174  1.00  0.00    -0.000 C 
BRANCH   5   6
ATOM      6  C   UNL     1      53.708  56.131  44.728  1.00  0.00    -0.000 C 
BRANCH   6   7
ATOM      7  C   UNL     1      55.230  56.019  44.530  1.00  0.00    -0.000 C 
BRANCH   7   8
ATOM      8  C   UNL     1      55.798  54.708  45.114  1.00  0.00    -0.000 C 
BRANCH   8   9
ATOM      9  C   UNL     1      56.952  54.927  46.108  1.00  0.00    -0.000 C 
BRANCH   9  10
ATOM     10  C   UNL     1      57.008  56.361  46.655  1.00  0.00    -0.000 C 
BRANCH  10  11
ATOM     11  C   UNL     1      57.147  56.359  48.182  1.00  0.00    -0.003 C 
ATOM     12  C   UNL     1      55.839  56.768  48.854  1.00  0.00     0.004 C 
ENDBRANCH  10  11
ENDBRANCH   9  10
ENDBRANCH   8   9
ENDBRANCH   7   8
ENDBRANCH   6   7
ENDBRANCH   5   6
ENDBRANCH   4   5
ENDBRANCH   3   4
ENDBRANCH   2   3
ENDBRANCH   1   2
BRANCH   1  13
ATOM     13  C   UNL     1      55.233  53.080  48.685  1.00  0.00     0.000 C 
BRANCH  13  14
ATOM     14  C   UNL     1      55.704  52.229  49.872  1.00  0.00     0.000 C 
BRANCH  14  15
ATOM     15  C   UNL     1      54.883  50.938  50.045  1.00  0.00     0.000 C 
BRANCH  15  16
ATOM     16  C   UNL     1      53.891  50.948  51.226  1.00  0.00     0.000 C 
BRANCH  16  17
ATOM     17  C   UNL     1      52.421  51.206  50.842  1.00  0.00     0.000 C 
BRANCH  17  18
ATOM     18  C   UNL     1      51.970  52.674  50.952  1.00  0.00     0.000 C 
BRANCH  18  19
ATOM     19  C   UNL     1      52.712  53.474  52.043  1.00  0.00     0.000 C 
BRANCH  19  20
ATOM     20  C   UNL     1      53.389  54.737  51.492  1.00  0.00     0.006 C 
BRANCH  20  21
ATOM     21  C   UNL     1      52.354  55.812  51.148  1.00  0.00     0.053 C 
BRANCH  21  22
ATOM     22  C   UNL     1      52.585  57.040  51.970  1.00  0.00     0.041 C 
ATOM     23  O   UNL     1      53.130  56.952  53.101  1.00  0.00    -0.550 OA
ATOM     24  O   UNL     1      52.145  58.277  51.513  1.00  0.00    -0.550 OA
ENDBRANCH  21  22
ENDBRANCH  20  21
ENDBRANCH  19  20
ENDBRANCH  18  19
ENDBRANCH  17  18
ENDBRANCH  16  17
ENDBRANCH  15  16
ENDBRANCH  14  15
ENDBRANCH  13  14
ENDBRANCH   1  13
TORSDOF 20
ENDMDL
MODEL 5
REMARK VINA RESULT:    -2.934      2.923      6.114
REMARK INTER + INTRA:         -10.284
REMARK INTER:                  -5.993
REMARK INTRA:                  -4.292
REMARK UNBOUND:                -3.920
REMARK SMILES CCCCCCCCCCCCCCCCCCCCCC(=O)[O-]
REMARK SMILES IDX 12 1 11 2 10 3 9 4 8 5 7 6 6 7 5 8 4 9 3 10 2 11 1 12 13 13
REMARK SMILES IDX 14 14 15 15 16 16 17 17 18 18 19 19 20 20 21 21 22 22 23 23
REMARK SMILES IDX 24 24
REMARK H PARENT
REMARK Flexibility Score: inf
ROOT
ATOM      1  C   UNL     1      55.688  58.670  46.781  1.00  0.00     0.000 C 
ENDROOT
BRANCH   1   2
ATOM      2  C   UNL     1      54.885  58.907  48.065  1.00  0.00     0.000 C 
BRANCH   2   3
ATOM      3  C   UNL     1      53.407  59.181  47.748  1.00  0.00     0.000 C 
BRANCH   3   4
ATOM      4  C   UNL     1      52.484  58.864  48.936  1.00  0.00    -0.000 C 
BRANCH   4   5
ATOM      5  C   UNL     1      53.266  58.489  50.207  1.00  0.00    -0.000 C 
BRANCH   5   6
ATOM      6  C   UNL     1      52.343  58.126  51.381  1.00  0.00    -0.000 C 
BRANCH   6   7
ATOM      7  C   UNL     1      52.094  56.610  51.488  1.00  0.00    -0.000 C 
BRANCH   7   8
ATOM      8  C   UNL     1      53.410  55.811  51.595  1.00  0.00    -0.000 C 
BRANCH   8   9
ATOM      9  C   UNL     1      53.202  54.327  51.944  1.00  0.00    -0.000 C 
BRANCH   9  10
ATOM     10  C   UNL     1      51.999  53.704  51.220  1.00  0.00    -0.000 C 
BRANCH  10  11
ATOM     11  C   UNL     1      52.456  52.634  50.222  1.00  0.00    -0.003 C 
ATOM     12  C   UNL     1      53.928  52.286  50.421  1.00  0.00     0.004 C 
ENDBRANCH  10  11
ENDBRANCH   9  10
ENDBRANCH   8   9
ENDBRANCH   7   8
ENDBRANCH   6   7
ENDBRANCH   5   6
ENDBRANCH   4   5
ENDBRANCH   3   4
ENDBRANCH   2   3
ENDBRANCH   1   2
BRANCH   1  13
ATOM     13  C   UNL     1      54.757  58.487  45.576  1.00  0.00     0.000 C 
BRANCH  13  14
ATOM     14  C   UNL     1      55.228  57.328  44.687  1.00  0.00     0.000 C 
BRANCH  14  15
ATOM     15  C   UNL     1      54.140  56.260  44.469  1.00  0.00     0.000 C 
BRANCH  15  16
ATOM     16  C   UNL     1      52.693  56.749  44.680  1.00  0.00     0.000 C 
BRANCH  16  17
ATOM     17  C   UNL     1      51.982  56.171  45.918  1.00  0.00     0.000 C 
BRANCH  17  18
ATOM     18  C   UNL     1      52.752  55.055  46.647  1.00  0.00     0.000 C 
BRANCH  18  19
ATOM     19  C   UNL     1      53.368  55.500  47.990  1.00  0.00     0.000 C 
BRANCH  19  20
ATOM     20  C   UNL     1      54.857  55.139  48.104  1.00  0.00     0.006 C 
BRANCH  20  21
ATOM     21  C   UNL     1      55.189  53.900  47.266  1.00  0.00     0.053 C 
BRANCH  21  22
ATOM     22  C   UNL     1      56.363  54.170  46.379  1.00  0.00     0.041 C 
ATOM     23  O   UNL     1      56.553  53.469  45.351  1.00  0.00    -0.550 OA
ATOM     24  O   UNL     1      57.280  55.157  46.719  1.00  0.00    -0.550 OA
ENDBRANCH  21  22
ENDBRANCH  20  21
ENDBRANCH  19  20
ENDBRANCH  18  19
ENDBRANCH  17  18
ENDBRANCH  16  17
ENDBRANCH  15  16
ENDBRANCH  14  15
ENDBRANCH  13  14
ENDBRANCH   1  13
TORSDOF 20
ENDMDL
MODEL 6
REMARK VINA RESULT:    -2.931      3.158      6.385
REMARK INTER + INTRA:         -10.279
REMARK INTER:                  -6.510
REMARK INTRA:                  -3.769
REMARK UNBOUND:                -3.920
REMARK SMILES CCCCCCCCCCCCCCCCCCCCCC(=O)[O-]
REMARK SMILES IDX 12 1 11 2 10 3 9 4 8 5 7 6 6 7 5 8 4 9 3 10 2 11 1 12 13 13
REMARK SMILES IDX 14 14 15 15 16 16 17 17 18 18 19 19 20 20 21 21 22 22 23 23
REMARK SMILES IDX 24 24
REMARK H PARENT
REMARK Flexibility Score: inf
ROOT
ATOM      1  C   UNL     1      53.289  52.251  47.620  1.00  0.00     0.000 C 
ENDROOT
BRANCH   1   2
ATOM      2  C   UNL     1      54.390  53.247  47.234  1.00  0.00     0.000 C 
BRANCH   2   3
ATOM      3  C   UNL     1      55.576  53.161  48.206  1.00  0.00     0.000 C 
BRANCH   3   4
ATOM      4  C   UNL     1      55.720  54.425  49.068  1.00  0.00    -0.000 C 
BRANCH   4   5
ATOM      5  C   UNL     1      55.533  55.718  48.255  1.00  0.00    -0.000 C 
BRANCH   5   6
ATOM      6  C   UNL     1      54.562  56.702  48.927  1.00  0.00    -0.000 C 
BRANCH   6   7
ATOM      7  C   UNL     1      53.098  56.455  48.519  1.00  0.00    -0.000 C 
BRANCH   7   8
ATOM      8  C   UNL     1      52.767  57.066  47.141  1.00  0.00    -0.000 C 
BRANCH   8   9
ATOM      9  C   UNL     1      52.360  56.021  46.087  1.00  0.00    -0.000 C 
BRANCH   9  10
ATOM     10  C   UNL     1      52.850  56.372  44.675  1.00  0.00    -0.000 C 
BRANCH  10  11
ATOM     11  C   UNL     1      54.293  56.889  44.709  1.00  0.00    -0.003 C 
ATOM     12  C   UNL     1      55.293  55.737  44.657  1.00  0.00     0.004 C 
ENDBRANCH  10  11
ENDBRANCH   9  10
ENDBRANCH   8   9
ENDBRANCH   7   8
ENDBRANCH   6   7
ENDBRANCH   5   6
ENDBRANCH   4   5
ENDBRANCH   3   4
ENDBRANCH   2   3
ENDBRANCH   1   2
BRANCH   1  13
ATOM     13  C   UNL     1      52.363  52.843  48.689  1.00  0.00     0.000 C 
BRANCH  13  14
ATOM     14  C   UNL     1      52.515  52.099  50.023  1.00  0.00     0.000 C 
BRANCH  14  15
ATOM     15  C   UNL     1      51.972  52.900  51.221  1.00  0.00     0.000 C 
BRANCH  15  16
ATOM     16  C   UNL     1      52.557  54.319  51.377  1.00  0.00     0.000 C 
BRANCH  16  17
ATOM     17  C   UNL     1      53.467  54.519  52.603  1.00  0.00     0.000 C 
BRANCH  17  18
ATOM     18  C   UNL     1      54.715  55.385  52.350  1.00  0.00     0.000 C 
BRANCH  18  19
ATOM     19  C   UNL     1      54.822  56.609  53.283  1.00  0.00     0.000 C 
BRANCH  19  20
ATOM     20  C   UNL     1      53.450  57.196  53.646  1.00  0.00     0.006 C 
BRANCH  20  21
ATOM     21  C   UNL     1      53.224  58.540  52.947  1.00  0.00     0.053 C 
BRANCH  21  22
ATOM     22  C   UNL     1      52.335  58.365  51.756  1.00  0.00     0.041 C 
ATOM     23  O   UNL     1      51.435  57.484  51.762  1.00  0.00    -0.550 OA
ATOM     24  O   UNL     1      52.537  59.135  50.617  1.00  0.00    -0.550 OA
ENDBRANCH  21  22
ENDBRANCH  20  21
ENDBRANCH  19  20
ENDBRANCH  18  19
ENDBRANCH  17  18
ENDBRANCH  16  17
ENDBRANCH  15  16
ENDBRANCH  14  15
ENDBRANCH  13  14
ENDBRANCH   1  13
TORSDOF 20
ENDMDL
MODEL 7
REMARK VINA RESULT:    -2.879      3.758      7.448
REMARK INTER + INTRA:         -10.166
REMARK INTER:                  -6.956
REMARK INTRA:                  -3.210
REMARK UNBOUND:                -3.920
REMARK SMILES CCCCCCCCCCCCCCCCCCCCCC(=O)[O-]
REMARK SMILES IDX 12 1 11 2 10 3 9 4 8 5 7 6 6 7 5 8 4 9 3 10 2 11 1 12 13 13
REMARK SMILES IDX 14 14 15 15 16 16 17 17 18 18 19 19 20 20 21 21 22 22 23 23
REMARK SMILES IDX 24 24
REMARK H PARENT
REMARK Flexibility Score: inf
ROOT
ATOM      1  C   UNL     1      54.723  53.292  48.098  1.00  0.00     0.000 C 
ENDROOT
BRANCH   1   2
ATOM      2  C   UNL     1      55.621  54.136  47.186  1.00  0.00     0.000 C 
BRANCH   2   3
ATOM      3  C   UNL     1      55.068  54.178  45.753  1.00  0.00     0.000 C 
BRANCH   3   4
ATOM      4  C   UNL     1      55.165  55.579  45.128  1.00  0.00    -0.000 C 
BRANCH   4   5
ATOM      5  C   UNL     1      53.794  56.126  44.695  1.00  0.00    -0.000 C 
BRANCH   5   6
ATOM      6  C   UNL     1      52.709  55.912  45.762  1.00  0.00    -0.000 C 
BRANCH   6   7
ATOM      7  C   UNL     1      52.434  57.182  46.587  1.00  0.00    -0.000 C 
BRANCH   7   8
ATOM      8  C   UNL     1      53.450  57.363  47.735  1.00  0.00    -0.000 C 
BRANCH   8   9
ATOM      9  C   UNL     1      53.103  56.553  48.996  1.00  0.00    -0.000 C 
BRANCH   9  10
ATOM     10  C   UNL     1      54.289  56.408  49.960  1.00  0.00    -0.000 C 
BRANCH  10  11
ATOM     11  C   UNL     1      53.803  56.233  51.404  1.00  0.00    -0.003 C 
ATOM     12  C   UNL     1      52.280  56.285  51.483  1.00  0.00     0.004 C 
ENDBRANCH  10  11
ENDBRANCH   9  10
ENDBRANCH   8   9
ENDBRANCH   7   8
ENDBRANCH   6   7
ENDBRANCH   5   6
ENDBRANCH   4   5
ENDBRANCH   3   4
ENDBRANCH   2   3
ENDBRANCH   1   2
BRANCH   1  13
ATOM     13  C   UNL     1      53.466  52.826  47.353  1.00  0.00     0.000 C 
BRANCH  13  14
ATOM     14  C   UNL     1      52.389  52.345  48.336  1.00  0.00     0.000 C 
BRANCH  14  15
ATOM     15  C   UNL     1      52.411  53.114  49.670  1.00  0.00     0.000 C 
BRANCH  15  16
ATOM     16  C   UNL     1      52.008  52.286  50.908  1.00  0.00     0.000 C 
BRANCH  16  17
ATOM     17  C   UNL     1      52.485  50.822  50.898  1.00  0.00     0.000 C 
BRANCH  17  18
ATOM     18  C   UNL     1      53.996  50.629  51.127  1.00  0.00     0.000 C 
BRANCH  18  19
ATOM     19  C   UNL     1      54.707  49.877  49.983  1.00  0.00     0.000 C 
BRANCH  19  20
ATOM     20  C   UNL     1      55.165  48.470  50.398  1.00  0.00     0.006 C 
BRANCH  20  21
ATOM     21  C   UNL     1      54.279  47.394  49.764  1.00  0.00     0.053 C 
BRANCH  21  22
ATOM     22  C   UNL     1      53.454  46.714  50.811  1.00  0.00     0.041 C 
ATOM     23  O   UNL     1      52.437  47.285  51.285  1.00  0.00    -0.550 OA
ATOM     24  O   UNL     1      53.842  45.475  51.307  1.00  0.00    -0.550 OA
ENDBRANCH  21  22
ENDBRANCH  20  21
ENDBRANCH  19  20
ENDBRANCH  18  19
ENDBRANCH  17  18
ENDBRANCH  16  17
ENDBRANCH  15  16
ENDBRANCH  14  15
ENDBRANCH  13  14
ENDBRANCH   1  13
TORSDOF 20
ENDMDL
MODEL 8
REMARK VINA RESULT:    -2.872      3.269      7.155
REMARK INTER + INTRA:         -10.151
REMARK INTER:                  -6.809
REMARK INTRA:                  -3.342
REMARK UNBOUND:                -3.920
REMARK SMILES CCCCCCCCCCCCCCCCCCCCCC(=O)[O-]
REMARK SMILES IDX 12 1 11 2 10 3 9 4 8 5 7 6 6 7 5 8 4 9 3 10 2 11 1 12 13 13
REMARK SMILES IDX 14 14 15 15 16 16 17 17 18 18 19 19 20 20 21 21 22 22 23 23
REMARK SMILES IDX 24 24
REMARK H PARENT
REMARK Flexibility Score: inf
ROOT
ATOM      1  C   UNL     1      52.380  56.945  51.241  1.00  0.00     0.000 C 
ENDROOT
BRANCH   1   2
ATOM      2  C   UNL     1      52.368  58.463  51.020  1.00  0.00     0.000 C 
BRANCH   2   3
ATOM      3  C   UNL     1      52.672  58.809  49.555  1.00  0.00     0.000 C 
BRANCH   3   4
ATOM      4  C   UNL     1      53.257  57.617  48.780  1.00  0.00    -0.000 C 
BRANCH   4   5
ATOM      5  C   UNL     1      54.564  57.974  48.050  1.00  0.00    -0.000 C 
BRANCH   5   6
ATOM      6  C   UNL     1      54.380  59.114  47.036  1.00  0.00    -0.000 C 
BRANCH   6   7
ATOM      7  C   UNL     1      54.519  58.635  45.579  1.00  0.00    -0.000 C 
BRANCH   7   8
ATOM      8  C   UNL     1      55.011  57.175  45.491  1.00  0.00    -0.000 C 
BRANCH   8   9
ATOM      9  C   UNL     1      54.089  56.264  44.663  1.00  0.00    -0.000 C 
BRANCH   9  10
ATOM     10  C   UNL     1      52.990  55.599  45.504  1.00  0.00    -0.000 C 
BRANCH  10  11
ATOM     11  C   UNL     1      51.657  56.340  45.347  1.00  0.00    -0.003 C 
ATOM     12  C   UNL     1      51.299  56.526  43.875  1.00  0.00     0.004 C 
ENDBRANCH  10  11
ENDBRANCH   9  10
ENDBRANCH   8   9
ENDBRANCH   7   8
ENDBRANCH   6   7
ENDBRANCH   5   6
ENDBRANCH   4   5
ENDBRANCH   3   4
ENDBRANCH   2   3
ENDBRANCH   1   2
BRANCH   1  13
ATOM     13  C   UNL     1      53.183  56.578  52.495  1.00  0.00     0.000 C 
BRANCH  13  14
ATOM     14  C   UNL     1      54.462  55.815  52.127  1.00  0.00     0.000 C 
BRANCH  14  15
ATOM     15  C   UNL     1      54.546  54.430  52.795  1.00  0.00     0.000 C 
BRANCH  15  16
ATOM     16  C   UNL     1      55.319  53.363  51.991  1.00  0.00     0.000 C 
BRANCH  16  17
ATOM     17  C   UNL     1      55.887  53.845  50.643  1.00  0.00     0.000 C 
BRANCH  17  18
ATOM     18  C   UNL     1      55.224  53.222  49.400  1.00  0.00     0.000 C 
BRANCH  18  19
ATOM     19  C   UNL     1      54.356  54.212  48.596  1.00  0.00     0.000 C 
BRANCH  19  20
ATOM     20  C   UNL     1      52.858  54.068  48.903  1.00  0.00     0.006 C 
BRANCH  20  21
ATOM     21  C   UNL     1      52.469  52.596  49.068  1.00  0.00     0.053 C 
BRANCH  21  22
ATOM     22  C   UNL     1      52.109  52.307  50.491  1.00  0.00     0.041 C 
ATOM     23  O   UNL     1      51.687  53.229  51.237  1.00  0.00    -0.550 OA
ATOM     24  O   UNL     1      52.295  51.032  51.011  1.00  0.00    -0.550 OA
ENDBRANCH  21  22
ENDBRANCH  20  21
ENDBRANCH  19  20
ENDBRANCH  18  19
ENDBRANCH  17  18
ENDBRANCH  16  17
ENDBRANCH  15  16
ENDBRANCH  14  15
ENDBRANCH  13  14
ENDBRANCH   1  13
TORSDOF 20
ENDMDL
MODEL 9
REMARK VINA RESULT:    -2.859      1.747      4.023
REMARK INTER + INTRA:         -10.122
REMARK INTER:                  -6.121
REMARK INTRA:                  -4.001
REMARK UNBOUND:                -3.920
REMARK SMILES CCCCCCCCCCCCCCCCCCCCCC(=O)[O-]
REMARK SMILES IDX 12 1 11 2 10 3 9 4 8 5 7 6 6 7 5 8 4 9 3 10 2 11 1 12 13 13
REMARK SMILES IDX 14 14 15 15 16 16 17 17 18 18 19 19 20 20 21 21 22 22 23 23
REMARK SMILES IDX 24 24
REMARK H PARENT
REMARK Flexibility Score: inf
ROOT
ATOM      1  C   UNL     1      51.975  52.784  50.998  1.00  0.00     0.000 C 
ENDROOT
BRANCH   1   2
ATOM      2  C   UNL     1      52.938  53.178  52.124  1.00  0.00     0.000 C 
BRANCH   2   3
ATOM      3  C   UNL     1      53.187  54.694  52.131  1.00  0.00     0.000 C 
BRANCH   3   4
ATOM      4  C   UNL     1      52.390  55.424  51.038  1.00  0.00    -0.000 C 
BRANCH   4   5
ATOM      5  C   UNL     1      53.299  56.072  49.979  1.00  0.00    -0.000 C 
BRANCH   5   6
ATOM      6  C   UNL     1      54.604  56.619  50.579  1.00  0.00    -0.000 C 
BRANCH   6   7
ATOM      7  C   UNL     1      55.855  55.964  49.964  1.00  0.00    -0.000 C 
BRANCH   7   8
ATOM      8  C   UNL     1      56.673  55.177  51.010  1.00  0.00    -0.000 C 
BRANCH   8   9
ATOM      9  C   UNL     1      57.006  53.739  50.575  1.00  0.00    -0.000 C 
BRANCH   9  10
ATOM     10  C   UNL     1      56.585  52.686  51.610  1.00  0.00    -0.000 C 
BRANCH  10  11
ATOM     11  C   UNL     1      56.552  51.286  50.986  1.00  0.00    -0.003 C 
ATOM     12  C   UNL     1      55.501  50.407  51.659  1.00  0.00     0.004 C 
ENDBRANCH  10  11
ENDBRANCH   9  10
ENDBRANCH   8   9
ENDBRANCH   7   8
ENDBRANCH   6   7
ENDBRANCH   5   6
ENDBRANCH   4   5
ENDBRANCH   3   4
ENDBRANCH   2   3
ENDBRANCH   1   2
BRANCH   1  13
ATOM     13  C   UNL     1      52.636  51.793  50.031  1.00  0.00     0.000 C 
BRANCH  13  14
ATOM     14  C   UNL     1      52.863  52.434  48.655  1.00  0.00     0.000 C 
BRANCH  14  15
ATOM     15  C   UNL     1      54.330  52.839  48.418  1.00  0.00     0.000 C 
BRANCH  15  16
ATOM     16  C   UNL     1      55.010  52.157  47.214  1.00  0.00     0.000 C 
BRANCH  16  17
ATOM     17  C   UNL     1      55.615  53.118  46.174  1.00  0.00     0.000 C 
BRANCH  17  18
ATOM     18  C   UNL     1      55.995  54.508  46.718  1.00  0.00     0.000 C 
BRANCH  18  19
ATOM     19  C   UNL     1      55.267  55.672  46.015  1.00  0.00     0.000 C 
BRANCH  19  20
ATOM     20  C   UNL     1      53.963  55.228  45.335  1.00  0.00     0.006 C 
BRANCH  20  21
ATOM     21  C   UNL     1      52.742  55.661  46.150  1.00  0.00     0.053 C 
BRANCH  21  22
ATOM     22  C   UNL     1      51.771  56.399  45.282  1.00  0.00     0.041 C 
ATOM     23  O   UNL     1      50.671  56.791  45.755  1.00  0.00    -0.550 OA
ATOM     24  O   UNL     1      52.054  56.602  43.937  1.00  0.00    -0.550 OA
ENDBRANCH  21  22
ENDBRANCH  20  21
ENDBRANCH  19  20
ENDBRANCH  18  19
ENDBRANCH  17  18
ENDBRANCH  16  17
ENDBRANCH  15  16
ENDBRANCH  14  15
ENDBRANCH  13  14
ENDBRANCH   1  13
TORSDOF 20
ENDMDL
