MODEL 1
REMARK VINA RESULT:    -7.860      0.000      0.000
REMARK INTER + INTRA:         -10.082
REMARK INTER:                  -9.698
REMARK INTRA:                  -0.384
REMARK UNBOUND:                -0.384
REMARK SMILES Oc1cc(O)c2cc(O)c(-c3cc(O)c(O)c(O)c3)[o+]c2c1
REMARK SMILES IDX 10 1 20 2 21 3 22 4 2 5 3 6 4 7 6 8 7 9 8 10 11 11 12 12
REMARK SMILES IDX 13 13 19 14 15 15 17 16 14 17 16 19 18 21 9 23 1 25 5 27
REMARK H PARENT 14 18 16 20 18 22 9 24 1 26 5 28
REMARK Flexibility Score: inf
ROOT
ATOM      1  C   UNL     1     -28.136 -26.510 104.619  1.00  0.00     0.402 A 
ATOM      2  O   UNL     1     -27.151 -27.266 105.100  1.00  0.00    -0.202 OA
ATOM      3  C   UNL     1     -27.036 -27.583 106.385  1.00  0.00     0.368 A 
ATOM      4  C   UNL     1     -25.964 -28.381 106.793  1.00  0.00     0.162 A 
ATOM      5  C   UNL     1     -25.816 -28.729 108.140  1.00  0.00     0.128 A 
ATOM      6  C   UNL     1     -26.743 -28.274 109.081  1.00  0.00     0.093 A 
ATOM      7  C   UNL     1     -27.825 -27.473 108.697  1.00  0.00     0.136 A 
ATOM      8  C   UNL     1     -27.982 -27.120 107.331  1.00  0.00     0.125 A 
ATOM      9  C   UNL     1     -29.042 -26.334 106.852  1.00  0.00     0.078 A 
ATOM     10  C   UNL     1     -29.132 -26.031 105.491  1.00  0.00     0.223 A 
ENDROOT
BRANCH   1  11
ATOM     11  C   UNL     1     -28.150 -26.217 103.168  1.00  0.00     0.091 A 
ATOM     12  C   UNL     1     -27.532 -25.068 102.647  1.00  0.00     0.068 A 
ATOM     13  C   UNL     1     -27.537 -24.822 101.267  1.00  0.00     0.162 A 
ATOM     14  C   UNL     1     -28.746 -27.133 102.286  1.00  0.00     0.068 A 
ATOM     15  C   UNL     1     -28.153 -25.728 100.395  1.00  0.00     0.200 A 
ATOM     16  C   UNL     1     -28.756 -26.890 100.905  1.00  0.00     0.162 A 
BRANCH  13  17
ATOM     17  O   UNL     1     -26.928 -23.678 100.754  1.00  0.00    -0.504 OA
ATOM     18  H   UNL     1     -26.176 -23.210 101.248  1.00  0.00     0.293 HD
ENDBRANCH  13  17
BRANCH  15  19
ATOM     19  O   UNL     1     -28.152 -25.463  99.025  1.00  0.00    -0.502 OA
ATOM     20  H   UNL     1     -27.447 -24.880  98.589  1.00  0.00     0.293 HD
ENDBRANCH  15  19
BRANCH  16  21
ATOM     21  O   UNL     1     -29.362 -27.799 100.040  1.00  0.00    -0.504 OA
ATOM     22  H   UNL     1     -28.896 -28.651  99.752  1.00  0.00     0.293 HD
ENDBRANCH  16  21
ENDBRANCH   1  11
BRANCH  10  23
ATOM     23  O   UNL     1     -30.212 -25.291 105.008  1.00  0.00    -0.500 OA
ATOM     24  H   UNL     1     -30.079 -24.466 104.436  1.00  0.00     0.294 HD
ENDBRANCH  10  23
BRANCH   5  25
ATOM     25  O   UNL     1     -24.750 -29.523 108.555  1.00  0.00    -0.507 OA
ATOM     26  H   UNL     1     -23.820 -29.406 108.170  1.00  0.00     0.293 HD
ENDBRANCH   5  25
BRANCH   7  27
ATOM     27  O   UNL     1     -28.707 -27.058 109.699  1.00  0.00    -0.507 OA
ATOM     28  H   UNL     1     -28.844 -27.543 110.574  1.00  0.00     0.293 HD
ENDBRANCH   7  27
TORSDOF 7
ENDMDL
MODEL 2
REMARK VINA RESULT:    -7.850      0.069      1.790
REMARK INTER + INTRA:         -10.069
REMARK INTER:                  -9.691
REMARK INTRA:                  -0.379
REMARK UNBOUND:                -0.384
REMARK SMILES Oc1cc(O)c2cc(O)c(-c3cc(O)c(O)c(O)c3)[o+]c2c1
REMARK SMILES IDX 10 1 20 2 21 3 22 4 2 5 3 6 4 7 6 8 7 9 8 10 11 11 12 12
REMARK SMILES IDX 13 13 19 14 15 15 17 16 14 17 16 19 18 21 9 23 1 25 5 27
REMARK H PARENT 14 18 16 20 18 22 9 24 1 26 5 28
REMARK Flexibility Score: inf
ROOT
ATOM      1  C   UNL     1     -28.116 -26.557 104.602  1.00  0.00     0.402 A 
ATOM      2  O   UNL     1     -27.141 -27.306 105.111  1.00  0.00    -0.202 OA
ATOM      3  C   UNL     1     -27.033 -27.583 106.406  1.00  0.00     0.368 A 
ATOM      4  C   UNL     1     -25.970 -28.376 106.845  1.00  0.00     0.162 A 
ATOM      5  C   UNL     1     -25.830 -28.682 108.202  1.00  0.00     0.128 A 
ATOM      6  C   UNL     1     -26.757 -28.189 109.124  1.00  0.00     0.093 A 
ATOM      7  C   UNL     1     -27.831 -27.392 108.710  1.00  0.00     0.136 A 
ATOM      8  C   UNL     1     -27.979 -27.082 107.332  1.00  0.00     0.125 A 
ATOM      9  C   UNL     1     -29.030 -26.302 106.825  1.00  0.00     0.078 A 
ATOM     10  C   UNL     1     -29.112 -26.042 105.454  1.00  0.00     0.223 A 
ENDROOT
BRANCH   1  11
ATOM     11  C   UNL     1     -28.122 -26.310 103.143  1.00  0.00     0.091 A 
ATOM     12  C   UNL     1     -28.757 -27.194 102.254  1.00  0.00     0.068 A 
ATOM     13  C   UNL     1     -28.771 -26.930 100.877  1.00  0.00     0.162 A 
ATOM     14  C   UNL     1     -27.530 -25.141 102.638  1.00  0.00     0.068 A 
ATOM     15  C   UNL     1     -28.159 -25.774 100.379  1.00  0.00     0.200 A 
ATOM     16  C   UNL     1     -27.540 -24.874 101.262  1.00  0.00     0.162 A 
BRANCH  13  17
ATOM     17  O   UNL     1     -29.397 -27.813  99.998  1.00  0.00    -0.504 OA
ATOM     18  H   UNL     1     -29.186 -27.814  99.006  1.00  0.00     0.293 HD
ENDBRANCH  13  17
BRANCH  15  19
ATOM     19  O   UNL     1     -28.180 -25.530  99.005  1.00  0.00    -0.502 OA
ATOM     20  H   UNL     1     -27.713 -26.139  98.342  1.00  0.00     0.293 HD
ENDBRANCH  15  19
BRANCH  16  21
ATOM     21  O   UNL     1     -26.937 -23.717 100.771  1.00  0.00    -0.504 OA
ATOM     22  H   UNL     1     -27.397 -23.127 100.087  1.00  0.00     0.293 HD
ENDBRANCH  16  21
ENDBRANCH   1  11
BRANCH  10  23
ATOM     23  O   UNL     1     -30.183 -25.309 104.943  1.00  0.00    -0.500 OA
ATOM     24  H   UNL     1     -30.163 -24.917 104.009  1.00  0.00     0.294 HD
ENDBRANCH  10  23
BRANCH   5  25
ATOM     25  O   UNL     1     -24.773 -29.472 108.647  1.00  0.00    -0.507 OA
ATOM     26  H   UNL     1     -24.437 -30.261 108.106  1.00  0.00     0.293 HD
ENDBRANCH   5  25
BRANCH   7  27
ATOM     27  O   UNL     1     -28.713 -26.937 109.695  1.00  0.00    -0.507 OA
ATOM     28  H   UNL     1     -28.501 -26.202 110.354  1.00  0.00     0.293 HD
ENDBRANCH   7  27
TORSDOF 7
ENDMDL
MODEL 3
REMARK VINA RESULT:    -7.076      3.712      6.326
REMARK INTER + INTRA:          -9.115
REMARK INTER:                  -9.050
REMARK INTRA:                  -0.065
REMARK UNBOUND:                -0.384
REMARK SMILES Oc1cc(O)c2cc(O)c(-c3cc(O)c(O)c(O)c3)[o+]c2c1
REMARK SMILES IDX 10 1 20 2 21 3 22 4 2 5 3 6 4 7 6 8 7 9 8 10 11 11 12 12
REMARK SMILES IDX 13 13 19 14 15 15 17 16 14 17 16 19 18 21 9 23 1 25 5 27
REMARK H PARENT 14 18 16 20 18 22 9 24 1 26 5 28
REMARK Flexibility Score: inf
ROOT
ATOM      1  C   UNL     1     -25.623 -23.758 102.648  1.00  0.00     0.402 A 
ATOM      2  O   UNL     1     -26.877 -23.790 102.203  1.00  0.00    -0.202 OA
ATOM      3  C   UNL     1     -27.796 -24.628 102.670  1.00  0.00     0.368 A 
ATOM      4  C   UNL     1     -29.086 -24.589 102.136  1.00  0.00     0.162 A 
ATOM      5  C   UNL     1     -30.072 -25.461 102.607  1.00  0.00     0.128 A 
ATOM      6  C   UNL     1     -29.765 -26.378 103.616  1.00  0.00     0.093 A 
ATOM      7  C   UNL     1     -28.479 -26.438 104.167  1.00  0.00     0.136 A 
ATOM      8  C   UNL     1     -27.475 -25.552 103.694  1.00  0.00     0.125 A 
ATOM      9  C   UNL     1     -26.164 -25.531 104.197  1.00  0.00     0.078 A 
ATOM     10  C   UNL     1     -25.231 -24.627 103.683  1.00  0.00     0.223 A 
ENDROOT
BRANCH   1  11
ATOM     11  C   UNL     1     -24.688 -22.784 102.039  1.00  0.00     0.091 A 
ATOM     12  C   UNL     1     -23.403 -23.168 101.618  1.00  0.00     0.068 A 
ATOM     13  C   UNL     1     -22.542 -22.235 101.023  1.00  0.00     0.162 A 
ATOM     14  C   UNL     1     -25.111 -21.462 101.826  1.00  0.00     0.068 A 
ATOM     15  C   UNL     1     -22.963 -20.913 100.834  1.00  0.00     0.200 A 
ATOM     16  C   UNL     1     -24.253 -20.526 101.233  1.00  0.00     0.162 A 
BRANCH  13  17
ATOM     17  O   UNL     1     -21.266 -22.618 100.613  1.00  0.00    -0.504 OA
ATOM     18  H   UNL     1     -20.667 -23.187 101.201  1.00  0.00     0.293 HD
ENDBRANCH  13  17
BRANCH  15  19
ATOM     19  O   UNL     1     -22.090 -19.998 100.244  1.00  0.00    -0.502 OA
ATOM     20  H   UNL     1     -21.411 -19.476 100.785  1.00  0.00     0.293 HD
ENDBRANCH  15  19
BRANCH  16  21
ATOM     21  O   UNL     1     -24.678 -19.213 101.039  1.00  0.00    -0.504 OA
ATOM     22  H   UNL     1     -24.204 -18.590 100.396  1.00  0.00     0.293 HD
ENDBRANCH  16  21
ENDBRANCH   1  11
BRANCH  10  23
ATOM     23  O   UNL     1     -23.943 -24.572 104.217  1.00  0.00    -0.500 OA
ATOM     24  H   UNL     1     -23.711 -23.955 104.986  1.00  0.00     0.294 HD
ENDBRANCH  10  23
BRANCH   5  25
ATOM     25  O   UNL     1     -31.360 -25.427 102.080  1.00  0.00    -0.507 OA
ATOM     26  H   UNL     1     -31.590 -25.896 101.211  1.00  0.00     0.293 HD
ENDBRANCH   5  25
BRANCH   7  27
ATOM     27  O   UNL     1     -28.252 -27.385 105.170  1.00  0.00    -0.507 OA
ATOM     28  H   UNL     1     -28.103 -27.159 106.143  1.00  0.00     0.293 HD
ENDBRANCH   7  27
TORSDOF 7
ENDMDL
MODEL 4
REMARK VINA RESULT:    -7.037      1.601      7.115
REMARK INTER + INTRA:          -9.067
REMARK INTER:                  -8.806
REMARK INTRA:                  -0.261
REMARK UNBOUND:                -0.384
REMARK SMILES Oc1cc(O)c2cc(O)c(-c3cc(O)c(O)c(O)c3)[o+]c2c1
REMARK SMILES IDX 10 1 20 2 21 3 22 4 2 5 3 6 4 7 6 8 7 9 8 10 11 11 12 12
REMARK SMILES IDX 13 13 19 14 15 15 17 16 14 17 16 19 18 21 9 23 1 25 5 27
REMARK H PARENT 14 18 16 20 18 22 9 24 1 26 5 28
REMARK Flexibility Score: inf
ROOT
ATOM      1  C   UNL     1     -27.071 -25.582 105.055  1.00  0.00     0.402 A 
ATOM      2  O   UNL     1     -27.373 -26.067 103.853  1.00  0.00    -0.202 OA
ATOM      3  C   UNL     1     -27.546 -25.302 102.780  1.00  0.00     0.368 A 
ATOM      4  C   UNL     1     -27.865 -25.904 101.561  1.00  0.00     0.162 A 
ATOM      5  C   UNL     1     -28.055 -25.124 100.417  1.00  0.00     0.128 A 
ATOM      6  C   UNL     1     -27.926 -23.735 100.493  1.00  0.00     0.093 A 
ATOM      7  C   UNL     1     -27.607 -23.107 101.704  1.00  0.00     0.136 A 
ATOM      8  C   UNL     1     -27.410 -23.895 102.868  1.00  0.00     0.125 A 
ATOM      9  C   UNL     1     -27.075 -23.355 104.119  1.00  0.00     0.078 A 
ATOM     10  C   UNL     1     -26.893 -24.196 105.220  1.00  0.00     0.223 A 
ENDROOT
BRANCH   1  11
ATOM     11  C   UNL     1     -26.915 -26.536 106.176  1.00  0.00     0.091 A 
ATOM     12  C   UNL     1     -27.793 -26.528 107.273  1.00  0.00     0.068 A 
ATOM     13  C   UNL     1     -27.641 -27.455 108.314  1.00  0.00     0.162 A 
ATOM     14  C   UNL     1     -25.902 -27.508 106.119  1.00  0.00     0.068 A 
ATOM     15  C   UNL     1     -26.615 -28.406 108.260  1.00  0.00     0.200 A 
ATOM     16  C   UNL     1     -25.745 -28.436 107.158  1.00  0.00     0.162 A 
BRANCH  13  17
ATOM     17  O   UNL     1     -28.511 -27.440 109.402  1.00  0.00    -0.504 OA
ATOM     18  H   UNL     1     -28.501 -28.174 110.101  1.00  0.00     0.293 HD
ENDBRANCH  13  17
BRANCH  15  19
ATOM     19  O   UNL     1     -26.477 -29.318 109.307  1.00  0.00    -0.502 OA
ATOM     20  H   UNL     1     -26.411 -29.023 110.274  1.00  0.00     0.293 HD
ENDBRANCH  15  19
BRANCH  16  21
ATOM     21  O   UNL     1     -24.727 -29.387 107.098  1.00  0.00    -0.504 OA
ATOM     22  H   UNL     1     -24.911 -30.345 106.825  1.00  0.00     0.293 HD
ENDBRANCH  16  21
ENDBRANCH   1  11
BRANCH  10  23
ATOM     23  O   UNL     1     -26.511 -23.664 106.453  1.00  0.00    -0.500 OA
ATOM     24  H   UNL     1     -26.519 -24.221 107.299  1.00  0.00     0.294 HD
ENDBRANCH  10  23
BRANCH   5  25
ATOM     25  O   UNL     1     -28.374 -25.717  99.198  1.00  0.00    -0.507 OA
ATOM     26  H   UNL     1     -27.657 -25.966  98.525  1.00  0.00     0.293 HD
ENDBRANCH   5  25
BRANCH   7  27
ATOM     27  O   UNL     1     -27.498 -21.713 101.697  1.00  0.00    -0.507 OA
ATOM     28  H   UNL     1     -27.302 -21.161 100.875  1.00  0.00     0.293 HD
ENDBRANCH   7  27
TORSDOF 7
ENDMDL
MODEL 5
REMARK VINA RESULT:    -7.009      5.344      8.021
REMARK INTER + INTRA:          -9.032
REMARK INTER:                  -8.734
REMARK INTRA:                  -0.298
REMARK UNBOUND:                -0.384
REMARK SMILES Oc1cc(O)c2cc(O)c(-c3cc(O)c(O)c(O)c3)[o+]c2c1
REMARK SMILES IDX 10 1 20 2 21 3 22 4 2 5 3 6 4 7 6 8 7 9 8 10 11 11 12 12
REMARK SMILES IDX 13 13 19 14 15 15 17 16 14 17 16 19 18 21 9 23 1 25 5 27
REMARK H PARENT 14 18 16 20 18 22 9 24 1 26 5 28
REMARK Flexibility Score: inf
ROOT
ATOM      1  C   UNL     1     -28.785 -21.037 103.535  1.00  0.00     0.402 A 
ATOM      2  O   UNL     1     -29.437 -22.122 103.948  1.00  0.00    -0.202 OA
ATOM      3  C   UNL     1     -29.325 -23.308 103.361  1.00  0.00     0.368 A 
ATOM      4  C   UNL     1     -30.055 -24.388 103.867  1.00  0.00     0.162 A 
ATOM      5  C   UNL     1     -29.958 -25.647 103.267  1.00  0.00     0.128 A 
ATOM      6  C   UNL     1     -29.130 -25.827 102.156  1.00  0.00     0.093 A 
ATOM      7  C   UNL     1     -28.390 -24.761 101.630  1.00  0.00     0.136 A 
ATOM      8  C   UNL     1     -28.482 -23.481 102.237  1.00  0.00     0.125 A 
ATOM      9  C   UNL     1     -27.767 -22.359 101.787  1.00  0.00     0.078 A 
ATOM     10  C   UNL     1     -27.907 -21.131 102.439  1.00  0.00     0.223 A 
ENDROOT
BRANCH   1  11
ATOM     11  C   UNL     1     -29.001 -19.768 104.266  1.00  0.00     0.091 A 
ATOM     12  C   UNL     1     -29.685 -18.691 103.677  1.00  0.00     0.068 A 
ATOM     13  C   UNL     1     -29.899 -17.506 104.395  1.00  0.00     0.162 A 
ATOM     14  C   UNL     1     -28.565 -19.655 105.596  1.00  0.00     0.068 A 
ATOM     15  C   UNL     1     -29.440 -17.393 105.713  1.00  0.00     0.200 A 
ATOM     16  C   UNL     1     -28.775 -18.472 106.317  1.00  0.00     0.162 A 
BRANCH  13  17
ATOM     17  O   UNL     1     -30.571 -16.438 103.805  1.00  0.00    -0.504 OA
ATOM     18  H   UNL     1     -30.075 -15.706 103.309  1.00  0.00     0.293 HD
ENDBRANCH  13  17
BRANCH  15  19
ATOM     19  O   UNL     1     -29.659 -16.204 106.410  1.00  0.00    -0.502 OA
ATOM     20  H   UNL     1     -29.484 -16.122 107.405  1.00  0.00     0.293 HD
ENDBRANCH  15  19
BRANCH  16  21
ATOM     21  O   UNL     1     -28.324 -18.366 107.632  1.00  0.00    -0.504 OA
ATOM     22  H   UNL     1     -28.107 -17.468 108.049  1.00  0.00     0.293 HD
ENDBRANCH  16  21
ENDBRANCH   1  11
BRANCH  10  23
ATOM     23  O   UNL     1     -27.159 -20.029 102.024  1.00  0.00    -0.500 OA
ATOM     24  H   UNL     1     -27.594 -19.139 101.812  1.00  0.00     0.294 HD
ENDBRANCH  10  23
BRANCH   5  25
ATOM     25  O   UNL     1     -30.681 -26.728 103.766  1.00  0.00    -0.507 OA
ATOM     26  H   UNL     1     -30.769 -27.593 103.245  1.00  0.00     0.293 HD
ENDBRANCH   5  25
BRANCH   7  27
ATOM     27  O   UNL     1     -27.587 -25.022 100.516  1.00  0.00    -0.507 OA
ATOM     28  H   UNL     1     -27.104 -25.894 100.354  1.00  0.00     0.293 HD
ENDBRANCH   7  27
TORSDOF 7
ENDMDL
MODEL 6
REMARK VINA RESULT:    -6.954      4.958      7.434
REMARK INTER + INTRA:          -8.964
REMARK INTER:                  -8.879
REMARK INTRA:                  -0.085
REMARK UNBOUND:                -0.384
REMARK SMILES Oc1cc(O)c2cc(O)c(-c3cc(O)c(O)c(O)c3)[o+]c2c1
REMARK SMILES IDX 10 1 20 2 21 3 22 4 2 5 3 6 4 7 6 8 7 9 8 10 11 11 12 12
REMARK SMILES IDX 13 13 19 14 15 15 17 16 14 17 16 19 18 21 9 23 1 25 5 27
REMARK H PARENT 14 18 16 20 18 22 9 24 1 26 5 28
REMARK Flexibility Score: inf
ROOT
ATOM      1  C   UNL     1     -29.218 -21.956 104.262  1.00  0.00     0.402 A 
ATOM      2  O   UNL     1     -28.958 -22.268 102.994  1.00  0.00    -0.202 OA
ATOM      3  C   UNL     1     -28.874 -23.519 102.554  1.00  0.00     0.368 A 
ATOM      4  C   UNL     1     -28.593 -23.746 101.204  1.00  0.00     0.162 A 
ATOM      5  C   UNL     1     -28.496 -25.052 100.714  1.00  0.00     0.128 A 
ATOM      6  C   UNL     1     -28.679 -26.134 101.578  1.00  0.00     0.093 A 
ATOM      7  C   UNL     1     -28.961 -25.933 102.934  1.00  0.00     0.136 A 
ATOM      8  C   UNL     1     -29.064 -24.609 103.436  1.00  0.00     0.125 A 
ATOM      9  C   UNL     1     -29.357 -24.312 104.777  1.00  0.00     0.078 A 
ATOM     10  C   UNL     1     -29.446 -22.982 105.197  1.00  0.00     0.223 A 
ENDROOT
BRANCH   1  11
ATOM     11  C   UNL     1     -29.276 -20.524 104.633  1.00  0.00     0.091 A 
ATOM     12  C   UNL     1     -28.574 -20.026 105.744  1.00  0.00     0.068 A 
ATOM     13  C   UNL     1     -28.624 -18.662 106.064  1.00  0.00     0.162 A 
ATOM     14  C   UNL     1     -30.003 -19.631 103.827  1.00  0.00     0.068 A 
ATOM     15  C   UNL     1     -29.369 -17.782 105.269  1.00  0.00     0.200 A 
ATOM     16  C   UNL     1     -30.057 -18.267 104.145  1.00  0.00     0.162 A 
BRANCH  13  17
ATOM     17  O   UNL     1     -27.931 -18.174 107.170  1.00  0.00    -0.504 OA
ATOM     18  H   UNL     1     -26.990 -18.483 107.386  1.00  0.00     0.293 HD
ENDBRANCH  13  17
BRANCH  15  19
ATOM     19  O   UNL     1     -29.410 -16.429 105.607  1.00  0.00    -0.502 OA
ATOM     20  H   UNL     1     -29.579 -16.114 106.555  1.00  0.00     0.293 HD
ENDBRANCH  15  19
BRANCH  16  21
ATOM     21  O   UNL     1     -30.793 -17.393 103.346  1.00  0.00    -0.504 OA
ATOM     22  H   UNL     1     -30.694 -16.387 103.429  1.00  0.00     0.293 HD
ENDBRANCH  16  21
ENDBRANCH   1  11
BRANCH  10  23
ATOM     23  O   UNL     1     -29.786 -22.687 106.518  1.00  0.00    -0.500 OA
ATOM     24  H   UNL     1     -29.654 -23.358 107.265  1.00  0.00     0.294 HD
ENDBRANCH  10  23
BRANCH   5  25
ATOM     25  O   UNL     1     -28.215 -25.286  99.370  1.00  0.00    -0.507 OA
ATOM     26  H   UNL     1     -27.311 -25.064  98.970  1.00  0.00     0.293 HD
ENDBRANCH   5  25
BRANCH   7  27
ATOM     27  O   UNL     1     -29.129 -27.069 103.732  1.00  0.00    -0.507 OA
ATOM     28  H   UNL     1     -29.902 -27.712 103.652  1.00  0.00     0.293 HD
ENDBRANCH   7  27
TORSDOF 7
ENDMDL
MODEL 7
REMARK VINA RESULT:    -6.932      1.814      7.064
REMARK INTER + INTRA:          -8.937
REMARK INTER:                  -8.724
REMARK INTRA:                  -0.213
REMARK UNBOUND:                -0.384
REMARK SMILES Oc1cc(O)c2cc(O)c(-c3cc(O)c(O)c(O)c3)[o+]c2c1
REMARK SMILES IDX 10 1 20 2 21 3 22 4 2 5 3 6 4 7 6 8 7 9 8 10 11 11 12 12
REMARK SMILES IDX 13 13 19 14 15 15 17 16 14 17 16 19 18 21 9 23 1 25 5 27
REMARK H PARENT 14 18 16 20 18 22 9 24 1 26 5 28
REMARK Flexibility Score: inf
ROOT
ATOM      1  C   UNL     1     -26.848 -26.125 104.762  1.00  0.00     0.402 A 
ATOM      2  O   UNL     1     -25.892 -25.240 104.490  1.00  0.00    -0.202 OA
ATOM      3  C   UNL     1     -25.909 -24.453 103.419  1.00  0.00     0.368 A 
ATOM      4  C   UNL     1     -24.856 -23.557 103.218  1.00  0.00     0.162 A 
ATOM      5  C   UNL     1     -24.846 -22.720 102.098  1.00  0.00     0.128 A 
ATOM      6  C   UNL     1     -25.894 -22.781 101.176  1.00  0.00     0.093 A 
ATOM      7  C   UNL     1     -26.960 -23.670 101.355  1.00  0.00     0.136 A 
ATOM      8  C   UNL     1     -26.976 -24.521 102.491  1.00  0.00     0.125 A 
ATOM      9  C   UNL     1     -28.009 -25.433 102.759  1.00  0.00     0.078 A 
ATOM     10  C   UNL     1     -27.957 -26.235 103.902  1.00  0.00     0.223 A 
ENDROOT
BRANCH   1  11
ATOM     11  C   UNL     1     -26.710 -26.952 105.982  1.00  0.00     0.091 A 
ATOM     12  C   UNL     1     -27.628 -26.852 107.042  1.00  0.00     0.068 A 
ATOM     13  C   UNL     1     -27.493 -27.662 108.178  1.00  0.00     0.162 A 
ATOM     14  C   UNL     1     -25.674 -27.897 106.062  1.00  0.00     0.068 A 
ATOM     15  C   UNL     1     -26.444 -28.585 108.260  1.00  0.00     0.200 A 
ATOM     16  C   UNL     1     -25.534 -28.706 107.198  1.00  0.00     0.162 A 
BRANCH  13  17
ATOM     17  O   UNL     1     -28.402 -27.556 109.229  1.00  0.00    -0.504 OA
ATOM     18  H   UNL     1     -28.303 -28.106 110.075  1.00  0.00     0.293 HD
ENDBRANCH  13  17
BRANCH  15  19
ATOM     19  O   UNL     1     -26.323 -29.379 109.402  1.00  0.00    -0.502 OA
ATOM     20  H   UNL     1     -26.425 -30.387 109.371  1.00  0.00     0.293 HD
ENDBRANCH  15  19
BRANCH  16  21
ATOM     21  O   UNL     1     -24.493 -29.631 107.272  1.00  0.00    -0.504 OA
ATOM     22  H   UNL     1     -24.270 -30.244 106.496  1.00  0.00     0.293 HD
ENDBRANCH  16  21
ENDBRANCH   1  11
BRANCH  10  23
ATOM     23  O   UNL     1     -29.007 -27.106 104.195  1.00  0.00    -0.500 OA
ATOM     24  H   UNL     1     -29.363 -27.213 105.137  1.00  0.00     0.294 HD
ENDBRANCH  10  23
BRANCH   5  25
ATOM     25  O   UNL     1     -23.801 -21.824 101.891  1.00  0.00    -0.507 OA
ATOM     26  H   UNL     1     -22.836 -22.133 101.860  1.00  0.00     0.293 HD
ENDBRANCH   5  25
BRANCH   7  27
ATOM     27  O   UNL     1     -27.967 -23.671 100.385  1.00  0.00    -0.507 OA
ATOM     28  H   UNL     1     -28.910 -23.346 100.543  1.00  0.00     0.293 HD
ENDBRANCH   7  27
TORSDOF 7
ENDMDL
MODEL 8
REMARK VINA RESULT:    -6.859      3.426      5.696
REMARK INTER + INTRA:          -8.847
REMARK INTER:                  -8.595
REMARK INTRA:                  -0.252
REMARK UNBOUND:                -0.384
REMARK SMILES Oc1cc(O)c2cc(O)c(-c3cc(O)c(O)c(O)c3)[o+]c2c1
REMARK SMILES IDX 10 1 20 2 21 3 22 4 2 5 3 6 4 7 6 8 7 9 8 10 11 11 12 12
REMARK SMILES IDX 13 13 19 14 15 15 17 16 14 17 16 19 18 21 9 23 1 25 5 27
REMARK H PARENT 14 18 16 20 18 22 9 24 1 26 5 28
REMARK Flexibility Score: inf
ROOT
ATOM      1  C   UNL     1     -26.484 -23.447 102.220  1.00  0.00     0.402 A 
ATOM      2  O   UNL     1     -26.446 -24.073 103.393  1.00  0.00    -0.202 OA
ATOM      3  C   UNL     1     -27.438 -24.829 103.850  1.00  0.00     0.368 A 
ATOM      4  C   UNL     1     -27.305 -25.444 105.098  1.00  0.00     0.162 A 
ATOM      5  C   UNL     1     -28.335 -26.243 105.604  1.00  0.00     0.128 A 
ATOM      6  C   UNL     1     -29.503 -26.426 104.859  1.00  0.00     0.093 A 
ATOM      7  C   UNL     1     -29.660 -25.821 103.607  1.00  0.00     0.136 A 
ATOM      8  C   UNL     1     -28.617 -25.011 103.087  1.00  0.00     0.125 A 
ATOM      9  C   UNL     1     -28.681 -24.377 101.836  1.00  0.00     0.078 A 
ATOM     10  C   UNL     1     -27.610 -23.598 101.389  1.00  0.00     0.223 A 
ENDROOT
BRANCH   1  11
ATOM     11  C   UNL     1     -25.319 -22.624 101.826  1.00  0.00     0.091 A 
ATOM     12  C   UNL     1     -25.430 -21.234 101.647  1.00  0.00     0.068 A 
ATOM     13  C   UNL     1     -24.308 -20.470 101.297  1.00  0.00     0.162 A 
ATOM     14  C   UNL     1     -24.061 -23.232 101.681  1.00  0.00     0.068 A 
ATOM     15  C   UNL     1     -23.063 -21.087 101.132  1.00  0.00     0.200 A 
ATOM     16  C   UNL     1     -22.937 -22.472 101.329  1.00  0.00     0.162 A 
BRANCH  13  17
ATOM     17  O   UNL     1     -24.425 -19.093 101.115  1.00  0.00    -0.504 OA
ATOM     18  H   UNL     1     -25.247 -18.681 100.688  1.00  0.00     0.293 HD
ENDBRANCH  13  17
BRANCH  15  19
ATOM     19  O   UNL     1     -21.959 -20.310 100.779  1.00  0.00    -0.502 OA
ATOM     20  H   UNL     1     -21.725 -20.114  99.813  1.00  0.00     0.293 HD
ENDBRANCH  15  19
BRANCH  16  21
ATOM     21  O   UNL     1     -21.697 -23.090 101.174  1.00  0.00    -0.504 OA
ATOM     22  H   UNL     1     -20.848 -22.678 101.544  1.00  0.00     0.293 HD
ENDBRANCH  16  21
ENDBRANCH   1  11
BRANCH  10  23
ATOM     23  O   UNL     1     -27.653 -23.008 100.125  1.00  0.00    -0.500 OA
ATOM     24  H   UNL     1     -27.609 -23.561  99.278  1.00  0.00     0.294 HD
ENDBRANCH  10  23
BRANCH   5  25
ATOM     25  O   UNL     1     -28.210 -26.859 106.847  1.00  0.00    -0.507 OA
ATOM     26  H   UNL     1     -27.742 -27.752 106.951  1.00  0.00     0.293 HD
ENDBRANCH   5  25
BRANCH   7  27
ATOM     27  O   UNL     1     -30.860 -26.052 102.926  1.00  0.00    -0.507 OA
ATOM     28  H   UNL     1     -30.920 -26.363 101.967  1.00  0.00     0.293 HD
ENDBRANCH   7  27
TORSDOF 7
ENDMDL
MODEL 9
REMARK VINA RESULT:    -6.778      5.283      7.451
REMARK INTER + INTRA:          -8.747
REMARK INTER:                  -8.456
REMARK INTRA:                  -0.290
REMARK UNBOUND:                -0.384
REMARK SMILES Oc1cc(O)c2cc(O)c(-c3cc(O)c(O)c(O)c3)[o+]c2c1
REMARK SMILES IDX 10 1 20 2 21 3 22 4 2 5 3 6 4 7 6 8 7 9 8 10 11 11 12 12
REMARK SMILES IDX 13 13 19 14 15 15 17 16 14 17 16 19 18 21 9 23 1 25 5 27
REMARK H PARENT 14 18 16 20 18 22 9 24 1 26 5 28
REMARK Flexibility Score: inf
ROOT
ATOM      1  C   UNL     1     -28.902 -21.909 104.224  1.00  0.00     0.402 A 
ATOM      2  O   UNL     1     -29.564 -20.835 103.799  1.00  0.00    -0.202 OA
ATOM      3  C   UNL     1     -29.514 -19.657 104.412  1.00  0.00     0.368 A 
ATOM      4  C   UNL     1     -30.248 -18.589 103.890  1.00  0.00     0.162 A 
ATOM      5  C   UNL     1     -30.217 -17.339 104.516  1.00  0.00     0.128 A 
ATOM      6  C   UNL     1     -29.448 -17.158 105.669  1.00  0.00     0.093 A 
ATOM      7  C   UNL     1     -28.704 -18.213 106.211  1.00  0.00     0.136 A 
ATOM      8  C   UNL     1     -28.731 -19.483 105.578  1.00  0.00     0.125 A 
ATOM      9  C   UNL     1     -28.007 -20.593 106.042  1.00  0.00     0.078 A 
ATOM     10  C   UNL     1     -28.080 -21.812 105.362  1.00  0.00     0.223 A 
ENDROOT
BRANCH   1  11
ATOM     11  C   UNL     1     -29.046 -23.169 103.460  1.00  0.00     0.091 A 
ATOM     12  C   UNL     1     -29.708 -24.283 104.005  1.00  0.00     0.068 A 
ATOM     13  C   UNL     1     -29.854 -25.459 103.256  1.00  0.00     0.162 A 
ATOM     14  C   UNL     1     -28.562 -23.238 102.144  1.00  0.00     0.068 A 
ATOM     15  C   UNL     1     -29.349 -25.528 101.952  1.00  0.00     0.200 A 
ATOM     16  C   UNL     1     -28.704 -24.412 101.392  1.00  0.00     0.162 A 
BRANCH  13  17
ATOM     17  O   UNL     1     -30.506 -26.564 103.801  1.00  0.00    -0.504 OA
ATOM     18  H   UNL     1     -30.551 -27.450 103.310  1.00  0.00     0.293 HD
ENDBRANCH  13  17
BRANCH  15  19
ATOM     19  O   UNL     1     -29.500 -26.708 101.224  1.00  0.00    -0.502 OA
ATOM     20  H   UNL     1     -29.581 -27.613 101.674  1.00  0.00     0.293 HD
ENDBRANCH  15  19
BRANCH  16  21
ATOM     21  O   UNL     1     -28.207 -24.474 100.091  1.00  0.00    -0.504 OA
ATOM     22  H   UNL     1     -28.362 -25.283  99.501  1.00  0.00     0.293 HD
ENDBRANCH  16  21
ENDBRANCH   1  11
BRANCH  10  23
ATOM     23  O   UNL     1     -27.321 -22.901 105.794  1.00  0.00    -0.500 OA
ATOM     24  H   UNL     1     -27.734 -23.662 106.319  1.00  0.00     0.294 HD
ENDBRANCH  10  23
BRANCH   5  25
ATOM     25  O   UNL     1     -30.946 -16.270 104.003  1.00  0.00    -0.507 OA
ATOM     26  H   UNL     1     -31.387 -15.588 104.610  1.00  0.00     0.293 HD
ENDBRANCH   5  25
BRANCH   7  27
ATOM     27  O   UNL     1     -27.964 -17.951 107.367  1.00  0.00    -0.507 OA
ATOM     28  H   UNL     1     -27.782 -18.628 108.094  1.00  0.00     0.293 HD
ENDBRANCH   7  27
TORSDOF 7
ENDMDL
