MODEL 1
REMARK VINA RESULT:    -9.433      0.000      0.000
REMARK INTER + INTRA:         -11.414
REMARK INTER:                 -11.363
REMARK INTRA:                  -0.051
REMARK UNBOUND:                -0.051
REMARK SMILES O=c1c(O)c(-c2ccc(O)c(O)c2)oc2cc(O)cc(O)c12
REMARK SMILES IDX 5 1 3 2 2 3 1 4 22 5 20 6 19 7 17 8 16 9 15 10 14 11 6 12
REMARK SMILES IDX 7 13 8 14 9 15 13 16 11 17 10 18 12 20 4 22 21 24 18 26
REMARK H PARENT 10 19 12 21 4 23 21 25 18 27
REMARK Flexibility Score: inf
ROOT
ATOM      1  C   UNL     1     111.439 110.794 113.530  1.00  0.00     0.180 A 
ATOM      2  C   UNL     1     110.155 110.311 113.837  1.00  0.00     0.208 A 
ATOM      3  C   UNL     1     109.746 110.271 115.180  1.00  0.00     0.238 A 
ATOM      4  O   UNL     1     108.576 109.888 115.443  1.00  0.00    -0.285 OA
ATOM      5  C   UNL     1     110.630 110.697 116.199  1.00  0.00     0.111 A 
ATOM      6  C   UNL     1     110.336 110.662 117.595  1.00  0.00     0.134 A 
ATOM      7  C   UNL     1     111.235 111.231 118.505  1.00  0.00     0.093 A 
ATOM      8  C   UNL     1     112.446 111.775 118.078  1.00  0.00     0.123 A 
ATOM      9  C   UNL     1     112.771 111.761 116.721  1.00  0.00     0.094 A 
ATOM     10  C   UNL     1     111.878 111.234 115.785  1.00  0.00     0.146 A 
ATOM     11  O   UNL     1     112.221 111.249 114.503  1.00  0.00    -0.452 OA
ENDROOT
BRANCH   1  12
ATOM     12  C   UNL     1     111.950 110.845 112.141  1.00  0.00     0.025 A 
ATOM     13  C   UNL     1     111.919 109.713 111.308  1.00  0.00     0.016 A 
ATOM     14  C   UNL     1     112.430 109.777 110.009  1.00  0.00     0.051 A 
ATOM     15  C   UNL     1     112.990 110.967 109.528  1.00  0.00     0.157 A 
ATOM     16  C   UNL     1     112.533 112.029 111.661  1.00  0.00     0.062 A 
ATOM     17  C   UNL     1     113.045 112.097 110.360  1.00  0.00     0.158 A 
BRANCH  15  18
ATOM     18  O   UNL     1     113.498 111.028 108.231  1.00  0.00    -0.504 OA
ATOM     19  H   UNL     1     114.393 110.619 107.991  1.00  0.00     0.293 HD
ENDBRANCH  15  18
BRANCH  17  20
ATOM     20  O   UNL     1     113.603 113.295 109.914  1.00  0.00    -0.504 OA
ATOM     21  H   UNL     1     114.591 113.383 109.703  1.00  0.00     0.293 HD
ENDBRANCH  17  20
ENDBRANCH   1  12
BRANCH   2  22
ATOM     22  O   UNL     1     109.289 109.915 112.814  1.00  0.00    -0.502 OA
ATOM     23  H   UNL     1     109.038 108.947 112.658  1.00  0.00     0.293 HD
ENDBRANCH   2  22
BRANCH   6  24
ATOM     24  O   UNL     1     109.197 110.060 118.137  1.00  0.00    -0.507 OA
ATOM     25  H   UNL     1     109.179 109.530 118.995  1.00  0.00     0.293 HD
ENDBRANCH   6  24
BRANCH   8  26
ATOM     26  O   UNL     1     113.323 112.319 119.013  1.00  0.00    -0.508 OA
ATOM     27  H   UNL     1     113.996 113.031 118.756  1.00  0.00     0.293 HD
ENDBRANCH   8  26
TORSDOF 6
ENDMDL
MODEL 2
REMARK VINA RESULT:    -9.364      2.167      3.609
REMARK INTER + INTRA:         -11.332
REMARK INTER:                 -11.234
REMARK INTRA:                  -0.097
REMARK UNBOUND:                -0.051
REMARK SMILES O=c1c(O)c(-c2ccc(O)c(O)c2)oc2cc(O)cc(O)c12
REMARK SMILES IDX 5 1 3 2 2 3 1 4 22 5 20 6 19 7 17 8 16 9 15 10 14 11 6 12
REMARK SMILES IDX 7 13 8 14 9 15 13 16 11 17 10 18 12 20 4 22 21 24 18 26
REMARK H PARENT 10 19 12 21 4 23 21 25 18 27
REMARK Flexibility Score: inf
ROOT
ATOM      1  C   UNL     1     110.748 111.304 113.659  1.00  0.00     0.180 A 
ATOM      2  C   UNL     1     112.047 111.753 113.958  1.00  0.00     0.208 A 
ATOM      3  C   UNL     1     112.467 111.778 115.297  1.00  0.00     0.238 A 
ATOM      4  O   UNL     1     113.648 112.129 115.553  1.00  0.00    -0.285 OA
ATOM      5  C   UNL     1     111.579 111.371 116.322  1.00  0.00     0.111 A 
ATOM      6  C   UNL     1     111.885 111.394 117.716  1.00  0.00     0.134 A 
ATOM      7  C   UNL     1     110.979 110.846 118.631  1.00  0.00     0.093 A 
ATOM      8  C   UNL     1     109.751 110.335 118.211  1.00  0.00     0.123 A 
ATOM      9  C   UNL     1     109.416 110.362 116.857  1.00  0.00     0.094 A 
ATOM     10  C   UNL     1     110.315 110.869 115.916  1.00  0.00     0.146 A 
ATOM     11  O   UNL     1     109.962 110.867 114.636  1.00  0.00    -0.452 OA
ENDROOT
BRANCH   1  12
ATOM     12  C   UNL     1     110.225 111.271 112.274  1.00  0.00     0.025 A 
ATOM     13  C   UNL     1     110.205 112.425 111.472  1.00  0.00     0.016 A 
ATOM     14  C   UNL     1     109.684 112.377 110.176  1.00  0.00     0.051 A 
ATOM     15  C   UNL     1     109.164 111.179 109.668  1.00  0.00     0.157 A 
ATOM     16  C   UNL     1     109.683 110.079 111.767  1.00  0.00     0.062 A 
ATOM     17  C   UNL     1     109.161 110.026 110.470  1.00  0.00     0.158 A 
BRANCH  15  18
ATOM     18  O   UNL     1     108.646 111.134 108.374  1.00  0.00    -0.504 OA
ATOM     19  H   UNL     1     108.552 110.260 107.870  1.00  0.00     0.293 HD
ENDBRANCH  15  18
BRANCH  17  20
ATOM     20  O   UNL     1     108.643 108.821 109.997  1.00  0.00    -0.504 OA
ATOM     21  H   UNL     1     108.102 108.766 109.141  1.00  0.00     0.293 HD
ENDBRANCH  17  20
ENDBRANCH   1  12
BRANCH   2  22
ATOM     22  O   UNL     1     112.915 112.129 112.929  1.00  0.00    -0.502 OA
ATOM     23  H   UNL     1     113.897 112.314 113.087  1.00  0.00     0.293 HD
ENDBRANCH   2  22
BRANCH   6  24
ATOM     24  O   UNL     1     113.044 111.965 118.250  1.00  0.00    -0.507 OA
ATOM     25  H   UNL     1     113.938 111.996 117.784  1.00  0.00     0.293 HD
ENDBRANCH   6  24
BRANCH   8  26
ATOM     26  O   UNL     1     108.867 109.812 119.152  1.00  0.00    -0.508 OA
ATOM     27  H   UNL     1     107.904 110.123 119.205  1.00  0.00     0.293 HD
ENDBRANCH   8  26
TORSDOF 6
ENDMDL
MODEL 3
REMARK VINA RESULT:    -9.324      3.488      6.001
REMARK INTER + INTRA:         -11.283
REMARK INTER:                 -11.227
REMARK INTRA:                  -0.056
REMARK UNBOUND:                -0.051
REMARK SMILES O=c1c(O)c(-c2ccc(O)c(O)c2)oc2cc(O)cc(O)c12
REMARK SMILES IDX 5 1 3 2 2 3 1 4 22 5 20 6 19 7 17 8 16 9 15 10 14 11 6 12
REMARK SMILES IDX 7 13 8 14 9 15 13 16 11 17 10 18 12 20 4 22 21 24 18 26
REMARK H PARENT 10 19 12 21 4 23 21 25 18 27
REMARK Flexibility Score: inf
ROOT
ATOM      1  C   UNL     1     110.815 111.443 108.729  1.00  0.00     0.180 A 
ATOM      2  C   UNL     1     112.095 111.953 109.008  1.00  0.00     0.208 A 
ATOM      3  C   UNL     1     112.523 112.027 110.343  1.00  0.00     0.238 A 
ATOM      4  O   UNL     1     113.690 112.433 110.582  1.00  0.00    -0.285 OA
ATOM      5  C   UNL     1     111.660 111.606 111.383  1.00  0.00     0.111 A 
ATOM      6  C   UNL     1     111.974 111.674 112.774  1.00  0.00     0.134 A 
ATOM      7  C   UNL     1     111.097 111.109 113.708  1.00  0.00     0.093 A 
ATOM      8  C   UNL     1     109.890 110.538 113.309  1.00  0.00     0.123 A 
ATOM      9  C   UNL     1     109.545 110.519 111.957  1.00  0.00     0.094 A 
ATOM     10  C   UNL     1     110.415 111.042 110.998  1.00  0.00     0.146 A 
ATOM     11  O   UNL     1     110.055 110.996 109.721  1.00  0.00    -0.452 OA
ENDROOT
BRANCH   1  12
ATOM     12  C   UNL     1     110.285 111.357 107.349  1.00  0.00     0.025 A 
ATOM     13  C   UNL     1     110.273 112.476 106.498  1.00  0.00     0.016 A 
ATOM     14  C   UNL     1     109.745 112.378 105.208  1.00  0.00     0.051 A 
ATOM     15  C   UNL     1     109.210 111.165 104.754  1.00  0.00     0.157 A 
ATOM     16  C   UNL     1     109.728 110.150 106.896  1.00  0.00     0.062 A 
ATOM     17  C   UNL     1     109.199 110.047 105.604  1.00  0.00     0.158 A 
BRANCH  15  18
ATOM     18  O   UNL     1     108.685 111.070 103.466  1.00  0.00    -0.504 OA
ATOM     19  H   UNL     1     109.274 110.867 102.666  1.00  0.00     0.293 HD
ENDBRANCH  15  18
BRANCH  17  20
ATOM     20  O   UNL     1     108.667 108.828 105.186  1.00  0.00    -0.504 OA
ATOM     21  H   UNL     1     108.706 108.528 104.218  1.00  0.00     0.293 HD
ENDBRANCH  17  20
ENDBRANCH   1  12
BRANCH   2  22
ATOM     22  O   UNL     1     112.940 112.342 107.964  1.00  0.00    -0.502 OA
ATOM     23  H   UNL     1     113.646 113.060 108.074  1.00  0.00     0.293 HD
ENDBRANCH   2  22
BRANCH   6  24
ATOM     24  O   UNL     1     113.111 112.305 113.287  1.00  0.00    -0.507 OA
ATOM     25  H   UNL     1     113.099 113.138 113.857  1.00  0.00     0.293 HD
ENDBRANCH   6  24
BRANCH   8  26
ATOM     26  O   UNL     1     109.035 109.999 114.268  1.00  0.00    -0.508 OA
ATOM     27  H   UNL     1     109.023 109.006 114.469  1.00  0.00     0.293 HD
ENDBRANCH   8  26
TORSDOF 6
ENDMDL
MODEL 4
REMARK VINA RESULT:    -9.317      2.877      4.879
REMARK INTER + INTRA:         -11.274
REMARK INTER:                 -11.190
REMARK INTRA:                  -0.084
REMARK UNBOUND:                -0.051
REMARK SMILES O=c1c(O)c(-c2ccc(O)c(O)c2)oc2cc(O)cc(O)c12
REMARK SMILES IDX 5 1 3 2 2 3 1 4 22 5 20 6 19 7 17 8 16 9 15 10 14 11 6 12
REMARK SMILES IDX 7 13 8 14 9 15 13 16 11 17 10 18 12 20 4 22 21 24 18 26
REMARK H PARENT 10 19 12 21 4 23 21 25 18 27
REMARK Flexibility Score: inf
ROOT
ATOM      1  C   UNL     1     111.440 110.789 108.646  1.00  0.00     0.180 A 
ATOM      2  C   UNL     1     110.153 110.288 108.911  1.00  0.00     0.208 A 
ATOM      3  C   UNL     1     109.715 110.208 110.243  1.00  0.00     0.238 A 
ATOM      4  O   UNL     1     108.543 109.809 110.470  1.00  0.00    -0.285 OA
ATOM      5  C   UNL     1     110.573 110.614 111.292  1.00  0.00     0.111 A 
ATOM      6  C   UNL     1     110.249 110.539 112.680  1.00  0.00     0.134 A 
ATOM      7  C   UNL     1     111.123 111.090 113.625  1.00  0.00     0.093 A 
ATOM      8  C   UNL     1     112.338 111.654 113.239  1.00  0.00     0.123 A 
ATOM      9  C   UNL     1     112.693 111.679 111.890  1.00  0.00     0.094 A 
ATOM     10  C   UNL     1     111.825 111.171 110.920  1.00  0.00     0.146 A 
ATOM     11  O   UNL     1     112.196 111.223 109.647  1.00  0.00    -0.452 OA
ENDROOT
BRANCH   1  12
ATOM     12  C   UNL     1     111.980 110.881 107.270  1.00  0.00     0.025 A 
ATOM     13  C   UNL     1     112.031 109.758 106.427  1.00  0.00     0.016 A 
ATOM     14  C   UNL     1     112.569 109.863 105.141  1.00  0.00     0.051 A 
ATOM     15  C   UNL     1     113.075 111.087 104.684  1.00  0.00     0.157 A 
ATOM     16  C   UNL     1     112.509 112.100 106.815  1.00  0.00     0.062 A 
ATOM     17  C   UNL     1     113.048 112.209 105.528  1.00  0.00     0.158 A 
BRANCH  15  18
ATOM     18  O   UNL     1     113.610 111.188 103.401  1.00  0.00    -0.504 OA
ATOM     19  H   UNL     1     113.610 112.065 102.893  1.00  0.00     0.293 HD
ENDBRANCH  15  18
BRANCH  17  20
ATOM     20  O   UNL     1     113.551 113.440 105.106  1.00  0.00    -0.504 OA
ATOM     21  H   UNL     1     114.538 113.584 104.924  1.00  0.00     0.293 HD
ENDBRANCH  17  20
ENDBRANCH   1  12
BRANCH   2  22
ATOM     22  O   UNL     1     109.313 109.913 107.858  1.00  0.00    -0.502 OA
ATOM     23  H   UNL     1     108.308 110.027 107.898  1.00  0.00     0.293 HD
ENDBRANCH   2  22
BRANCH   6  24
ATOM     24  O   UNL     1     109.103 109.913 113.180  1.00  0.00    -0.507 OA
ATOM     25  H   UNL     1     108.972 109.636 114.142  1.00  0.00     0.293 HD
ENDBRANCH   6  24
BRANCH   8  26
ATOM     26  O   UNL     1     113.190 112.179 114.208  1.00  0.00    -0.508 OA
ATOM     27  H   UNL     1     114.177 112.320 114.025  1.00  0.00     0.293 HD
ENDBRANCH   8  26
TORSDOF 6
ENDMDL
MODEL 5
REMARK VINA RESULT:    -9.075      3.241      8.311
REMARK INTER + INTRA:         -10.983
REMARK INTER:                 -10.649
REMARK INTRA:                  -0.335
REMARK UNBOUND:                -0.051
REMARK SMILES O=c1c(O)c(-c2ccc(O)c(O)c2)oc2cc(O)cc(O)c12
REMARK SMILES IDX 5 1 3 2 2 3 1 4 22 5 20 6 19 7 17 8 16 9 15 10 14 11 6 12
REMARK SMILES IDX 7 13 8 14 9 15 13 16 11 17 10 18 12 20 4 22 21 24 18 26
REMARK H PARENT 10 19 12 21 4 23 21 25 18 27
REMARK Flexibility Score: inf
ROOT
ATOM      1  C   UNL     1     110.622 111.038 109.545  1.00  0.00     0.180 A 
ATOM      2  C   UNL     1     109.681 110.268 108.839  1.00  0.00     0.208 A 
ATOM      3  C   UNL     1     109.689 110.304 107.435  1.00  0.00     0.238 A 
ATOM      4  O   UNL     1     108.880 109.571 106.808  1.00  0.00    -0.285 OA
ATOM      5  C   UNL     1     110.623 111.122 106.756  1.00  0.00     0.111 A 
ATOM      6  C   UNL     1     110.695 111.267 105.338  1.00  0.00     0.134 A 
ATOM      7  C   UNL     1     111.743 112.000 104.770  1.00  0.00     0.093 A 
ATOM      8  C   UNL     1     112.685 112.648 105.570  1.00  0.00     0.123 A 
ATOM      9  C   UNL     1     112.590 112.563 106.959  1.00  0.00     0.094 A 
ATOM     10  C   UNL     1     111.577 111.808 107.554  1.00  0.00     0.146 A 
ATOM     11  O   UNL     1     111.528 111.743 108.879  1.00  0.00    -0.452 OA
ENDROOT
BRANCH   1  12
ATOM     12  C   UNL     1     110.660 111.070 111.025  1.00  0.00     0.025 A 
ATOM     13  C   UNL     1     109.898 111.997 111.758  1.00  0.00     0.016 A 
ATOM     14  C   UNL     1     109.970 112.025 113.153  1.00  0.00     0.051 A 
ATOM     15  C   UNL     1     110.812 111.138 113.836  1.00  0.00     0.157 A 
ATOM     16  C   UNL     1     111.520 110.198 111.714  1.00  0.00     0.062 A 
ATOM     17  C   UNL     1     111.593 110.223 113.112  1.00  0.00     0.158 A 
BRANCH  15  18
ATOM     18  O   UNL     1     110.880 111.168 115.228  1.00  0.00    -0.504 OA
ATOM     19  H   UNL     1     111.223 111.981 115.726  1.00  0.00     0.293 HD
ENDBRANCH  15  18
BRANCH  17  20
ATOM     20  O   UNL     1     112.448 109.332 113.760  1.00  0.00    -0.504 OA
ATOM     21  H   UNL     1     112.107 108.490 114.210  1.00  0.00     0.293 HD
ENDBRANCH  17  20
ENDBRANCH   1  12
BRANCH   2  22
ATOM     22  O   UNL     1     108.781 109.450 109.528  1.00  0.00    -0.502 OA
ATOM     23  H   UNL     1     109.084 108.720 110.160  1.00  0.00     0.293 HD
ENDBRANCH   2  22
BRANCH   6  24
ATOM     24  O   UNL     1     109.752 110.737 104.452  1.00  0.00    -0.507 OA
ATOM     25  H   UNL     1     109.933 109.990 103.798  1.00  0.00     0.293 HD
ENDBRANCH   6  24
BRANCH   8  26
ATOM     26  O   UNL     1     113.706 113.382 104.971  1.00  0.00    -0.508 OA
ATOM     27  H   UNL     1     114.290 114.012 105.508  1.00  0.00     0.293 HD
ENDBRANCH   8  26
TORSDOF 6
ENDMDL
MODEL 6
REMARK VINA RESULT:    -9.048      1.617      6.725
REMARK INTER + INTRA:         -10.950
REMARK INTER:                 -10.617
REMARK INTRA:                  -0.334
REMARK UNBOUND:                -0.051
REMARK SMILES O=c1c(O)c(-c2ccc(O)c(O)c2)oc2cc(O)cc(O)c12
REMARK SMILES IDX 5 1 3 2 2 3 1 4 22 5 20 6 19 7 17 8 16 9 15 10 14 11 6 12
REMARK SMILES IDX 7 13 8 14 9 15 13 16 11 17 10 18 12 20 4 22 21 24 18 26
REMARK H PARENT 10 19 12 21 4 23 21 25 18 27
REMARK Flexibility Score: inf
ROOT
ATOM      1  C   UNL     1     110.600 111.041 114.422  1.00  0.00     0.180 A 
ATOM      2  C   UNL     1     109.651 110.284 113.713  1.00  0.00     0.208 A 
ATOM      3  C   UNL     1     109.666 110.316 112.309  1.00  0.00     0.238 A 
ATOM      4  O   UNL     1     108.849 109.595 111.680  1.00  0.00    -0.285 OA
ATOM      5  C   UNL     1     110.617 111.117 111.633  1.00  0.00     0.111 A 
ATOM      6  C   UNL     1     110.698 111.257 110.215  1.00  0.00     0.134 A 
ATOM      7  C   UNL     1     111.761 111.972 109.651  1.00  0.00     0.093 A 
ATOM      8  C   UNL     1     112.709 112.607 110.453  1.00  0.00     0.123 A 
ATOM      9  C   UNL     1     112.606 112.527 111.842  1.00  0.00     0.094 A 
ATOM     10  C   UNL     1     111.577 111.790 112.434  1.00  0.00     0.146 A 
ATOM     11  O   UNL     1     111.521 111.730 113.759  1.00  0.00    -0.452 OA
ENDROOT
BRANCH   1  12
ATOM     12  C   UNL     1     110.632 111.076 115.902  1.00  0.00     0.025 A 
ATOM     13  C   UNL     1     109.861 112.000 116.629  1.00  0.00     0.016 A 
ATOM     14  C   UNL     1     109.926 112.032 118.025  1.00  0.00     0.051 A 
ATOM     15  C   UNL     1     110.770 111.152 118.714  1.00  0.00     0.157 A 
ATOM     16  C   UNL     1     111.493 110.211 116.597  1.00  0.00     0.062 A 
ATOM     17  C   UNL     1     111.560 110.240 117.995  1.00  0.00     0.158 A 
BRANCH  15  18
ATOM     18  O   UNL     1     110.831 111.185 120.106  1.00  0.00    -0.504 OA
ATOM     19  H   UNL     1     110.683 112.044 120.624  1.00  0.00     0.293 HD
ENDBRANCH  15  18
BRANCH  17  20
ATOM     20  O   UNL     1     112.416 109.356 118.650  1.00  0.00    -0.504 OA
ATOM     21  H   UNL     1     112.461 109.298 119.661  1.00  0.00     0.293 HD
ENDBRANCH  17  20
ENDBRANCH   1  12
BRANCH   2  22
ATOM     22  O   UNL     1     108.734 109.483 114.400  1.00  0.00    -0.502 OA
ATOM     23  H   UNL     1     108.562 109.583 115.393  1.00  0.00     0.293 HD
ENDBRANCH   2  22
BRANCH   6  24
ATOM     24  O   UNL     1     109.752 110.740 109.326  1.00  0.00    -0.507 OA
ATOM     25  H   UNL     1     108.759 110.918 109.373  1.00  0.00     0.293 HD
ENDBRANCH   6  24
BRANCH   8  26
ATOM     26  O   UNL     1     113.745 113.323 109.858  1.00  0.00    -0.508 OA
ATOM     27  H   UNL     1     113.588 113.900 109.040  1.00  0.00     0.293 HD
ENDBRANCH   8  26
TORSDOF 6
ENDMDL
MODEL 7
REMARK VINA RESULT:    -9.006      3.031      8.527
REMARK INTER + INTRA:         -10.900
REMARK INTER:                 -10.579
REMARK INTRA:                  -0.321
REMARK UNBOUND:                -0.051
REMARK SMILES O=c1c(O)c(-c2ccc(O)c(O)c2)oc2cc(O)cc(O)c12
REMARK SMILES IDX 5 1 3 2 2 3 1 4 22 5 20 6 19 7 17 8 16 9 15 10 14 11 6 12
REMARK SMILES IDX 7 13 8 14 9 15 13 16 11 17 10 18 12 20 4 22 21 24 18 26
REMARK H PARENT 10 19 12 21 4 23 21 25 18 27
REMARK Flexibility Score: inf
ROOT
ATOM      1  C   UNL     1     111.627 111.292 109.727  1.00  0.00     0.180 A 
ATOM      2  C   UNL     1     112.577 112.014 108.983  1.00  0.00     0.208 A 
ATOM      3  C   UNL     1     112.533 111.953 107.581  1.00  0.00     0.238 A 
ATOM      4  O   UNL     1     113.352 112.645 106.921  1.00  0.00    -0.285 OA
ATOM      5  C   UNL     1     111.552 111.159 106.941  1.00  0.00     0.111 A 
ATOM      6  C   UNL     1     111.440 110.992 105.528  1.00  0.00     0.134 A 
ATOM      7  C   UNL     1     110.352 110.288 105.000  1.00  0.00     0.093 A 
ATOM      8  C   UNL     1     109.407 109.690 105.834  1.00  0.00     0.123 A 
ATOM      9  C   UNL     1     109.540 109.796 107.219  1.00  0.00     0.094 A 
ATOM     10  C   UNL     1     110.595 110.524 107.775  1.00  0.00     0.146 A 
ATOM     11  O   UNL     1     110.679 110.609 109.097  1.00  0.00    -0.452 OA
ENDROOT
BRANCH   1  12
ATOM     12  C   UNL     1     111.625 111.288 111.208  1.00  0.00     0.025 A 
ATOM     13  C   UNL     1     112.472 110.437 111.939  1.00  0.00     0.016 A 
ATOM     14  C   UNL     1     112.434 110.431 113.336  1.00  0.00     0.051 A 
ATOM     15  C   UNL     1     111.542 111.266 114.022  1.00  0.00     0.157 A 
ATOM     16  C   UNL     1     110.717 112.106 111.901  1.00  0.00     0.062 A 
ATOM     17  C   UNL     1     110.678 112.104 113.300  1.00  0.00     0.158 A 
BRANCH  15  18
ATOM     18  O   UNL     1     111.509 111.259 115.416  1.00  0.00    -0.504 OA
ATOM     19  H   UNL     1     112.056 111.913 115.963  1.00  0.00     0.293 HD
ENDBRANCH  15  18
BRANCH  17  20
ATOM     20  O   UNL     1     109.773 112.941 113.952  1.00  0.00    -0.504 OA
ATOM     21  H   UNL     1     110.037 113.858 114.295  1.00  0.00     0.293 HD
ENDBRANCH  17  20
ENDBRANCH   1  12
BRANCH   2  22
ATOM     22  O   UNL     1     113.524 112.810 109.635  1.00  0.00    -0.502 OA
ATOM     23  H   UNL     1     114.075 113.508 109.150  1.00  0.00     0.293 HD
ENDBRANCH   2  22
BRANCH   6  24
ATOM     24  O   UNL     1     112.379 111.471 104.609  1.00  0.00    -0.507 OA
ATOM     25  H   UNL     1     113.286 111.841 104.853  1.00  0.00     0.293 HD
ENDBRANCH   6  24
BRANCH   8  26
ATOM     26  O   UNL     1     108.345 108.984 105.274  1.00  0.00    -0.508 OA
ATOM     27  H   UNL     1     108.377 107.977 105.166  1.00  0.00     0.293 HD
ENDBRANCH   8  26
TORSDOF 6
ENDMDL
MODEL 8
REMARK VINA RESULT:    -9.005      1.771      7.128
REMARK INTER + INTRA:         -10.899
REMARK INTER:                 -10.596
REMARK INTRA:                  -0.303
REMARK UNBOUND:                -0.051
REMARK SMILES O=c1c(O)c(-c2ccc(O)c(O)c2)oc2cc(O)cc(O)c12
REMARK SMILES IDX 5 1 3 2 2 3 1 4 22 5 20 6 19 7 17 8 16 9 15 10 14 11 6 12
REMARK SMILES IDX 7 13 8 14 9 15 13 16 11 17 10 18 12 20 4 22 21 24 18 26
REMARK H PARENT 10 19 12 21 4 23 21 25 18 27
REMARK Flexibility Score: inf
ROOT
ATOM      1  C   UNL     1     111.646 111.271 114.604  1.00  0.00     0.180 A 
ATOM      2  C   UNL     1     112.648 111.932 113.872  1.00  0.00     0.208 A 
ATOM      3  C   UNL     1     112.641 111.839 112.470  1.00  0.00     0.238 A 
ATOM      4  O   UNL     1     113.508 112.477 111.819  1.00  0.00    -0.285 OA
ATOM      5  C   UNL     1     111.644 111.073 111.820  1.00  0.00     0.111 A 
ATOM      6  C   UNL     1     111.564 110.877 110.409  1.00  0.00     0.134 A 
ATOM      7  C   UNL     1     110.461 110.209 109.866  1.00  0.00     0.093 A 
ATOM      8  C   UNL     1     109.467 109.674 110.685  1.00  0.00     0.123 A 
ATOM      9  C   UNL     1     109.565 109.808 112.071  1.00  0.00     0.094 A 
ATOM     10  C   UNL     1     110.636 110.501 112.640  1.00  0.00     0.146 A 
ATOM     11  O   UNL     1     110.686 110.615 113.962  1.00  0.00    -0.452 OA
ENDROOT
BRANCH   1  12
ATOM     12  C   UNL     1     111.601 111.303 116.083  1.00  0.00     0.025 A 
ATOM     13  C   UNL     1     112.441 110.485 116.859  1.00  0.00     0.016 A 
ATOM     14  C   UNL     1     112.364 110.514 118.254  1.00  0.00     0.051 A 
ATOM     15  C   UNL     1     111.439 111.349 118.894  1.00  0.00     0.157 A 
ATOM     16  C   UNL     1     110.661 112.122 116.730  1.00  0.00     0.062 A 
ATOM     17  C   UNL     1     110.581 112.154 118.127  1.00  0.00     0.158 A 
BRANCH  15  18
ATOM     18  O   UNL     1     111.366 111.377 120.286  1.00  0.00    -0.504 OA
ATOM     19  H   UNL     1     111.034 112.194 120.784  1.00  0.00     0.293 HD
ENDBRANCH  15  18
BRANCH  17  20
ATOM     20  O   UNL     1     109.644 112.991 118.732  1.00  0.00    -0.504 OA
ATOM     21  H   UNL     1     109.916 113.817 119.252  1.00  0.00     0.293 HD
ENDBRANCH  17  20
ENDBRANCH   1  12
BRANCH   2  22
ATOM     22  O   UNL     1     113.611 112.701 114.532  1.00  0.00    -0.502 OA
ATOM     23  H   UNL     1     113.646 112.778 115.541  1.00  0.00     0.293 HD
ENDBRANCH   2  22
BRANCH   6  24
ATOM     24  O   UNL     1     112.549 111.290 109.507  1.00  0.00    -0.507 OA
ATOM     25  H   UNL     1     112.367 111.699 108.603  1.00  0.00     0.293 HD
ENDBRANCH   6  24
BRANCH   8  26
ATOM     26  O   UNL     1     108.391 109.002 110.111  1.00  0.00    -0.508 OA
ATOM     27  H   UNL     1     108.179 108.040 110.349  1.00  0.00     0.293 HD
ENDBRANCH   8  26
TORSDOF 6
ENDMDL
MODEL 9
REMARK VINA RESULT:    -8.932      2.004      7.344
REMARK INTER + INTRA:         -10.811
REMARK INTER:                 -10.670
REMARK INTRA:                  -0.141
REMARK UNBOUND:                -0.051
REMARK SMILES O=c1c(O)c(-c2ccc(O)c(O)c2)oc2cc(O)cc(O)c12
REMARK SMILES IDX 5 1 3 2 2 3 1 4 22 5 20 6 19 7 17 8 16 9 15 10 14 11 6 12
REMARK SMILES IDX 7 13 8 14 9 15 13 16 11 17 10 18 12 20 4 22 21 24 18 26
REMARK H PARENT 10 19 12 21 4 23 21 25 18 27
REMARK Flexibility Score: inf
ROOT
ATOM      1  C   UNL     1     110.863 111.331 113.227  1.00  0.00     0.180 A 
ATOM      2  C   UNL     1     112.136 111.853 112.937  1.00  0.00     0.208 A 
ATOM      3  C   UNL     1     112.586 111.853 111.607  1.00  0.00     0.238 A 
ATOM      4  O   UNL     1     113.703 112.372 111.348  1.00  0.00    -0.285 OA
ATOM      5  C   UNL     1     111.766 111.315 110.587  1.00  0.00     0.111 A 
ATOM      6  C   UNL     1     112.137 111.226 109.211  1.00  0.00     0.134 A 
ATOM      7  C   UNL     1     111.197 110.795 108.268  1.00  0.00     0.093 A 
ATOM      8  C   UNL     1     109.921 110.389 108.657  1.00  0.00     0.123 A 
ATOM      9  C   UNL     1     109.566 110.415 110.007  1.00  0.00     0.094 A 
ATOM     10  C   UNL     1     110.471 110.874 110.967  1.00  0.00     0.146 A 
ATOM     11  O   UNL     1     110.091 110.893 112.238  1.00  0.00    -0.452 OA
ENDROOT
BRANCH   1  12
ATOM     12  C   UNL     1     110.330 111.275 114.607  1.00  0.00     0.025 A 
ATOM     13  C   UNL     1     110.022 110.050 115.224  1.00  0.00     0.016 A 
ATOM     14  C   UNL     1     109.496 110.023 116.519  1.00  0.00     0.051 A 
ATOM     15  C   UNL     1     109.258 111.218 117.210  1.00  0.00     0.157 A 
ATOM     16  C   UNL     1     110.069 112.470 115.297  1.00  0.00     0.062 A 
ATOM     17  C   UNL     1     109.543 112.447 116.594  1.00  0.00     0.158 A 
BRANCH  15  18
ATOM     18  O   UNL     1     108.735 111.187 118.502  1.00  0.00    -0.504 OA
ATOM     19  H   UNL     1     109.327 111.299 119.317  1.00  0.00     0.293 HD
ENDBRANCH  15  18
BRANCH  17  20
ATOM     20  O   UNL     1     109.311 113.654 117.251  1.00  0.00    -0.504 OA
ATOM     21  H   UNL     1     110.062 114.200 117.657  1.00  0.00     0.293 HD
ENDBRANCH  17  20
ENDBRANCH   1  12
BRANCH   2  22
ATOM     22  O   UNL     1     112.920 112.400 113.957  1.00  0.00    -0.502 OA
ATOM     23  H   UNL     1     113.823 112.020 114.212  1.00  0.00     0.293 HD
ENDBRANCH   2  22
BRANCH   6  24
ATOM     24  O   UNL     1     113.416 111.520 108.728  1.00  0.00    -0.507 OA
ATOM     25  H   UNL     1     113.744 111.302 107.799  1.00  0.00     0.293 HD
ENDBRANCH   6  24
BRANCH   8  26
ATOM     26  O   UNL     1     109.015 109.951 107.694  1.00  0.00    -0.508 OA
ATOM     27  H   UNL     1     109.237 109.981 106.706  1.00  0.00     0.293 HD
ENDBRANCH   8  26
TORSDOF 6
ENDMDL
