MODEL 1
REMARK VINA RESULT:    -4.258      0.000      0.000
REMARK INTER + INTRA:          -5.318
REMARK INTER:                  -5.005
REMARK INTRA:                  -0.314
REMARK UNBOUND:                -0.314
REMARK SMILES O=c1cc(-c2ccc(O)c(O)c2)oc2cc(O)cc(O)c12
REMARK SMILES IDX 4 1 3 2 2 3 1 4 21 5 19 6 18 7 16 8 15 9 14 10 13 11 5 12
REMARK SMILES IDX 6 13 7 14 8 15 12 16 10 17 9 18 11 20 20 22 17 24
REMARK H PARENT 9 19 11 21 20 23 17 25
REMARK Flexibility Score: inf
ROOT
ATOM      1  C   UNL     1      -1.612  41.292  24.334  1.00  0.00     0.138 A 
ATOM      2  C   UNL     1      -2.224  40.573  25.370  1.00  0.00     0.100 A 
ATOM      3  C   UNL     1      -2.520  39.221  25.191  1.00  0.00     0.197 A 
ATOM      4  O   UNL     1      -3.125  38.618  26.116  1.00  0.00    -0.289 OA
ATOM      5  C   UNL     1      -2.173  38.579  23.979  1.00  0.00     0.107 A 
ATOM      6  C   UNL     1      -2.388  37.196  23.701  1.00  0.00     0.134 A 
ATOM      7  C   UNL     1      -2.109  36.698  22.422  1.00  0.00     0.093 A 
ATOM      8  C   UNL     1      -1.567  37.517  21.432  1.00  0.00     0.123 A 
ATOM      9  C   UNL     1      -1.302  38.858  21.710  1.00  0.00     0.094 A 
ATOM     10  C   UNL     1      -1.601  39.393  22.965  1.00  0.00     0.146 A 
ATOM     11  O   UNL     1      -1.347  40.679  23.185  1.00  0.00    -0.456 OA
ENDROOT
BRANCH   1  12
ATOM     12  C   UNL     1      -1.276  42.731  24.471  1.00  0.00     0.021 A 
ATOM     13  C   UNL     1      -1.226  43.310  25.751  1.00  0.00     0.016 A 
ATOM     14  C   UNL     1      -0.919  44.664  25.907  1.00  0.00     0.051 A 
ATOM     15  C   UNL     1      -0.667  45.465  24.791  1.00  0.00     0.157 A 
ATOM     16  C   UNL     1      -1.034  43.546  23.348  1.00  0.00     0.062 A 
ATOM     17  C   UNL     1      -0.728  44.906  23.504  1.00  0.00     0.158 A 
BRANCH  15  18
ATOM     18  O   UNL     1      -0.362  46.813  24.978  1.00  0.00    -0.504 OA
ATOM     19  H   UNL     1      -0.408  47.255  25.889  1.00  0.00     0.293 HD
ENDBRANCH  15  18
BRANCH  17  20
ATOM     20  O   UNL     1      -0.489  45.703  22.385  1.00  0.00    -0.504 OA
ATOM     21  H   UNL     1      -0.901  45.492  21.484  1.00  0.00     0.293 HD
ENDBRANCH  17  20
ENDBRANCH   1  12
BRANCH   6  22
ATOM     22  O   UNL     1      -2.846  36.271  24.644  1.00  0.00    -0.507 OA
ATOM     23  H   UNL     1      -2.579  36.260  25.616  1.00  0.00     0.293 HD
ENDBRANCH   6  22
BRANCH   8  24
ATOM     24  O   UNL     1      -1.289  36.983  20.176  1.00  0.00    -0.508 OA
ATOM     25  H   UNL     1      -0.799  37.520  19.468  1.00  0.00     0.293 HD
ENDBRANCH   8  24
TORSDOF 5
ENDMDL
MODEL 2
REMARK VINA RESULT:    -3.424      1.758      2.683
REMARK INTER + INTRA:          -4.338
REMARK INTER:                  -4.058
REMARK INTRA:                  -0.280
REMARK UNBOUND:                -0.314
REMARK SMILES O=c1cc(-c2ccc(O)c(O)c2)oc2cc(O)cc(O)c12
REMARK SMILES IDX 4 1 3 2 2 3 1 4 21 5 19 6 18 7 16 8 15 9 14 10 13 11 5 12
REMARK SMILES IDX 6 13 7 14 8 15 12 16 10 17 9 18 11 20 20 22 17 24
REMARK H PARENT 9 19 11 21 20 23 17 25
REMARK Flexibility Score: inf
ROOT
ATOM      1  C   UNL     1      -1.844  41.401  24.352  1.00  0.00     0.138 A 
ATOM      2  C   UNL     1      -2.475  41.101  23.136  1.00  0.00     0.100 A 
ATOM      3  C   UNL     1      -2.609  39.771  22.738  1.00  0.00     0.197 A 
ATOM      4  O   UNL     1      -3.124  39.537  21.613  1.00  0.00    -0.289 OA
ATOM      5  C   UNL     1      -2.136  38.734  23.576  1.00  0.00     0.107 A 
ATOM      6  C   UNL     1      -2.256  37.341  23.293  1.00  0.00     0.134 A 
ATOM      7  C   UNL     1      -1.647  36.409  24.142  1.00  0.00     0.093 A 
ATOM      8  C   UNL     1      -0.975  36.815  25.295  1.00  0.00     0.123 A 
ATOM      9  C   UNL     1      -0.900  38.172  25.611  1.00  0.00     0.094 A 
ATOM     10  C   UNL     1      -1.467  39.129  24.766  1.00  0.00     0.146 A 
ATOM     11  O   UNL     1      -1.360  40.411  25.095  1.00  0.00    -0.456 OA
ENDROOT
BRANCH   1  12
ATOM     12  C   UNL     1      -1.676  42.798  24.823  1.00  0.00     0.021 A 
ATOM     13  C   UNL     1      -2.808  43.617  24.978  1.00  0.00     0.016 A 
ATOM     14  C   UNL     1      -2.676  44.938  25.413  1.00  0.00     0.051 A 
ATOM     15  C   UNL     1      -1.413  45.468  25.691  1.00  0.00     0.157 A 
ATOM     16  C   UNL     1      -0.404  43.341  25.092  1.00  0.00     0.062 A 
ATOM     17  C   UNL     1      -0.270  44.669  25.526  1.00  0.00     0.158 A 
BRANCH  15  18
ATOM     18  O   UNL     1      -1.313  46.790  26.125  1.00  0.00    -0.504 OA
ATOM     19  H   UNL     1      -0.435  47.295  26.112  1.00  0.00     0.293 HD
ENDBRANCH  15  18
BRANCH  17  20
ATOM     20  O   UNL     1       0.993  45.195  25.791  1.00  0.00    -0.504 OA
ATOM     21  H   UNL     1       1.486  45.762  25.112  1.00  0.00     0.293 HD
ENDBRANCH  17  20
ENDBRANCH   1  12
BRANCH   6  22
ATOM     22  O   UNL     1      -2.977  36.822  22.213  1.00  0.00    -0.507 OA
ATOM     23  H   UNL     1      -3.072  37.271  21.315  1.00  0.00     0.293 HD
ENDBRANCH   6  22
BRANCH   8  24
ATOM     24  O   UNL     1      -0.395  35.859  26.125  1.00  0.00    -0.508 OA
ATOM     25  H   UNL     1      -0.944  35.117  26.545  1.00  0.00     0.293 HD
ENDBRANCH   8  24
TORSDOF 5
ENDMDL
MODEL 3
REMARK VINA RESULT:    -3.210     20.395     21.974
REMARK INTER + INTRA:          -4.086
REMARK INTER:                  -3.801
REMARK INTRA:                  -0.286
REMARK UNBOUND:                -0.314
REMARK SMILES O=c1cc(-c2ccc(O)c(O)c2)oc2cc(O)cc(O)c12
REMARK SMILES IDX 4 1 3 2 2 3 1 4 21 5 19 6 18 7 16 8 15 9 14 10 13 11 5 12
REMARK SMILES IDX 6 13 7 14 8 15 12 16 10 17 9 18 11 20 20 22 17 24
REMARK H PARENT 9 19 11 21 20 23 17 25
REMARK Flexibility Score: inf
ROOT
ATOM      1  C   UNL     1      16.370  36.594  11.963  1.00  0.00     0.138 A 
ATOM      2  C   UNL     1      16.378  35.662  10.916  1.00  0.00     0.100 A 
ATOM      3  C   UNL     1      16.506  34.303  11.202  1.00  0.00     0.197 A 
ATOM      4  O   UNL     1      16.572  33.496  10.238  1.00  0.00    -0.289 OA
ATOM      5  C   UNL     1      16.595  33.873  12.547  1.00  0.00     0.107 A 
ATOM      6  C   UNL     1      16.686  32.510  12.961  1.00  0.00     0.134 A 
ATOM      7  C   UNL     1      16.886  32.211  14.314  1.00  0.00     0.093 A 
ATOM      8  C   UNL     1      16.938  33.220  15.275  1.00  0.00     0.123 A 
ATOM      9  C   UNL     1      16.795  34.553  14.889  1.00  0.00     0.094 A 
ATOM     10  C   UNL     1      16.628  34.886  13.542  1.00  0.00     0.146 A 
ATOM     11  O   UNL     1      16.511  36.168  13.214  1.00  0.00    -0.456 OA
ENDROOT
BRANCH   1  12
ATOM     12  C   UNL     1      16.237  38.052  11.714  1.00  0.00     0.021 A 
ATOM     13  C   UNL     1      17.097  38.677  10.796  1.00  0.00     0.016 A 
ATOM     14  C   UNL     1      16.997  40.049  10.549  1.00  0.00     0.051 A 
ATOM     15  C   UNL     1      16.046  40.821  11.221  1.00  0.00     0.157 A 
ATOM     16  C   UNL     1      15.288  38.836  12.398  1.00  0.00     0.062 A 
ATOM     17  C   UNL     1      15.188  40.214  12.153  1.00  0.00     0.158 A 
BRANCH  15  18
ATOM     18  O   UNL     1      15.968  42.187  10.953  1.00  0.00    -0.504 OA
ATOM     19  H   UNL     1      15.180  42.750  11.248  1.00  0.00     0.293 HD
ENDBRANCH  15  18
BRANCH  17  20
ATOM     20  O   UNL     1      14.244  40.980  12.835  1.00  0.00    -0.504 OA
ATOM     21  H   UNL     1      13.679  40.589  13.579  1.00  0.00     0.293 HD
ENDBRANCH  17  20
ENDBRANCH   1  12
BRANCH   6  22
ATOM     22  O   UNL     1      16.562  31.420  12.094  1.00  0.00    -0.507 OA
ATOM     23  H   UNL     1      15.728  30.865  11.982  1.00  0.00     0.293 HD
ENDBRANCH   6  22
BRANCH   8  24
ATOM     24  O   UNL     1      17.124  32.885  16.614  1.00  0.00    -0.508 OA
ATOM     25  H   UNL     1      18.004  32.512  16.951  1.00  0.00     0.293 HD
ENDBRANCH   8  24
TORSDOF 5
ENDMDL
MODEL 4
REMARK VINA RESULT:    -2.911     20.866     22.988
REMARK INTER + INTRA:          -3.736
REMARK INTER:                  -3.468
REMARK INTRA:                  -0.268
REMARK UNBOUND:                -0.314
REMARK SMILES O=c1cc(-c2ccc(O)c(O)c2)oc2cc(O)cc(O)c12
REMARK SMILES IDX 4 1 3 2 2 3 1 4 21 5 19 6 18 7 16 8 15 9 14 10 13 11 5 12
REMARK SMILES IDX 6 13 7 14 8 15 12 16 10 17 9 18 11 20 20 22 17 24
REMARK H PARENT 9 19 11 21 20 23 17 25
REMARK Flexibility Score: inf
ROOT
ATOM      1  C   UNL     1      16.317  40.878  11.166  1.00  0.00     0.138 A 
ATOM      2  C   UNL     1      16.688  41.628  12.290  1.00  0.00     0.100 A 
ATOM      3  C   UNL     1      16.687  43.022  12.221  1.00  0.00     0.197 A 
ATOM      4  O   UNL     1      17.084  43.667  13.226  1.00  0.00    -0.289 OA
ATOM      5  C   UNL     1      16.283  43.667  11.028  1.00  0.00     0.107 A 
ATOM      6  C   UNL     1      16.203  45.081  10.855  1.00  0.00     0.134 A 
ATOM      7  C   UNL     1      15.902  45.606   9.593  1.00  0.00     0.093 A 
ATOM      8  C   UNL     1      15.619  44.770   8.513  1.00  0.00     0.123 A 
ATOM      9  C   UNL     1      15.640  43.386   8.685  1.00  0.00     0.094 A 
ATOM     10  C   UNL     1      15.971  42.830   9.923  1.00  0.00     0.146 A 
ATOM     11  O   UNL     1      15.995  41.507  10.041  1.00  0.00    -0.456 OA
ENDROOT
BRANCH   1  12
ATOM     12  C   UNL     1      16.300  39.393  11.185  1.00  0.00     0.021 A 
ATOM     13  C   UNL     1      17.124  38.681  10.298  1.00  0.00     0.016 A 
ATOM     14  C   UNL     1      17.121  37.284  10.291  1.00  0.00     0.051 A 
ATOM     15  C   UNL     1      16.288  36.575  11.160  1.00  0.00     0.157 A 
ATOM     16  C   UNL     1      15.452  38.674  12.050  1.00  0.00     0.062 A 
ATOM     17  C   UNL     1      15.447  37.271  12.042  1.00  0.00     0.158 A 
BRANCH  15  18
ATOM     18  O   UNL     1      16.308  35.180  11.131  1.00  0.00    -0.504 OA
ATOM     19  H   UNL     1      16.456  34.661  10.274  1.00  0.00     0.293 HD
ENDBRANCH  15  18
BRANCH  17  20
ATOM     20  O   UNL     1      14.605  36.569  12.905  1.00  0.00    -0.504 OA
ATOM     21  H   UNL     1      14.926  36.239  13.807  1.00  0.00     0.293 HD
ENDBRANCH  17  20
ENDBRANCH   1  12
BRANCH   6  22
ATOM     22  O   UNL     1      16.385  46.006  11.888  1.00  0.00    -0.507 OA
ATOM     23  H   UNL     1      16.639  45.770  12.835  1.00  0.00     0.293 HD
ENDBRANCH   6  22
BRANCH   8  24
ATOM     24  O   UNL     1      15.308  45.328   7.275  1.00  0.00    -0.508 OA
ATOM     25  H   UNL     1      14.435  45.820   7.119  1.00  0.00     0.293 HD
ENDBRANCH   8  24
TORSDOF 5
ENDMDL
MODEL 5
REMARK VINA RESULT:    -2.701     20.476     22.957
REMARK INTER + INTRA:          -3.488
REMARK INTER:                  -3.183
REMARK INTRA:                  -0.306
REMARK UNBOUND:                -0.314
REMARK SMILES O=c1cc(-c2ccc(O)c(O)c2)oc2cc(O)cc(O)c12
REMARK SMILES IDX 4 1 3 2 2 3 1 4 21 5 19 6 18 7 16 8 15 9 14 10 13 11 5 12
REMARK SMILES IDX 6 13 7 14 8 15 12 16 10 17 9 18 11 20 20 22 17 24
REMARK H PARENT 9 19 11 21 20 23 17 25
REMARK Flexibility Score: inf
ROOT
ATOM      1  C   UNL     1      16.330  41.925  10.903  1.00  0.00     0.138 A 
ATOM      2  C   UNL     1      16.476  42.650   9.711  1.00  0.00     0.100 A 
ATOM      3  C   UNL     1      16.453  44.045   9.745  1.00  0.00     0.197 A 
ATOM      4  O   UNL     1      16.524  44.666   8.652  1.00  0.00    -0.289 OA
ATOM      5  C   UNL     1      16.316  44.717  10.982  1.00  0.00     0.107 A 
ATOM      6  C   UNL     1      16.322  46.135  11.142  1.00  0.00     0.134 A 
ATOM      7  C   UNL     1      16.063  46.688  12.402  1.00  0.00     0.093 A 
ATOM      8  C   UNL     1      15.856  45.877  13.517  1.00  0.00     0.123 A 
ATOM      9  C   UNL     1      15.903  44.489  13.383  1.00  0.00     0.094 A 
ATOM     10  C   UNL     1      16.126  43.906  12.133  1.00  0.00     0.146 A 
ATOM     11  O   UNL     1      16.148  42.581  12.045  1.00  0.00    -0.456 OA
ENDROOT
BRANCH   1  12
ATOM     12  C   UNL     1      16.347  40.441  10.924  1.00  0.00     0.021 A 
ATOM     13  C   UNL     1      17.099  39.745   9.962  1.00  0.00     0.016 A 
ATOM     14  C   UNL     1      17.125  38.348   9.956  1.00  0.00     0.051 A 
ATOM     15  C   UNL     1      16.395  37.623  10.900  1.00  0.00     0.157 A 
ATOM     16  C   UNL     1      15.602  39.706  11.866  1.00  0.00     0.062 A 
ATOM     17  C   UNL     1      15.625  38.303  11.859  1.00  0.00     0.158 A 
BRANCH  15  18
ATOM     18  O   UNL     1      16.441  36.229  10.870  1.00  0.00    -0.504 OA
ATOM     19  H   UNL     1      17.025  35.724  10.214  1.00  0.00     0.293 HD
ENDBRANCH  15  18
BRANCH  17  20
ATOM     20  O   UNL     1      14.886  37.585  12.797  1.00  0.00    -0.504 OA
ATOM     21  H   UNL     1      13.877  37.658  12.848  1.00  0.00     0.293 HD
ENDBRANCH  17  20
ENDBRANCH   1  12
BRANCH   6  22
ATOM     22  O   UNL     1      16.601  47.037  10.111  1.00  0.00    -0.507 OA
ATOM     23  H   UNL     1      17.161  46.828   9.299  1.00  0.00     0.293 HD
ENDBRANCH   6  22
BRANCH   8  24
ATOM     24  O   UNL     1      15.615  46.463  14.758  1.00  0.00    -0.508 OA
ATOM     25  H   UNL     1      16.057  47.335  15.028  1.00  0.00     0.293 HD
ENDBRANCH   8  24
TORSDOF 5
ENDMDL
MODEL 6
REMARK VINA RESULT:    -2.120     17.178     19.824
REMARK INTER + INTRA:          -2.805
REMARK INTER:                  -2.525
REMARK INTRA:                  -0.280
REMARK UNBOUND:                -0.314
REMARK SMILES O=c1cc(-c2ccc(O)c(O)c2)oc2cc(O)cc(O)c12
REMARK SMILES IDX 4 1 3 2 2 3 1 4 21 5 19 6 18 7 16 8 15 9 14 10 13 11 5 12
REMARK SMILES IDX 6 13 7 14 8 15 12 16 10 17 9 18 11 20 20 22 17 24
REMARK H PARENT 9 19 11 21 20 23 17 25
REMARK Flexibility Score: inf
ROOT
ATOM      1  C   UNL     1      12.749  35.101  13.488  1.00  0.00     0.138 A 
ATOM      2  C   UNL     1      13.309  36.283  12.984  1.00  0.00     0.100 A 
ATOM      3  C   UNL     1      14.551  36.243  12.349  1.00  0.00     0.197 A 
ATOM      4  O   UNL     1      15.056  37.329  11.963  1.00  0.00    -0.289 OA
ATOM      5  C   UNL     1      15.220  35.006  12.189  1.00  0.00     0.107 A 
ATOM      6  C   UNL     1      16.469  34.838  11.521  1.00  0.00     0.134 A 
ATOM      7  C   UNL     1      17.091  33.584  11.526  1.00  0.00     0.093 A 
ATOM      8  C   UNL     1      16.483  32.480  12.122  1.00  0.00     0.123 A 
ATOM      9  C   UNL     1      15.235  32.621  12.730  1.00  0.00     0.094 A 
ATOM     10  C   UNL     1      14.604  33.867  12.771  1.00  0.00     0.146 A 
ATOM     11  O   UNL     1      13.423  33.961  13.373  1.00  0.00    -0.456 OA
ENDROOT
BRANCH   1  12
ATOM     12  C   UNL     1      11.432  35.087  14.172  1.00  0.00     0.021 A 
ATOM     13  C   UNL     1      11.235  35.893  15.307  1.00  0.00     0.016 A 
ATOM     14  C   UNL     1      10.007  35.893  15.973  1.00  0.00     0.051 A 
ATOM     15  C   UNL     1       8.960  35.082  15.527  1.00  0.00     0.157 A 
ATOM     16  C   UNL     1      10.379  34.262  13.734  1.00  0.00     0.062 A 
ATOM     17  C   UNL     1       9.146  34.259  14.404  1.00  0.00     0.158 A 
BRANCH  15  18
ATOM     18  O   UNL     1       7.745  35.104  16.212  1.00  0.00    -0.504 OA
ATOM     19  H   UNL     1       7.426  35.922  16.717  1.00  0.00     0.293 HD
ENDBRANCH  15  18
BRANCH  17  20
ATOM     20  O   UNL     1       8.109  33.439  13.960  1.00  0.00    -0.504 OA
ATOM     21  H   UNL     1       8.248  32.451  13.790  1.00  0.00     0.293 HD
ENDBRANCH  17  20
ENDBRANCH   1  12
BRANCH   6  22
ATOM     22  O   UNL     1      17.125  35.856  10.822  1.00  0.00    -0.507 OA
ATOM     23  H   UNL     1      17.831  36.461  11.212  1.00  0.00     0.293 HD
ENDBRANCH   6  22
BRANCH   8  24
ATOM     24  O   UNL     1      17.124  31.244  12.094  1.00  0.00    -0.508 OA
ATOM     25  H   UNL     1      17.127  30.629  12.901  1.00  0.00     0.293 HD
ENDBRANCH   8  24
TORSDOF 5
ENDMDL
MODEL 7
REMARK VINA RESULT:    -1.866     16.888     19.483
REMARK INTER + INTRA:          -2.506
REMARK INTER:                  -2.243
REMARK INTRA:                  -0.264
REMARK UNBOUND:                -0.314
REMARK SMILES O=c1cc(-c2ccc(O)c(O)c2)oc2cc(O)cc(O)c12
REMARK SMILES IDX 4 1 3 2 2 3 1 4 21 5 19 6 18 7 16 8 15 9 14 10 13 11 5 12
REMARK SMILES IDX 6 13 7 14 8 15 12 16 10 17 9 18 11 20 20 22 17 24
REMARK H PARENT 9 19 11 21 20 23 17 25
REMARK Flexibility Score: inf
ROOT
ATOM      1  C   UNL     1      12.585  35.064  13.631  1.00  0.00     0.138 A 
ATOM      2  C   UNL     1      13.183  33.834  13.322  1.00  0.00     0.100 A 
ATOM      3  C   UNL     1      14.399  33.811  12.637  1.00  0.00     0.197 A 
ATOM      4  O   UNL     1      14.880  32.691  12.319  1.00  0.00    -0.289 OA
ATOM      5  C   UNL     1      15.034  35.026  12.288  1.00  0.00     0.107 A 
ATOM      6  C   UNL     1      16.294  35.124  11.627  1.00  0.00     0.134 A 
ATOM      7  C   UNL     1      16.769  36.380  11.229  1.00  0.00     0.093 A 
ATOM      8  C   UNL     1      16.060  37.544  11.521  1.00  0.00     0.123 A 
ATOM      9  C   UNL     1      14.853  37.465  12.217  1.00  0.00     0.094 A 
ATOM     10  C   UNL     1      14.335  36.224  12.597  1.00  0.00     0.146 A 
ATOM     11  O   UNL     1      13.176  36.190  13.244  1.00  0.00    -0.456 OA
ENDROOT
BRANCH   1  12
ATOM     12  C   UNL     1      11.294  35.146  14.358  1.00  0.00     0.021 A 
ATOM     13  C   UNL     1      10.091  35.147  13.631  1.00  0.00     0.016 A 
ATOM     14  C   UNL     1       8.862  35.232  14.291  1.00  0.00     0.051 A 
ATOM     15  C   UNL     1       8.812  35.328  15.684  1.00  0.00     0.157 A 
ATOM     16  C   UNL     1      11.239  35.257  15.761  1.00  0.00     0.062 A 
ATOM     17  C   UNL     1      10.006  35.344  16.424  1.00  0.00     0.158 A 
BRANCH  15  18
ATOM     18  O   UNL     1       7.571  35.409  16.315  1.00  0.00    -0.504 OA
ATOM     19  H   UNL     1       7.247  36.260  16.758  1.00  0.00     0.293 HD
ENDBRANCH  15  18
BRANCH  17  20
ATOM     20  O   UNL     1       9.963  35.450  17.814  1.00  0.00    -0.504 OA
ATOM     21  H   UNL     1      10.120  34.649  18.413  1.00  0.00     0.293 HD
ENDBRANCH  17  20
ENDBRANCH   1  12
BRANCH   6  22
ATOM     22  O   UNL     1      17.125  34.031  11.361  1.00  0.00    -0.507 OA
ATOM     23  H   UNL     1      16.988  33.374  10.608  1.00  0.00     0.293 HD
ENDBRANCH   6  22
BRANCH   8  24
ATOM     24  O   UNL     1      16.570  38.778  11.123  1.00  0.00    -0.508 OA
ATOM     25  H   UNL     1      15.998  39.455  10.632  1.00  0.00     0.293 HD
ENDBRANCH   8  24
TORSDOF 5
ENDMDL
MODEL 8
REMARK VINA RESULT:    -1.556     15.611     18.341
REMARK INTER + INTRA:          -2.143
REMARK INTER:                  -1.876
REMARK INTRA:                  -0.267
REMARK UNBOUND:                -0.314
REMARK SMILES O=c1cc(-c2ccc(O)c(O)c2)oc2cc(O)cc(O)c12
REMARK SMILES IDX 4 1 3 2 2 3 1 4 21 5 19 6 18 7 16 8 15 9 14 10 13 11 5 12
REMARK SMILES IDX 6 13 7 14 8 15 12 16 10 17 9 18 11 20 20 22 17 24
REMARK H PARENT 9 19 11 21 20 23 17 25
REMARK Flexibility Score: inf
ROOT
ATOM      1  C   UNL     1      11.843  34.270  13.360  1.00  0.00     0.138 A 
ATOM      2  C   UNL     1      11.319  33.014  13.026  1.00  0.00     0.100 A 
ATOM      3  C   UNL     1      10.020  32.683  13.413  1.00  0.00     0.197 A 
ATOM      4  O   UNL     1       9.600  31.525  13.153  1.00  0.00    -0.289 OA
ATOM      5  C   UNL     1       9.231  33.628  14.109  1.00  0.00     0.107 A 
ATOM      6  C   UNL     1       7.880  33.417  14.516  1.00  0.00     0.134 A 
ATOM      7  C   UNL     1       7.237  34.381  15.302  1.00  0.00     0.093 A 
ATOM      8  C   UNL     1       7.874  35.573  15.645  1.00  0.00     0.123 A 
ATOM      9  C   UNL     1       9.176  35.815  15.205  1.00  0.00     0.094 A 
ATOM     10  C   UNL     1       9.857  34.857  14.449  1.00  0.00     0.146 A 
ATOM     11  O   UNL     1      11.101  35.119  14.063  1.00  0.00    -0.456 OA
ENDROOT
BRANCH   1  12
ATOM     12  C   UNL     1      13.219  34.674  12.974  1.00  0.00     0.021 A 
ATOM     13  C   UNL     1      13.465  35.123  11.665  1.00  0.00     0.016 A 
ATOM     14  C   UNL     1      14.752  35.501  11.274  1.00  0.00     0.051 A 
ATOM     15  C   UNL     1      15.816  35.427  12.176  1.00  0.00     0.157 A 
ATOM     16  C   UNL     1      14.296  34.588  13.876  1.00  0.00     0.062 A 
ATOM     17  C   UNL     1      15.590  34.965  13.483  1.00  0.00     0.158 A 
BRANCH  15  18
ATOM     18  O   UNL     1      17.089  35.813  11.758  1.00  0.00    -0.504 OA
ATOM     19  H   UNL     1      17.672  35.214  11.185  1.00  0.00     0.293 HD
ENDBRANCH  15  18
BRANCH  17  20
ATOM     20  O   UNL     1      16.649  34.879  14.386  1.00  0.00    -0.504 OA
ATOM     21  H   UNL     1      17.556  35.281  14.181  1.00  0.00     0.293 HD
ENDBRANCH  17  20
ENDBRANCH   1  12
BRANCH   6  22
ATOM     22  O   UNL     1       7.121  32.298  14.159  1.00  0.00    -0.507 OA
ATOM     23  H   UNL     1       7.245  31.766  13.311  1.00  0.00     0.293 HD
ENDBRANCH   6  22
BRANCH   8  24
ATOM     24  O   UNL     1       7.198  36.517  16.415  1.00  0.00    -0.508 OA
ATOM     25  H   UNL     1       7.651  37.368  16.730  1.00  0.00     0.293 HD
ENDBRANCH   8  24
TORSDOF 5
ENDMDL
MODEL 9
REMARK VINA RESULT:    -1.423     15.340     18.009
REMARK INTER + INTRA:          -1.986
REMARK INTER:                  -1.708
REMARK INTRA:                  -0.278
REMARK UNBOUND:                -0.314
REMARK SMILES O=c1cc(-c2ccc(O)c(O)c2)oc2cc(O)cc(O)c12
REMARK SMILES IDX 4 1 3 2 2 3 1 4 21 5 19 6 18 7 16 8 15 9 14 10 13 11 5 12
REMARK SMILES IDX 6 13 7 14 8 15 12 16 10 17 9 18 11 20 20 22 17 24
REMARK H PARENT 9 19 11 21 20 23 17 25
REMARK Flexibility Score: inf
ROOT
ATOM      1  C   UNL     1      11.796  34.858  14.042  1.00  0.00     0.138 A 
ATOM      2  C   UNL     1      11.655  35.643  15.194  1.00  0.00     0.100 A 
ATOM      3  C   UNL     1      10.448  35.631  15.894  1.00  0.00     0.197 A 
ATOM      4  O   UNL     1      10.331  36.394  16.889  1.00  0.00    -0.289 OA
ATOM      5  C   UNL     1       9.388  34.803  15.455  1.00  0.00     0.107 A 
ATOM      6  C   UNL     1       8.128  34.678  16.113  1.00  0.00     0.134 A 
ATOM      7  C   UNL     1       7.113  33.916  15.522  1.00  0.00     0.093 A 
ATOM      8  C   UNL     1       7.330  33.228  14.329  1.00  0.00     0.123 A 
ATOM      9  C   UNL     1       8.576  33.299  13.705  1.00  0.00     0.094 A 
ATOM     10  C   UNL     1       9.599  34.078  14.252  1.00  0.00     0.146 A 
ATOM     11  O   UNL     1      10.766  34.131  13.619  1.00  0.00    -0.456 OA
ENDROOT
BRANCH   1  12
ATOM     12  C   UNL     1      13.057  34.833  13.259  1.00  0.00     0.021 A 
ATOM     13  C   UNL     1      13.002  34.913  11.857  1.00  0.00     0.016 A 
ATOM     14  C   UNL     1      14.174  34.884  11.098  1.00  0.00     0.051 A 
ATOM     15  C   UNL     1      15.419  34.764  11.721  1.00  0.00     0.157 A 
ATOM     16  C   UNL     1      14.312  34.699  13.883  1.00  0.00     0.062 A 
ATOM     17  C   UNL     1      15.490  34.668  13.121  1.00  0.00     0.158 A 
BRANCH  15  18
ATOM     18  O   UNL     1      16.572  34.740  10.937  1.00  0.00    -0.504 OA
ATOM     19  H   UNL     1      16.913  33.888  10.507  1.00  0.00     0.293 HD
ENDBRANCH  15  18
BRANCH  17  20
ATOM     20  O   UNL     1      16.728  34.538  13.749  1.00  0.00    -0.504 OA
ATOM     21  H   UNL     1      16.879  33.867  14.493  1.00  0.00     0.293 HD
ENDBRANCH  17  20
ENDBRANCH   1  12
BRANCH   6  22
ATOM     22  O   UNL     1       7.832  35.256  17.352  1.00  0.00    -0.507 OA
ATOM     23  H   UNL     1       7.707  34.744  18.211  1.00  0.00     0.293 HD
ENDBRANCH   6  22
BRANCH   8  24
ATOM     24  O   UNL     1       6.302  32.468  13.776  1.00  0.00    -0.508 OA
ATOM     25  H   UNL     1       5.364  32.486  14.161  1.00  0.00     0.293 HD
ENDBRANCH   8  24
TORSDOF 5
ENDMDL
