MODEL 1
REMARK VINA RESULT:    -2.619      0.000      0.000
REMARK INTER + INTRA:          -6.900
REMARK INTER:                  -4.762
REMARK INTRA:                  -2.139
REMARK UNBOUND:                -2.139
REMARK SMILES CCCCCCCCCCCCCCCC(=O)[O-]
REMARK SMILES IDX 9 1 10 2 11 3 12 4 13 5 14 6 15 7 16 8 17 9 18 10 8 11 7 12
REMARK SMILES IDX 6 13 5 14 4 15 3 16 2 17 1 18
REMARK H PARENT
REMARK Flexibility Score: inf
ROOT
ATOM      1  C   UNL     1       7.697  -4.636  -6.646  1.00  0.00     0.000 C 
ENDROOT
BRANCH   1   2
ATOM      2  C   UNL     1       8.645  -3.909  -7.617  1.00  0.00     0.000 C 
BRANCH   2   3
ATOM      3  C   UNL     1       8.799  -4.640  -8.961  1.00  0.00     0.000 C 
BRANCH   3   4
ATOM      4  C   UNL     1       8.021  -3.963 -10.104  1.00  0.00     0.000 C 
BRANCH   4   5
ATOM      5  C   UNL     1       8.090  -2.425 -10.125  1.00  0.00     0.000 C 
BRANCH   5   6
ATOM      6  C   UNL     1       6.706  -1.761 -10.079  1.00  0.00     0.006 C 
BRANCH   6   7
ATOM      7  C   UNL     1       5.597  -2.811  -9.967  1.00  0.00     0.053 C 
BRANCH   7   8
ATOM      8  C   UNL     1       4.316  -2.175  -9.528  1.00  0.00     0.041 C 
ATOM      9  O   UNL     1       3.502  -2.818  -8.814  1.00  0.00    -0.550 OA
ATOM     10  O   UNL     1       3.997  -0.890  -9.947  1.00  0.00    -0.550 OA
ENDBRANCH   7   8
ENDBRANCH   6   7
ENDBRANCH   5   6
ENDBRANCH   4   5
ENDBRANCH   3   4
ENDBRANCH   2   3
ENDBRANCH   1   2
BRANCH   1  11
ATOM     11  C   UNL     1       6.237  -4.777  -7.127  1.00  0.00     0.000 C 
BRANCH  11  12
ATOM     12  C   UNL     1       5.268  -5.408  -6.111  1.00  0.00    -0.000 C 
BRANCH  12  13
ATOM     13  C   UNL     1       5.042  -6.909  -6.358  1.00  0.00    -0.000 C 
BRANCH  13  14
ATOM     14  C   UNL     1       4.664  -7.217  -7.816  1.00  0.00    -0.000 C 
BRANCH  14  15
ATOM     15  C   UNL     1       5.543  -8.312  -8.440  1.00  0.00    -0.000 C 
BRANCH  15  16
ATOM     16  C   UNL     1       6.630  -7.698  -9.334  1.00  0.00    -0.000 C 
BRANCH  16  17
ATOM     17  C   UNL     1       8.039  -8.197  -8.979  1.00  0.00    -0.003 C 
ATOM     18  C   UNL     1       8.304  -8.198  -7.473  1.00  0.00     0.004 C 
ENDBRANCH  16  17
ENDBRANCH  15  16
ENDBRANCH  14  15
ENDBRANCH  13  14
ENDBRANCH  12  13
ENDBRANCH  11  12
ENDBRANCH   1  11
TORSDOF 14
ENDMDL
MODEL 2
REMARK VINA RESULT:    -2.577      3.392      5.839
REMARK INTER + INTRA:          -6.825
REMARK INTER:                  -4.996
REMARK INTRA:                  -1.829
REMARK UNBOUND:                -2.139
REMARK SMILES CCCCCCCCCCCCCCCC(=O)[O-]
REMARK SMILES IDX 9 1 10 2 11 3 12 4 13 5 14 6 15 7 16 8 17 9 18 10 8 11 7 12
REMARK SMILES IDX 6 13 5 14 4 15 3 16 2 17 1 18
REMARK H PARENT
REMARK Flexibility Score: inf
ROOT
ATOM      1  C   UNL     1       6.346  -4.688  -6.247  1.00  0.00     0.000 C 
ENDROOT
BRANCH   1   2
ATOM      2  C   UNL     1       7.269  -4.490  -7.463  1.00  0.00     0.000 C 
BRANCH   2   3
ATOM      3  C   UNL     1       8.762  -4.524  -7.093  1.00  0.00     0.000 C 
BRANCH   3   4
ATOM      4  C   UNL     1       9.125  -5.704  -6.174  1.00  0.00     0.000 C 
BRANCH   4   5
ATOM      5  C   UNL     1       9.002  -7.098  -6.816  1.00  0.00     0.000 C 
BRANCH   5   6
ATOM      6  C   UNL     1       8.939  -8.232  -5.782  1.00  0.00     0.006 C 
BRANCH   6   7
ATOM      7  C   UNL     1       8.883  -7.673  -4.357  1.00  0.00     0.053 C 
BRANCH   7   8
ATOM      8  C   UNL     1       7.661  -8.164  -3.649  1.00  0.00     0.041 C 
ATOM      9  O   UNL     1       6.524  -8.007  -4.165  1.00  0.00    -0.550 OA
ATOM     10  O   UNL     1       7.772  -8.751  -2.395  1.00  0.00    -0.550 OA
ENDBRANCH   7   8
ENDBRANCH   6   7
ENDBRANCH   5   6
ENDBRANCH   4   5
ENDBRANCH   3   4
ENDBRANCH   2   3
ENDBRANCH   1   2
BRANCH   1  11
ATOM     11  C   UNL     1       5.195  -5.696  -6.446  1.00  0.00     0.000 C 
BRANCH  11  12
ATOM     12  C   UNL     1       5.503  -6.866  -7.398  1.00  0.00    -0.000 C 
BRANCH  12  13
ATOM     13  C   UNL     1       4.394  -7.093  -8.440  1.00  0.00    -0.000 C 
BRANCH  13  14
ATOM     14  C   UNL     1       4.869  -6.819  -9.877  1.00  0.00    -0.000 C 
BRANCH  14  15
ATOM     15  C   UNL     1       5.323  -5.367 -10.087  1.00  0.00    -0.000 C 
BRANCH  15  16
ATOM     16  C   UNL     1       4.201  -4.385  -9.718  1.00  0.00    -0.000 C 
BRANCH  16  17
ATOM     17  C   UNL     1       4.689  -2.929  -9.652  1.00  0.00    -0.003 C 
ATOM     18  C   UNL     1       3.551  -1.934  -9.423  1.00  0.00     0.004 C 
ENDBRANCH  16  17
ENDBRANCH  15  16
ENDBRANCH  14  15
ENDBRANCH  13  14
ENDBRANCH  12  13
ENDBRANCH  11  12
ENDBRANCH   1  11
TORSDOF 14
ENDMDL
MODEL 3
REMARK VINA RESULT:    -2.350      2.070      5.528
REMARK INTER + INTRA:          -6.411
REMARK INTER:                  -5.105
REMARK INTRA:                  -1.306
REMARK UNBOUND:                -2.139
REMARK SMILES CCCCCCCCCCCCCCCC(=O)[O-]
REMARK SMILES IDX 9 1 10 2 11 3 12 4 13 5 14 6 15 7 16 8 17 9 18 10 8 11 7 12
REMARK SMILES IDX 6 13 5 14 4 15 3 16 2 17 1 18
REMARK H PARENT
REMARK Flexibility Score: inf
ROOT
ATOM      1  C   UNL     1       8.632  -5.209  -5.508  1.00  0.00     0.000 C 
ENDROOT
BRANCH   1   2
ATOM      2  C   UNL     1       8.902  -6.517  -4.741  1.00  0.00     0.000 C 
BRANCH   2   3
ATOM      3  C   UNL     1       8.913  -7.754  -5.655  1.00  0.00     0.000 C 
BRANCH   3   4
ATOM      4  C   UNL     1       7.503  -8.300  -5.944  1.00  0.00     0.000 C 
BRANCH   4   5
ATOM      5  C   UNL     1       7.010  -8.114  -7.390  1.00  0.00     0.000 C 
BRANCH   5   6
ATOM      6  C   UNL     1       5.507  -7.813  -7.479  1.00  0.00     0.006 C 
BRANCH   6   7
ATOM      7  C   UNL     1       5.246  -6.305  -7.447  1.00  0.00     0.053 C 
BRANCH   7   8
ATOM      8  C   UNL     1       4.994  -5.846  -6.046  1.00  0.00     0.041 C 
ATOM      9  O   UNL     1       4.376  -6.587  -5.238  1.00  0.00    -0.550 OA
ATOM     10  O   UNL     1       5.398  -4.579  -5.646  1.00  0.00    -0.550 OA
ENDBRANCH   7   8
ENDBRANCH   6   7
ENDBRANCH   5   6
ENDBRANCH   4   5
ENDBRANCH   3   4
ENDBRANCH   2   3
ENDBRANCH   1   2
BRANCH   1  11
ATOM     11  C   UNL     1       9.105  -5.193  -6.977  1.00  0.00     0.000 C 
BRANCH  11  12
ATOM     12  C   UNL     1       8.231  -4.369  -7.940  1.00  0.00    -0.000 C 
BRANCH  12  13
ATOM     13  C   UNL     1       9.012  -3.240  -8.633  1.00  0.00    -0.000 C 
BRANCH  13  14
ATOM     14  C   UNL     1       8.116  -2.364  -9.524  1.00  0.00    -0.000 C 
BRANCH  14  15
ATOM     15  C   UNL     1       6.928  -3.136 -10.117  1.00  0.00    -0.000 C 
BRANCH  15  16
ATOM     16  C   UNL     1       5.613  -2.719  -9.442  1.00  0.00    -0.000 C 
BRANCH  16  17
ATOM     17  C   UNL     1       4.969  -1.495 -10.110  1.00  0.00    -0.003 C 
ATOM     18  C   UNL     1       3.516  -1.284  -9.684  1.00  0.00     0.004 C 
ENDBRANCH  16  17
ENDBRANCH  15  16
ENDBRANCH  14  15
ENDBRANCH  13  14
ENDBRANCH  12  13
ENDBRANCH  11  12
ENDBRANCH   1  11
TORSDOF 14
ENDMDL
MODEL 4
REMARK VINA RESULT:    -2.343      2.196      3.549
REMARK INTER + INTRA:          -6.399
REMARK INTER:                  -4.313
REMARK INTRA:                  -2.086
REMARK UNBOUND:                -2.139
REMARK SMILES CCCCCCCCCCCCCCCC(=O)[O-]
REMARK SMILES IDX 9 1 10 2 11 3 12 4 13 5 14 6 15 7 16 8 17 9 18 10 8 11 7 12
REMARK SMILES IDX 6 13 5 14 4 15 3 16 2 17 1 18
REMARK H PARENT
REMARK Flexibility Score: inf
ROOT
ATOM      1  C   UNL     1       9.104  -4.783  -7.154  1.00  0.00     0.000 C 
ENDROOT
BRANCH   1   2
ATOM      2  C   UNL     1       9.081  -3.350  -7.717  1.00  0.00     0.000 C 
BRANCH   2   3
ATOM      3  C   UNL     1       8.165  -3.204  -8.943  1.00  0.00     0.000 C 
BRANCH   3   4
ATOM      4  C   UNL     1       7.723  -4.558  -9.527  1.00  0.00     0.000 C 
BRANCH   4   5
ATOM      5  C   UNL     1       6.200  -4.778  -9.595  1.00  0.00     0.000 C 
BRANCH   5   6
ATOM      6  C   UNL     1       5.486  -4.450  -8.275  1.00  0.00     0.006 C 
BRANCH   6   7
ATOM      7  C   UNL     1       5.006  -5.727  -7.579  1.00  0.00     0.053 C 
BRANCH   7   8
ATOM      8  C   UNL     1       5.177  -5.613  -6.098  1.00  0.00     0.041 C 
ATOM      9  O   UNL     1       5.437  -4.498  -5.574  1.00  0.00    -0.550 OA
ATOM     10  O   UNL     1       5.097  -6.746  -5.299  1.00  0.00    -0.550 OA
ENDBRANCH   7   8
ENDBRANCH   6   7
ENDBRANCH   5   6
ENDBRANCH   4   5
ENDBRANCH   3   4
ENDBRANCH   2   3
ENDBRANCH   1   2
BRANCH   1  11
ATOM     11  C   UNL     1       9.107  -4.891  -5.615  1.00  0.00     0.000 C 
BRANCH  11  12
ATOM     12  C   UNL     1       8.728  -6.272  -5.052  1.00  0.00    -0.000 C 
BRANCH  12  13
ATOM     13  C   UNL     1       9.125  -7.426  -5.989  1.00  0.00    -0.000 C 
BRANCH  13  14
ATOM     14  C   UNL     1       7.917  -8.035  -6.720  1.00  0.00    -0.000 C 
BRANCH  14  15
ATOM     15  C   UNL     1       8.039  -7.947  -8.248  1.00  0.00    -0.000 C 
BRANCH  15  16
ATOM     16  C   UNL     1       7.197  -9.038  -8.927  1.00  0.00    -0.000 C 
BRANCH  16  17
ATOM     17  C   UNL     1       5.773  -9.125  -8.358  1.00  0.00    -0.003 C 
ATOM     18  C   UNL     1       4.695  -8.929  -9.424  1.00  0.00     0.004 C 
ENDBRANCH  16  17
ENDBRANCH  15  16
ENDBRANCH  14  15
ENDBRANCH  13  14
ENDBRANCH  12  13
ENDBRANCH  11  12
ENDBRANCH   1  11
TORSDOF 14
ENDMDL
MODEL 5
REMARK VINA RESULT:    -2.334      1.318      2.652
REMARK INTER + INTRA:          -6.383
REMARK INTER:                  -5.159
REMARK INTRA:                  -1.224
REMARK UNBOUND:                -2.139
REMARK SMILES CCCCCCCCCCCCCCCC(=O)[O-]
REMARK SMILES IDX 9 1 10 2 11 3 12 4 13 5 14 6 15 7 16 8 17 9 18 10 8 11 7 12
REMARK SMILES IDX 6 13 5 14 4 15 3 16 2 17 1 18
REMARK H PARENT
REMARK Flexibility Score: inf
ROOT
ATOM      1  C   UNL     1       8.237  -4.564  -6.435  1.00  0.00     0.000 C 
ENDROOT
BRANCH   1   2
ATOM      2  C   UNL     1       8.920  -4.408  -7.806  1.00  0.00     0.000 C 
BRANCH   2   3
ATOM      3  C   UNL     1       8.688  -3.024  -8.436  1.00  0.00     0.000 C 
BRANCH   3   4
ATOM      4  C   UNL     1       7.497  -3.000  -9.412  1.00  0.00     0.000 C 
BRANCH   4   5
ATOM      5  C   UNL     1       6.669  -4.297  -9.468  1.00  0.00     0.000 C 
BRANCH   5   6
ATOM      6  C   UNL     1       5.235  -4.118  -8.950  1.00  0.00     0.006 C 
BRANCH   6   7
ATOM      7  C   UNL     1       4.352  -3.439 -10.001  1.00  0.00     0.053 C 
BRANCH   7   8
ATOM      8  C   UNL     1       3.916  -2.089  -9.528  1.00  0.00     0.041 C 
ATOM      9  O   UNL     1       3.052  -1.986  -8.617  1.00  0.00    -0.550 OA
ATOM     10  O   UNL     1       4.427  -0.944 -10.125  1.00  0.00    -0.550 OA
ENDBRANCH   7   8
ENDBRANCH   6   7
ENDBRANCH   5   6
ENDBRANCH   4   5
ENDBRANCH   3   4
ENDBRANCH   2   3
ENDBRANCH   1   2
BRANCH   1  11
ATOM     11  C   UNL     1       8.988  -5.449  -5.419  1.00  0.00     0.000 C 
BRANCH  11  12
ATOM     12  C   UNL     1       8.809  -6.966  -5.610  1.00  0.00    -0.000 C 
BRANCH  12  13
ATOM     13  C   UNL     1       8.321  -7.334  -7.021  1.00  0.00    -0.000 C 
BRANCH  13  14
ATOM     14  C   UNL     1       7.576  -8.679  -7.056  1.00  0.00    -0.000 C 
BRANCH  14  15
ATOM     15  C   UNL     1       6.102  -8.554  -6.643  1.00  0.00    -0.000 C 
BRANCH  15  16
ATOM     16  C   UNL     1       5.478  -7.277  -7.225  1.00  0.00    -0.000 C 
BRANCH  16  17
ATOM     17  C   UNL     1       4.976  -6.316  -6.137  1.00  0.00    -0.003 C 
ATOM     18  C   UNL     1       4.259  -7.036  -4.995  1.00  0.00     0.004 C 
ENDBRANCH  16  17
ENDBRANCH  15  16
ENDBRANCH  14  15
ENDBRANCH  13  14
ENDBRANCH  12  13
ENDBRANCH  11  12
ENDBRANCH   1  11
TORSDOF 14
ENDMDL
MODEL 6
REMARK VINA RESULT:    -2.101      1.792      3.869
REMARK INTER + INTRA:          -5.958
REMARK INTER:                  -4.145
REMARK INTRA:                  -1.813
REMARK UNBOUND:                -2.139
REMARK SMILES CCCCCCCCCCCCCCCC(=O)[O-]
REMARK SMILES IDX 9 1 10 2 11 3 12 4 13 5 14 6 15 7 16 8 17 9 18 10 8 11 7 12
REMARK SMILES IDX 6 13 5 14 4 15 3 16 2 17 1 18
REMARK H PARENT
REMARK Flexibility Score: inf
ROOT
ATOM      1  C   UNL     1       5.477  -6.565  -5.556  1.00  0.00     0.000 C 
ENDROOT
BRANCH   1   2
ATOM      2  C   UNL     1       4.564  -6.909  -6.747  1.00  0.00     0.000 C 
BRANCH   2   3
ATOM      3  C   UNL     1       5.337  -7.484  -7.946  1.00  0.00     0.000 C 
BRANCH   3   4
ATOM      4  C   UNL     1       4.414  -8.074  -9.027  1.00  0.00     0.000 C 
BRANCH   4   5
ATOM      5  C   UNL     1       3.974  -7.088 -10.125  1.00  0.00     0.000 C 
BRANCH   5   6
ATOM      6  C   UNL     1       4.788  -5.785 -10.123  1.00  0.00     0.006 C 
BRANCH   6   7
ATOM      7  C   UNL     1       3.866  -4.562 -10.112  1.00  0.00     0.053 C 
BRANCH   7   8
ATOM      8  C   UNL     1       4.284  -3.599  -9.047  1.00  0.00     0.041 C 
ATOM      9  O   UNL     1       5.392  -3.739  -8.466  1.00  0.00    -0.550 OA
ATOM     10  O   UNL     1       3.429  -2.574  -8.662  1.00  0.00    -0.550 OA
ENDBRANCH   7   8
ENDBRANCH   6   7
ENDBRANCH   5   6
ENDBRANCH   4   5
ENDBRANCH   3   4
ENDBRANCH   2   3
ENDBRANCH   1   2
BRANCH   1  11
ATOM     11  C   UNL     1       5.887  -7.759  -4.668  1.00  0.00     0.000 C 
BRANCH  11  12
ATOM     12  C   UNL     1       7.384  -8.115  -4.696  1.00  0.00    -0.000 C 
BRANCH  12  13
ATOM     13  C   UNL     1       7.761  -9.006  -5.892  1.00  0.00    -0.000 C 
BRANCH  13  14
ATOM     14  C   UNL     1       9.055  -8.546  -6.585  1.00  0.00    -0.000 C 
BRANCH  14  15
ATOM     15  C   UNL     1       8.882  -8.347  -8.098  1.00  0.00    -0.000 C 
BRANCH  15  16
ATOM     16  C   UNL     1       9.028  -6.865  -8.474  1.00  0.00    -0.000 C 
BRANCH  16  17
ATOM     17  C   UNL     1       8.831  -5.929  -7.272  1.00  0.00    -0.003 C 
ATOM     18  C   UNL     1       8.740  -4.457  -7.676  1.00  0.00     0.004 C 
ENDBRANCH  16  17
ENDBRANCH  15  16
ENDBRANCH  14  15
ENDBRANCH  13  14
ENDBRANCH  12  13
ENDBRANCH  11  12
ENDBRANCH   1  11
TORSDOF 14
ENDMDL
MODEL 7
REMARK VINA RESULT:    -1.651      2.172      3.299
REMARK INTER + INTRA:          -5.142
REMARK INTER:                  -3.204
REMARK INTRA:                  -1.938
REMARK UNBOUND:                -2.139
REMARK SMILES CCCCCCCCCCCCCCCC(=O)[O-]
REMARK SMILES IDX 9 1 10 2 11 3 12 4 13 5 14 6 15 7 16 8 17 9 18 10 8 11 7 12
REMARK SMILES IDX 6 13 5 14 4 15 3 16 2 17 1 18
REMARK H PARENT
REMARK Flexibility Score: inf
ROOT
ATOM      1  C   UNL     1       8.212  -4.482  -7.161  1.00  0.00     0.000 C 
ENDROOT
BRANCH   1   2
ATOM      2  C   UNL     1       8.905  -3.396  -8.004  1.00  0.00     0.000 C 
BRANCH   2   3
ATOM      3  C   UNL     1       8.136  -3.057  -9.292  1.00  0.00     0.000 C 
BRANCH   3   4
ATOM      4  C   UNL     1       7.065  -4.106  -9.644  1.00  0.00     0.000 C 
BRANCH   4   5
ATOM      5  C   UNL     1       5.608  -3.624  -9.519  1.00  0.00     0.000 C 
BRANCH   5   6
ATOM      6  C   UNL     1       4.770  -4.485  -8.563  1.00  0.00     0.006 C 
BRANCH   6   7
ATOM      7  C   UNL     1       5.346  -5.900  -8.452  1.00  0.00     0.053 C 
BRANCH   7   8
ATOM      8  C   UNL     1       4.496  -6.872  -9.207  1.00  0.00     0.041 C 
ATOM      9  O   UNL     1       3.734  -6.469 -10.124  1.00  0.00    -0.550 OA
ATOM     10  O   UNL     1       4.509  -8.219  -8.866  1.00  0.00    -0.550 OA
ENDBRANCH   7   8
ENDBRANCH   6   7
ENDBRANCH   5   6
ENDBRANCH   4   5
ENDBRANCH   3   4
ENDBRANCH   2   3
ENDBRANCH   1   2
BRANCH   1  11
ATOM     11  C   UNL     1       9.125  -5.231  -6.166  1.00  0.00     0.000 C 
BRANCH  11  12
ATOM     12  C   UNL     1       8.414  -5.809  -4.930  1.00  0.00    -0.000 C 
BRANCH  12  13
ATOM     13  C   UNL     1       8.275  -7.340  -4.984  1.00  0.00    -0.000 C 
BRANCH  13  14
ATOM     14  C   UNL     1       7.115  -7.796  -5.885  1.00  0.00    -0.000 C 
BRANCH  14  15
ATOM     15  C   UNL     1       7.501  -8.961  -6.809  1.00  0.00    -0.000 C 
BRANCH  15  16
ATOM     16  C   UNL     1       8.538  -8.512  -7.850  1.00  0.00    -0.000 C 
BRANCH  16  17
ATOM     17  C   UNL     1       8.001  -8.583  -9.287  1.00  0.00    -0.003 C 
ATOM     18  C   UNL     1       8.380  -7.360 -10.123  1.00  0.00     0.004 C 
ENDBRANCH  16  17
ENDBRANCH  15  16
ENDBRANCH  14  15
ENDBRANCH  13  14
ENDBRANCH  12  13
ENDBRANCH  11  12
ENDBRANCH   1  11
TORSDOF 14
ENDMDL
MODEL 8
REMARK VINA RESULT:    -1.304     21.551     23.498
REMARK INTER + INTRA:          -4.510
REMARK INTER:                  -3.482
REMARK INTRA:                  -1.028
REMARK UNBOUND:                -2.139
REMARK SMILES CCCCCCCCCCCCCCCC(=O)[O-]
REMARK SMILES IDX 9 1 10 2 11 3 12 4 13 5 14 6 15 7 16 8 17 9 18 10 8 11 7 12
REMARK SMILES IDX 6 13 5 14 4 15 3 16 2 17 1 18
REMARK H PARENT
REMARK Flexibility Score: inf
ROOT
ATOM      1  C   UNL     1     -11.125  -4.413   9.668  1.00  0.00     0.000 C 
ENDROOT
BRANCH   1   2
ATOM      2  C   UNL     1     -10.059  -5.426  10.125  1.00  0.00     0.000 C 
BRANCH   2   3
ATOM      3  C   UNL     1      -8.623  -4.935   9.875  1.00  0.00     0.000 C 
BRANCH   3   4
ATOM      4  C   UNL     1      -7.590  -6.078   9.876  1.00  0.00     0.000 C 
BRANCH   4   5
ATOM      5  C   UNL     1      -8.183  -7.498   9.907  1.00  0.00     0.000 C 
BRANCH   5   6
ATOM      6  C   UNL     1      -8.086  -8.219   8.554  1.00  0.00     0.006 C 
BRANCH   6   7
ATOM      7  C   UNL     1      -9.376  -8.048   7.747  1.00  0.00     0.053 C 
BRANCH   7   8
ATOM      8  C   UNL     1      -9.084  -7.432   6.416  1.00  0.00     0.041 C 
ATOM      9  O   UNL     1      -7.923  -7.022   6.148  1.00  0.00    -0.550 OA
ATOM     10  O   UNL     1     -10.103  -7.265   5.487  1.00  0.00    -0.550 OA
ENDBRANCH   7   8
ENDBRANCH   6   7
ENDBRANCH   5   6
ENDBRANCH   4   5
ENDBRANCH   3   4
ENDBRANCH   2   3
ENDBRANCH   1   2
BRANCH   1  11
ATOM     11  C   UNL     1     -10.745  -3.561   8.439  1.00  0.00     0.000 C 
BRANCH  11  12
ATOM     12  C   UNL     1     -10.785  -4.300   7.089  1.00  0.00    -0.000 C 
BRANCH  12  13
ATOM     13  C   UNL     1      -9.708  -3.807   6.108  1.00  0.00    -0.000 C 
BRANCH  13  14
ATOM     14  C   UNL     1      -8.523  -3.136   6.822  1.00  0.00    -0.000 C 
BRANCH  14  15
ATOM     15  C   UNL     1      -8.910  -1.817   7.507  1.00  0.00    -0.000 C 
BRANCH  15  16
ATOM     16  C   UNL     1      -7.746  -1.278   8.353  1.00  0.00    -0.000 C 
BRANCH  16  17
ATOM     17  C   UNL     1      -8.213  -0.689   9.693  1.00  0.00    -0.003 C 
ATOM     18  C   UNL     1      -9.720  -0.439   9.737  1.00  0.00     0.004 C 
ENDBRANCH  16  17
ENDBRANCH  15  16
ENDBRANCH  14  15
ENDBRANCH  13  14
ENDBRANCH  12  13
ENDBRANCH  11  12
ENDBRANCH   1  11
TORSDOF 14
ENDMDL
