MODEL 1
REMARK VINA RESULT:    -5.429      0.000      0.000
REMARK INTER + INTRA:          -6.956
REMARK INTER:                  -6.540
REMARK INTRA:                  -0.417
REMARK UNBOUND:                -0.417
REMARK SMILES O=c1c(O)c(-c2ccc(O)cc2O)oc2cc(O)cc(O)c12
REMARK SMILES IDX 5 1 3 2 2 3 1 4 22 5 20 6 19 7 17 8 16 9 15 10 14 11 6 12
REMARK SMILES IDX 8 13 7 14 9 15 11 16 12 17 10 18 13 20 4 22 21 24 18 26
REMARK H PARENT 10 19 13 21 4 23 21 25 18 27
REMARK Flexibility Score: inf
ROOT
ATOM      1  C   UNL     1     -42.363  34.014  14.209  1.00  0.00     0.184 A 
ATOM      2  C   UNL     1     -42.506  33.187  13.085  1.00  0.00     0.208 A 
ATOM      3  C   UNL     1     -41.446  32.342  12.721  1.00  0.00     0.238 A 
ATOM      4  O   UNL     1     -41.559  31.643  11.680  1.00  0.00    -0.285 OA
ATOM      5  C   UNL     1     -40.262  32.326  13.498  1.00  0.00     0.111 A 
ATOM      6  C   UNL     1     -39.139  31.481  13.246  1.00  0.00     0.134 A 
ATOM      7  C   UNL     1     -37.970  31.642  14.001  1.00  0.00     0.093 A 
ATOM      8  C   UNL     1     -37.906  32.569  15.040  1.00  0.00     0.123 A 
ATOM      9  C   UNL     1     -39.018  33.359  15.334  1.00  0.00     0.094 A 
ATOM     10  C   UNL     1     -40.186  33.248  14.576  1.00  0.00     0.146 A 
ATOM     11  O   UNL     1     -41.218  34.026  14.880  1.00  0.00    -0.451 OA
ENDROOT
BRANCH   1  12
ATOM     12  C   UNL     1     -43.447  34.913  14.656  1.00  0.00     0.063 A 
ATOM     13  C   UNL     1     -44.470  37.119  14.606  1.00  0.00     0.047 A 
ATOM     14  C   UNL     1     -43.462  36.241  14.199  1.00  0.00     0.020 A 
ATOM     15  C   UNL     1     -45.467  36.686  15.484  1.00  0.00     0.119 A 
ATOM     16  C   UNL     1     -45.449  35.370  15.964  1.00  0.00     0.093 A 
ATOM     17  C   UNL     1     -44.437  34.485  15.565  1.00  0.00     0.130 A 
BRANCH  15  18
ATOM     18  O   UNL     1     -46.467  37.572  15.877  1.00  0.00    -0.508 OA
ATOM     19  H   UNL     1     -46.390  38.569  15.708  1.00  0.00     0.293 HD
ENDBRANCH  15  18
BRANCH  17  20
ATOM     20  O   UNL     1     -44.401  33.192  16.088  1.00  0.00    -0.507 OA
ATOM     21  H   UNL     1     -43.526  32.708  16.252  1.00  0.00     0.293 HD
ENDBRANCH  17  20
ENDBRANCH   1  12
BRANCH   2  22
ATOM     22  O   UNL     1     -43.679  33.237  12.325  1.00  0.00    -0.502 OA
ATOM     23  H   UNL     1     -44.381  33.955  12.458  1.00  0.00     0.293 HD
ENDBRANCH   2  22
BRANCH   6  24
ATOM     24  O   UNL     1     -39.129  30.460  12.292  1.00  0.00    -0.507 OA
ATOM     25  H   UNL     1     -39.663  30.468  11.436  1.00  0.00     0.293 HD
ENDBRANCH   6  24
BRANCH   8  26
ATOM     26  O   UNL     1     -36.733  32.690  15.782  1.00  0.00    -0.508 OA
ATOM     27  H   UNL     1     -36.744  32.692  16.795  1.00  0.00     0.293 HD
ENDBRANCH   8  26
TORSDOF 6
ENDMDL
MODEL 2
REMARK VINA RESULT:    -5.245      2.599      7.609
REMARK INTER + INTRA:          -6.735
REMARK INTER:                  -6.391
REMARK INTRA:                  -0.344
REMARK UNBOUND:                -0.417
REMARK SMILES O=c1c(O)c(-c2ccc(O)cc2O)oc2cc(O)cc(O)c12
REMARK SMILES IDX 5 1 3 2 2 3 1 4 22 5 20 6 19 7 17 8 16 9 15 10 14 11 6 12
REMARK SMILES IDX 8 13 7 14 9 15 11 16 12 17 10 18 13 20 4 22 21 24 18 26
REMARK H PARENT 10 19 13 21 4 23 21 25 18 27
REMARK Flexibility Score: inf
ROOT
ATOM      1  C   UNL     1     -38.702  31.185  14.859  1.00  0.00     0.184 A 
ATOM      2  C   UNL     1     -38.271  32.388  15.438  1.00  0.00     0.208 A 
ATOM      3  C   UNL     1     -39.061  33.539  15.285  1.00  0.00     0.238 A 
ATOM      4  O   UNL     1     -38.642  34.627  15.759  1.00  0.00    -0.285 OA
ATOM      5  C   UNL     1     -40.280  33.464  14.567  1.00  0.00     0.111 A 
ATOM      6  C   UNL     1     -41.179  34.557  14.383  1.00  0.00     0.134 A 
ATOM      7  C   UNL     1     -42.292  34.403  13.546  1.00  0.00     0.093 A 
ATOM      8  C   UNL     1     -42.573  33.179  12.941  1.00  0.00     0.123 A 
ATOM      9  C   UNL     1     -41.733  32.087  13.161  1.00  0.00     0.094 A 
ATOM     10  C   UNL     1     -40.595  32.219  13.962  1.00  0.00     0.146 A 
ATOM     11  O   UNL     1     -39.815  31.159  14.137  1.00  0.00    -0.451 OA
ENDROOT
BRANCH   1  12
ATOM     12  C   UNL     1     -37.927  29.934  14.998  1.00  0.00     0.063 A 
ATOM     13  C   UNL     1     -35.881  28.699  14.552  1.00  0.00     0.047 A 
ATOM     14  C   UNL     1     -36.639  29.867  14.443  1.00  0.00     0.020 A 
ATOM     15  C   UNL     1     -36.405  27.579  15.203  1.00  0.00     0.119 A 
ATOM     16  C   UNL     1     -37.697  27.627  15.740  1.00  0.00     0.093 A 
ATOM     17  C   UNL     1     -38.467  28.795  15.630  1.00  0.00     0.130 A 
BRANCH  15  18
ATOM     18  O   UNL     1     -35.635  26.422  15.307  1.00  0.00    -0.508 OA
ATOM     19  H   UNL     1     -36.044  25.502  15.191  1.00  0.00     0.293 HD
ENDBRANCH  15  18
BRANCH  17  20
ATOM     20  O   UNL     1     -39.771  28.815  16.125  1.00  0.00    -0.507 OA
ATOM     21  H   UNL     1     -40.564  28.563  15.546  1.00  0.00     0.293 HD
ENDBRANCH  17  20
ENDBRANCH   1  12
BRANCH   2  22
ATOM     22  O   UNL     1     -37.055  32.437  16.125  1.00  0.00    -0.502 OA
ATOM     23  H   UNL     1     -36.240  31.916  15.823  1.00  0.00     0.293 HD
ENDBRANCH   2  22
BRANCH   6  24
ATOM     24  O   UNL     1     -41.042  35.796  15.015  1.00  0.00    -0.507 OA
ATOM     25  H   UNL     1     -41.560  36.086  15.831  1.00  0.00     0.293 HD
ENDBRANCH   6  24
BRANCH   8  26
ATOM     26  O   UNL     1     -43.697  33.056  12.128  1.00  0.00    -0.508 OA
ATOM     27  H   UNL     1     -43.656  32.582  11.233  1.00  0.00     0.293 HD
ENDBRANCH   8  26
TORSDOF 6
ENDMDL
MODEL 3
REMARK VINA RESULT:    -5.169      2.301      6.730
REMARK INTER + INTRA:          -6.644
REMARK INTER:                  -6.350
REMARK INTRA:                  -0.293
REMARK UNBOUND:                -0.417
REMARK SMILES O=c1c(O)c(-c2ccc(O)cc2O)oc2cc(O)cc(O)c12
REMARK SMILES IDX 5 1 3 2 2 3 1 4 22 5 20 6 19 7 17 8 16 9 15 10 14 11 6 12
REMARK SMILES IDX 8 13 7 14 9 15 11 16 12 17 10 18 13 20 4 22 21 24 18 26
REMARK H PARENT 10 19 13 21 4 23 21 25 18 27
REMARK Flexibility Score: inf
ROOT
ATOM      1  C   UNL     1     -40.733  32.325  14.678  1.00  0.00     0.184 A 
ATOM      2  C   UNL     1     -40.142  33.261  13.815  1.00  0.00     0.208 A 
ATOM      3  C   UNL     1     -40.783  34.491  13.603  1.00  0.00     0.238 A 
ATOM      4  O   UNL     1     -40.277  35.305  12.786  1.00  0.00    -0.285 OA
ATOM      5  C   UNL     1     -42.000  34.774  14.271  1.00  0.00     0.111 A 
ATOM      6  C   UNL     1     -42.716  36.004  14.162  1.00  0.00     0.134 A 
ATOM      7  C   UNL     1     -43.975  36.125  14.765  1.00  0.00     0.093 A 
ATOM      8  C   UNL     1     -44.513  35.088  15.526  1.00  0.00     0.123 A 
ATOM      9  C   UNL     1     -43.794  33.903  15.688  1.00  0.00     0.094 A 
ATOM     10  C   UNL     1     -42.552  33.737  15.069  1.00  0.00     0.146 A 
ATOM     11  O   UNL     1     -41.906  32.590  15.239  1.00  0.00    -0.451 OA
ENDROOT
BRANCH   1  12
ATOM     12  C   UNL     1     -40.100  31.018  14.957  1.00  0.00     0.063 A 
ATOM     13  C   UNL     1     -40.192  28.593  14.812  1.00  0.00     0.047 A 
ATOM     14  C   UNL     1     -40.759  29.845  14.559  1.00  0.00     0.020 A 
ATOM     15  C   UNL     1     -38.968  28.498  15.478  1.00  0.00     0.119 A 
ATOM     16  C   UNL     1     -38.313  29.662  15.901  1.00  0.00     0.093 A 
ATOM     17  C   UNL     1     -38.879  30.922  15.656  1.00  0.00     0.130 A 
BRANCH  15  18
ATOM     18  O   UNL     1     -38.413  27.243  15.720  1.00  0.00    -0.508 OA
ATOM     19  H   UNL     1     -38.896  26.549  16.280  1.00  0.00     0.293 HD
ENDBRANCH  15  18
BRANCH  17  20
ATOM     20  O   UNL     1     -38.242  32.071  16.125  1.00  0.00    -0.507 OA
ATOM     21  H   UNL     1     -37.413  32.441  15.675  1.00  0.00     0.293 HD
ENDBRANCH  17  20
ENDBRANCH   1  12
BRANCH   2  22
ATOM     22  O   UNL     1     -38.950  32.948  13.155  1.00  0.00    -0.502 OA
ATOM     23  H   UNL     1     -38.104  33.492  13.275  1.00  0.00     0.293 HD
ENDBRANCH   2  22
BRANCH   6  24
ATOM     24  O   UNL     1     -42.229  37.136  13.502  1.00  0.00    -0.507 OA
ATOM     25  H   UNL     1     -42.043  38.023  13.945  1.00  0.00     0.293 HD
ENDBRANCH   6  24
BRANCH   8  26
ATOM     26  O   UNL     1     -45.759  35.249  16.125  1.00  0.00    -0.508 OA
ATOM     27  H   UNL     1     -46.552  34.673  15.865  1.00  0.00     0.293 HD
ENDBRANCH   8  26
TORSDOF 6
ENDMDL
MODEL 4
REMARK VINA RESULT:    -4.961      2.525      4.245
REMARK INTER + INTRA:          -6.393
REMARK INTER:                  -6.003
REMARK INTRA:                  -0.390
REMARK UNBOUND:                -0.417
REMARK SMILES O=c1c(O)c(-c2ccc(O)cc2O)oc2cc(O)cc(O)c12
REMARK SMILES IDX 5 1 3 2 2 3 1 4 22 5 20 6 19 7 17 8 16 9 15 10 14 11 6 12
REMARK SMILES IDX 8 13 7 14 9 15 11 16 12 17 10 18 13 20 4 22 21 24 18 26
REMARK H PARENT 10 19 13 21 4 23 21 25 18 27
REMARK Flexibility Score: inf
ROOT
ATOM      1  C   UNL     1     -39.659  32.148  14.376  1.00  0.00     0.184 A 
ATOM      2  C   UNL     1     -38.390  32.613  14.002  1.00  0.00     0.208 A 
ATOM      3  C   UNL     1     -37.294  31.739  14.076  1.00  0.00     0.238 A 
ATOM      4  O   UNL     1     -36.149  32.177  13.792  1.00  0.00    -0.285 OA
ATOM      5  C   UNL     1     -37.489  30.404  14.510  1.00  0.00     0.111 A 
ATOM      6  C   UNL     1     -36.458  29.419  14.586  1.00  0.00     0.134 A 
ATOM      7  C   UNL     1     -36.738  28.169  15.152  1.00  0.00     0.093 A 
ATOM      8  C   UNL     1     -38.024  27.845  15.583  1.00  0.00     0.123 A 
ATOM      9  C   UNL     1     -39.053  28.780  15.458  1.00  0.00     0.094 A 
ATOM     10  C   UNL     1     -38.797  30.048  14.931  1.00  0.00     0.146 A 
ATOM     11  O   UNL     1     -39.801  30.913  14.840  1.00  0.00    -0.451 OA
ENDROOT
BRANCH   1  12
ATOM     12  C   UNL     1     -40.856  33.012  14.304  1.00  0.00     0.063 A 
ATOM     13  C   UNL     1     -42.278  34.682  15.353  1.00  0.00     0.047 A 
ATOM     14  C   UNL     1     -41.152  33.856  15.386  1.00  0.00     0.020 A 
ATOM     15  C   UNL     1     -43.130  34.665  14.245  1.00  0.00     0.119 A 
ATOM     16  C   UNL     1     -42.857  33.810  13.170  1.00  0.00     0.093 A 
ATOM     17  C   UNL     1     -41.732  32.973  13.198  1.00  0.00     0.130 A 
BRANCH  15  18
ATOM     18  O   UNL     1     -44.247  35.497  14.225  1.00  0.00    -0.508 OA
ATOM     19  H   UNL     1     -44.176  36.485  14.442  1.00  0.00     0.293 HD
ENDBRANCH  15  18
BRANCH  17  20
ATOM     20  O   UNL     1     -41.498  32.090  12.144  1.00  0.00    -0.507 OA
ATOM     21  H   UNL     1     -40.715  32.211  11.512  1.00  0.00     0.293 HD
ENDBRANCH  17  20
ENDBRANCH   1  12
BRANCH   2  22
ATOM     22  O   UNL     1     -38.223  33.941  13.595  1.00  0.00    -0.502 OA
ATOM     23  H   UNL     1     -37.888  34.188  12.672  1.00  0.00     0.293 HD
ENDBRANCH   2  22
BRANCH   6  24
ATOM     24  O   UNL     1     -35.161  29.608  14.101  1.00  0.00    -0.507 OA
ATOM     25  H   UNL     1     -34.649  30.475  14.152  1.00  0.00     0.293 HD
ENDBRANCH   6  24
BRANCH   8  26
ATOM     26  O   UNL     1     -38.271  26.587  16.125  1.00  0.00    -0.508 OA
ATOM     27  H   UNL     1     -39.186  26.332  16.480  1.00  0.00     0.293 HD
ENDBRANCH   8  26
TORSDOF 6
ENDMDL
MODEL 5
REMARK VINA RESULT:    -4.833     12.476     14.231
REMARK INTER + INTRA:          -6.238
REMARK INTER:                  -5.820
REMARK INTRA:                  -0.418
REMARK UNBOUND:                -0.417
REMARK SMILES O=c1c(O)c(-c2ccc(O)cc2O)oc2cc(O)cc(O)c12
REMARK SMILES IDX 5 1 3 2 2 3 1 4 22 5 20 6 19 7 17 8 16 9 15 10 14 11 6 12
REMARK SMILES IDX 8 13 7 14 9 15 11 16 12 17 10 18 13 20 4 22 21 24 18 26
REMARK H PARENT 10 19 13 21 4 23 21 25 18 27
REMARK Flexibility Score: inf
ROOT
ATOM      1  C   UNL     1     -48.382  32.245   2.277  1.00  0.00     0.184 A 
ATOM      2  C   UNL     1     -47.951  32.237   0.942  1.00  0.00     0.208 A 
ATOM      3  C   UNL     1     -47.812  31.008   0.278  1.00  0.00     0.238 A 
ATOM      4  O   UNL     1     -47.372  31.004  -0.901  1.00  0.00    -0.285 OA
ATOM      5  C   UNL     1     -48.122  29.805   0.957  1.00  0.00     0.111 A 
ATOM      6  C   UNL     1     -48.056  28.505   0.370  1.00  0.00     0.134 A 
ATOM      7  C   UNL     1     -48.261  27.374   1.172  1.00  0.00     0.093 A 
ATOM      8  C   UNL     1     -48.592  27.498   2.520  1.00  0.00     0.123 A 
ATOM      9  C   UNL     1     -48.718  28.766   3.090  1.00  0.00     0.094 A 
ATOM     10  C   UNL     1     -48.485  29.912   2.325  1.00  0.00     0.146 A 
ATOM     11  O   UNL     1     -48.603  31.099   2.908  1.00  0.00    -0.451 OA
ENDROOT
BRANCH   1  12
ATOM     12  C   UNL     1     -48.566  33.506   3.027  1.00  0.00     0.063 A 
ATOM     13  C   UNL     1     -49.933  35.459   3.503  1.00  0.00     0.047 A 
ATOM     14  C   UNL     1     -49.730  34.261   2.814  1.00  0.00     0.020 A 
ATOM     15  C   UNL     1     -48.969  35.926   4.401  1.00  0.00     0.119 A 
ATOM     16  C   UNL     1     -47.792  35.193   4.603  1.00  0.00     0.093 A 
ATOM     17  C   UNL     1     -47.579  33.991   3.911  1.00  0.00     0.130 A 
BRANCH  15  18
ATOM     18  O   UNL     1     -49.187  37.121   5.083  1.00  0.00    -0.508 OA
ATOM     19  H   UNL     1     -49.693  37.890   4.657  1.00  0.00     0.293 HD
ENDBRANCH  15  18
BRANCH  17  20
ATOM     20  O   UNL     1     -46.382  33.295   4.082  1.00  0.00    -0.507 OA
ATOM     21  H   UNL     1     -46.336  32.287   3.994  1.00  0.00     0.293 HD
ENDBRANCH  17  20
ENDBRANCH   1  12
BRANCH   2  22
ATOM     22  O   UNL     1     -47.633  33.440   0.303  1.00  0.00    -0.502 OA
ATOM     23  H   UNL     1     -47.281  34.245   0.806  1.00  0.00     0.293 HD
ENDBRANCH   2  22
BRANCH   6  24
ATOM     24  O   UNL     1     -47.822  28.272  -0.988  1.00  0.00    -0.507 OA
ATOM     25  H   UNL     1     -48.540  28.229  -1.695  1.00  0.00     0.293 HD
ENDBRANCH   6  24
BRANCH   8  26
ATOM     26  O   UNL     1     -48.805  26.353   3.284  1.00  0.00    -0.508 OA
ATOM     27  H   UNL     1     -48.040  25.870   3.741  1.00  0.00     0.293 HD
ENDBRANCH   8  26
TORSDOF 6
ENDMDL
MODEL 6
REMARK VINA RESULT:    -4.791      2.871      5.063
REMARK INTER + INTRA:          -6.188
REMARK INTER:                  -6.032
REMARK INTRA:                  -0.157
REMARK UNBOUND:                -0.417
REMARK SMILES O=c1c(O)c(-c2ccc(O)cc2O)oc2cc(O)cc(O)c12
REMARK SMILES IDX 5 1 3 2 2 3 1 4 22 5 20 6 19 7 17 8 16 9 15 10 14 11 6 12
REMARK SMILES IDX 8 13 7 14 9 15 11 16 12 17 10 18 13 20 4 22 21 24 18 26
REMARK H PARENT 10 19 13 21 4 23 21 25 18 27
REMARK Flexibility Score: inf
ROOT
ATOM      1  C   UNL     1     -39.381  30.943  13.944  1.00  0.00     0.184 A 
ATOM      2  C   UNL     1     -39.229  30.124  15.073  1.00  0.00     0.208 A 
ATOM      3  C   UNL     1     -38.163  29.212  15.114  1.00  0.00     0.238 A 
ATOM      4  O   UNL     1     -38.064  28.442  16.105  1.00  0.00    -0.285 OA
ATOM      5  C   UNL     1     -37.254  29.145  14.030  1.00  0.00     0.111 A 
ATOM      6  C   UNL     1     -36.114  28.286  13.982  1.00  0.00     0.134 A 
ATOM      7  C   UNL     1     -35.358  28.209  12.805  1.00  0.00     0.093 A 
ATOM      8  C   UNL     1     -35.660  29.004  11.701  1.00  0.00     0.123 A 
ATOM      9  C   UNL     1     -36.736  29.891  11.759  1.00  0.00     0.094 A 
ATOM     10  C   UNL     1     -37.531  29.965  12.905  1.00  0.00     0.146 A 
ATOM     11  O   UNL     1     -38.553  30.812  12.915  1.00  0.00    -0.451 OA
ENDROOT
BRANCH   1  12
ATOM     12  C   UNL     1     -40.472  31.936  13.845  1.00  0.00     0.063 A 
ATOM     13  C   UNL     1     -41.750  33.728  14.879  1.00  0.00     0.047 A 
ATOM     14  C   UNL     1     -40.724  32.781  14.937  1.00  0.00     0.020 A 
ATOM     15  C   UNL     1     -42.546  33.831  13.736  1.00  0.00     0.119 A 
ATOM     16  C   UNL     1     -42.319  32.977  12.649  1.00  0.00     0.093 A 
ATOM     17  C   UNL     1     -41.294  32.020  12.702  1.00  0.00     0.130 A 
BRANCH  15  18
ATOM     18  O   UNL     1     -43.564  34.782  13.691  1.00  0.00    -0.508 OA
ATOM     19  H   UNL     1     -44.347  34.750  14.334  1.00  0.00     0.293 HD
ENDBRANCH  15  18
BRANCH  17  20
ATOM     20  O   UNL     1     -41.109  31.142  11.634  1.00  0.00    -0.507 OA
ATOM     21  H   UNL     1     -41.805  30.446  11.391  1.00  0.00     0.293 HD
ENDBRANCH  17  20
ENDBRANCH   1  12
BRANCH   2  22
ATOM     22  O   UNL     1     -40.152  30.199  16.120  1.00  0.00    -0.502 OA
ATOM     23  H   UNL     1     -39.870  30.204  17.093  1.00  0.00     0.293 HD
ENDBRANCH   2  22
BRANCH   6  24
ATOM     24  O   UNL     1     -35.670  27.516  15.061  1.00  0.00    -0.507 OA
ATOM     25  H   UNL     1     -36.253  27.205  15.823  1.00  0.00     0.293 HD
ENDBRANCH   6  24
BRANCH   8  26
ATOM     26  O   UNL     1     -34.876  28.914  10.554  1.00  0.00    -0.508 OA
ATOM     27  H   UNL     1     -35.290  28.786   9.637  1.00  0.00     0.293 HD
ENDBRANCH   8  26
TORSDOF 6
ENDMDL
MODEL 7
REMARK VINA RESULT:    -4.765      2.958      6.379
REMARK INTER + INTRA:          -6.157
REMARK INTER:                  -5.793
REMARK INTRA:                  -0.364
REMARK UNBOUND:                -0.417
REMARK SMILES O=c1c(O)c(-c2ccc(O)cc2O)oc2cc(O)cc(O)c12
REMARK SMILES IDX 5 1 3 2 2 3 1 4 22 5 20 6 19 7 17 8 16 9 15 10 14 11 6 12
REMARK SMILES IDX 8 13 7 14 9 15 11 16 12 17 10 18 13 20 4 22 21 24 18 26
REMARK H PARENT 10 19 13 21 4 23 21 25 18 27
REMARK Flexibility Score: inf
ROOT
ATOM      1  C   UNL     1     -39.984  32.543  14.474  1.00  0.00     0.184 A 
ATOM      2  C   UNL     1     -41.180  33.121  14.928  1.00  0.00     0.208 A 
ATOM      3  C   UNL     1     -41.483  34.440  14.555  1.00  0.00     0.238 A 
ATOM      4  O   UNL     1     -42.530  34.971  15.010  1.00  0.00    -0.285 OA
ATOM      5  C   UNL     1     -40.592  35.156  13.720  1.00  0.00     0.111 A 
ATOM      6  C   UNL     1     -40.817  36.485  13.247  1.00  0.00     0.134 A 
ATOM      7  C   UNL     1     -39.808  37.143  12.532  1.00  0.00     0.093 A 
ATOM      8  C   UNL     1     -38.612  36.501  12.218  1.00  0.00     0.123 A 
ATOM      9  C   UNL     1     -38.405  35.182  12.624  1.00  0.00     0.094 A 
ATOM     10  C   UNL     1     -39.377  34.510  13.369  1.00  0.00     0.146 A 
ATOM     11  O   UNL     1     -39.137  33.260  13.747  1.00  0.00    -0.451 OA
ENDROOT
BRANCH   1  12
ATOM     12  C   UNL     1     -39.614  31.154  14.816  1.00  0.00     0.063 A 
ATOM     13  C   UNL     1     -40.118  28.778  14.689  1.00  0.00     0.047 A 
ATOM     14  C   UNL     1     -40.436  30.103  14.380  1.00  0.00     0.020 A 
ATOM     15  C   UNL     1     -38.983  28.488  15.450  1.00  0.00     0.119 A 
ATOM     16  C   UNL     1     -38.168  29.530  15.911  1.00  0.00     0.093 A 
ATOM     17  C   UNL     1     -38.484  30.863  15.609  1.00  0.00     0.130 A 
BRANCH  15  18
ATOM     18  O   UNL     1     -38.676  27.162  15.748  1.00  0.00    -0.508 OA
ATOM     19  H   UNL     1     -37.764  26.770  15.542  1.00  0.00     0.293 HD
ENDBRANCH  15  18
BRANCH  17  20
ATOM     20  O   UNL     1     -37.692  31.895  16.114  1.00  0.00    -0.507 OA
ATOM     21  H   UNL     1     -37.818  32.856  15.817  1.00  0.00     0.293 HD
ENDBRANCH  17  20
ENDBRANCH   1  12
BRANCH   2  22
ATOM     22  O   UNL     1     -42.031  32.396  15.767  1.00  0.00    -0.502 OA
ATOM     23  H   UNL     1     -42.961  32.112  15.482  1.00  0.00     0.293 HD
ENDBRANCH   2  22
BRANCH   6  24
ATOM     24  O   UNL     1     -42.013  37.185  13.427  1.00  0.00    -0.507 OA
ATOM     25  H   UNL     1     -42.104  38.189  13.379  1.00  0.00     0.293 HD
ENDBRANCH   6  24
BRANCH   8  26
ATOM     26  O   UNL     1     -37.637  37.181  11.491  1.00  0.00    -0.508 OA
ATOM     27  H   UNL     1     -36.679  37.241  11.816  1.00  0.00     0.293 HD
ENDBRANCH   8  26
TORSDOF 6
ENDMDL
MODEL 8
REMARK VINA RESULT:    -4.695      3.250      7.088
REMARK INTER + INTRA:          -6.072
REMARK INTER:                  -5.757
REMARK INTRA:                  -0.315
REMARK UNBOUND:                -0.417
REMARK SMILES O=c1c(O)c(-c2ccc(O)cc2O)oc2cc(O)cc(O)c12
REMARK SMILES IDX 5 1 3 2 2 3 1 4 22 5 20 6 19 7 17 8 16 9 15 10 14 11 6 12
REMARK SMILES IDX 8 13 7 14 9 15 11 16 12 17 10 18 13 20 4 22 21 24 18 26
REMARK H PARENT 10 19 13 21 4 23 21 25 18 27
REMARK Flexibility Score: inf
ROOT
ATOM      1  C   UNL     1     -38.718  30.832  14.605  1.00  0.00     0.184 A 
ATOM      2  C   UNL     1     -39.798  30.880  13.712  1.00  0.00     0.208 A 
ATOM      3  C   UNL     1     -40.382  32.121  13.414  1.00  0.00     0.238 A 
ATOM      4  O   UNL     1     -41.386  32.152  12.655  1.00  0.00    -0.285 OA
ATOM      5  C   UNL     1     -39.864  33.300  14.004  1.00  0.00     0.111 A 
ATOM      6  C   UNL     1     -40.351  34.617  13.744  1.00  0.00     0.134 A 
ATOM      7  C   UNL     1     -39.850  35.697  14.482  1.00  0.00     0.093 A 
ATOM      8  C   UNL     1     -38.836  35.519  15.421  1.00  0.00     0.123 A 
ATOM      9  C   UNL     1     -38.310  34.244  15.641  1.00  0.00     0.094 A 
ATOM     10  C   UNL     1     -38.814  33.142  14.947  1.00  0.00     0.146 A 
ATOM     11  O   UNL     1     -38.296  31.944  15.194  1.00  0.00    -0.451 OA
ENDROOT
BRANCH   1  12
ATOM     12  C   UNL     1     -38.047  29.560  14.947  1.00  0.00     0.063 A 
ATOM     13  C   UNL     1     -36.088  28.131  14.768  1.00  0.00     0.047 A 
ATOM     14  C   UNL     1     -36.749  29.325  14.468  1.00  0.00     0.020 A 
ATOM     15  C   UNL     1     -36.722  27.152  15.538  1.00  0.00     0.119 A 
ATOM     16  C   UNL     1     -38.026  27.366  16.002  1.00  0.00     0.093 A 
ATOM     17  C   UNL     1     -38.698  28.560  15.700  1.00  0.00     0.130 A 
BRANCH  15  18
ATOM     18  O   UNL     1     -36.049  25.967  15.832  1.00  0.00    -0.508 OA
ATOM     19  H   UNL     1     -36.501  25.064  15.739  1.00  0.00     0.293 HD
ENDBRANCH  15  18
BRANCH  17  20
ATOM     20  O   UNL     1     -40.014  28.742  16.125  1.00  0.00    -0.507 OA
ATOM     21  H   UNL     1     -40.362  29.652  16.403  1.00  0.00     0.293 HD
ENDBRANCH  17  20
ENDBRANCH   1  12
BRANCH   2  22
ATOM     22  O   UNL     1     -40.300  29.698  13.159  1.00  0.00    -0.502 OA
ATOM     23  H   UNL     1     -40.633  29.645  12.203  1.00  0.00     0.293 HD
ENDBRANCH   2  22
BRANCH   6  24
ATOM     24  O   UNL     1     -41.299  34.919  12.762  1.00  0.00    -0.507 OA
ATOM     25  H   UNL     1     -42.289  34.743  12.846  1.00  0.00     0.293 HD
ENDBRANCH   6  24
BRANCH   8  26
ATOM     26  O   UNL     1     -38.349  36.618  16.125  1.00  0.00    -0.508 OA
ATOM     27  H   UNL     1     -37.569  36.534  16.767  1.00  0.00     0.293 HD
ENDBRANCH   8  26
TORSDOF 6
ENDMDL
MODEL 9
REMARK VINA RESULT:    -4.491     12.642     14.363
REMARK INTER + INTRA:          -5.826
REMARK INTER:                  -5.443
REMARK INTRA:                  -0.384
REMARK UNBOUND:                -0.417
REMARK SMILES O=c1c(O)c(-c2ccc(O)cc2O)oc2cc(O)cc(O)c12
REMARK SMILES IDX 5 1 3 2 2 3 1 4 22 5 20 6 19 7 17 8 16 9 15 10 14 11 6 12
REMARK SMILES IDX 8 13 7 14 9 15 11 16 12 17 10 18 13 20 4 22 21 24 18 26
REMARK H PARENT 10 19 13 21 4 23 21 25 18 27
REMARK Flexibility Score: inf
ROOT
ATOM      1  C   UNL     1     -47.993  32.005   1.903  1.00  0.00     0.184 A 
ATOM      2  C   UNL     1     -48.987  31.022   2.020  1.00  0.00     0.208 A 
ATOM      3  C   UNL     1     -48.757  29.751   1.471  1.00  0.00     0.238 A 
ATOM      4  O   UNL     1     -49.674  28.891   1.531  1.00  0.00    -0.285 OA
ATOM      5  C   UNL     1     -47.526  29.477   0.826  1.00  0.00     0.111 A 
ATOM      6  C   UNL     1     -47.168  28.213   0.268  1.00  0.00     0.134 A 
ATOM      7  C   UNL     1     -45.978  28.091  -0.460  1.00  0.00     0.093 A 
ATOM      8  C   UNL     1     -45.103  29.168  -0.596  1.00  0.00     0.123 A 
ATOM      9  C   UNL     1     -45.415  30.393  -0.004  1.00  0.00     0.094 A 
ATOM     10  C   UNL     1     -46.612  30.556   0.699  1.00  0.00     0.146 A 
ATOM     11  O   UNL     1     -46.877  31.740   1.237  1.00  0.00    -0.451 OA
ENDROOT
BRANCH   1  12
ATOM     12  C   UNL     1     -48.166  33.357   2.475  1.00  0.00     0.063 A 
ATOM     13  C   UNL     1     -49.310  35.502   2.426  1.00  0.00     0.047 A 
ATOM     14  C   UNL     1     -49.125  34.215   1.914  1.00  0.00     0.020 A 
ATOM     15  C   UNL     1     -48.531  35.952   3.495  1.00  0.00     0.119 A 
ATOM     16  C   UNL     1     -47.555  35.112   4.047  1.00  0.00     0.093 A 
ATOM     17  C   UNL     1     -47.359  33.821   3.534  1.00  0.00     0.130 A 
BRANCH  15  18
ATOM     18  O   UNL     1     -48.730  37.236   3.997  1.00  0.00    -0.508 OA
ATOM     19  H   UNL     1     -48.957  38.014   3.388  1.00  0.00     0.293 HD
ENDBRANCH  15  18
BRANCH  17  20
ATOM     20  O   UNL     1     -46.351  33.013   4.060  1.00  0.00    -0.507 OA
ATOM     21  H   UNL     1     -45.414  33.366   4.218  1.00  0.00     0.293 HD
ENDBRANCH  17  20
ENDBRANCH   1  12
BRANCH   2  22
ATOM     22  O   UNL     1     -50.200  31.326   2.646  1.00  0.00    -0.502 OA
ATOM     23  H   UNL     1     -50.597  30.742   3.373  1.00  0.00     0.293 HD
ENDBRANCH   2  22
BRANCH   6  24
ATOM     24  O   UNL     1     -47.926  27.048   0.423  1.00  0.00    -0.507 OA
ATOM     25  H   UNL     1     -47.561  26.111   0.349  1.00  0.00     0.293 HD
ENDBRANCH   6  24
BRANCH   8  26
ATOM     26  O   UNL     1     -43.920  29.007  -1.313  1.00  0.00    -0.508 OA
ATOM     27  H   UNL     1     -43.014  29.077  -0.864  1.00  0.00     0.293 HD
ENDBRANCH   8  26
TORSDOF 6
ENDMDL
