MODEL 1
REMARK VINA RESULT:    -4.290      0.000      0.000
REMARK INTER + INTRA:         -10.767
REMARK INTER:                  -8.051
REMARK INTRA:                  -2.715
REMARK UNBOUND:                -2.715
REMARK SMILES CCCCCCCCC=CCCCCCCCC(=O)[O-]
REMARK SMILES IDX 10 1 9 2 11 3 12 4 13 5 14 6 15 7 16 8 17 9 18 10 19 11
REMARK SMILES IDX 20 12 8 13 7 14 6 15 5 16 4 17 3 18 2 19 1 20
REMARK H PARENT
REMARK Flexibility Score: inf
ROOT
ATOM      1  C   UNL     1      96.374   3.816  24.528  1.00  0.00    -0.031 C 
ATOM      2  C   UNL     1      97.411   3.831  23.672  1.00  0.00    -0.031 C 
ENDROOT
BRANCH   1   3
ATOM      3  C   UNL     1      96.268   4.690  25.757  1.00  0.00     0.027 C 
BRANCH   3   4
ATOM      4  C   UNL     1      95.441   5.952  25.478  1.00  0.00     0.004 C 
BRANCH   4   5
ATOM      5  C   UNL     1      96.337   7.180  25.238  1.00  0.00     0.000 C 
BRANCH   5   6
ATOM      6  C   UNL     1      96.229   7.727  23.804  1.00  0.00     0.000 C 
BRANCH   6   7
ATOM      7  C   UNL     1      95.143   7.062  22.933  1.00  0.00     0.000 C 
BRANCH   7   8
ATOM      8  C   UNL     1      95.656   6.388  21.644  1.00  0.00     0.006 C 
BRANCH   8   9
ATOM      9  C   UNL     1      97.103   6.750  21.272  1.00  0.00     0.053 C 
BRANCH   9  10
ATOM     10  C   UNL     1      97.259   6.989  19.801  1.00  0.00     0.041 C 
ATOM     11  O   UNL     1      98.405   7.006  19.280  1.00  0.00    -0.550 OA
ATOM     12  O   UNL     1      96.141   7.226  19.012  1.00  0.00    -0.550 OA
ENDBRANCH   9  10
ENDBRANCH   8   9
ENDBRANCH   7   8
ENDBRANCH   6   7
ENDBRANCH   5   6
ENDBRANCH   4   5
ENDBRANCH   3   4
ENDBRANCH   1   3
BRANCH   2  13
ATOM     13  C   UNL     1      98.658   4.656  23.857  1.00  0.00     0.027 C 
BRANCH  13  14
ATOM     14  C   UNL     1      99.812   4.101  23.009  1.00  0.00     0.004 C 
BRANCH  14  15
ATOM     15  C   UNL     1     100.485   2.872  23.645  1.00  0.00     0.000 C 
BRANCH  15  16
ATOM     16  C   UNL     1     101.762   3.173  24.450  1.00  0.00     0.000 C 
BRANCH  16  17
ATOM     17  C   UNL     1     101.515   3.221  25.968  1.00  0.00    -0.000 C 
BRANCH  17  18
ATOM     18  C   UNL     1     101.249   4.647  26.477  1.00  0.00    -0.000 C 
BRANCH  18  19
ATOM     19  C   UNL     1      99.932   4.761  27.261  1.00  0.00    -0.003 C 
ATOM     20  C   UNL     1      99.400   6.190  27.234  1.00  0.00     0.004 C 
ENDBRANCH  18  19
ENDBRANCH  17  18
ENDBRANCH  16  17
ENDBRANCH  15  16
ENDBRANCH  14  15
ENDBRANCH  13  14
ENDBRANCH   2  13
TORSDOF 15
ENDMDL
MODEL 2
REMARK VINA RESULT:    -4.274      3.680      6.932
REMARK INTER + INTRA:         -10.737
REMARK INTER:                  -8.360
REMARK INTRA:                  -2.376
REMARK UNBOUND:                -2.715
REMARK SMILES CCCCCCCCC=CCCCCCCCC(=O)[O-]
REMARK SMILES IDX 10 1 9 2 11 3 12 4 13 5 14 6 15 7 16 8 17 9 18 10 19 11
REMARK SMILES IDX 20 12 8 13 7 14 6 15 5 16 4 17 3 18 2 19 1 20
REMARK H PARENT
REMARK Flexibility Score: inf
ROOT
ATOM      1  C   UNL     1     100.129   3.000  26.469  1.00  0.00    -0.031 C 
ATOM      2  C   UNL     1      99.159   2.286  25.870  1.00  0.00    -0.031 C 
ENDROOT
BRANCH   1   3
ATOM      3  C   UNL     1     100.705   4.286  25.921  1.00  0.00     0.027 C 
BRANCH   3   4
ATOM      4  C   UNL     1     102.201   4.411  26.240  1.00  0.00     0.004 C 
BRANCH   4   5
ATOM      5  C   UNL     1     102.913   3.049  26.177  1.00  0.00     0.000 C 
BRANCH   5   6
ATOM      6  C   UNL     1     103.472   2.730  24.779  1.00  0.00     0.000 C 
BRANCH   6   7
ATOM      7  C   UNL     1     103.339   1.257  24.344  1.00  0.00     0.000 C 
BRANCH   7   8
ATOM      8  C   UNL     1     102.015   0.897  23.638  1.00  0.00     0.006 C 
BRANCH   8   9
ATOM      9  C   UNL     1     101.148  -0.121  24.397  1.00  0.00     0.053 C 
BRANCH   9  10
ATOM     10  C   UNL     1     100.734  -1.264  23.522  1.00  0.00     0.041 C 
ATOM     11  O   UNL     1     100.219  -1.045  22.394  1.00  0.00    -0.550 OA
ATOM     12  O   UNL     1     100.885  -2.572  23.967  1.00  0.00    -0.550 OA
ENDBRANCH   9  10
ENDBRANCH   8   9
ENDBRANCH   7   8
ENDBRANCH   6   7
ENDBRANCH   5   6
ENDBRANCH   4   5
ENDBRANCH   3   4
ENDBRANCH   1   3
BRANCH   2  13
ATOM     13  C   UNL     1      98.567   2.613  24.523  1.00  0.00     0.027 C 
BRANCH  13  14
ATOM     14  C   UNL     1      97.186   1.961  24.361  1.00  0.00     0.004 C 
BRANCH  14  15
ATOM     15  C   UNL     1      96.070   2.984  24.084  1.00  0.00     0.000 C 
BRANCH  15  16
ATOM     16  C   UNL     1      96.558   4.406  23.755  1.00  0.00     0.000 C 
BRANCH  16  17
ATOM     17  C   UNL     1      95.580   5.497  24.223  1.00  0.00    -0.000 C 
BRANCH  17  18
ATOM     18  C   UNL     1      95.686   5.778  25.730  1.00  0.00    -0.000 C 
BRANCH  18  19
ATOM     19  C   UNL     1      97.141   5.909  26.208  1.00  0.00    -0.003 C 
ATOM     20  C   UNL     1      97.368   5.126  27.498  1.00  0.00     0.004 C 
ENDBRANCH  18  19
ENDBRANCH  17  18
ENDBRANCH  16  17
ENDBRANCH  15  16
ENDBRANCH  14  15
ENDBRANCH  13  14
ENDBRANCH   2  13
TORSDOF 15
ENDMDL
MODEL 3
REMARK VINA RESULT:    -4.237      3.395      6.086
REMARK INTER + INTRA:         -10.668
REMARK INTER:                  -7.772
REMARK INTRA:                  -2.896
REMARK UNBOUND:                -2.715
REMARK SMILES CCCCCCCCC=CCCCCCCCC(=O)[O-]
REMARK SMILES IDX 10 1 9 2 11 3 12 4 13 5 14 6 15 7 16 8 17 9 18 10 19 11
REMARK SMILES IDX 20 12 8 13 7 14 6 15 5 16 4 17 3 18 2 19 1 20
REMARK H PARENT
REMARK Flexibility Score: inf
ROOT
ATOM      1  C   UNL     1      97.928   6.517  26.749  1.00  0.00    -0.031 C 
ATOM      2  C   UNL     1      96.976   6.376  25.811  1.00  0.00    -0.031 C 
ENDROOT
BRANCH   1   3
ATOM      3  C   UNL     1      98.118   5.580  27.921  1.00  0.00     0.027 C 
BRANCH   3   4
ATOM      4  C   UNL     1      99.476   4.867  27.855  1.00  0.00     0.004 C 
BRANCH   4   5
ATOM      5  C   UNL     1     100.589   5.806  27.359  1.00  0.00     0.000 C 
BRANCH   5   6
ATOM      6  C   UNL     1     101.762   5.050  26.711  1.00  0.00     0.000 C 
BRANCH   6   7
ATOM      7  C   UNL     1     101.979   3.614  27.230  1.00  0.00     0.000 C 
BRANCH   7   8
ATOM      8  C   UNL     1     103.062   2.803  26.489  1.00  0.00     0.006 C 
BRANCH   8   9
ATOM      9  C   UNL     1     103.076   3.009  24.966  1.00  0.00     0.053 C 
BRANCH   9  10
ATOM     10  C   UNL     1     102.668   1.769  24.230  1.00  0.00     0.041 C 
ATOM     11  O   UNL     1     103.242   1.452  23.155  1.00  0.00    -0.550 OA
ATOM     12  O   UNL     1     101.631   0.981  24.715  1.00  0.00    -0.550 OA
ENDBRANCH   9  10
ENDBRANCH   8   9
ENDBRANCH   7   8
ENDBRANCH   6   7
ENDBRANCH   5   6
ENDBRANCH   4   5
ENDBRANCH   3   4
ENDBRANCH   1   3
BRANCH   2  13
ATOM     13  C   UNL     1      95.904   5.317  25.834  1.00  0.00     0.027 C 
BRANCH  13  14
ATOM     14  C   UNL     1      95.773   4.640  24.462  1.00  0.00     0.004 C 
BRANCH  14  15
ATOM     15  C   UNL     1      96.106   3.138  24.501  1.00  0.00     0.000 C 
BRANCH  15  16
ATOM     16  C   UNL     1      97.359   2.771  25.316  1.00  0.00     0.000 C 
BRANCH  16  17
ATOM     17  C   UNL     1      98.613   2.601  24.441  1.00  0.00    -0.000 C 
BRANCH  17  18
ATOM     18  C   UNL     1      99.423   3.901  24.312  1.00  0.00    -0.000 C 
BRANCH  18  19
ATOM     19  C   UNL     1      99.631   4.327  22.850  1.00  0.00    -0.003 C 
ATOM     20  C   UNL     1      98.787   5.552  22.511  1.00  0.00     0.004 C 
ENDBRANCH  18  19
ENDBRANCH  17  18
ENDBRANCH  16  17
ENDBRANCH  15  16
ENDBRANCH  14  15
ENDBRANCH  13  14
ENDBRANCH   2  13
TORSDOF 15
ENDMDL
MODEL 4
REMARK VINA RESULT:    -4.233      2.197      4.081
REMARK INTER + INTRA:         -10.660
REMARK INTER:                  -8.016
REMARK INTRA:                  -2.644
REMARK UNBOUND:                -2.715
REMARK SMILES CCCCCCCCC=CCCCCCCCC(=O)[O-]
REMARK SMILES IDX 10 1 9 2 11 3 12 4 13 5 14 6 15 7 16 8 17 9 18 10 19 11
REMARK SMILES IDX 20 12 8 13 7 14 6 15 5 16 4 17 3 18 2 19 1 20
REMARK H PARENT
REMARK Flexibility Score: inf
ROOT
ATOM      1  C   UNL     1      99.940   3.471  24.628  1.00  0.00    -0.031 C 
ATOM      2  C   UNL     1     101.283   3.405  24.587  1.00  0.00    -0.031 C 
ENDROOT
BRANCH   1   3
ATOM      3  C   UNL     1      99.112   3.254  25.874  1.00  0.00     0.027 C 
BRANCH   3   4
ATOM      4  C   UNL     1      97.750   2.631  25.541  1.00  0.00     0.004 C 
BRANCH   4   5
ATOM      5  C   UNL     1      97.352   2.879  24.076  1.00  0.00     0.000 C 
BRANCH   5   6
ATOM      6  C   UNL     1      96.130   3.805  23.938  1.00  0.00     0.000 C 
BRANCH   6   7
ATOM      7  C   UNL     1      96.250   5.156  24.672  1.00  0.00     0.000 C 
BRANCH   7   8
ATOM      8  C   UNL     1      96.344   6.395  23.757  1.00  0.00     0.006 C 
BRANCH   8   9
ATOM      9  C   UNL     1      96.427   6.070  22.257  1.00  0.00     0.053 C 
BRANCH   9  10
ATOM     10  C   UNL     1      97.778   6.382  21.691  1.00  0.00     0.041 C 
ATOM     11  O   UNL     1      97.901   7.244  20.781  1.00  0.00    -0.550 OA
ATOM     12  O   UNL     1      98.899   5.698  22.145  1.00  0.00    -0.550 OA
ENDBRANCH   9  10
ENDBRANCH   8   9
ENDBRANCH   7   8
ENDBRANCH   6   7
ENDBRANCH   5   6
ENDBRANCH   4   5
ENDBRANCH   3   4
ENDBRANCH   1   3
BRANCH   2  13
ATOM     13  C   UNL     1     102.154   3.018  25.754  1.00  0.00     0.027 C 
BRANCH  13  14
ATOM     14  C   UNL     1     103.213   1.990  25.329  1.00  0.00     0.004 C 
BRANCH  14  15
ATOM     15  C   UNL     1     103.353   1.872  23.801  1.00  0.00     0.000 C 
BRANCH  15  16
ATOM     16  C   UNL     1     103.459   0.432  23.266  1.00  0.00     0.000 C 
BRANCH  16  17
ATOM     17  C   UNL     1     102.227  -0.423  23.604  1.00  0.00    -0.000 C 
BRANCH  17  18
ATOM     18  C   UNL     1     100.993  -0.035  22.774  1.00  0.00    -0.000 C 
BRANCH  18  19
ATOM     19  C   UNL     1      99.703   0.000  23.608  1.00  0.00    -0.003 C 
ATOM     20  C   UNL     1      99.979  -0.375  25.061  1.00  0.00     0.004 C 
ENDBRANCH  18  19
ENDBRANCH  17  18
ENDBRANCH  16  17
ENDBRANCH  15  16
ENDBRANCH  14  15
ENDBRANCH  13  14
ENDBRANCH   2  13
TORSDOF 15
ENDMDL
MODEL 5
REMARK VINA RESULT:    -4.224      3.370      6.251
REMARK INTER + INTRA:         -10.643
REMARK INTER:                  -7.593
REMARK INTRA:                  -3.050
REMARK UNBOUND:                -2.715
REMARK SMILES CCCCCCCCC=CCCCCCCCC(=O)[O-]
REMARK SMILES IDX 10 1 9 2 11 3 12 4 13 5 14 6 15 7 16 8 17 9 18 10 19 11
REMARK SMILES IDX 20 12 8 13 7 14 6 15 5 16 4 17 3 18 2 19 1 20
REMARK H PARENT
REMARK Flexibility Score: inf
ROOT
ATOM      1  C   UNL     1      99.202   5.109  27.667  1.00  0.00    -0.031 C 
ATOM      2  C   UNL     1      98.405   4.054  27.418  1.00  0.00    -0.031 C 
ENDROOT
BRANCH   1   3
ATOM      3  C   UNL     1     100.484   5.405  26.923  1.00  0.00     0.027 C 
BRANCH   3   4
ATOM      4  C   UNL     1     101.714   4.951  27.720  1.00  0.00     0.004 C 
BRANCH   4   5
ATOM      5  C   UNL     1     102.120   3.509  27.370  1.00  0.00     0.000 C 
BRANCH   5   6
ATOM      6  C   UNL     1     103.057   3.433  26.152  1.00  0.00     0.000 C 
BRANCH   6   7
ATOM      7  C   UNL     1     102.375   3.018  24.831  1.00  0.00     0.000 C 
BRANCH   7   8
ATOM      8  C   UNL     1     101.775   1.597  24.820  1.00  0.00     0.006 C 
BRANCH   8   9
ATOM      9  C   UNL     1     101.237   1.147  23.453  1.00  0.00     0.053 C 
BRANCH   9  10
ATOM     10  C   UNL     1     100.260   0.018  23.580  1.00  0.00     0.041 C 
ATOM     11  O   UNL     1      99.508  -0.058  24.587  1.00  0.00    -0.550 OA
ATOM     12  O   UNL     1     100.203  -0.968  22.604  1.00  0.00    -0.550 OA
ENDBRANCH   9  10
ENDBRANCH   8   9
ENDBRANCH   7   8
ENDBRANCH   6   7
ENDBRANCH   5   6
ENDBRANCH   4   5
ENDBRANCH   3   4
ENDBRANCH   1   3
BRANCH   2  13
ATOM     13  C   UNL     1      98.717   2.965  26.424  1.00  0.00     0.027 C 
BRANCH  13  14
ATOM     14  C   UNL     1      97.545   2.760  25.453  1.00  0.00     0.004 C 
BRANCH  14  15
ATOM     15  C   UNL     1      97.915   3.075  23.992  1.00  0.00     0.000 C 
BRANCH  15  16
ATOM     16  C   UNL     1      99.065   4.083  23.815  1.00  0.00     0.000 C 
BRANCH  16  17
ATOM     17  C   UNL     1      98.690   5.264  22.905  1.00  0.00    -0.000 C 
BRANCH  17  18
ATOM     18  C   UNL     1      97.356   5.917  23.305  1.00  0.00    -0.000 C 
BRANCH  18  19
ATOM     19  C   UNL     1      97.399   6.542  24.708  1.00  0.00    -0.003 C 
ATOM     20  C   UNL     1      96.104   6.273  25.469  1.00  0.00     0.004 C 
ENDBRANCH  18  19
ENDBRANCH  17  18
ENDBRANCH  16  17
ENDBRANCH  15  16
ENDBRANCH  14  15
ENDBRANCH  13  14
ENDBRANCH   2  13
TORSDOF 15
ENDMDL
MODEL 6
REMARK VINA RESULT:    -4.216      3.377      7.292
REMARK INTER + INTRA:         -10.628
REMARK INTER:                  -8.288
REMARK INTRA:                  -2.339
REMARK UNBOUND:                -2.715
REMARK SMILES CCCCCCCCC=CCCCCCCCC(=O)[O-]
REMARK SMILES IDX 10 1 9 2 11 3 12 4 13 5 14 6 15 7 16 8 17 9 18 10 19 11
REMARK SMILES IDX 20 12 8 13 7 14 6 15 5 16 4 17 3 18 2 19 1 20
REMARK H PARENT
REMARK Flexibility Score: inf
ROOT
ATOM      1  C   UNL     1     102.960   4.205  26.298  1.00  0.00    -0.031 C 
ATOM      2  C   UNL     1     101.669   4.359  25.956  1.00  0.00    -0.031 C 
ENDROOT
BRANCH   1   3
ATOM      3  C   UNL     1     103.521   2.982  26.987  1.00  0.00     0.027 C 
BRANCH   3   4
ATOM      4  C   UNL     1     104.907   2.616  26.440  1.00  0.00     0.004 C 
BRANCH   4   5
ATOM      5  C   UNL     1     104.909   2.530  24.903  1.00  0.00     0.000 C 
BRANCH   5   6
ATOM      6  C   UNL     1     104.800   1.085  24.386  1.00  0.00     0.000 C 
BRANCH   6   7
ATOM      7  C   UNL     1     103.763   0.871  23.265  1.00  0.00     0.000 C 
BRANCH   7   8
ATOM      8  C   UNL     1     102.341   1.381  23.579  1.00  0.00     0.006 C 
BRANCH   8   9
ATOM      9  C   UNL     1     101.444   0.357  24.294  1.00  0.00     0.053 C 
BRANCH   9  10
ATOM     10  C   UNL     1     100.294  -0.073  23.436  1.00  0.00     0.041 C 
ATOM     11  O   UNL     1     100.476  -0.889  22.494  1.00  0.00    -0.550 OA
ATOM     12  O   UNL     1      99.026   0.452  23.655  1.00  0.00    -0.550 OA
ENDBRANCH   9  10
ENDBRANCH   8   9
ENDBRANCH   7   8
ENDBRANCH   6   7
ENDBRANCH   5   6
ENDBRANCH   4   5
ENDBRANCH   3   4
ENDBRANCH   1   3
BRANCH   2  13
ATOM     13  C   UNL     1     100.576   3.375  26.285  1.00  0.00     0.027 C 
BRANCH  13  14
ATOM     14  C   UNL     1      99.449   3.442  25.244  1.00  0.00     0.004 C 
BRANCH  14  15
ATOM     15  C   UNL     1      99.938   3.907  23.861  1.00  0.00     0.000 C 
BRANCH  15  16
ATOM     16  C   UNL     1      98.979   4.854  23.117  1.00  0.00     0.000 C 
BRANCH  16  17
ATOM     17  C   UNL     1      97.927   5.488  24.042  1.00  0.00    -0.000 C 
BRANCH  17  18
ATOM     18  C   UNL     1      96.489   5.125  23.637  1.00  0.00    -0.000 C 
BRANCH  18  19
ATOM     19  C   UNL     1      95.876   4.040  24.536  1.00  0.00    -0.003 C 
ATOM     20  C   UNL     1      96.169   2.646  23.991  1.00  0.00     0.004 C 
ENDBRANCH  18  19
ENDBRANCH  17  18
ENDBRANCH  16  17
ENDBRANCH  15  16
ENDBRANCH  14  15
ENDBRANCH  13  14
ENDBRANCH   2  13
TORSDOF 15
ENDMDL
MODEL 7
REMARK VINA RESULT:    -4.204      3.234      6.794
REMARK INTER + INTRA:         -10.605
REMARK INTER:                  -7.856
REMARK INTRA:                  -2.749
REMARK UNBOUND:                -2.715
REMARK SMILES CCCCCCCCC=CCCCCCCCC(=O)[O-]
REMARK SMILES IDX 10 1 9 2 11 3 12 4 13 5 14 6 15 7 16 8 17 9 18 10 19 11
REMARK SMILES IDX 20 12 8 13 7 14 6 15 5 16 4 17 3 18 2 19 1 20
REMARK H PARENT
REMARK Flexibility Score: inf
ROOT
ATOM      1  C   UNL     1      99.795   3.695  24.305  1.00  0.00    -0.031 C 
ATOM      2  C   UNL     1      98.873   2.998  23.616  1.00  0.00    -0.031 C 
ENDROOT
BRANCH   1   3
ATOM      3  C   UNL     1      99.763   3.907  25.801  1.00  0.00     0.027 C 
BRANCH   3   4
ATOM      4  C   UNL     1     100.848   3.084  26.508  1.00  0.00     0.004 C 
BRANCH   4   5
ATOM      5  C   UNL     1     102.262   3.557  26.125  1.00  0.00     0.000 C 
BRANCH   5   6
ATOM      6  C   UNL     1     103.189   2.398  25.720  1.00  0.00     0.000 C 
BRANCH   6   7
ATOM      7  C   UNL     1     103.422   2.249  24.203  1.00  0.00     0.000 C 
BRANCH   7   8
ATOM      8  C   UNL     1     102.349   1.434  23.451  1.00  0.00     0.006 C 
BRANCH   8   9
ATOM      9  C   UNL     1     102.010   0.082  24.099  1.00  0.00     0.053 C 
BRANCH   9  10
ATOM     10  C   UNL     1     100.534  -0.176  24.114  1.00  0.00     0.041 C 
ATOM     11  O   UNL     1      99.892  -0.122  25.196  1.00  0.00    -0.550 OA
ATOM     12  O   UNL     1      99.874  -0.510  22.938  1.00  0.00    -0.550 OA
ENDBRANCH   9  10
ENDBRANCH   8   9
ENDBRANCH   7   8
ENDBRANCH   6   7
ENDBRANCH   5   6
ENDBRANCH   4   5
ENDBRANCH   3   4
ENDBRANCH   1   3
BRANCH   2  13
ATOM     13  C   UNL     1      97.629   2.401  24.219  1.00  0.00     0.027 C 
BRANCH  13  14
ATOM     14  C   UNL     1      96.422   3.329  24.015  1.00  0.00     0.004 C 
BRANCH  14  15
ATOM     15  C   UNL     1      96.011   4.067  25.301  1.00  0.00     0.000 C 
BRANCH  15  16
ATOM     16  C   UNL     1      95.790   5.582  25.139  1.00  0.00     0.000 C 
BRANCH  16  17
ATOM     17  C   UNL     1      96.955   6.282  24.419  1.00  0.00    -0.000 C 
BRANCH  17  18
ATOM     18  C   UNL     1      96.503   7.028  23.153  1.00  0.00    -0.000 C 
BRANCH  18  19
ATOM     19  C   UNL     1      96.989   6.352  21.861  1.00  0.00    -0.003 C 
ATOM     20  C   UNL     1      98.508   6.204  21.856  1.00  0.00     0.004 C 
ENDBRANCH  18  19
ENDBRANCH  17  18
ENDBRANCH  16  17
ENDBRANCH  15  16
ENDBRANCH  14  15
ENDBRANCH  13  14
ENDBRANCH   2  13
TORSDOF 15
ENDMDL
MODEL 8
REMARK VINA RESULT:    -4.185      3.540      6.107
REMARK INTER + INTRA:         -10.569
REMARK INTER:                  -7.733
REMARK INTRA:                  -2.837
REMARK UNBOUND:                -2.715
REMARK SMILES CCCCCCCCC=CCCCCCCCC(=O)[O-]
REMARK SMILES IDX 10 1 9 2 11 3 12 4 13 5 14 6 15 7 16 8 17 9 18 10 19 11
REMARK SMILES IDX 20 12 8 13 7 14 6 15 5 16 4 17 3 18 2 19 1 20
REMARK H PARENT
REMARK Flexibility Score: inf
ROOT
ATOM      1  C   UNL     1      96.884   4.471  26.217  1.00  0.00    -0.031 C 
ATOM      2  C   UNL     1      95.980   4.416  25.222  1.00  0.00    -0.031 C 
ENDROOT
BRANCH   1   3
ATOM      3  C   UNL     1      97.708   5.693  26.555  1.00  0.00     0.027 C 
BRANCH   3   4
ATOM      4  C   UNL     1      98.679   5.412  27.709  1.00  0.00     0.004 C 
BRANCH   4   5
ATOM      5  C   UNL     1      99.654   4.272  27.370  1.00  0.00     0.000 C 
BRANCH   5   6
ATOM      6  C   UNL     1     101.050   4.779  26.969  1.00  0.00     0.000 C 
BRANCH   6   7
ATOM      7  C   UNL     1     102.149   3.698  26.925  1.00  0.00     0.000 C 
BRANCH   7   8
ATOM      8  C   UNL     1     102.784   3.462  25.539  1.00  0.00     0.006 C 
BRANCH   8   9
ATOM      9  C   UNL     1     102.879   1.983  25.128  1.00  0.00     0.053 C 
BRANCH   9  10
ATOM     10  C   UNL     1     104.018   1.737  24.187  1.00  0.00     0.041 C 
ATOM     11  O   UNL     1     104.871   2.638  23.975  1.00  0.00    -0.550 OA
ATOM     12  O   UNL     1     104.118   0.524  23.517  1.00  0.00    -0.550 OA
ENDBRANCH   9  10
ENDBRANCH   8   9
ENDBRANCH   7   8
ENDBRANCH   6   7
ENDBRANCH   5   6
ENDBRANCH   4   5
ENDBRANCH   3   4
ENDBRANCH   1   3
BRANCH   2  13
ATOM     13  C   UNL     1      95.719   5.532  24.243  1.00  0.00     0.027 C 
BRANCH  13  14
ATOM     14  C   UNL     1      96.476   5.295  22.929  1.00  0.00     0.004 C 
BRANCH  14  15
ATOM     15  C   UNL     1      97.790   6.092  22.843  1.00  0.00     0.000 C 
BRANCH  15  16
ATOM     16  C   UNL     1      99.035   5.259  22.488  1.00  0.00     0.000 C 
BRANCH  16  17
ATOM     17  C   UNL     1      99.587   4.469  23.686  1.00  0.00    -0.000 C 
BRANCH  17  18
ATOM     18  C   UNL     1      99.767   2.974  23.375  1.00  0.00    -0.000 C 
BRANCH  18  19
ATOM     19  C   UNL     1      98.686   2.098  24.026  1.00  0.00    -0.003 C 
ATOM     20  C   UNL     1      99.184   1.493  25.334  1.00  0.00     0.004 C 
ENDBRANCH  18  19
ENDBRANCH  17  18
ENDBRANCH  16  17
ENDBRANCH  15  16
ENDBRANCH  14  15
ENDBRANCH  13  14
ENDBRANCH   2  13
TORSDOF 15
ENDMDL
MODEL 9
REMARK VINA RESULT:    -4.184      1.418      2.295
REMARK INTER + INTRA:         -10.568
REMARK INTER:                  -8.482
REMARK INTRA:                  -2.087
REMARK UNBOUND:                -2.715
REMARK SMILES CCCCCCCCC=CCCCCCCCC(=O)[O-]
REMARK SMILES IDX 10 1 9 2 11 3 12 4 13 5 14 6 15 7 16 8 17 9 18 10 19 11
REMARK SMILES IDX 20 12 8 13 7 14 6 15 5 16 4 17 3 18 2 19 1 20
REMARK H PARENT
REMARK Flexibility Score: inf
ROOT
ATOM      1  C   UNL     1      96.394   3.746  25.004  1.00  0.00    -0.031 C 
ATOM      2  C   UNL     1      97.068   3.699  23.841  1.00  0.00    -0.031 C 
ENDROOT
BRANCH   1   3
ATOM      3  C   UNL     1      96.404   4.925  25.951  1.00  0.00     0.027 C 
BRANCH   3   4
ATOM      4  C   UNL     1      95.369   5.981  25.542  1.00  0.00     0.004 C 
BRANCH   4   5
ATOM      5  C   UNL     1      96.037   7.309  25.145  1.00  0.00     0.000 C 
BRANCH   5   6
ATOM      6  C   UNL     1      95.612   7.797  23.748  1.00  0.00     0.000 C 
BRANCH   6   7
ATOM      7  C   UNL     1      94.962   6.722  22.853  1.00  0.00     0.000 C 
BRANCH   7   8
ATOM      8  C   UNL     1      94.617   7.181  21.421  1.00  0.00     0.006 C 
BRANCH   8   9
ATOM      9  C   UNL     1      95.662   8.110  20.783  1.00  0.00     0.053 C 
BRANCH   9  10
ATOM     10  C   UNL     1      96.677   7.346  19.989  1.00  0.00     0.041 C 
ATOM     11  O   UNL     1      96.472   7.096  18.772  1.00  0.00    -0.550 OA
ATOM     12  O   UNL     1      97.834   6.882  20.601  1.00  0.00    -0.550 OA
ENDBRANCH   9  10
ENDBRANCH   8   9
ENDBRANCH   7   8
ENDBRANCH   6   7
ENDBRANCH   5   6
ENDBRANCH   4   5
ENDBRANCH   3   4
ENDBRANCH   1   3
BRANCH   2  13
ATOM     13  C   UNL     1      98.000   4.777  23.352  1.00  0.00     0.027 C 
BRANCH  13  14
ATOM     14  C   UNL     1      99.465   4.335  23.486  1.00  0.00     0.004 C 
BRANCH  14  15
ATOM     15  C   UNL     1     100.002   4.470  24.922  1.00  0.00     0.000 C 
BRANCH  15  16
ATOM     16  C   UNL     1     101.364   3.799  25.173  1.00  0.00     0.000 C 
BRANCH  16  17
ATOM     17  C   UNL     1     101.246   2.290  25.447  1.00  0.00    -0.000 C 
BRANCH  17  18
ATOM     18  C   UNL     1      99.838   1.884  25.911  1.00  0.00    -0.000 C 
BRANCH  18  19
ATOM     19  C   UNL     1      99.172   0.870  24.968  1.00  0.00    -0.003 C 
ATOM     20  C   UNL     1     100.000  -0.406  24.860  1.00  0.00     0.004 C 
ENDBRANCH  18  19
ENDBRANCH  17  18
ENDBRANCH  16  17
ENDBRANCH  15  16
ENDBRANCH  14  15
ENDBRANCH  13  14
ENDBRANCH   2  13
TORSDOF 15
ENDMDL
