MODEL 1
REMARK VINA RESULT:    -6.623      0.000      0.000
REMARK INTER + INTRA:         -10.097
REMARK INTER:                  -9.526
REMARK INTRA:                  -0.571
REMARK UNBOUND:                -0.571
REMARK SMILES O=c1c(O[C@@H]2O[C@H](CO)[C@@H](O)[C@H](O)[C@@H]2O)c(-c2ccc(O)cc2)oc2cc(O)cc(O)c12
REMARK SMILES IDX 4 1 3 2 16 3 24 4 2 5 25 6 1 7 32 8 26 9 30 10 27 11 29 12
REMARK SMILES IDX 17 13 18 14 19 15 20 16 23 17 22 18 21 19 31 21 28 23 5 25
REMARK SMILES IDX 14 26 6 27 12 28 7 29 10 30 15 31 13 33 8 35 9 36 11 38
REMARK H PARENT 21 20 31 22 28 24 15 32 13 34 9 37 11 39
REMARK Flexibility Score: inf
ROOT
ATOM      1  O   UNL     1     107.241 120.965 120.060  1.00  0.00    -0.454 OA
ENDROOT
BRANCH   1   2
ATOM      2  C   UNL     1     105.981 121.520 119.791  1.00  0.00     0.214 A 
ATOM      3  C   UNL     1     104.782 120.884 120.184  1.00  0.00     0.180 A 
ATOM      4  O   UNL     1     103.609 121.424 119.864  1.00  0.00    -0.452 OA
ATOM      5  C   UNL     1     105.905 122.746 119.121  1.00  0.00     0.239 A 
ATOM      6  C   UNL     1     103.490 122.572 119.210  1.00  0.00     0.146 A 
ATOM      7  O   UNL     1     106.974 123.333 118.790  1.00  0.00    -0.285 OA
ATOM      8  C   UNL     1     104.642 123.296 118.814  1.00  0.00     0.111 A 
ATOM      9  C   UNL     1     102.213 123.069 118.932  1.00  0.00     0.094 A 
ATOM     10  C   UNL     1     104.481 124.529 118.140  1.00  0.00     0.134 A 
ATOM     11  C   UNL     1     102.059 124.291 118.278  1.00  0.00     0.123 A 
ATOM     12  C   UNL     1     103.190 125.020 117.885  1.00  0.00     0.093 A 
BRANCH   3  13
ATOM     13  C   UNL     1     104.782 119.641 120.975  1.00  0.00     0.021 A 
ATOM     14  C   UNL     1     104.635 118.404 120.332  1.00  0.00     0.016 A 
ATOM     15  C   UNL     1     104.637 117.220 121.075  1.00  0.00     0.047 A 
ATOM     16  C   UNL     1     104.785 117.266 122.467  1.00  0.00     0.115 A 
ATOM     17  C   UNL     1     104.901 119.683 122.373  1.00  0.00     0.016 A 
ATOM     18  C   UNL     1     104.908 118.498 123.115  1.00  0.00     0.047 A 
BRANCH  16  19
ATOM     19  O   UNL     1     104.801 116.090 123.215  1.00  0.00    -0.508 OA
ATOM     20  H   UNL     1     104.064 115.874 123.875  1.00  0.00     0.293 HD
ENDBRANCH  16  19
ENDBRANCH   3  13
BRANCH  10  21
ATOM     21  O   UNL     1     105.587 125.268 117.723  1.00  0.00    -0.507 OA
ATOM     22  H   UNL     1     106.501 125.148 118.145  1.00  0.00     0.293 HD
ENDBRANCH  10  21
BRANCH  11  23
ATOM     23  O   UNL     1     100.776 124.779 118.031  1.00  0.00    -0.508 OA
ATOM     24  H   UNL     1      99.985 124.153 117.922  1.00  0.00     0.293 HD
ENDBRANCH  11  23
ENDBRANCH   1   2
BRANCH   1  25
ATOM     25  C   UNL     1     108.393 121.752 120.385  1.00  0.00     0.339 C 
ATOM     26  C   UNL     1     108.811 121.559 121.855  1.00  0.00     0.214 C 
ATOM     27  O   UNL     1     109.456 121.500 119.474  1.00  0.00    -0.332 OA
ATOM     28  C   UNL     1     109.416 120.165 122.085  1.00  0.00     0.180 C 
ATOM     29  C   UNL     1     110.045 120.208 119.603  1.00  0.00     0.179 C 
ATOM     30  C   UNL     1     110.518 119.892 121.045  1.00  0.00     0.177 C 
BRANCH  26  31
ATOM     31  O   UNL     1     107.700 121.758 122.696  1.00  0.00    -0.384 OA
ATOM     32  H   UNL     1     107.177 122.506 122.304  1.00  0.00     0.211 HD
ENDBRANCH  26  31
BRANCH  28  33
ATOM     33  O   UNL     1     108.411 119.186 122.023  1.00  0.00    -0.387 OA
ATOM     34  H   UNL     1     108.677 118.547 121.308  1.00  0.00     0.211 HD
ENDBRANCH  28  33
BRANCH  29  35
ATOM     35  C   UNL     1     109.192 119.097 118.958  1.00  0.00     0.191 C 
BRANCH  35  36
ATOM     36  O   UNL     1     110.027 118.142 118.362  1.00  0.00    -0.394 OA
ATOM     37  H   UNL     1     109.428 117.508 117.889  1.00  0.00     0.210 HD
ENDBRANCH  35  36
ENDBRANCH  29  35
BRANCH  30  38
ATOM     38  O   UNL     1     111.637 120.697 121.332  1.00  0.00    -0.387 OA
ATOM     39  H   UNL     1     112.243 120.162 121.911  1.00  0.00     0.211 HD
ENDBRANCH  30  38
ENDBRANCH   1  25
TORSDOF 11
ENDMDL
MODEL 2
REMARK VINA RESULT:    -6.620      2.065      7.436
REMARK INTER + INTRA:         -10.093
REMARK INTER:                  -8.316
REMARK INTRA:                  -1.777
REMARK UNBOUND:                -0.571
REMARK SMILES O=c1c(O[C@@H]2O[C@H](CO)[C@@H](O)[C@H](O)[C@@H]2O)c(-c2ccc(O)cc2)oc2cc(O)cc(O)c12
REMARK SMILES IDX 4 1 3 2 16 3 24 4 2 5 25 6 1 7 32 8 26 9 30 10 27 11 29 12
REMARK SMILES IDX 17 13 18 14 19 15 20 16 23 17 22 18 21 19 31 21 28 23 5 25
REMARK SMILES IDX 14 26 6 27 12 28 7 29 10 30 15 31 13 33 8 35 9 36 11 38
REMARK H PARENT 21 20 31 22 28 24 15 32 13 34 9 37 11 39
REMARK Flexibility Score: inf
ROOT
ATOM      1  O   UNL     1     104.435 120.870 121.388  1.00  0.00    -0.454 OA
ENDROOT
BRANCH   1   2
ATOM      2  C   UNL     1     105.811 120.962 121.132  1.00  0.00     0.214 A 
ATOM      3  C   UNL     1     106.323 121.702 120.044  1.00  0.00     0.180 A 
ATOM      4  O   UNL     1     107.633 121.721 119.811  1.00  0.00    -0.452 OA
ATOM      5  C   UNL     1     106.708 120.311 121.985  1.00  0.00     0.239 A 
ATOM      6  C   UNL     1     108.518 121.099 120.581  1.00  0.00     0.146 A 
ATOM      7  O   UNL     1     106.259 119.669 122.977  1.00  0.00    -0.285 OA
ATOM      8  C   UNL     1     108.093 120.367 121.717  1.00  0.00     0.111 A 
ATOM      9  C   UNL     1     109.877 121.189 120.266  1.00  0.00     0.094 A 
ATOM     10  C   UNL     1     109.063 119.737 122.530  1.00  0.00     0.134 A 
ATOM     11  C   UNL     1     110.831 120.576 121.078  1.00  0.00     0.123 A 
ATOM     12  C   UNL     1     110.424 119.853 122.208  1.00  0.00     0.093 A 
BRANCH   3  13
ATOM     13  C   UNL     1     105.449 122.491 119.157  1.00  0.00     0.021 A 
ATOM     14  C   UNL     1     104.914 121.907 118.002  1.00  0.00     0.016 A 
ATOM     15  C   UNL     1     104.082 122.648 117.159  1.00  0.00     0.047 A 
ATOM     16  C   UNL     1     103.782 123.982 117.465  1.00  0.00     0.115 A 
ATOM     17  C   UNL     1     105.169 123.837 119.445  1.00  0.00     0.016 A 
ATOM     18  C   UNL     1     104.333 124.577 118.603  1.00  0.00     0.047 A 
BRANCH  16  19
ATOM     19  O   UNL     1     102.943 124.726 116.636  1.00  0.00    -0.508 OA
ATOM     20  H   UNL     1     103.314 125.311 115.899  1.00  0.00     0.293 HD
ENDBRANCH  16  19
ENDBRANCH   3  13
BRANCH  10  21
ATOM     21  O   UNL     1     108.688 118.997 123.651  1.00  0.00    -0.507 OA
ATOM     22  H   UNL     1     107.726 118.964 123.973  1.00  0.00     0.293 HD
ENDBRANCH  10  21
BRANCH  11  23
ATOM     23  O   UNL     1     112.183 120.697 120.758  1.00  0.00    -0.508 OA
ATOM     24  H   UNL     1     112.655 121.595 120.794  1.00  0.00     0.293 HD
ENDBRANCH  11  23
ENDBRANCH   1   2
BRANCH   1  25
ATOM     25  C   UNL     1     103.582 119.903 120.761  1.00  0.00     0.339 C 
ATOM     26  C   UNL     1     102.896 118.999 121.803  1.00  0.00     0.214 C 
ATOM     27  O   UNL     1     102.655 120.533 119.885  1.00  0.00    -0.332 OA
ATOM     28  C   UNL     1     101.825 119.769 122.593  1.00  0.00     0.180 C 
ATOM     29  C   UNL     1     101.651 121.299 120.546  1.00  0.00     0.179 C 
ATOM     30  C   UNL     1     100.876 120.494 121.622  1.00  0.00     0.177 C 
BRANCH  26  31
ATOM     31  O   UNL     1     103.860 118.462 122.676  1.00  0.00    -0.384 OA
ATOM     32  H   UNL     1     103.702 117.481 122.707  1.00  0.00     0.211 HD
ENDBRANCH  26  31
BRANCH  28  33
ATOM     33  O   UNL     1     102.436 120.677 123.474  1.00  0.00    -0.387 OA
ATOM     34  H   UNL     1     101.761 121.381 123.672  1.00  0.00     0.211 HD
ENDBRANCH  28  33
BRANCH  29  35
ATOM     35  C   UNL     1     102.167 122.670 121.030  1.00  0.00     0.191 C 
BRANCH  35  36
ATOM     36  O   UNL     1     101.361 123.139 122.076  1.00  0.00    -0.394 OA
ATOM     37  H   UNL     1     100.445 122.807 121.889  1.00  0.00     0.210 HD
ENDBRANCH  35  36
ENDBRANCH  29  35
BRANCH  30  38
ATOM     38  O   UNL     1     100.066 119.546 120.969  1.00  0.00    -0.387 OA
ATOM     39  H   UNL     1      99.251 120.022 120.654  1.00  0.00     0.211 HD
ENDBRANCH  30  38
ENDBRANCH   1  25
TORSDOF 11
ENDMDL
MODEL 3
REMARK VINA RESULT:    -6.526      2.074      7.247
REMARK INTER + INTRA:          -9.958
REMARK INTER:                  -8.666
REMARK INTRA:                  -1.292
REMARK UNBOUND:                -0.571
REMARK SMILES O=c1c(O[C@@H]2O[C@H](CO)[C@@H](O)[C@H](O)[C@@H]2O)c(-c2ccc(O)cc2)oc2cc(O)cc(O)c12
REMARK SMILES IDX 4 1 3 2 16 3 24 4 2 5 25 6 1 7 32 8 26 9 30 10 27 11 29 12
REMARK SMILES IDX 17 13 18 14 19 15 20 16 23 17 22 18 21 19 31 21 28 23 5 25
REMARK SMILES IDX 14 26 6 27 12 28 7 29 10 30 15 31 13 33 8 35 9 36 11 38
REMARK H PARENT 21 20 31 22 28 24 15 32 13 34 9 37 11 39
REMARK Flexibility Score: inf
ROOT
ATOM      1  O   UNL     1     104.547 120.532 121.243  1.00  0.00    -0.454 OA
ENDROOT
BRANCH   1   2
ATOM      2  C   UNL     1     105.922 120.738 121.059  1.00  0.00     0.214 A 
ATOM      3  C   UNL     1     106.425 121.557 120.024  1.00  0.00     0.180 A 
ATOM      4  O   UNL     1     107.739 121.685 119.857  1.00  0.00    -0.452 OA
ATOM      5  C   UNL     1     106.827 120.124 121.931  1.00  0.00     0.239 A 
ATOM      6  C   UNL     1     108.633 121.102 120.646  1.00  0.00     0.146 A 
ATOM      7  O   UNL     1     106.383 119.411 122.876  1.00  0.00    -0.285 OA
ATOM      8  C   UNL     1     108.214 120.296 121.733  1.00  0.00     0.111 A 
ATOM      9  C   UNL     1     109.994 121.307 120.403  1.00  0.00     0.094 A 
ATOM     10  C   UNL     1     109.191 119.709 122.571  1.00  0.00     0.134 A 
ATOM     11  C   UNL     1     110.954 120.737 121.238  1.00  0.00     0.123 A 
ATOM     12  C   UNL     1     110.553 119.941 122.320  1.00  0.00     0.093 A 
BRANCH   3  13
ATOM     13  C   UNL     1     105.535 122.312 119.124  1.00  0.00     0.021 A 
ATOM     14  C   UNL     1     104.740 121.630 118.193  1.00  0.00     0.016 A 
ATOM     15  C   UNL     1     103.892 122.339 117.339  1.00  0.00     0.047 A 
ATOM     16  C   UNL     1     103.833 123.737 117.409  1.00  0.00     0.115 A 
ATOM     17  C   UNL     1     105.495 123.715 119.171  1.00  0.00     0.016 A 
ATOM     18  C   UNL     1     104.642 124.423 118.320  1.00  0.00     0.047 A 
BRANCH  16  19
ATOM     19  O   UNL     1     102.980 124.452 116.570  1.00  0.00    -0.508 OA
ATOM     20  H   UNL     1     102.030 124.147 116.399  1.00  0.00     0.293 HD
ENDBRANCH  16  19
ENDBRANCH   3  13
BRANCH  10  21
ATOM     21  O   UNL     1     108.823 118.900 123.645  1.00  0.00    -0.507 OA
ATOM     22  H   UNL     1     107.872 118.566 123.762  1.00  0.00     0.293 HD
ENDBRANCH  10  21
BRANCH  11  23
ATOM     23  O   UNL     1     112.306 120.972 120.990  1.00  0.00    -0.508 OA
ATOM     24  H   UNL     1     112.966 120.207 120.892  1.00  0.00     0.293 HD
ENDBRANCH  11  23
ENDBRANCH   1   2
BRANCH   1  25
ATOM     25  C   UNL     1     103.823 121.030 122.375  1.00  0.00     0.339 C 
ATOM     26  C   UNL     1     102.539 121.764 121.944  1.00  0.00     0.214 C 
ATOM     27  O   UNL     1     103.573 119.993 123.317  1.00  0.00    -0.332 OA
ATOM     28  C   UNL     1     101.484 120.779 121.414  1.00  0.00     0.180 C 
ATOM     29  C   UNL     1     102.629 119.018 122.878  1.00  0.00     0.179 C 
ATOM     30  C   UNL     1     101.281 119.633 122.421  1.00  0.00     0.177 C 
BRANCH  26  31
ATOM     31  O   UNL     1     102.847 122.728 120.966  1.00  0.00    -0.384 OA
ATOM     32  H   UNL     1     102.651 122.314 120.085  1.00  0.00     0.211 HD
ENDBRANCH  26  31
BRANCH  28  33
ATOM     33  O   UNL     1     101.874 120.285 120.158  1.00  0.00    -0.387 OA
ATOM     34  H   UNL     1     102.778 120.655 119.973  1.00  0.00     0.211 HD
ENDBRANCH  28  33
BRANCH  29  35
ATOM     35  C   UNL     1     103.234 118.007 121.883  1.00  0.00     0.191 C 
BRANCH  35  36
ATOM     36  O   UNL     1     104.449 117.519 122.381  1.00  0.00    -0.394 OA
ATOM     37  H   UNL     1     104.268 117.224 123.311  1.00  0.00     0.210 HD
ENDBRANCH  35  36
ENDBRANCH  29  35
BRANCH  30  38
ATOM     38  O   UNL     1     100.610 120.126 123.556  1.00  0.00    -0.387 OA
ATOM     39  H   UNL     1     100.873 119.553 124.325  1.00  0.00     0.211 HD
ENDBRANCH  30  38
ENDBRANCH   1  25
TORSDOF 11
ENDMDL
MODEL 4
REMARK VINA RESULT:    -6.524      2.074      6.527
REMARK INTER + INTRA:          -9.956
REMARK INTER:                  -8.174
REMARK INTRA:                  -1.783
REMARK UNBOUND:                -0.571
REMARK SMILES O=c1c(O[C@@H]2O[C@H](CO)[C@@H](O)[C@H](O)[C@@H]2O)c(-c2ccc(O)cc2)oc2cc(O)cc(O)c12
REMARK SMILES IDX 4 1 3 2 16 3 24 4 2 5 25 6 1 7 32 8 26 9 30 10 27 11 29 12
REMARK SMILES IDX 17 13 18 14 19 15 20 16 23 17 22 18 21 19 31 21 28 23 5 25
REMARK SMILES IDX 14 26 6 27 12 28 7 29 10 30 15 31 13 33 8 35 9 36 11 38
REMARK H PARENT 21 20 31 22 28 24 15 32 13 34 9 37 11 39
REMARK Flexibility Score: inf
ROOT
ATOM      1  O   UNL     1     104.143 121.328 121.042  1.00  0.00    -0.454 OA
ENDROOT
BRANCH   1   2
ATOM      2  C   UNL     1     105.481 120.953 121.236  1.00  0.00     0.214 A 
ATOM      3  C   UNL     1     105.864 120.033 122.237  1.00  0.00     0.180 A 
ATOM      4  O   UNL     1     107.151 119.744 122.416  1.00  0.00    -0.452 OA
ATOM      5  C   UNL     1     106.468 121.495 120.406  1.00  0.00     0.239 A 
ATOM      6  C   UNL     1     108.122 120.253 121.667  1.00  0.00     0.146 A 
ATOM      7  O   UNL     1     106.129 122.297 119.490  1.00  0.00    -0.285 OA
ATOM      8  C   UNL     1     107.821 121.152 120.614  1.00  0.00     0.111 A 
ATOM      9  C   UNL     1     109.444 119.878 121.920  1.00  0.00     0.094 A 
ATOM     10  C   UNL     1     108.877 121.657 119.819  1.00  0.00     0.134 A 
ATOM     11  C   UNL     1     110.481 120.369 121.126  1.00  0.00     0.123 A 
ATOM     12  C   UNL     1     110.197 121.255 120.077  1.00  0.00     0.093 A 
BRANCH   3  13
ATOM     13  C   UNL     1     104.874 119.349 123.087  1.00  0.00     0.021 A 
ATOM     14  C   UNL     1     104.565 119.863 124.353  1.00  0.00     0.016 A 
ATOM     15  C   UNL     1     103.625 119.221 125.164  1.00  0.00     0.047 A 
ATOM     16  C   UNL     1     102.989 118.057 124.713  1.00  0.00     0.115 A 
ATOM     17  C   UNL     1     104.256 118.165 122.652  1.00  0.00     0.016 A 
ATOM     18  C   UNL     1     103.312 117.526 123.461  1.00  0.00     0.047 A 
BRANCH  16  19
ATOM     19  O   UNL     1     102.041 117.416 125.509  1.00  0.00    -0.508 OA
ATOM     20  H   UNL     1     101.653 117.863 126.330  1.00  0.00     0.293 HD
ENDBRANCH  16  19
ENDBRANCH   3  13
BRANCH  10  21
ATOM     21  O   UNL     1     108.626 122.551 118.780  1.00  0.00    -0.507 OA
ATOM     22  H   UNL     1     107.812 123.156 118.778  1.00  0.00     0.293 HD
ENDBRANCH  10  21
BRANCH  11  23
ATOM     23  O   UNL     1     111.790 119.964 121.381  1.00  0.00    -0.508 OA
ATOM     24  H   UNL     1     112.064 118.988 121.314  1.00  0.00     0.293 HD
ENDBRANCH  11  23
ENDBRANCH   1   2
BRANCH   1  25
ATOM     25  C   UNL     1     103.481 122.317 121.840  1.00  0.00     0.339 C 
ATOM     26  C   UNL     1     103.077 123.542 120.998  1.00  0.00     0.214 C 
ATOM     27  O   UNL     1     102.384 121.751 122.547  1.00  0.00    -0.332 OA
ATOM     28  C   UNL     1     101.920 123.207 120.044  1.00  0.00     0.180 C 
ATOM     29  C   UNL     1     101.283 121.380 121.721  1.00  0.00     0.179 C 
ATOM     30  C   UNL     1     100.774 122.537 120.823  1.00  0.00     0.177 C 
BRANCH  26  31
ATOM     31  O   UNL     1     104.191 124.011 120.276  1.00  0.00    -0.384 OA
ATOM     32  H   UNL     1     104.272 123.434 119.471  1.00  0.00     0.211 HD
ENDBRANCH  26  31
BRANCH  28  33
ATOM     33  O   UNL     1     102.375 122.380 119.004  1.00  0.00    -0.387 OA
ATOM     34  H   UNL     1     101.567 121.986 118.578  1.00  0.00     0.211 HD
ENDBRANCH  28  33
BRANCH  29  35
ATOM     35  C   UNL     1     101.520 120.053 120.971  1.00  0.00     0.191 C 
BRANCH  35  36
ATOM     36  O   UNL     1     100.704 119.998 119.833  1.00  0.00    -0.394 OA
ATOM     37  H   UNL     1     100.827 120.863 119.363  1.00  0.00     0.210 HD
ENDBRANCH  35  36
ENDBRANCH  29  35
BRANCH  30  38
ATOM     38  O   UNL     1     100.148 123.494 121.644  1.00  0.00    -0.387 OA
ATOM     39  H   UNL     1     100.840 124.162 121.898  1.00  0.00     0.211 HD
ENDBRANCH  30  38
ENDBRANCH   1  25
TORSDOF 11
ENDMDL
MODEL 5
REMARK VINA RESULT:    -6.400      2.409      7.151
REMARK INTER + INTRA:          -9.778
REMARK INTER:                  -8.212
REMARK INTRA:                  -1.566
REMARK UNBOUND:                -0.571
REMARK SMILES O=c1c(O[C@@H]2O[C@H](CO)[C@@H](O)[C@H](O)[C@@H]2O)c(-c2ccc(O)cc2)oc2cc(O)cc(O)c12
REMARK SMILES IDX 4 1 3 2 16 3 24 4 2 5 25 6 1 7 32 8 26 9 30 10 27 11 29 12
REMARK SMILES IDX 17 13 18 14 19 15 20 16 23 17 22 18 21 19 31 21 28 23 5 25
REMARK SMILES IDX 14 26 6 27 12 28 7 29 10 30 15 31 13 33 8 35 9 36 11 38
REMARK H PARENT 21 20 31 22 28 24 15 32 13 34 9 37 11 39
REMARK Flexibility Score: inf
ROOT
ATOM      1  O   UNL     1     104.456 122.014 121.092  1.00  0.00    -0.454 OA
ENDROOT
BRANCH   1   2
ATOM      2  C   UNL     1     105.647 121.468 120.593  1.00  0.00     0.214 A 
ATOM      3  C   UNL     1     105.782 121.071 119.244  1.00  0.00     0.180 A 
ATOM      4  O   UNL     1     106.915 120.512 118.827  1.00  0.00    -0.452 OA
ATOM      5  C   UNL     1     106.742 121.320 121.451  1.00  0.00     0.239 A 
ATOM      6  C   UNL     1     107.970 120.331 119.612  1.00  0.00     0.146 A 
ATOM      7  O   UNL     1     106.638 121.698 122.653  1.00  0.00    -0.285 OA
ATOM      8  C   UNL     1     107.934 120.739 120.968  1.00  0.00     0.111 A 
ATOM      9  C   UNL     1     109.124 119.750 119.079  1.00  0.00     0.094 A 
ATOM     10  C   UNL     1     109.084 120.555 121.772  1.00  0.00     0.134 A 
ATOM     11  C   UNL     1     110.260 119.581 119.871  1.00  0.00     0.123 A 
ATOM     12  C   UNL     1     110.239 119.984 121.214  1.00  0.00     0.093 A 
BRANCH   3  13
ATOM     13  C   UNL     1     104.707 121.281 118.258  1.00  0.00     0.021 A 
ATOM     14  C   UNL     1     104.646 122.480 117.536  1.00  0.00     0.016 A 
ATOM     15  C   UNL     1     103.632 122.686 116.597  1.00  0.00     0.047 A 
ATOM     16  C   UNL     1     102.669 121.693 116.376  1.00  0.00     0.115 A 
ATOM     17  C   UNL     1     103.723 120.300 118.054  1.00  0.00     0.016 A 
ATOM     18  C   UNL     1     102.712 120.504 117.111  1.00  0.00     0.047 A 
BRANCH  16  19
ATOM     19  O   UNL     1     101.661 121.883 115.433  1.00  0.00    -0.508 OA
ATOM     20  H   UNL     1     101.568 121.274 114.629  1.00  0.00     0.293 HD
ENDBRANCH  16  19
ENDBRANCH   3  13
BRANCH  10  21
ATOM     21  O   UNL     1     109.088 120.931 123.114  1.00  0.00    -0.507 OA
ATOM     22  H   UNL     1     108.546 120.432 123.812  1.00  0.00     0.293 HD
ENDBRANCH  10  21
BRANCH  11  23
ATOM     23  O   UNL     1     111.408 119.020 119.314  1.00  0.00    -0.508 OA
ATOM     24  H   UNL     1     111.550 118.997 118.309  1.00  0.00     0.293 HD
ENDBRANCH  11  23
ENDBRANCH   1   2
BRANCH   1  25
ATOM     25  C   UNL     1     103.378 121.218 121.601  1.00  0.00     0.339 C 
ATOM     26  C   UNL     1     103.043 121.588 123.058  1.00  0.00     0.214 C 
ATOM     27  O   UNL     1     102.246 121.285 120.742  1.00  0.00    -0.332 OA
ATOM     28  C   UNL     1     102.367 122.966 123.143  1.00  0.00     0.180 C 
ATOM     29  C   UNL     1     101.587 122.549 120.740  1.00  0.00     0.179 C 
ATOM     30  C   UNL     1     101.187 123.034 122.157  1.00  0.00     0.177 C 
BRANCH  26  31
ATOM     31  O   UNL     1     104.215 121.566 123.837  1.00  0.00    -0.384 OA
ATOM     32  H   UNL     1     104.643 120.683 123.683  1.00  0.00     0.211 HD
ENDBRANCH  26  31
BRANCH  28  33
ATOM     33  O   UNL     1     103.303 123.980 122.879  1.00  0.00    -0.387 OA
ATOM     34  H   UNL     1     103.214 124.208 121.915  1.00  0.00     0.211 HD
ENDBRANCH  28  33
BRANCH  29  35
ATOM     35  C   UNL     1     102.325 123.606 119.893  1.00  0.00     0.191 C 
BRANCH  35  36
ATOM     36  O   UNL     1     101.479 124.080 118.881  1.00  0.00    -0.394 OA
ATOM     37  H   UNL     1     102.068 124.510 118.209  1.00  0.00     0.210 HD
ENDBRANCH  35  36
ENDBRANCH  29  35
BRANCH  30  38
ATOM     38  O   UNL     1     100.141 122.217 122.628  1.00  0.00    -0.387 OA
ATOM     39  H   UNL     1     100.516 121.305 122.758  1.00  0.00     0.211 HD
ENDBRANCH  30  38
ENDBRANCH   1  25
TORSDOF 11
ENDMDL
MODEL 6
REMARK VINA RESULT:    -6.341      2.129      6.679
REMARK INTER + INTRA:          -9.692
REMARK INTER:                  -7.913
REMARK INTRA:                  -1.780
REMARK UNBOUND:                -0.571
REMARK SMILES O=c1c(O[C@@H]2O[C@H](CO)[C@@H](O)[C@H](O)[C@@H]2O)c(-c2ccc(O)cc2)oc2cc(O)cc(O)c12
REMARK SMILES IDX 4 1 3 2 16 3 24 4 2 5 25 6 1 7 32 8 26 9 30 10 27 11 29 12
REMARK SMILES IDX 17 13 18 14 19 15 20 16 23 17 22 18 21 19 31 21 28 23 5 25
REMARK SMILES IDX 14 26 6 27 12 28 7 29 10 30 15 31 13 33 8 35 9 36 11 38
REMARK H PARENT 21 20 31 22 28 24 15 32 13 34 9 37 11 39
REMARK Flexibility Score: inf
ROOT
ATOM      1  O   UNL     1     104.349 122.317 119.104  1.00  0.00    -0.454 OA
ENDROOT
BRANCH   1   2
ATOM      2  C   UNL     1     105.285 121.714 119.957  1.00  0.00     0.214 A 
ATOM      3  C   UNL     1     104.894 120.966 121.089  1.00  0.00     0.180 A 
ATOM      4  O   UNL     1     105.818 120.452 121.897  1.00  0.00    -0.452 OA
ATOM      5  C   UNL     1     106.649 121.845 119.675  1.00  0.00     0.239 A 
ATOM      6  C   UNL     1     107.122 120.571 121.680  1.00  0.00     0.146 A 
ATOM      7  O   UNL     1     107.005 122.490 118.648  1.00  0.00    -0.285 OA
ATOM      8  C   UNL     1     107.600 121.271 120.545  1.00  0.00     0.111 A 
ATOM      9  C   UNL     1     108.019 119.983 122.577  1.00  0.00     0.094 A 
ATOM     10  C   UNL     1     108.996 121.359 120.330  1.00  0.00     0.134 A 
ATOM     11  C   UNL     1     109.393 120.062 122.355  1.00  0.00     0.123 A 
ATOM     12  C   UNL     1     109.880 120.747 121.232  1.00  0.00     0.093 A 
BRANCH   3  13
ATOM     13  C   UNL     1     103.477 120.704 121.400  1.00  0.00     0.021 A 
ATOM     14  C   UNL     1     102.790 121.540 122.289  1.00  0.00     0.016 A 
ATOM     15  C   UNL     1     101.446 121.300 122.586  1.00  0.00     0.047 A 
ATOM     16  C   UNL     1     100.780 120.218 121.996  1.00  0.00     0.115 A 
ATOM     17  C   UNL     1     102.814 119.604 120.833  1.00  0.00     0.016 A 
ATOM     18  C   UNL     1     101.468 119.367 121.126  1.00  0.00     0.047 A 
BRANCH  16  19
ATOM     19  O   UNL     1      99.436 119.978 122.275  1.00  0.00    -0.508 OA
ATOM     20  H   UNL     1      98.831 120.710 122.626  1.00  0.00     0.293 HD
ENDBRANCH  16  19
ENDBRANCH   3  13
BRANCH  10  21
ATOM     21  O   UNL     1     109.510 122.047 119.231  1.00  0.00    -0.507 OA
ATOM     22  H   UNL     1     110.470 122.374 119.205  1.00  0.00     0.293 HD
ENDBRANCH  10  21
BRANCH  11  23
ATOM     23  O   UNL     1     110.269 119.449 123.249  1.00  0.00    -0.508 OA
ATOM     24  H   UNL     1     111.238 119.274 123.004  1.00  0.00     0.293 HD
ENDBRANCH  11  23
ENDBRANCH   1   2
BRANCH   1  25
ATOM     25  C   UNL     1     103.759 123.597 119.365  1.00  0.00     0.339 C 
ATOM     26  C   UNL     1     104.062 124.598 118.234  1.00  0.00     0.214 C 
ATOM     27  O   UNL     1     102.367 123.472 119.630  1.00  0.00    -0.332 OA
ATOM     28  C   UNL     1     103.286 124.246 116.954  1.00  0.00     0.180 C 
ATOM     29  C   UNL     1     101.585 123.110 118.494  1.00  0.00     0.179 C 
ATOM     30  C   UNL     1     101.795 124.052 117.281  1.00  0.00     0.177 C 
BRANCH  26  31
ATOM     31  O   UNL     1     105.446 124.624 117.979  1.00  0.00    -0.384 OA
ATOM     32  H   UNL     1     105.692 123.720 117.648  1.00  0.00     0.211 HD
ENDBRANCH  26  31
BRANCH  28  33
ATOM     33  O   UNL     1     103.828 123.093 116.363  1.00  0.00    -0.387 OA
ATOM     34  H   UNL     1     103.060 122.510 116.117  1.00  0.00     0.211 HD
ENDBRANCH  28  33
BRANCH  29  35
ATOM     35  C   UNL     1     101.683 121.609 118.155  1.00  0.00     0.191 C 
BRANCH  35  36
ATOM     36  O   UNL     1     101.374 121.405 116.804  1.00  0.00    -0.394 OA
ATOM     37  H   UNL     1     101.223 120.430 116.699  1.00  0.00     0.210 HD
ENDBRANCH  35  36
ENDBRANCH  29  35
BRANCH  30  38
ATOM     38  O   UNL     1     101.219 125.301 117.583  1.00  0.00    -0.387 OA
ATOM     39  H   UNL     1     100.280 125.132 117.865  1.00  0.00     0.211 HD
ENDBRANCH  30  38
ENDBRANCH   1  25
TORSDOF 11
ENDMDL
MODEL 7
REMARK VINA RESULT:    -6.141      1.785      6.312
REMARK INTER + INTRA:          -9.404
REMARK INTER:                  -8.196
REMARK INTRA:                  -1.209
REMARK UNBOUND:                -0.571
REMARK SMILES O=c1c(O[C@@H]2O[C@H](CO)[C@@H](O)[C@H](O)[C@@H]2O)c(-c2ccc(O)cc2)oc2cc(O)cc(O)c12
REMARK SMILES IDX 4 1 3 2 16 3 24 4 2 5 25 6 1 7 32 8 26 9 30 10 27 11 29 12
REMARK SMILES IDX 17 13 18 14 19 15 20 16 23 17 22 18 21 19 31 21 28 23 5 25
REMARK SMILES IDX 14 26 6 27 12 28 7 29 10 30 15 31 13 33 8 35 9 36 11 38
REMARK H PARENT 21 20 31 22 28 24 15 32 13 34 9 37 11 39
REMARK Flexibility Score: inf
ROOT
ATOM      1  O   UNL     1     104.338 121.268 120.735  1.00  0.00    -0.454 OA
ENDROOT
BRANCH   1   2
ATOM      2  C   UNL     1     105.671 120.904 120.973  1.00  0.00     0.214 A 
ATOM      3  C   UNL     1     106.026 119.959 121.960  1.00  0.00     0.180 A 
ATOM      4  O   UNL     1     107.308 119.681 122.183  1.00  0.00    -0.452 OA
ATOM      5  C   UNL     1     106.684 121.485 120.202  1.00  0.00     0.239 A 
ATOM      6  C   UNL     1     108.302 120.225 121.492  1.00  0.00     0.146 A 
ATOM      7  O   UNL     1     106.372 122.312 119.298  1.00  0.00    -0.285 OA
ATOM      8  C   UNL     1     108.032 121.153 120.456  1.00  0.00     0.111 A 
ATOM      9  C   UNL     1     109.618 119.860 121.787  1.00  0.00     0.094 A 
ATOM     10  C   UNL     1     109.112 121.697 119.721  1.00  0.00     0.134 A 
ATOM     11  C   UNL     1     110.679 120.389 121.053  1.00  0.00     0.123 A 
ATOM     12  C   UNL     1     110.426 121.304 120.022  1.00  0.00     0.093 A 
BRANCH   3  13
ATOM     13  C   UNL     1     105.012 119.234 122.746  1.00  0.00     0.021 A 
ATOM     14  C   UNL     1     104.738 117.890 122.465  1.00  0.00     0.016 A 
ATOM     15  C   UNL     1     103.779 117.196 123.208  1.00  0.00     0.047 A 
ATOM     16  C   UNL     1     103.086 117.844 124.239  1.00  0.00     0.115 A 
ATOM     17  C   UNL     1     104.294 119.888 123.761  1.00  0.00     0.016 A 
ATOM     18  C   UNL     1     103.340 119.192 124.508  1.00  0.00     0.047 A 
BRANCH  16  19
ATOM     19  O   UNL     1     102.138 117.157 124.995  1.00  0.00    -0.508 OA
ATOM     20  H   UNL     1     101.686 117.587 125.792  1.00  0.00     0.293 HD
ENDBRANCH  16  19
ENDBRANCH   3  13
BRANCH  10  21
ATOM     21  O   UNL     1     108.893 122.621 118.701  1.00  0.00    -0.507 OA
ATOM     22  H   UNL     1     108.306 123.438 118.836  1.00  0.00     0.293 HD
ENDBRANCH  10  21
BRANCH  11  23
ATOM     23  O   UNL     1     111.983 119.993 121.350  1.00  0.00    -0.508 OA
ATOM     24  H   UNL     1     112.778 120.583 121.125  1.00  0.00     0.293 HD
ENDBRANCH  11  23
ENDBRANCH   1   2
BRANCH   1  25
ATOM     25  C   UNL     1     103.639 120.949 119.525  1.00  0.00     0.339 C 
ATOM     26  C   UNL     1     102.249 120.355 119.817  1.00  0.00     0.214 C 
ATOM     27  O   UNL     1     103.585 122.075 118.657  1.00  0.00    -0.332 OA
ATOM     28  C   UNL     1     101.287 121.424 120.359  1.00  0.00     0.180 C 
ATOM     29  C   UNL     1     102.738 123.127 119.114  1.00  0.00     0.179 C 
ATOM     30  C   UNL     1     101.297 122.656 119.437  1.00  0.00     0.177 C 
BRANCH  26  31
ATOM     31  O   UNL     1     102.368 119.290 120.730  1.00  0.00    -0.384 OA
ATOM     32  H   UNL     1     101.692 118.612 120.466  1.00  0.00     0.211 HD
ENDBRANCH  26  31
BRANCH  28  33
ATOM     33  O   UNL     1     101.645 121.773 121.672  1.00  0.00    -0.387 OA
ATOM     34  H   UNL     1     102.080 122.666 121.622  1.00  0.00     0.211 HD
ENDBRANCH  28  33
BRANCH  29  35
ATOM     35  C   UNL     1     103.390 123.979 120.223  1.00  0.00     0.191 C 
BRANCH  35  36
ATOM     36  O   UNL     1     104.684 124.353 119.835  1.00  0.00    -0.394 OA
ATOM     37  H   UNL     1     105.182 123.509 119.685  1.00  0.00     0.210 HD
ENDBRANCH  35  36
ENDBRANCH  29  35
BRANCH  30  38
ATOM     38  O   UNL     1     100.652 122.336 118.227  1.00  0.00    -0.387 OA
ATOM     39  H   UNL     1      99.688 122.202 118.434  1.00  0.00     0.211 HD
ENDBRANCH  30  38
ENDBRANCH   1  25
TORSDOF 11
ENDMDL
MODEL 8
REMARK VINA RESULT:    -5.998      2.451      7.053
REMARK INTER + INTRA:          -9.199
REMARK INTER:                  -8.238
REMARK INTRA:                  -0.962
REMARK UNBOUND:                -0.571
REMARK SMILES O=c1c(O[C@@H]2O[C@H](CO)[C@@H](O)[C@H](O)[C@@H]2O)c(-c2ccc(O)cc2)oc2cc(O)cc(O)c12
REMARK SMILES IDX 4 1 3 2 16 3 24 4 2 5 25 6 1 7 32 8 26 9 30 10 27 11 29 12
REMARK SMILES IDX 17 13 18 14 19 15 20 16 23 17 22 18 21 19 31 21 28 23 5 25
REMARK SMILES IDX 14 26 6 27 12 28 7 29 10 30 15 31 13 33 8 35 9 36 11 38
REMARK H PARENT 21 20 31 22 28 24 15 32 13 34 9 37 11 39
REMARK Flexibility Score: inf
ROOT
ATOM      1  O   UNL     1     104.577 121.441 121.418  1.00  0.00    -0.454 OA
ENDROOT
BRANCH   1   2
ATOM      2  C   UNL     1     105.768 121.053 120.787  1.00  0.00     0.214 A 
ATOM      3  C   UNL     1     105.887 120.993 119.381  1.00  0.00     0.180 A 
ATOM      4  O   UNL     1     107.022 120.573 118.828  1.00  0.00    -0.452 OA
ATOM      5  C   UNL     1     106.879 120.725 121.571  1.00  0.00     0.239 A 
ATOM      6  C   UNL     1     108.092 120.230 119.534  1.00  0.00     0.146 A 
ATOM      7  O   UNL     1     106.788 120.803 122.830  1.00  0.00    -0.285 OA
ATOM      8  C   UNL     1     108.072 120.300 120.948  1.00  0.00     0.111 A 
ATOM      9  C   UNL     1     109.247 119.815 118.864  1.00  0.00     0.094 A 
ATOM     10  C   UNL     1     109.238 119.952 121.671  1.00  0.00     0.134 A 
ATOM     11  C   UNL     1     110.397 119.485 119.578  1.00  0.00     0.123 A 
ATOM     12  C   UNL     1     110.393 119.554 120.978  1.00  0.00     0.093 A 
BRANCH   3  13
ATOM     13  C   UNL     1     104.793 121.413 118.488  1.00  0.00     0.021 A 
ATOM     14  C   UNL     1     104.777 122.711 117.963  1.00  0.00     0.016 A 
ATOM     15  C   UNL     1     103.745 123.116 117.113  1.00  0.00     0.047 A 
ATOM     16  C   UNL     1     102.718 122.222 116.783  1.00  0.00     0.115 A 
ATOM     17  C   UNL     1     103.746 120.529 118.177  1.00  0.00     0.016 A 
ATOM     18  C   UNL     1     102.716 120.932 117.322  1.00  0.00     0.047 A 
BRANCH  16  19
ATOM     19  O   UNL     1     101.690 122.611 115.925  1.00  0.00    -0.508 OA
ATOM     20  H   UNL     1     101.126 121.929 115.434  1.00  0.00     0.293 HD
ENDBRANCH  16  19
ENDBRANCH   3  13
BRANCH  10  21
ATOM     21  O   UNL     1     109.258 119.996 123.064  1.00  0.00    -0.507 OA
ATOM     22  H   UNL     1     108.686 119.377 123.628  1.00  0.00     0.293 HD
ENDBRANCH  10  21
BRANCH  11  23
ATOM     23  O   UNL     1     111.545 119.095 118.888  1.00  0.00    -0.508 OA
ATOM     24  H   UNL     1     111.497 118.454 118.103  1.00  0.00     0.293 HD
ENDBRANCH  11  23
ENDBRANCH   1   2
BRANCH   1  25
ATOM     25  C   UNL     1     104.529 122.378 122.500  1.00  0.00     0.339 C 
ATOM     26  C   UNL     1     103.816 123.680 122.087  1.00  0.00     0.214 C 
ATOM     27  O   UNL     1     103.962 121.787 123.663  1.00  0.00    -0.332 OA
ATOM     28  C   UNL     1     102.305 123.458 121.912  1.00  0.00     0.180 C 
ATOM     29  C   UNL     1     102.566 121.517 123.561  1.00  0.00     0.179 C 
ATOM     30  C   UNL     1     101.730 122.758 123.156  1.00  0.00     0.177 C 
BRANCH  26  31
ATOM     31  O   UNL     1     104.382 124.176 120.897  1.00  0.00    -0.384 OA
ATOM     32  H   UNL     1     104.982 124.924 121.157  1.00  0.00     0.211 HD
ENDBRANCH  26  31
BRANCH  28  33
ATOM     33  O   UNL     1     102.059 122.707 120.751  1.00  0.00    -0.387 OA
ATOM     34  H   UNL     1     102.482 123.199 119.997  1.00  0.00     0.211 HD
ENDBRANCH  28  33
BRANCH  29  35
ATOM     35  C   UNL     1     102.262 120.250 122.735  1.00  0.00     0.191 C 
BRANCH  35  36
ATOM     36  O   UNL     1     103.222 119.266 123.003  1.00  0.00    -0.394 OA
ATOM     37  H   UNL     1     104.055 119.750 123.240  1.00  0.00     0.210 HD
ENDBRANCH  35  36
ENDBRANCH  29  35
BRANCH  30  38
ATOM     38  O   UNL     1     101.723 123.661 124.236  1.00  0.00    -0.387 OA
ATOM     39  H   UNL     1     101.699 124.578 123.852  1.00  0.00     0.211 HD
ENDBRANCH  30  38
ENDBRANCH   1  25
TORSDOF 11
ENDMDL
MODEL 9
REMARK VINA RESULT:    -5.996      1.678      4.946
REMARK INTER + INTRA:          -9.197
REMARK INTER:                  -8.111
REMARK INTRA:                  -1.085
REMARK UNBOUND:                -0.571
REMARK SMILES O=c1c(O[C@@H]2O[C@H](CO)[C@@H](O)[C@H](O)[C@@H]2O)c(-c2ccc(O)cc2)oc2cc(O)cc(O)c12
REMARK SMILES IDX 4 1 3 2 16 3 24 4 2 5 25 6 1 7 32 8 26 9 30 10 27 11 29 12
REMARK SMILES IDX 17 13 18 14 19 15 20 16 23 17 22 18 21 19 31 21 28 23 5 25
REMARK SMILES IDX 14 26 6 27 12 28 7 29 10 30 15 31 13 33 8 35 9 36 11 38
REMARK H PARENT 21 20 31 22 28 24 15 32 13 34 9 37 11 39
REMARK Flexibility Score: inf
ROOT
ATOM      1  O   UNL     1     104.359 119.836 120.609  1.00  0.00    -0.454 OA
ENDROOT
BRANCH   1   2
ATOM      2  C   UNL     1     104.343 121.069 119.940  1.00  0.00     0.214 A 
ATOM      3  C   UNL     1     105.523 121.806 119.698  1.00  0.00     0.180 A 
ATOM      4  O   UNL     1     105.454 122.994 119.103  1.00  0.00    -0.452 OA
ATOM      5  C   UNL     1     103.123 121.583 119.487  1.00  0.00     0.239 A 
ATOM      6  C   UNL     1     104.317 123.530 118.678  1.00  0.00     0.146 A 
ATOM      7  O   UNL     1     102.066 120.917 119.676  1.00  0.00    -0.285 OA
ATOM      8  C   UNL     1     103.091 122.840 118.844  1.00  0.00     0.111 A 
ATOM      9  C   UNL     1     104.344 124.778 118.049  1.00  0.00     0.094 A 
ATOM     10  C   UNL     1     101.899 123.427 118.357  1.00  0.00     0.134 A 
ATOM     11  C   UNL     1     103.170 125.348 117.560  1.00  0.00     0.123 A 
ATOM     12  C   UNL     1     101.950 124.673 117.713  1.00  0.00     0.093 A 
BRANCH   3  13
ATOM     13  C   UNL     1     106.854 121.288 120.061  1.00  0.00     0.021 A 
ATOM     14  C   UNL     1     107.386 121.553 121.329  1.00  0.00     0.016 A 
ATOM     15  C   UNL     1     108.646 121.062 121.681  1.00  0.00     0.047 A 
ATOM     16  C   UNL     1     109.385 120.303 120.764  1.00  0.00     0.115 A 
ATOM     17  C   UNL     1     107.610 120.551 119.134  1.00  0.00     0.016 A 
ATOM     18  C   UNL     1     108.868 120.056 119.488  1.00  0.00     0.047 A 
BRANCH  16  19
ATOM     19  O   UNL     1     110.637 119.798 121.109  1.00  0.00    -0.508 OA
ATOM     20  H   UNL     1     111.177 119.238 120.462  1.00  0.00     0.293 HD
ENDBRANCH  16  19
ENDBRANCH   3  13
BRANCH  10  21
ATOM     21  O   UNL     1     100.670 122.787 118.509  1.00  0.00    -0.507 OA
ATOM     22  H   UNL     1      99.795 123.301 118.510  1.00  0.00     0.293 HD
ENDBRANCH  10  21
BRANCH  11  23
ATOM     23  O   UNL     1     103.223 126.583 116.915  1.00  0.00    -0.508 OA
ATOM     24  H   UNL     1     102.382 127.124 116.738  1.00  0.00     0.293 HD
ENDBRANCH  11  23
ENDBRANCH   1   2
BRANCH   1  25
ATOM     25  C   UNL     1     104.641 119.705 122.008  1.00  0.00     0.339 C 
ATOM     26  C   UNL     1     103.365 119.862 122.857  1.00  0.00     0.214 C 
ATOM     27  O   UNL     1     105.334 118.492 122.276  1.00  0.00    -0.332 OA
ATOM     28  C   UNL     1     102.435 118.648 122.697  1.00  0.00     0.180 C 
ATOM     29  C   UNL     1     104.543 117.317 122.112  1.00  0.00     0.179 C 
ATOM     30  C   UNL     1     103.225 117.347 122.928  1.00  0.00     0.177 C 
BRANCH  26  31
ATOM     31  O   UNL     1     102.695 121.046 122.496  1.00  0.00    -0.384 OA
ATOM     32  H   UNL     1     102.987 121.745 123.138  1.00  0.00     0.211 HD
ENDBRANCH  26  31
BRANCH  28  33
ATOM     33  O   UNL     1     101.842 118.659 121.424  1.00  0.00    -0.387 OA
ATOM     34  H   UNL     1     102.179 119.471 120.958  1.00  0.00     0.211 HD
ENDBRANCH  28  33
BRANCH  29  35
ATOM     35  C   UNL     1     104.364 116.919 120.633  1.00  0.00     0.191 C 
BRANCH  35  36
ATOM     36  O   UNL     1     105.476 116.185 120.200  1.00  0.00    -0.394 OA
ATOM     37  H   UNL     1     106.150 116.251 120.926  1.00  0.00     0.210 HD
ENDBRANCH  35  36
ENDBRANCH  29  35
BRANCH  30  38
ATOM     38  O   UNL     1     103.545 117.234 124.294  1.00  0.00    -0.387 OA
ATOM     39  H   UNL     1     102.695 117.319 124.804  1.00  0.00     0.211 HD
ENDBRANCH  30  38
ENDBRANCH   1  25
TORSDOF 11
ENDMDL
