MODEL 1
REMARK VINA RESULT:    -3.754      0.000      0.000
REMARK INTER + INTRA:          -8.413
REMARK INTER:                  -7.264
REMARK INTRA:                  -1.148
REMARK UNBOUND:                -1.148
REMARK SMILES CCCCCCCCCCCCCCCCCC(=O)[O-]
REMARK SMILES IDX 10 1 11 2 12 3 13 4 14 5 15 6 16 7 17 8 18 9 19 10 20 11
REMARK SMILES IDX 9 12 8 13 7 14 6 15 5 16 4 17 3 18 2 19 1 20
REMARK H PARENT
REMARK Flexibility Score: inf
ROOT
ATOM      1  C   UNL     1      13.719  -8.549   6.868  1.00  0.00     0.000 C 
ENDROOT
BRANCH   1   2
ATOM      2  C   UNL     1      12.714  -8.562   5.706  1.00  0.00     0.000 C 
BRANCH   2   3
ATOM      3  C   UNL     1      11.322  -8.059   6.127  1.00  0.00     0.000 C 
BRANCH   3   4
ATOM      4  C   UNL     1      10.194  -9.010   5.699  1.00  0.00     0.000 C 
BRANCH   4   5
ATOM      5  C   UNL     1       9.145  -9.221   6.804  1.00  0.00     0.000 C 
BRANCH   5   6
ATOM      6  C   UNL     1       7.701  -9.143   6.260  1.00  0.00     0.000 C 
BRANCH   6   7
ATOM      7  C   UNL     1       7.623  -8.703   4.786  1.00  0.00     0.006 C 
BRANCH   7   8
ATOM      8  C   UNL     1       7.099  -7.272   4.590  1.00  0.00     0.053 C 
BRANCH   8   9
ATOM      9  C   UNL     1       5.944  -6.973   5.496  1.00  0.00     0.041 C 
ATOM     10  O   UNL     1       4.773  -7.287   5.153  1.00  0.00    -0.550 OA
ATOM     11  O   UNL     1       6.155  -6.332   6.709  1.00  0.00    -0.550 OA
ENDBRANCH   8   9
ENDBRANCH   7   8
ENDBRANCH   6   7
ENDBRANCH   5   6
ENDBRANCH   4   5
ENDBRANCH   3   4
ENDBRANCH   2   3
ENDBRANCH   1   2
BRANCH   1  12
ATOM     12  C   UNL     1      15.170  -8.757   6.396  1.00  0.00     0.000 C 
BRANCH  12  13
ATOM     13  C   UNL     1      15.993  -7.460   6.434  1.00  0.00    -0.000 C 
BRANCH  13  14
ATOM     14  C   UNL     1      16.459  -7.017   5.036  1.00  0.00    -0.000 C 
BRANCH  14  15
ATOM     15  C   UNL     1      17.717  -7.767   4.569  1.00  0.00    -0.000 C 
BRANCH  15  16
ATOM     16  C   UNL     1      19.007  -6.968   4.820  1.00  0.00    -0.000 C 
BRANCH  16  17
ATOM     17  C   UNL     1      20.023  -7.730   5.690  1.00  0.00    -0.000 C 
BRANCH  17  18
ATOM     18  C   UNL     1      19.416  -8.830   6.580  1.00  0.00    -0.000 C 
BRANCH  18  19
ATOM     19  C   UNL     1      19.533  -8.519   8.079  1.00  0.00    -0.003 C 
ATOM     20  C   UNL     1      19.056  -7.102   8.386  1.00  0.00     0.004 C 
ENDBRANCH  18  19
ENDBRANCH  17  18
ENDBRANCH  16  17
ENDBRANCH  15  16
ENDBRANCH  14  15
ENDBRANCH  13  14
ENDBRANCH  12  13
ENDBRANCH   1  12
TORSDOF 16
ENDMDL
MODEL 2
REMARK VINA RESULT:    -3.742      4.150      9.937
REMARK INTER + INTRA:          -8.391
REMARK INTER:                  -7.145
REMARK INTRA:                  -1.246
REMARK UNBOUND:                -1.148
REMARK SMILES CCCCCCCCCCCCCCCCCC(=O)[O-]
REMARK SMILES IDX 10 1 11 2 12 3 13 4 14 5 15 6 16 7 17 8 18 9 19 10 20 11
REMARK SMILES IDX 9 12 8 13 7 14 6 15 5 16 4 17 3 18 2 19 1 20
REMARK H PARENT
REMARK Flexibility Score: inf
ROOT
ATOM      1  C   UNL     1      15.517  -7.987   5.515  1.00  0.00     0.000 C 
ENDROOT
BRANCH   1   2
ATOM      2  C   UNL     1      16.068  -6.733   4.818  1.00  0.00     0.000 C 
BRANCH   2   3
ATOM      3  C   UNL     1      17.440  -6.977   4.166  1.00  0.00     0.000 C 
BRANCH   3   4
ATOM      4  C   UNL     1      18.180  -8.179   4.774  1.00  0.00     0.000 C 
BRANCH   4   5
ATOM      5  C   UNL     1      19.701  -7.966   4.844  1.00  0.00     0.000 C 
BRANCH   5   6
ATOM      6  C   UNL     1      20.356  -8.793   5.973  1.00  0.00     0.000 C 
BRANCH   6   7
ATOM      7  C   UNL     1      19.368  -9.212   7.078  1.00  0.00     0.006 C 
BRANCH   7   8
ATOM      8  C   UNL     1      19.561  -8.460   8.404  1.00  0.00     0.053 C 
BRANCH   8   9
ATOM      9  C   UNL     1      18.904  -7.114   8.382  1.00  0.00     0.041 C 
ATOM     10  O   UNL     1      17.699  -7.004   8.030  1.00  0.00    -0.550 OA
ATOM     11  O   UNL     1      19.622  -5.979   8.733  1.00  0.00    -0.550 OA
ENDBRANCH   8   9
ENDBRANCH   7   8
ENDBRANCH   6   7
ENDBRANCH   5   6
ENDBRANCH   4   5
ENDBRANCH   3   4
ENDBRANCH   2   3
ENDBRANCH   1   2
BRANCH   1  12
ATOM     12  C   UNL     1      14.078  -8.320   5.082  1.00  0.00     0.000 C 
BRANCH  12  13
ATOM     13  C   UNL     1      13.171  -8.673   6.270  1.00  0.00    -0.000 C 
BRANCH  13  14
ATOM     14  C   UNL     1      11.829  -7.921   6.231  1.00  0.00    -0.000 C 
BRANCH  14  15
ATOM     15  C   UNL     1      11.465  -7.437   4.818  1.00  0.00    -0.000 C 
BRANCH  15  16
ATOM     16  C   UNL     1       9.969  -7.113   4.673  1.00  0.00    -0.000 C 
BRANCH  16  17
ATOM     17  C   UNL     1       9.060  -8.198   5.277  1.00  0.00    -0.000 C 
BRANCH  17  18
ATOM     18  C   UNL     1       7.553  -7.891   5.208  1.00  0.00    -0.000 C 
BRANCH  18  19
ATOM     19  C   UNL     1       6.912  -7.729   6.594  1.00  0.00    -0.003 C 
ATOM     20  C   UNL     1       7.619  -8.596   7.632  1.00  0.00     0.004 C 
ENDBRANCH  18  19
ENDBRANCH  17  18
ENDBRANCH  16  17
ENDBRANCH  15  16
ENDBRANCH  14  15
ENDBRANCH  13  14
ENDBRANCH  12  13
ENDBRANCH   1  12
TORSDOF 16
ENDMDL
MODEL 3
REMARK VINA RESULT:    -3.731      4.506      9.967
REMARK INTER + INTRA:          -8.368
REMARK INTER:                  -6.859
REMARK INTRA:                  -1.509
REMARK UNBOUND:                -1.148
REMARK SMILES CCCCCCCCCCCCCCCCCC(=O)[O-]
REMARK SMILES IDX 10 1 11 2 12 3 13 4 14 5 15 6 16 7 17 8 18 9 19 10 20 11
REMARK SMILES IDX 9 12 8 13 7 14 6 15 5 16 4 17 3 18 2 19 1 20
REMARK H PARENT
REMARK Flexibility Score: inf
ROOT
ATOM      1  C   UNL     1      13.048  -7.895   5.408  1.00  0.00     0.000 C 
ENDROOT
BRANCH   1   2
ATOM      2  C   UNL     1      13.497  -8.561   6.718  1.00  0.00     0.000 C 
BRANCH   2   3
ATOM      3  C   UNL     1      14.592  -9.619   6.496  1.00  0.00     0.000 C 
BRANCH   3   4
ATOM      4  C   UNL     1      14.872  -9.878   5.007  1.00  0.00     0.000 C 
BRANCH   4   5
ATOM      5  C   UNL     1      16.307  -9.505   4.600  1.00  0.00     0.000 C 
BRANCH   5   6
ATOM      6  C   UNL     1      17.224  -9.286   5.824  1.00  0.00     0.000 C 
BRANCH   6   7
ATOM      7  C   UNL     1      17.758  -7.845   5.939  1.00  0.00     0.006 C 
BRANCH   7   8
ATOM      8  C   UNL     1      19.211  -7.757   6.429  1.00  0.00     0.053 C 
BRANCH   8   9
ATOM      9  C   UNL     1      19.295  -7.757   7.925  1.00  0.00     0.041 C 
ATOM     10  O   UNL     1      19.719  -8.774   8.535  1.00  0.00    -0.550 OA
ATOM     11  O   UNL     1      18.890  -6.642   8.648  1.00  0.00    -0.550 OA
ENDBRANCH   8   9
ENDBRANCH   7   8
ENDBRANCH   6   7
ENDBRANCH   5   6
ENDBRANCH   4   5
ENDBRANCH   3   4
ENDBRANCH   2   3
ENDBRANCH   1   2
BRANCH   1  12
ATOM     12  C   UNL     1      11.527  -7.663   5.354  1.00  0.00     0.000 C 
BRANCH  12  13
ATOM     13  C   UNL     1      10.813  -8.649   4.418  1.00  0.00    -0.000 C 
BRANCH  13  14
ATOM     14  C   UNL     1       9.847  -9.582   5.170  1.00  0.00    -0.000 C 
BRANCH  14  15
ATOM     15  C   UNL     1       9.688  -9.196   6.649  1.00  0.00    -0.000 C 
BRANCH  15  16
ATOM     16  C   UNL     1       8.658 -10.074   7.380  1.00  0.00    -0.000 C 
BRANCH  16  17
ATOM     17  C   UNL     1       7.333  -9.339   7.654  1.00  0.00    -0.000 C 
BRANCH  17  18
ATOM     18  C   UNL     1       7.408  -7.806   7.537  1.00  0.00    -0.000 C 
BRANCH  18  19
ATOM     19  C   UNL     1       6.560  -7.252   6.383  1.00  0.00    -0.003 C 
ATOM     20  C   UNL     1       6.153  -8.362   5.417  1.00  0.00     0.004 C 
ENDBRANCH  18  19
ENDBRANCH  17  18
ENDBRANCH  16  17
ENDBRANCH  15  16
ENDBRANCH  14  15
ENDBRANCH  13  14
ENDBRANCH  12  13
ENDBRANCH   1  12
TORSDOF 16
ENDMDL
MODEL 4
REMARK VINA RESULT:    -3.655      4.380     10.182
REMARK INTER + INTRA:          -8.222
REMARK INTER:                  -7.056
REMARK INTRA:                  -1.165
REMARK UNBOUND:                -1.148
REMARK SMILES CCCCCCCCCCCCCCCCCC(=O)[O-]
REMARK SMILES IDX 10 1 11 2 12 3 13 4 14 5 15 6 16 7 17 8 18 9 19 10 20 11
REMARK SMILES IDX 9 12 8 13 7 14 6 15 5 16 4 17 3 18 2 19 1 20
REMARK H PARENT
REMARK Flexibility Score: inf
ROOT
ATOM      1  C   UNL     1      12.512  -8.248   6.125  1.00  0.00     0.000 C 
ENDROOT
BRANCH   1   2
ATOM      2  C   UNL     1      13.788  -8.890   5.558  1.00  0.00     0.000 C 
BRANCH   2   3
ATOM      3  C   UNL     1      14.934  -8.928   6.585  1.00  0.00     0.000 C 
BRANCH   3   4
ATOM      4  C   UNL     1      15.606  -7.560   6.774  1.00  0.00     0.000 C 
BRANCH   4   5
ATOM      5  C   UNL     1      16.338  -7.079   5.509  1.00  0.00     0.000 C 
BRANCH   5   6
ATOM      6  C   UNL     1      17.552  -7.969   5.163  1.00  0.00     0.000 C 
BRANCH   6   7
ATOM      7  C   UNL     1      18.904  -7.339   5.548  1.00  0.00     0.006 C 
BRANCH   7   8
ATOM      8  C   UNL     1      19.763  -8.219   6.468  1.00  0.00     0.053 C 
BRANCH   8   9
ATOM      9  C   UNL     1      19.410  -8.028   7.911  1.00  0.00     0.041 C 
ATOM     10  O   UNL     1      19.698  -8.917   8.757  1.00  0.00    -0.550 OA
ATOM     11  O   UNL     1      18.748  -6.878   8.323  1.00  0.00    -0.550 OA
ENDBRANCH   8   9
ENDBRANCH   7   8
ENDBRANCH   6   7
ENDBRANCH   5   6
ENDBRANCH   4   5
ENDBRANCH   3   4
ENDBRANCH   2   3
ENDBRANCH   1   2
BRANCH   1  12
ATOM     12  C   UNL     1      11.637  -7.609   5.032  1.00  0.00     0.000 C 
BRANCH  12  13
ATOM     13  C   UNL     1      10.155  -7.989   5.166  1.00  0.00    -0.000 C 
BRANCH  13  14
ATOM     14  C   UNL     1       9.217  -6.930   4.561  1.00  0.00    -0.000 C 
BRANCH  14  15
ATOM     15  C   UNL     1       7.932  -7.544   3.981  1.00  0.00    -0.000 C 
BRANCH  15  16
ATOM     16  C   UNL     1       6.681  -7.168   4.792  1.00  0.00    -0.000 C 
BRANCH  16  17
ATOM     17  C   UNL     1       6.617  -7.877   6.157  1.00  0.00    -0.000 C 
BRANCH  17  18
ATOM     18  C   UNL     1       6.630  -9.415   6.087  1.00  0.00    -0.000 C 
BRANCH  18  19
ATOM     19  C   UNL     1       7.737 -10.043   6.946  1.00  0.00    -0.003 C 
ATOM     20  C   UNL     1       7.395  -9.962   8.431  1.00  0.00     0.004 C 
ENDBRANCH  18  19
ENDBRANCH  17  18
ENDBRANCH  16  17
ENDBRANCH  15  16
ENDBRANCH  14  15
ENDBRANCH  13  14
ENDBRANCH  12  13
ENDBRANCH   1  12
TORSDOF 16
ENDMDL
MODEL 5
REMARK VINA RESULT:    -3.567      1.285      1.996
REMARK INTER + INTRA:          -8.051
REMARK INTER:                  -6.732
REMARK INTRA:                  -1.319
REMARK UNBOUND:                -1.148
REMARK SMILES CCCCCCCCCCCCCCCCCC(=O)[O-]
REMARK SMILES IDX 10 1 11 2 12 3 13 4 14 5 15 6 16 7 17 8 18 9 19 10 20 11
REMARK SMILES IDX 9 12 8 13 7 14 6 15 5 16 4 17 3 18 2 19 1 20
REMARK H PARENT
REMARK Flexibility Score: inf
ROOT
ATOM      1  C   UNL     1      13.077  -8.559   5.850  1.00  0.00     0.000 C 
ENDROOT
BRANCH   1   2
ATOM      2  C   UNL     1      11.718  -8.234   6.490  1.00  0.00     0.000 C 
BRANCH   2   3
ATOM      3  C   UNL     1      10.563  -8.285   5.475  1.00  0.00     0.000 C 
BRANCH   3   4
ATOM      4  C   UNL     1       9.645  -9.499   5.684  1.00  0.00     0.000 C 
BRANCH   4   5
ATOM      5  C   UNL     1       9.157  -9.631   7.137  1.00  0.00     0.000 C 
BRANCH   5   6
ATOM      6  C   UNL     1       7.653  -9.309   7.279  1.00  0.00     0.000 C 
BRANCH   6   7
ATOM      7  C   UNL     1       6.832  -9.644   6.019  1.00  0.00     0.006 C 
BRANCH   7   8
ATOM      8  C   UNL     1       5.944  -8.490   5.529  1.00  0.00     0.053 C 
BRANCH   8   9
ATOM      9  C   UNL     1       6.604  -7.159   5.721  1.00  0.00     0.041 C 
ATOM     10  O   UNL     1       7.507  -6.780   4.927  1.00  0.00    -0.550 OA
ATOM     11  O   UNL     1       6.239  -6.344   6.784  1.00  0.00    -0.550 OA
ENDBRANCH   8   9
ENDBRANCH   7   8
ENDBRANCH   6   7
ENDBRANCH   5   6
ENDBRANCH   4   5
ENDBRANCH   3   4
ENDBRANCH   2   3
ENDBRANCH   1   2
BRANCH   1  12
ATOM     12  C   UNL     1      13.272  -7.860   4.492  1.00  0.00     0.000 C 
BRANCH  12  13
ATOM     13  C   UNL     1      14.736  -7.875   4.027  1.00  0.00    -0.000 C 
BRANCH  13  14
ATOM     14  C   UNL     1      15.703  -8.326   5.136  1.00  0.00    -0.000 C 
BRANCH  14  15
ATOM     15  C   UNL     1      16.514  -7.159   5.721  1.00  0.00    -0.000 C 
BRANCH  15  16
ATOM     16  C   UNL     1      16.394  -7.067   7.251  1.00  0.00    -0.000 C 
BRANCH  16  17
ATOM     17  C   UNL     1      17.757  -7.138   7.963  1.00  0.00    -0.000 C 
BRANCH  17  18
ATOM     18  C   UNL     1      18.931  -7.579   7.070  1.00  0.00    -0.000 C 
BRANCH  18  19
ATOM     19  C   UNL     1      19.637  -8.840   7.590  1.00  0.00    -0.003 C 
ATOM     20  C   UNL     1      19.513  -9.990   6.595  1.00  0.00     0.004 C 
ENDBRANCH  18  19
ENDBRANCH  17  18
ENDBRANCH  16  17
ENDBRANCH  15  16
ENDBRANCH  14  15
ENDBRANCH  13  14
ENDBRANCH  12  13
ENDBRANCH   1  12
TORSDOF 16
ENDMDL
MODEL 6
REMARK VINA RESULT:    -3.488      5.154     10.245
REMARK INTER + INTRA:          -7.899
REMARK INTER:                  -6.435
REMARK INTRA:                  -1.464
REMARK UNBOUND:                -1.148
REMARK SMILES CCCCCCCCCCCCCCCCCC(=O)[O-]
REMARK SMILES IDX 10 1 11 2 12 3 13 4 14 5 15 6 16 7 17 8 18 9 19 10 20 11
REMARK SMILES IDX 9 12 8 13 7 14 6 15 5 16 4 17 3 18 2 19 1 20
REMARK H PARENT
REMARK Flexibility Score: inf
ROOT
ATOM      1  C   UNL     1      15.857  -7.984   6.332  1.00  0.00     0.000 C 
ENDROOT
BRANCH   1   2
ATOM      2  C   UNL     1      15.703  -6.989   5.172  1.00  0.00     0.000 C 
BRANCH   2   3
ATOM      3  C   UNL     1      16.611  -7.332   3.978  1.00  0.00     0.000 C 
BRANCH   3   4
ATOM      4  C   UNL     1      17.110  -8.785   4.011  1.00  0.00     0.000 C 
BRANCH   4   5
ATOM      5  C   UNL     1      18.644  -8.886   4.043  1.00  0.00     0.000 C 
BRANCH   5   6
ATOM      6  C   UNL     1      19.169  -9.380   5.409  1.00  0.00     0.000 C 
BRANCH   6   7
ATOM      7  C   UNL     1      19.971  -8.313   6.180  1.00  0.00     0.006 C 
BRANCH   7   8
ATOM      8  C   UNL     1      19.736  -6.878   5.684  1.00  0.00     0.053 C 
BRANCH   8   9
ATOM      9  C   UNL     1      20.982  -6.277   5.109  1.00  0.00     0.041 C 
ATOM     10  O   UNL     1      21.049  -5.035   4.905  1.00  0.00    -0.550 OA
ATOM     11  O   UNL     1      22.062  -7.085   4.782  1.00  0.00    -0.550 OA
ENDBRANCH   8   9
ENDBRANCH   7   8
ENDBRANCH   6   7
ENDBRANCH   5   6
ENDBRANCH   4   5
ENDBRANCH   3   4
ENDBRANCH   2   3
ENDBRANCH   1   2
BRANCH   1  12
ATOM     12  C   UNL     1      14.570  -8.784   6.599  1.00  0.00     0.000 C 
BRANCH  12  13
ATOM     13  C   UNL     1      13.390  -8.306   5.741  1.00  0.00    -0.000 C 
BRANCH  13  14
ATOM     14  C   UNL     1      12.074  -8.230   6.535  1.00  0.00    -0.000 C 
BRANCH  14  15
ATOM     15  C   UNL     1      10.843  -8.097   5.625  1.00  0.00    -0.000 C 
BRANCH  15  16
ATOM     16  C   UNL     1      10.284  -9.460   5.186  1.00  0.00    -0.000 C 
BRANCH  16  17
ATOM     17  C   UNL     1       8.830  -9.685   5.640  1.00  0.00    -0.000 C 
BRANCH  17  18
ATOM     18  C   UNL     1       8.657  -9.952   7.146  1.00  0.00    -0.000 C 
BRANCH  18  19
ATOM     19  C   UNL     1       7.699  -8.961   7.823  1.00  0.00    -0.003 C 
ATOM     20  C   UNL     1       6.971  -8.105   6.789  1.00  0.00     0.004 C 
ENDBRANCH  18  19
ENDBRANCH  17  18
ENDBRANCH  16  17
ENDBRANCH  15  16
ENDBRANCH  14  15
ENDBRANCH  13  14
ENDBRANCH  12  13
ENDBRANCH   1  12
TORSDOF 16
ENDMDL
MODEL 7
REMARK VINA RESULT:    -3.487      1.106      1.907
REMARK INTER + INTRA:          -7.896
REMARK INTER:                  -6.334
REMARK INTRA:                  -1.562
REMARK UNBOUND:                -1.148
REMARK SMILES CCCCCCCCCCCCCCCCCC(=O)[O-]
REMARK SMILES IDX 10 1 11 2 12 3 13 4 14 5 15 6 16 7 17 8 18 9 19 10 20 11
REMARK SMILES IDX 9 12 8 13 7 14 6 15 5 16 4 17 3 18 2 19 1 20
REMARK H PARENT
REMARK Flexibility Score: inf
ROOT
ATOM      1  C   UNL     1      15.328  -7.283   4.815  1.00  0.00     0.000 C 
ENDROOT
BRANCH   1   2
ATOM      2  C   UNL     1      13.999  -7.556   4.094  1.00  0.00     0.000 C 
BRANCH   2   3
ATOM      3  C   UNL     1      13.029  -8.393   4.945  1.00  0.00     0.000 C 
BRANCH   3   4
ATOM      4  C   UNL     1      11.787  -7.600   5.380  1.00  0.00     0.000 C 
BRANCH   4   5
ATOM      5  C   UNL     1      10.944  -8.345   6.430  1.00  0.00     0.000 C 
BRANCH   5   6
ATOM      6  C   UNL     1       9.552  -8.740   5.888  1.00  0.00     0.000 C 
BRANCH   6   7
ATOM      7  C   UNL     1       8.561  -9.155   6.992  1.00  0.00     0.006 C 
BRANCH   7   8
ATOM      8  C   UNL     1       7.093  -9.165   6.539  1.00  0.00     0.053 C 
BRANCH   8   9
ATOM      9  C   UNL     1       6.623  -7.799   6.141  1.00  0.00     0.041 C 
ATOM     10  O   UNL     1       6.595  -6.867   6.988  1.00  0.00    -0.550 OA
ATOM     11  O   UNL     1       6.199  -7.557   4.841  1.00  0.00    -0.550 OA
ENDBRANCH   8   9
ENDBRANCH   7   8
ENDBRANCH   6   7
ENDBRANCH   5   6
ENDBRANCH   4   5
ENDBRANCH   3   4
ENDBRANCH   2   3
ENDBRANCH   1   2
BRANCH   1  12
ATOM     12  C   UNL     1      15.538  -8.200   6.034  1.00  0.00     0.000 C 
BRANCH  12  13
ATOM     13  C   UNL     1      16.440  -9.402   5.720  1.00  0.00    -0.000 C 
BRANCH  13  14
ATOM     14  C   UNL     1      17.096  -9.300   4.331  1.00  0.00    -0.000 C 
BRANCH  14  15
ATOM     15  C   UNL     1      18.623  -9.144   4.411  1.00  0.00    -0.000 C 
BRANCH  15  16
ATOM     16  C   UNL     1      19.062  -7.672   4.483  1.00  0.00    -0.000 C 
BRANCH  16  17
ATOM     17  C   UNL     1      19.777  -7.325   5.801  1.00  0.00    -0.000 C 
BRANCH  17  18
ATOM     18  C   UNL     1      20.100  -8.533   6.699  1.00  0.00    -0.000 C 
BRANCH  18  19
ATOM     19  C   UNL     1      19.475  -8.423   8.097  1.00  0.00    -0.003 C 
ATOM     20  C   UNL     1      18.797  -7.069   8.292  1.00  0.00     0.004 C 
ENDBRANCH  18  19
ENDBRANCH  17  18
ENDBRANCH  16  17
ENDBRANCH  15  16
ENDBRANCH  14  15
ENDBRANCH  13  14
ENDBRANCH  12  13
ENDBRANCH   1  12
TORSDOF 16
ENDMDL
MODEL 8
REMARK VINA RESULT:    -3.340      5.273     10.956
REMARK INTER + INTRA:          -7.612
REMARK INTER:                  -6.511
REMARK INTRA:                  -1.101
REMARK UNBOUND:                -1.148
REMARK SMILES CCCCCCCCCCCCCCCCCC(=O)[O-]
REMARK SMILES IDX 10 1 11 2 12 3 13 4 14 5 15 6 16 7 17 8 18 9 19 10 20 11
REMARK SMILES IDX 9 12 8 13 7 14 6 15 5 16 4 17 3 18 2 19 1 20
REMARK H PARENT
REMARK Flexibility Score: inf
ROOT
ATOM      1  C   UNL     1      12.671  -8.824   4.959  1.00  0.00     0.000 C 
ENDROOT
BRANCH   1   2
ATOM      2  C   UNL     1      13.840  -7.965   5.463  1.00  0.00     0.000 C 
BRANCH   2   3
ATOM      3  C   UNL     1      14.987  -7.872   4.441  1.00  0.00     0.000 C 
BRANCH   3   4
ATOM      4  C   UNL     1      15.977  -6.742   4.763  1.00  0.00     0.000 C 
BRANCH   4   5
ATOM      5  C   UNL     1      17.417  -7.077   4.339  1.00  0.00     0.000 C 
BRANCH   5   6
ATOM      6  C   UNL     1      18.282  -7.546   5.529  1.00  0.00     0.000 C 
BRANCH   6   7
ATOM      7  C   UNL     1      19.752  -7.094   5.434  1.00  0.00     0.006 C 
BRANCH   7   8
ATOM      8  C   UNL     1      20.077  -6.291   4.166  1.00  0.00     0.053 C 
BRANCH   8   9
ATOM      9  C   UNL     1      21.271  -5.407   4.356  1.00  0.00     0.041 C 
ATOM     10  O   UNL     1      22.406  -5.913   4.565  1.00  0.00    -0.550 OA
ATOM     11  O   UNL     1      21.132  -4.025   4.322  1.00  0.00    -0.550 OA
ENDBRANCH   8   9
ENDBRANCH   7   8
ENDBRANCH   6   7
ENDBRANCH   5   6
ENDBRANCH   4   5
ENDBRANCH   3   4
ENDBRANCH   2   3
ENDBRANCH   1   2
BRANCH   1  12
ATOM     12  C   UNL     1      11.338  -8.053   4.938  1.00  0.00     0.000 C 
BRANCH  12  13
ATOM     13  C   UNL     1      10.471  -8.341   6.172  1.00  0.00    -0.000 C 
BRANCH  13  14
ATOM     14  C   UNL     1       9.586  -9.587   5.994  1.00  0.00    -0.000 C 
BRANCH  14  15
ATOM     15  C   UNL     1       8.820  -9.953   7.275  1.00  0.00    -0.000 C 
BRANCH  15  16
ATOM     16  C   UNL     1       7.444  -9.271   7.355  1.00  0.00    -0.000 C 
BRANCH  16  17
ATOM     17  C   UNL     1       6.451  -9.802   6.305  1.00  0.00    -0.000 C 
BRANCH  17  18
ATOM     18  C   UNL     1       5.945  -8.748   5.304  1.00  0.00    -0.000 C 
BRANCH  18  19
ATOM     19  C   UNL     1       6.608  -7.376   5.492  1.00  0.00    -0.003 C 
ATOM     20  C   UNL     1       7.495  -7.025   4.300  1.00  0.00     0.004 C 
ENDBRANCH  18  19
ENDBRANCH  17  18
ENDBRANCH  16  17
ENDBRANCH  15  16
ENDBRANCH  14  15
ENDBRANCH  13  14
ENDBRANCH  12  13
ENDBRANCH   1  12
TORSDOF 16
ENDMDL
MODEL 9
REMARK VINA RESULT:    -3.232      1.868      3.977
REMARK INTER + INTRA:          -7.402
REMARK INTER:                  -5.340
REMARK INTRA:                  -2.062
REMARK UNBOUND:                -1.148
REMARK SMILES CCCCCCCCCCCCCCCCCC(=O)[O-]
REMARK SMILES IDX 10 1 11 2 12 3 13 4 14 5 15 6 16 7 17 8 18 9 19 10 20 11
REMARK SMILES IDX 9 12 8 13 7 14 6 15 5 16 4 17 3 18 2 19 1 20
REMARK H PARENT
REMARK Flexibility Score: inf
ROOT
ATOM      1  C   UNL     1      17.191  -7.202   5.316  1.00  0.00     0.000 C 
ENDROOT
BRANCH   1   2
ATOM      2  C   UNL     1      16.293  -8.252   4.645  1.00  0.00     0.000 C 
BRANCH   2   3
ATOM      3  C   UNL     1      16.095  -9.503   5.519  1.00  0.00     0.000 C 
BRANCH   3   4
ATOM      4  C   UNL     1      14.620  -9.920   5.630  1.00  0.00     0.000 C 
BRANCH   4   5
ATOM      5  C   UNL     1      13.716  -8.778   6.125  1.00  0.00     0.000 C 
BRANCH   5   6
ATOM      6  C   UNL     1      12.658  -8.373   5.075  1.00  0.00     0.000 C 
BRANCH   6   7
ATOM      7  C   UNL     1      11.297  -9.067   5.276  1.00  0.00     0.006 C 
BRANCH   7   8
ATOM      8  C   UNL     1      10.323  -8.282   6.167  1.00  0.00     0.053 C 
BRANCH   8   9
ATOM      9  C   UNL     1       8.996  -8.968   6.282  1.00  0.00     0.041 C 
ATOM     10  O   UNL     1       8.772  -9.756   7.240  1.00  0.00    -0.550 OA
ATOM     11  O   UNL     1       8.013  -8.755   5.325  1.00  0.00    -0.550 OA
ENDBRANCH   8   9
ENDBRANCH   7   8
ENDBRANCH   6   7
ENDBRANCH   5   6
ENDBRANCH   4   5
ENDBRANCH   3   4
ENDBRANCH   2   3
ENDBRANCH   1   2
BRANCH   1  12
ATOM     12  C   UNL     1      17.285  -7.393   6.841  1.00  0.00     0.000 C 
BRANCH  12  13
ATOM     13  C   UNL     1      18.733  -7.358   7.352  1.00  0.00    -0.000 C 
BRANCH  13  14
ATOM     14  C   UNL     1      19.362  -8.759   7.441  1.00  0.00    -0.000 C 
BRANCH  14  15
ATOM     15  C   UNL     1      20.473  -8.973   6.401  1.00  0.00    -0.000 C 
BRANCH  15  16
ATOM     16  C   UNL     1      19.975  -9.713   5.149  1.00  0.00    -0.000 C 
BRANCH  16  17
ATOM     17  C   UNL     1      20.049  -8.852   3.875  1.00  0.00    -0.000 C 
BRANCH  17  18
ATOM     18  C   UNL     1      21.047  -7.682   3.943  1.00  0.00    -0.000 C 
BRANCH  18  19
ATOM     19  C   UNL     1      20.358  -6.310   3.987  1.00  0.00    -0.003 C 
ATOM     20  C   UNL     1      21.248  -5.269   4.661  1.00  0.00     0.004 C 
ENDBRANCH  18  19
ENDBRANCH  17  18
ENDBRANCH  16  17
ENDBRANCH  15  16
ENDBRANCH  14  15
ENDBRANCH  13  14
ENDBRANCH  12  13
ENDBRANCH   1  12
TORSDOF 16
ENDMDL
