MODEL 1
REMARK VINA RESULT:     1.210      0.000      0.000
REMARK INTER + INTRA:           1.296
REMARK INTER:                   1.422
REMARK INTRA:                  -0.126
REMARK UNBOUND:                -0.126
REMARK SMILES O=C([O-])C=Cc1ccc(O)c(O)c1
REMARK SMILES IDX 6 1 13 2 7 3 11 4 8 5 9 6 5 7 4 8 2 9 1 10 3 11 12 12 10 14
REMARK H PARENT 12 13 10 15
REMARK Flexibility Score: inf
ROOT
ATOM      1  C   UNL     1      27.638  28.830   1.961  1.00  0.00    -0.022 A 
ATOM      2  C   UNL     1      28.924  29.271   1.604  1.00  0.00     0.058 A 
ATOM      3  C   UNL     1      26.580  29.761   1.974  1.00  0.00     0.012 A 
ATOM      4  C   UNL     1      29.149  30.607   1.241  1.00  0.00     0.157 A 
ATOM      5  C   UNL     1      26.805  31.092   1.613  1.00  0.00     0.051 A 
ATOM      6  C   UNL     1      28.083  31.520   1.243  1.00  0.00     0.157 A 
ENDROOT
BRANCH   1   7
ATOM      7  C   UNL     1      27.456  27.409   2.348  1.00  0.00     0.010 C 
ATOM      8  C   UNL     1      27.414  26.398   1.469  1.00  0.00     0.025 C 
BRANCH   8   9
ATOM      9  C   UNL     1      27.246  25.001   1.898  1.00  0.00     0.064 C 
ATOM     10  O   UNL     1      26.495  24.235   1.240  1.00  0.00    -0.545 OA
ATOM     11  O   UNL     1      27.900  24.513   3.024  1.00  0.00    -0.545 OA
ENDBRANCH   8   9
ENDBRANCH   1   7
BRANCH   4  12
ATOM     12  O   UNL     1      30.428  31.028   0.879  1.00  0.00    -0.504 OA
ATOM     13  H   UNL     1      31.220  30.396   0.896  1.00  0.00     0.293 HD
ENDBRANCH   4  12
BRANCH   6  14
ATOM     14  O   UNL     1      28.275  32.854   0.886  1.00  0.00    -0.504 OA
ATOM     15  H   UNL     1      28.400  33.584   1.577  1.00  0.00     0.293 HD
ENDBRANCH   6  14
TORSDOF 4
ENDMDL
MODEL 2
REMARK VINA RESULT:     1.636      1.483      1.483
REMARK INTER + INTRA:           1.798
REMARK INTER:                   1.929
REMARK INTRA:                  -0.131
REMARK UNBOUND:                -0.126
REMARK SMILES O=C([O-])C=Cc1ccc(O)c(O)c1
REMARK SMILES IDX 6 1 13 2 7 3 11 4 8 5 9 6 5 7 4 8 2 9 1 10 3 11 12 12 10 14
REMARK H PARENT 12 13 10 15
REMARK Flexibility Score: inf
ROOT
ATOM      1  C   UNL     1      27.497  28.431   2.095  1.00  0.00    -0.022 A 
ATOM      2  C   UNL     1      28.873  28.599   2.332  1.00  0.00     0.058 A 
ATOM      3  C   UNL     1      26.626  29.506   2.362  1.00  0.00     0.012 A 
ATOM      4  C   UNL     1      29.375  29.822   2.801  1.00  0.00     0.157 A 
ATOM      5  C   UNL     1      27.127  30.724   2.828  1.00  0.00     0.051 A 
ATOM      6  C   UNL     1      28.498  30.889   3.046  1.00  0.00     0.157 A 
ENDROOT
BRANCH   1   7
ATOM      7  C   UNL     1      27.016  27.114   1.611  1.00  0.00     0.010 C 
ATOM      8  C   UNL     1      27.379  25.943   2.154  1.00  0.00     0.025 C 
BRANCH   8   9
ATOM      9  C   UNL     1      26.866  24.659   1.649  1.00  0.00     0.064 C 
ATOM     10  O   UNL     1      25.874  24.648   0.875  1.00  0.00    -0.545 OA
ATOM     11  O   UNL     1      27.459  23.456   2.017  1.00  0.00    -0.545 OA
ENDBRANCH   8   9
ENDBRANCH   1   7
BRANCH   4  12
ATOM     12  O   UNL     1      30.743  29.978   3.022  1.00  0.00    -0.504 OA
ATOM     13  H   UNL     1      31.108  30.750   3.567  1.00  0.00     0.293 HD
ENDBRANCH   4  12
BRANCH   6  14
ATOM     14  O   UNL     1      28.966  32.117   3.511  1.00  0.00    -0.504 OA
ATOM     15  H   UNL     1      29.890  32.224   3.912  1.00  0.00     0.293 HD
ENDBRANCH   6  14
TORSDOF 4
ENDMDL
MODEL 3
REMARK VINA RESULT:     3.731      2.498      5.390
REMARK INTER + INTRA:           4.260
REMARK INTER:                   4.394
REMARK INTRA:                  -0.134
REMARK UNBOUND:                -0.126
REMARK SMILES O=C([O-])C=Cc1ccc(O)c(O)c1
REMARK SMILES IDX 6 1 13 2 7 3 11 4 8 5 9 6 5 7 4 8 2 9 1 10 3 11 12 12 10 14
REMARK H PARENT 12 13 10 15
REMARK Flexibility Score: inf
ROOT
ATOM      1  C   UNL     1      28.802  28.960   2.338  1.00  0.00    -0.022 A 
ATOM      2  C   UNL     1      28.602  27.665   2.847  1.00  0.00     0.058 A 
ATOM      3  C   UNL     1      27.935  29.437   1.335  1.00  0.00     0.012 A 
ATOM      4  C   UNL     1      27.544  26.868   2.385  1.00  0.00     0.157 A 
ATOM      5  C   UNL     1      26.881  28.643   0.875  1.00  0.00     0.051 A 
ATOM      6  C   UNL     1      26.678  27.362   1.397  1.00  0.00     0.157 A 
ENDROOT
BRANCH   1   7
ATOM      7  C   UNL     1      29.943  29.757   2.852  1.00  0.00     0.010 C 
ATOM      8  C   UNL     1      30.686  29.397   3.908  1.00  0.00     0.025 C 
BRANCH   8   9
ATOM      9  C   UNL     1      31.818  30.212   4.376  1.00  0.00     0.064 C 
ATOM     10  O   UNL     1      32.763  30.474   3.587  1.00  0.00    -0.545 OA
ATOM     11  O   UNL     1      31.864  30.695   5.680  1.00  0.00    -0.545 OA
ENDBRANCH   8   9
ENDBRANCH   1   7
BRANCH   4  12
ATOM     12  O   UNL     1      27.352  25.589   2.906  1.00  0.00    -0.504 OA
ATOM     13  H   UNL     1      26.977  25.446   3.837  1.00  0.00     0.293 HD
ENDBRANCH   4  12
BRANCH   6  14
ATOM     14  O   UNL     1      25.617  26.595   0.918  1.00  0.00    -0.504 OA
ATOM     15  H   UNL     1      24.746  26.504   1.427  1.00  0.00     0.293 HD
ENDBRANCH   6  14
TORSDOF 4
ENDMDL
MODEL 4
REMARK VINA RESULT:     4.074      1.890      6.067
REMARK INTER + INTRA:           4.662
REMARK INTER:                   4.793
REMARK INTRA:                  -0.130
REMARK UNBOUND:                -0.126
REMARK SMILES O=C([O-])C=Cc1ccc(O)c(O)c1
REMARK SMILES IDX 6 1 13 2 7 3 11 4 8 5 9 6 5 7 4 8 2 9 1 10 3 11 12 12 10 14
REMARK H PARENT 12 13 10 15
REMARK Flexibility Score: inf
ROOT
ATOM      1  C   UNL     1      27.953  30.781   2.019  1.00  0.00    -0.022 A 
ATOM      2  C   UNL     1      28.927  29.951   1.436  1.00  0.00     0.058 A 
ATOM      3  C   UNL     1      26.817  30.188   2.604  1.00  0.00     0.012 A 
ATOM      4  C   UNL     1      28.786  28.556   1.459  1.00  0.00     0.157 A 
ATOM      5  C   UNL     1      26.677  28.798   2.626  1.00  0.00     0.051 A 
ATOM      6  C   UNL     1      27.657  27.978   2.059  1.00  0.00     0.157 A 
ENDROOT
BRANCH   1   7
ATOM      7  C   UNL     1      28.144  32.251   1.957  1.00  0.00     0.010 C 
ATOM      8  C   UNL     1      28.702  32.887   0.917  1.00  0.00     0.025 C 
BRANCH   8   9
ATOM      9  C   UNL     1      28.861  34.349   0.893  1.00  0.00     0.064 C 
ATOM     10  O   UNL     1      27.840  35.084   0.876  1.00  0.00    -0.545 OA
ATOM     11  O   UNL     1      30.123  34.934   0.886  1.00  0.00    -0.545 OA
ENDBRANCH   8   9
ENDBRANCH   1   7
BRANCH   4  12
ATOM     12  O   UNL     1      29.765  27.745   0.886  1.00  0.00    -0.504 OA
ATOM     13  H   UNL     1      29.861  26.769   1.140  1.00  0.00     0.293 HD
ENDBRANCH   4  12
BRANCH   6  14
ATOM     14  O   UNL     1      27.489  26.595   2.099  1.00  0.00    -0.504 OA
ATOM     15  H   UNL     1      28.187  25.957   1.735  1.00  0.00     0.293 HD
ENDBRANCH   6  14
TORSDOF 4
ENDMDL
