MODEL 1
REMARK VINA RESULT:    -6.229      0.000      0.000
REMARK INTER + INTRA:          -6.233
REMARK INTER:                  -6.776
REMARK INTRA:                   0.542
REMARK UNBOUND:                 0.542
REMARK SMILES C[C@H]1[C@H]2C3=CC[C@H]4[C@@]5(C)CC[C@H](O)C(C)(C)[C@H]5CC[C@@]4(C)[C@@]3(C)CC[C@]2(C(=O)[O-])CC[C@@H]1C
REMARK SMILES IDX 26 1 30 2 25 3 3 4 31 5 24 6 4 7 2 8 32 9 22 10 5 11 1 12
REMARK SMILES IDX 33 13 23 14 20 15 6 16 7 17 19 18 21 19 8 20 18 21 17 22
REMARK SMILES IDX 10 23 9 24 14 25 11 26 12 27 15 28 16 29 27 30 28 31 29 32
REMARK SMILES IDX 13 33
REMARK H PARENT 13 34
REMARK Flexibility Score: inf
ROOT
ATOM      1  C   UNL     1      -8.041  89.860  -9.651  1.00  0.00     0.017 C 
ATOM      2  C   UNL     1      -8.378  89.127  -8.298  1.00  0.00     0.014 C 
ATOM      3  C   UNL     1      -7.878  91.386  -9.375  1.00  0.00     0.014 C 
ATOM      4  C   UNL     1      -6.667  89.383 -10.200  1.00  0.00     0.030 C 
ATOM      5  C   UNL     1      -7.152  88.535  -7.605  1.00  0.00     0.004 C 
ATOM      6  C   UNL     1      -7.401  92.226 -10.591  1.00  0.00     0.013 C 
ATOM      7  C   UNL     1      -6.327  90.099 -11.513  1.00  0.00    -0.063 C 
ATOM      8  C   UNL     1      -6.437  87.850 -10.026  1.00  0.00    -0.003 C 
ATOM      9  C   UNL     1      -6.425  87.482  -8.491  1.00  0.00    -0.011 C 
ATOM     10  C   UNL     1      -6.224  91.641 -11.472  1.00  0.00    -0.006 C 
ATOM     11  C   UNL     1      -5.854  89.412 -12.559  1.00  0.00    -0.027 C 
ATOM     12  C   UNL     1      -7.453  86.981 -10.793  1.00  0.00     0.008 C 
ATOM     13  C   UNL     1      -4.993  87.279  -7.968  1.00  0.00     0.008 C 
ATOM     14  C   UNL     1      -4.875  91.927 -10.718  1.00  0.00     0.017 C 
ATOM     15  C   UNL     1      -6.194  92.329 -12.951  1.00  0.00    -0.020 C 
ATOM     16  C   UNL     1      -5.624  90.021 -13.898  1.00  0.00     0.032 C 
ATOM     17  C   UNL     1      -5.226  91.524 -13.912  1.00  0.00     0.006 C 
ATOM     18  C   UNL     1      -7.595  92.341 -13.642  1.00  0.00     0.008 C 
ATOM     19  C   UNL     1      -5.727  93.818 -12.771  1.00  0.00     0.012 C 
ATOM     20  C   UNL     1      -5.085  92.110 -15.424  1.00  0.00    -0.025 C 
ATOM     21  C   UNL     1      -7.608  92.438 -15.194  1.00  0.00     0.005 C 
ATOM     22  C   UNL     1      -6.312  93.034 -15.817  1.00  0.00     0.003 C 
ATOM     23  C   UNL     1      -4.961  90.950 -16.485  1.00  0.00     0.010 C 
ATOM     24  C   UNL     1      -3.762  92.928 -15.473  1.00  0.00     0.012 C 
ATOM     25  C   UNL     1      -6.439  93.427 -17.364  1.00  0.00    -0.006 C 
ATOM     26  C   UNL     1      -5.030  91.371 -17.954  1.00  0.00     0.033 C 
ATOM     27  C   UNL     1      -6.317  92.146 -18.253  1.00  0.00     0.120 C 
ATOM     28  C   UNL     1      -7.819  94.084 -17.645  1.00  0.00     0.014 C 
ATOM     29  C   UNL     1      -5.364  94.502 -17.758  1.00  0.00     0.014 C 
ENDROOT
BRANCH   1  30
ATOM     30  C   UNL     1      -9.185  89.614 -10.648  1.00  0.00     0.048 C 
ATOM     31  O   UNL     1     -10.278  89.122 -10.272  1.00  0.00    -0.550 OA
ATOM     32  O   UNL     1      -9.066  89.946 -11.998  1.00  0.00    -0.550 OA
ENDBRANCH   1  30
BRANCH  27  33
ATOM     33  O   UNL     1      -6.393  92.378 -19.645  1.00  0.00    -0.393 OA
ATOM     34  H   UNL     1      -5.609  92.887 -19.972  1.00  0.00     0.210 HD
ENDBRANCH  27  33
TORSDOF 2
ENDMDL
MODEL 2
REMARK VINA RESULT:    -6.158      3.212      8.317
REMARK INTER + INTRA:          -6.156
REMARK INTER:                  -6.699
REMARK INTRA:                   0.543
REMARK UNBOUND:                 0.542
REMARK SMILES C[C@H]1[C@H]2C3=CC[C@H]4[C@@]5(C)CC[C@H](O)C(C)(C)[C@H]5CC[C@@]4(C)[C@@]3(C)CC[C@]2(C(=O)[O-])CC[C@@H]1C
REMARK SMILES IDX 26 1 30 2 25 3 3 4 31 5 24 6 4 7 2 8 32 9 22 10 5 11 1 12
REMARK SMILES IDX 33 13 23 14 20 15 6 16 7 17 19 18 21 19 8 20 18 21 17 22
REMARK SMILES IDX 10 23 9 24 14 25 11 26 12 27 15 28 16 29 27 30 28 31 29 32
REMARK SMILES IDX 13 33
REMARK H PARENT 13 34
REMARK Flexibility Score: inf
ROOT
ATOM      1  C   UNL     1      -4.936  93.248 -18.913  1.00  0.00     0.017 C 
ATOM      2  C   UNL     1      -4.529  93.106 -20.429  1.00  0.00     0.014 C 
ATOM      3  C   UNL     1      -6.379  92.689 -18.721  1.00  0.00     0.014 C 
ATOM      4  C   UNL     1      -4.022  92.366 -18.019  1.00  0.00     0.030 C 
ATOM      5  C   UNL     1      -3.724  91.842 -20.726  1.00  0.00     0.004 C 
ATOM      6  C   UNL     1      -6.870  92.629 -17.249  1.00  0.00     0.013 C 
ATOM      7  C   UNL     1      -4.418  92.491 -16.543  1.00  0.00    -0.063 C 
ATOM      8  C   UNL     1      -2.527  92.385 -18.465  1.00  0.00    -0.003 C 
ATOM      9  C   UNL     1      -2.394  91.787 -19.919  1.00  0.00    -0.011 C 
ATOM     10  C   UNL     1      -5.859  92.083 -16.160  1.00  0.00    -0.006 C 
ATOM     11  C   UNL     1      -3.483  92.657 -15.600  1.00  0.00    -0.027 C 
ATOM     12  C   UNL     1      -1.875  93.780 -18.382  1.00  0.00     0.008 C 
ATOM     13  C   UNL     1      -1.878  90.338 -19.891  1.00  0.00     0.008 C 
ATOM     14  C   UNL     1      -5.862  90.515 -16.248  1.00  0.00     0.017 C 
ATOM     15  C   UNL     1      -6.291  92.560 -14.661  1.00  0.00    -0.020 C 
ATOM     16  C   UNL     1      -3.805  92.912 -14.169  1.00  0.00     0.032 C 
ATOM     17  C   UNL     1      -5.119  92.277 -13.634  1.00  0.00     0.006 C 
ATOM     18  C   UNL     1      -6.594  94.090 -14.575  1.00  0.00     0.008 C 
ATOM     19  C   UNL     1      -7.601  91.781 -14.276  1.00  0.00     0.012 C 
ATOM     20  C   UNL     1      -5.419  92.689 -12.088  1.00  0.00    -0.025 C 
ATOM     21  C   UNL     1      -6.468  94.750 -13.173  1.00  0.00     0.005 C 
ATOM     22  C   UNL     1      -6.582  93.760 -11.977  1.00  0.00     0.003 C 
ATOM     23  C   UNL     1      -4.131  93.261 -11.382  1.00  0.00     0.010 C 
ATOM     24  C   UNL     1      -5.819  91.384 -11.340  1.00  0.00     0.012 C 
ATOM     25  C   UNL     1      -6.769  94.461 -10.550  1.00  0.00    -0.006 C 
ATOM     26  C   UNL     1      -4.339  93.871  -9.995  1.00  0.00     0.033 C 
ATOM     27  C   UNL     1      -5.391  94.984 -10.027  1.00  0.00     0.120 C 
ATOM     28  C   UNL     1      -7.737  95.671 -10.662  1.00  0.00     0.014 C 
ATOM     29  C   UNL     1      -7.433  93.474  -9.524  1.00  0.00     0.014 C 
ENDROOT
BRANCH   1  30
ATOM     30  C   UNL     1      -4.879  94.734 -18.521  1.00  0.00     0.048 C 
ATOM     31  O   UNL     1      -4.802  95.633 -19.395  1.00  0.00    -0.550 OA
ATOM     32  O   UNL     1      -4.933  95.143 -17.189  1.00  0.00    -0.550 OA
ENDBRANCH   1  30
BRANCH  27  33
ATOM     33  O   UNL     1      -5.432  95.605  -8.758  1.00  0.00    -0.393 OA
ATOM     34  H   UNL     1      -5.344  96.588  -8.831  1.00  0.00     0.210 HD
ENDBRANCH  27  33
TORSDOF 2
ENDMDL
MODEL 3
REMARK VINA RESULT:    -6.150      3.322      8.005
REMARK INTER + INTRA:          -6.148
REMARK INTER:                  -6.768
REMARK INTRA:                   0.620
REMARK UNBOUND:                 0.542
REMARK SMILES C[C@H]1[C@H]2C3=CC[C@H]4[C@@]5(C)CC[C@H](O)C(C)(C)[C@H]5CC[C@@]4(C)[C@@]3(C)CC[C@]2(C(=O)[O-])CC[C@@H]1C
REMARK SMILES IDX 26 1 30 2 25 3 3 4 31 5 24 6 4 7 2 8 32 9 22 10 5 11 1 12
REMARK SMILES IDX 33 13 23 14 20 15 6 16 7 17 19 18 21 19 8 20 18 21 17 22
REMARK SMILES IDX 10 23 9 24 14 25 11 26 12 27 15 28 16 29 27 30 28 31 29 32
REMARK SMILES IDX 13 33
REMARK H PARENT 13 34
REMARK Flexibility Score: inf
ROOT
ATOM      1  C   UNL     1      -5.185  95.190 -10.926  1.00  0.00     0.017 C 
ATOM      2  C   UNL     1      -5.263  96.653 -11.508  1.00  0.00     0.014 C 
ATOM      3  C   UNL     1      -5.251  95.258  -9.370  1.00  0.00     0.014 C 
ATOM      4  C   UNL     1      -6.425  94.363 -11.364  1.00  0.00     0.030 C 
ATOM      5  C   UNL     1      -6.676  97.069 -11.915  1.00  0.00     0.004 C 
ATOM      6  C   UNL     1      -5.328  93.882  -8.655  1.00  0.00     0.013 C 
ATOM      7  C   UNL     1      -6.361  92.941 -10.794  1.00  0.00    -0.063 C 
ATOM      8  C   UNL     1      -6.848  94.629 -12.842  1.00  0.00    -0.003 C 
ATOM      9  C   UNL     1      -7.270  96.140 -13.013  1.00  0.00    -0.011 C 
ATOM     10  C   UNL     1      -6.310  92.796  -9.256  1.00  0.00    -0.006 C 
ATOM     11  C   UNL     1      -6.634  91.885 -11.570  1.00  0.00    -0.027 C 
ATOM     12  C   UNL     1      -5.772  94.237 -13.873  1.00  0.00     0.008 C 
ATOM     13  C   UNL     1      -8.800  96.302 -13.041  1.00  0.00     0.008 C 
ATOM     14  C   UNL     1      -7.765  93.150  -8.778  1.00  0.00     0.017 C 
ATOM     15  C   UNL     1      -5.909  91.295  -8.759  1.00  0.00    -0.020 C 
ATOM     16  C   UNL     1      -6.467  90.476 -11.118  1.00  0.00     0.032 C 
ATOM     17  C   UNL     1      -6.692  90.208  -9.603  1.00  0.00     0.006 C 
ATOM     18  C   UNL     1      -4.388  90.983  -8.937  1.00  0.00     0.008 C 
ATOM     19  C   UNL     1      -6.249  91.197  -7.227  1.00  0.00     0.012 C 
ATOM     20  C   UNL     1      -6.400  88.657  -9.201  1.00  0.00    -0.025 C 
ATOM     21  C   UNL     1      -3.989  89.485  -9.036  1.00  0.00     0.005 C 
ATOM     22  C   UNL     1      -5.026  88.496  -8.428  1.00  0.00     0.003 C 
ATOM     23  C   UNL     1      -6.382  87.724 -10.473  1.00  0.00     0.010 C 
ATOM     24  C   UNL     1      -7.580  88.192  -8.300  1.00  0.00     0.012 C 
ATOM     25  C   UNL     1      -4.486  86.999  -8.242  1.00  0.00    -0.006 C 
ATOM     26  C   UNL     1      -5.915  86.286 -10.244  1.00  0.00     0.033 C 
ATOM     27  C   UNL     1      -4.521  86.245  -9.611  1.00  0.00     0.120 C 
ATOM     28  C   UNL     1      -3.019  87.011  -7.730  1.00  0.00     0.014 C 
ATOM     29  C   UNL     1      -5.317  86.238  -7.148  1.00  0.00     0.014 C 
ENDROOT
BRANCH   1  30
ATOM     30  C   UNL     1      -3.864  94.546 -11.380  1.00  0.00     0.048 C 
ATOM     31  O   UNL     1      -2.802  95.215 -11.437  1.00  0.00    -0.550 OA
ATOM     32  O   UNL     1      -3.786  93.196 -11.723  1.00  0.00    -0.550 OA
ENDBRANCH   1  30
BRANCH  27  33
ATOM     33  O   UNL     1      -4.085  84.901  -9.562  1.00  0.00    -0.393 OA
ATOM     34  H   UNL     1      -4.331  84.409 -10.385  1.00  0.00     0.210 HD
ENDBRANCH  27  33
TORSDOF 2
ENDMDL
MODEL 4
REMARK VINA RESULT:    -6.136      3.161      8.351
REMARK INTER + INTRA:          -6.132
REMARK INTER:                  -6.735
REMARK INTRA:                   0.603
REMARK UNBOUND:                 0.542
REMARK SMILES C[C@H]1[C@H]2C3=CC[C@H]4[C@@]5(C)CC[C@H](O)C(C)(C)[C@H]5CC[C@@]4(C)[C@@]3(C)CC[C@]2(C(=O)[O-])CC[C@@H]1C
REMARK SMILES IDX 26 1 30 2 25 3 3 4 31 5 24 6 4 7 2 8 32 9 22 10 5 11 1 12
REMARK SMILES IDX 33 13 23 14 20 15 6 16 7 17 19 18 21 19 8 20 18 21 17 22
REMARK SMILES IDX 10 23 9 24 14 25 11 26 12 27 15 28 16 29 27 30 28 31 29 32
REMARK SMILES IDX 13 33
REMARK H PARENT 13 34
REMARK Flexibility Score: inf
ROOT
ATOM      1  C   UNL     1      -6.558  91.980 -10.547  1.00  0.00     0.017 C 
ATOM      2  C   UNL     1      -6.973  93.385 -11.125  1.00  0.00     0.014 C 
ATOM      3  C   UNL     1      -6.851  91.954  -9.016  1.00  0.00     0.014 C 
ATOM      4  C   UNL     1      -7.438  90.856 -11.162  1.00  0.00     0.030 C 
ATOM      5  C   UNL     1      -8.377  93.404 -11.728  1.00  0.00     0.004 C 
ATOM      6  C   UNL     1      -6.627  90.581  -8.326  1.00  0.00     0.013 C 
ATOM      7  C   UNL     1      -7.047  89.486 -10.597  1.00  0.00    -0.063 C 
ATOM      8  C   UNL     1      -7.716  91.060 -12.684  1.00  0.00    -0.003 C 
ATOM      9  C   UNL     1      -8.526  92.396 -12.905  1.00  0.00    -0.011 C 
ATOM     10  C   UNL     1      -7.166  89.290  -9.068  1.00  0.00    -0.006 C 
ATOM     11  C   UNL     1      -6.898  88.433 -11.409  1.00  0.00    -0.027 C 
ATOM     12  C   UNL     1      -6.443  91.037 -13.553  1.00  0.00     0.008 C 
ATOM     13  C   UNL     1     -10.020  92.119 -13.151  1.00  0.00     0.008 C 
ATOM     14  C   UNL     1      -8.711  89.196  -8.801  1.00  0.00     0.017 C 
ATOM     15  C   UNL     1      -6.422  87.943  -8.527  1.00  0.00    -0.020 C 
ATOM     16  C   UNL     1      -6.397  87.110 -10.946  1.00  0.00     0.032 C 
ATOM     17  C   UNL     1      -6.738  86.719  -9.480  1.00  0.00     0.006 C 
ATOM     18  C   UNL     1      -4.866  88.083  -8.488  1.00  0.00     0.008 C 
ATOM     19  C   UNL     1      -6.923  87.682  -7.060  1.00  0.00     0.012 C 
ATOM     20  C   UNL     1      -6.071  85.298  -9.050  1.00  0.00    -0.025 C 
ATOM     21  C   UNL     1      -4.044  86.765  -8.537  1.00  0.00     0.005 C 
ATOM     22  C   UNL     1      -4.826  85.496  -8.089  1.00  0.00     0.003 C 
ATOM     23  C   UNL     1      -5.615  84.468 -10.311  1.00  0.00     0.010 C 
ATOM     24  C   UNL     1      -7.179  84.476  -8.329  1.00  0.00     0.012 C 
ATOM     25  C   UNL     1      -3.911  84.206  -7.836  1.00  0.00    -0.006 C 
ATOM     26  C   UNL     1      -4.790  83.211 -10.026  1.00  0.00     0.033 C 
ATOM     27  C   UNL     1      -3.542  83.537  -9.200  1.00  0.00     0.120 C 
ATOM     28  C   UNL     1      -2.592  84.609  -7.120  1.00  0.00     0.014 C 
ATOM     29  C   UNL     1      -4.628  83.191  -6.876  1.00  0.00     0.014 C 
ENDROOT
BRANCH   1  30
ATOM     30  C   UNL     1      -5.059  91.758 -10.811  1.00  0.00     0.048 C 
ATOM     31  O   UNL     1      -4.459  90.759 -10.342  1.00  0.00    -0.550 OA
ATOM     32  O   UNL     1      -4.315  92.638 -11.596  1.00  0.00    -0.550 OA
ENDBRANCH   1  30
BRANCH  27  33
ATOM     33  O   UNL     1      -2.750  82.370  -9.097  1.00  0.00    -0.393 OA
ATOM     34  H   UNL     1      -3.308  81.553  -9.091  1.00  0.00     0.210 HD
ENDBRANCH  27  33
TORSDOF 2
ENDMDL
MODEL 5
REMARK VINA RESULT:    -6.011      3.105      4.949
REMARK INTER + INTRA:          -5.996
REMARK INTER:                  -6.590
REMARK INTRA:                   0.593
REMARK UNBOUND:                 0.542
REMARK SMILES C[C@H]1[C@H]2C3=CC[C@H]4[C@@]5(C)CC[C@H](O)C(C)(C)[C@H]5CC[C@@]4(C)[C@@]3(C)CC[C@]2(C(=O)[O-])CC[C@@H]1C
REMARK SMILES IDX 26 1 30 2 25 3 3 4 31 5 24 6 4 7 2 8 32 9 22 10 5 11 1 12
REMARK SMILES IDX 33 13 23 14 20 15 6 16 7 17 19 18 21 19 8 20 18 21 17 22
REMARK SMILES IDX 10 23 9 24 14 25 11 26 12 27 15 28 16 29 27 30 28 31 29 32
REMARK SMILES IDX 13 33
REMARK H PARENT 13 34
REMARK Flexibility Score: inf
ROOT
ATOM      1  C   UNL     1      -5.358  92.589 -11.130  1.00  0.00     0.017 C 
ATOM      2  C   UNL     1      -5.690  92.574  -9.590  1.00  0.00     0.014 C 
ATOM      3  C   UNL     1      -4.928  91.156 -11.570  1.00  0.00     0.014 C 
ATOM      4  C   UNL     1      -6.631  92.918 -11.958  1.00  0.00     0.030 C 
ATOM      5  C   UNL     1      -7.178  92.393  -9.290  1.00  0.00     0.004 C 
ATOM      6  C   UNL     1      -4.705  90.977 -13.096  1.00  0.00     0.013 C 
ATOM      7  C   UNL     1      -6.318  92.925 -13.459  1.00  0.00    -0.063 C 
ATOM      8  C   UNL     1      -7.516  94.026 -11.306  1.00  0.00    -0.003 C 
ATOM      9  C   UNL     1      -8.045  93.531  -9.904  1.00  0.00    -0.011 C 
ATOM     10  C   UNL     1      -5.773  91.616 -14.074  1.00  0.00    -0.006 C 
ATOM     11  C   UNL     1      -6.772  93.910 -14.243  1.00  0.00    -0.027 C 
ATOM     12  C   UNL     1      -6.807  95.388 -11.178  1.00  0.00     0.008 C 
ATOM     13  C   UNL     1      -9.510  93.067  -9.982  1.00  0.00     0.008 C 
ATOM     14  C   UNL     1      -7.015  90.655 -14.121  1.00  0.00     0.017 C 
ATOM     15  C   UNL     1      -5.160  91.810 -15.574  1.00  0.00    -0.020 C 
ATOM     16  C   UNL     1      -6.401  94.046 -15.679  1.00  0.00     0.032 C 
ATOM     17  C   UNL     1      -6.117  92.724 -16.445  1.00  0.00     0.006 C 
ATOM     18  C   UNL     1      -3.763  92.509 -15.572  1.00  0.00     0.008 C 
ATOM     19  C   UNL     1      -4.989  90.381 -16.204  1.00  0.00     0.012 C 
ATOM     20  C   UNL     1      -5.636  92.990 -17.978  1.00  0.00    -0.025 C 
ATOM     21  C   UNL     1      -3.342  93.234 -16.881  1.00  0.00     0.005 C 
ATOM     22  C   UNL     1      -4.081  92.744 -18.160  1.00  0.00     0.003 C 
ATOM     23  C   UNL     1      -5.978  94.457 -18.444  1.00  0.00     0.010 C 
ATOM     24  C   UNL     1      -6.442  92.014 -18.883  1.00  0.00     0.012 C 
ATOM     25  C   UNL     1      -3.437  93.254 -19.535  1.00  0.00    -0.006 C 
ATOM     26  C   UNL     1      -5.392  94.888 -19.790  1.00  0.00     0.033 C 
ATOM     27  C   UNL     1      -3.869  94.731 -19.812  1.00  0.00     0.120 C 
ATOM     28  C   UNL     1      -1.886  93.207 -19.458  1.00  0.00     0.014 C 
ATOM     29  C   UNL     1      -3.836  92.308 -20.724  1.00  0.00     0.014 C 
ENDROOT
BRANCH   1  30
ATOM     30  C   UNL     1      -4.221  93.592 -11.383  1.00  0.00     0.048 C 
ATOM     31  O   UNL     1      -3.730  93.741 -12.529  1.00  0.00    -0.550 OA
ATOM     32  O   UNL     1      -3.707  94.390 -10.361  1.00  0.00    -0.550 OA
ENDBRANCH   1  30
BRANCH  27  33
ATOM     33  O   UNL     1      -3.374  95.280 -21.018  1.00  0.00    -0.393 OA
ATOM     34  H   UNL     1      -3.810  94.872 -21.807  1.00  0.00     0.210 HD
ENDBRANCH  27  33
TORSDOF 2
ENDMDL
MODEL 6
REMARK VINA RESULT:    -5.843      2.343      4.307
REMARK INTER + INTRA:          -5.814
REMARK INTER:                  -6.348
REMARK INTRA:                   0.535
REMARK UNBOUND:                 0.542
REMARK SMILES C[C@H]1[C@H]2C3=CC[C@H]4[C@@]5(C)CC[C@H](O)C(C)(C)[C@H]5CC[C@@]4(C)[C@@]3(C)CC[C@]2(C(=O)[O-])CC[C@@H]1C
REMARK SMILES IDX 26 1 30 2 25 3 3 4 31 5 24 6 4 7 2 8 32 9 22 10 5 11 1 12
REMARK SMILES IDX 33 13 23 14 20 15 6 16 7 17 19 18 21 19 8 20 18 21 17 22
REMARK SMILES IDX 10 23 9 24 14 25 11 26 12 27 15 28 16 29 27 30 28 31 29 32
REMARK SMILES IDX 13 33
REMARK H PARENT 13 34
REMARK Flexibility Score: inf
ROOT
ATOM      1  C   UNL     1      -5.329  91.827 -11.475  1.00  0.00     0.017 C 
ATOM      2  C   UNL     1      -5.446  91.363  -9.974  1.00  0.00     0.014 C 
ATOM      3  C   UNL     1      -4.129  91.089 -12.142  1.00  0.00     0.014 C 
ATOM      4  C   UNL     1      -6.588  91.396 -12.278  1.00  0.00     0.030 C 
ATOM      5  C   UNL     1      -6.452  90.232  -9.765  1.00  0.00     0.004 C 
ATOM      6  C   UNL     1      -3.972  91.336 -13.668  1.00  0.00     0.013 C 
ATOM      7  C   UNL     1      -6.477  91.837 -13.743  1.00  0.00    -0.063 C 
ATOM      8  C   UNL     1      -7.915  91.566 -11.475  1.00  0.00    -0.003 C 
ATOM      9  C   UNL     1      -7.891  90.635 -10.201  1.00  0.00    -0.011 C 
ATOM     10  C   UNL     1      -5.281  91.293 -14.557  1.00  0.00    -0.006 C 
ATOM     11  C   UNL     1      -7.515  92.415 -14.358  1.00  0.00    -0.027 C 
ATOM     12  C   UNL     1      -8.219  93.026 -11.085  1.00  0.00     0.008 C 
ATOM     13  C   UNL     1      -8.733  89.365 -10.411  1.00  0.00     0.008 C 
ATOM     14  C   UNL     1      -5.634  89.783 -14.815  1.00  0.00     0.017 C 
ATOM     15  C   UNL     1      -5.057  92.066 -15.976  1.00  0.00    -0.020 C 
ATOM     16  C   UNL     1      -7.435  92.980 -15.734  1.00  0.00     0.032 C 
ATOM     17  C   UNL     1      -6.445  92.283 -16.709  1.00  0.00     0.006 C 
ATOM     18  C   UNL     1      -4.423  93.482 -15.802  1.00  0.00     0.008 C 
ATOM     19  C   UNL     1      -4.075  91.194 -16.840  1.00  0.00     0.012 C 
ATOM     20  C   UNL     1      -6.371  93.031 -18.153  1.00  0.00    -0.025 C 
ATOM     21  C   UNL     1      -4.667  94.504 -16.948  1.00  0.00     0.005 C 
ATOM     22  C   UNL     1      -5.033  93.864 -18.319  1.00  0.00     0.003 C 
ATOM     23  C   UNL     1      -7.601  93.994 -18.368  1.00  0.00     0.010 C 
ATOM     24  C   UNL     1      -6.451  91.923 -19.243  1.00  0.00     0.012 C 
ATOM     25  C   UNL     1      -4.975  94.876 -19.559  1.00  0.00    -0.006 C 
ATOM     26  C   UNL     1      -7.536  94.904 -19.596  1.00  0.00     0.033 C 
ATOM     27  C   UNL     1      -6.265  95.759 -19.590  1.00  0.00     0.120 C 
ATOM     28  C   UNL     1      -3.744  95.816 -19.436  1.00  0.00     0.014 C 
ATOM     29  C   UNL     1      -4.785  94.095 -20.909  1.00  0.00     0.014 C 
ENDROOT
BRANCH   1  30
ATOM     30  C   UNL     1      -5.109  93.349 -11.507  1.00  0.00     0.048 C 
ATOM     31  O   UNL     1      -4.605  93.953 -10.528  1.00  0.00    -0.550 OA
ATOM     32  O   UNL     1      -5.436  94.113 -12.627  1.00  0.00    -0.550 OA
ENDBRANCH   1  30
BRANCH  27  33
ATOM     33  O   UNL     1      -6.332  96.678 -20.662  1.00  0.00    -0.393 OA
ATOM     34  H   UNL     1      -7.250  97.029 -20.782  1.00  0.00     0.210 HD
ENDBRANCH  27  33
TORSDOF 2
ENDMDL
MODEL 7
REMARK VINA RESULT:    -5.545      1.360      8.001
REMARK INTER + INTRA:          -5.489
REMARK INTER:                  -6.174
REMARK INTRA:                   0.685
REMARK UNBOUND:                 0.542
REMARK SMILES C[C@H]1[C@H]2C3=CC[C@H]4[C@@]5(C)CC[C@H](O)C(C)(C)[C@H]5CC[C@@]4(C)[C@@]3(C)CC[C@]2(C(=O)[O-])CC[C@@H]1C
REMARK SMILES IDX 26 1 30 2 25 3 3 4 31 5 24 6 4 7 2 8 32 9 22 10 5 11 1 12
REMARK SMILES IDX 33 13 23 14 20 15 6 16 7 17 19 18 21 19 8 20 18 21 17 22
REMARK SMILES IDX 10 23 9 24 14 25 11 26 12 27 15 28 16 29 27 30 28 31 29 32
REMARK SMILES IDX 13 33
REMARK H PARENT 13 34
REMARK Flexibility Score: inf
ROOT
ATOM      1  C   UNL     1      -5.068  93.257 -16.913  1.00  0.00     0.017 C 
ATOM      2  C   UNL     1      -4.676  94.114 -18.176  1.00  0.00     0.014 C 
ATOM      3  C   UNL     1      -3.783  92.963 -16.081  1.00  0.00     0.014 C 
ATOM      4  C   UNL     1      -6.002  94.068 -15.973  1.00  0.00     0.030 C 
ATOM      5  C   UNL     1      -4.863  95.617 -17.972  1.00  0.00     0.004 C 
ATOM      6  C   UNL     1      -4.028  92.245 -14.725  1.00  0.00     0.013 C 
ATOM      7  C   UNL     1      -6.381  93.244 -14.737  1.00  0.00    -0.063 C 
ATOM      8  C   UNL     1      -7.064  94.913 -16.744  1.00  0.00    -0.003 C 
ATOM      9  C   UNL     1      -6.339  95.987 -17.645  1.00  0.00    -0.011 C 
ATOM     10  C   UNL     1      -5.227  92.760 -13.829  1.00  0.00    -0.006 C 
ATOM     11  C   UNL     1      -7.648  93.202 -14.309  1.00  0.00    -0.027 C 
ATOM     12  C   UNL     1      -8.042  94.063 -17.578  1.00  0.00     0.008 C 
ATOM     13  C   UNL     1      -6.381  97.386 -17.004  1.00  0.00     0.008 C 
ATOM     14  C   UNL     1      -4.743  94.054 -13.081  1.00  0.00     0.017 C 
ATOM     15  C   UNL     1      -5.684  91.627 -12.747  1.00  0.00    -0.020 C 
ATOM     16  C   UNL     1      -8.105  92.324 -13.197  1.00  0.00     0.032 C 
ATOM     17  C   UNL     1      -7.064  92.028 -12.081  1.00  0.00     0.006 C 
ATOM     18  C   UNL     1      -5.898  90.222 -13.394  1.00  0.00     0.008 C 
ATOM     19  C   UNL     1      -4.538  91.502 -11.679  1.00  0.00     0.012 C 
ATOM     20  C   UNL     1      -7.636  90.992 -10.963  1.00  0.00    -0.025 C 
ATOM     21  C   UNL     1      -6.833  89.238 -12.637  1.00  0.00     0.005 C 
ATOM     22  C   UNL     1      -7.007  89.546 -11.121  1.00  0.00     0.003 C 
ATOM     23  C   UNL     1      -9.207  90.875 -11.034  1.00  0.00     0.010 C 
ATOM     24  C   UNL     1      -7.276  91.583  -9.569  1.00  0.00     0.012 C 
ATOM     25  C   UNL     1      -7.702  88.373 -10.281  1.00  0.00    -0.006 C 
ATOM     26  C   UNL     1      -9.839  89.780 -10.173  1.00  0.00     0.033 C 
ATOM     27  C   UNL     1      -9.250  88.404 -10.499  1.00  0.00     0.120 C 
ATOM     28  C   UNL     1      -7.174  86.987 -10.744  1.00  0.00     0.014 C 
ATOM     29  C   UNL     1      -7.336  88.484  -8.757  1.00  0.00     0.014 C 
ENDROOT
BRANCH   1  30
ATOM     30  C   UNL     1      -5.714  91.943 -17.386  1.00  0.00     0.048 C 
ATOM     31  O   UNL     1      -6.324  91.878 -18.482  1.00  0.00    -0.550 OA
ATOM     32  O   UNL     1      -5.629  90.772 -16.633  1.00  0.00    -0.550 OA
ENDBRANCH   1  30
BRANCH  27  33
ATOM     33  O   UNL     1      -9.972  87.421  -9.783  1.00  0.00    -0.393 OA
ATOM     34  H   UNL     1      -9.772  86.511 -10.114  1.00  0.00     0.210 HD
ENDBRANCH  27  33
TORSDOF 2
ENDMDL
MODEL 8
REMARK VINA RESULT:    -5.472      1.556      2.269
REMARK INTER + INTRA:          -5.410
REMARK INTER:                  -5.947
REMARK INTRA:                   0.537
REMARK UNBOUND:                 0.542
REMARK SMILES C[C@H]1[C@H]2C3=CC[C@H]4[C@@]5(C)CC[C@H](O)C(C)(C)[C@H]5CC[C@@]4(C)[C@@]3(C)CC[C@]2(C(=O)[O-])CC[C@@H]1C
REMARK SMILES IDX 26 1 30 2 25 3 3 4 31 5 24 6 4 7 2 8 32 9 22 10 5 11 1 12
REMARK SMILES IDX 33 13 23 14 20 15 6 16 7 17 19 18 21 19 8 20 18 21 17 22
REMARK SMILES IDX 10 23 9 24 14 25 11 26 12 27 15 28 16 29 27 30 28 31 29 32
REMARK SMILES IDX 13 33
REMARK H PARENT 13 34
REMARK Flexibility Score: inf
ROOT
ATOM      1  C   UNL     1      -7.335  88.296  -8.209  1.00  0.00     0.017 C 
ATOM      2  C   UNL     1      -7.431  87.191  -7.091  1.00  0.00     0.014 C 
ATOM      3  C   UNL     1      -6.870  89.635  -7.561  1.00  0.00     0.014 C 
ATOM      4  C   UNL     1      -6.237  87.928  -9.246  1.00  0.00     0.030 C 
ATOM      5  C   UNL     1      -6.179  86.322  -6.985  1.00  0.00     0.004 C 
ATOM      6  C   UNL     1      -6.589  90.788  -8.562  1.00  0.00     0.013 C 
ATOM      7  C   UNL     1      -6.131  89.004 -10.333  1.00  0.00    -0.063 C 
ATOM      8  C   UNL     1      -6.215  86.408  -9.600  1.00  0.00    -0.003 C 
ATOM      9  C   UNL     1      -5.875  85.564  -8.311  1.00  0.00    -0.011 C 
ATOM     10  C   UNL     1      -5.780  90.438  -9.877  1.00  0.00    -0.006 C 
ATOM     11  C   UNL     1      -6.052  88.660 -11.624  1.00  0.00    -0.027 C 
ATOM     12  C   UNL     1      -7.516  85.908 -10.259  1.00  0.00     0.008 C 
ATOM     13  C   UNL     1      -4.407  85.103  -8.306  1.00  0.00     0.008 C 
ATOM     14  C   UNL     1      -4.257  90.370  -9.496  1.00  0.00     0.017 C 
ATOM     15  C   UNL     1      -6.016  91.563 -11.034  1.00  0.00    -0.020 C 
ATOM     16  C   UNL     1      -6.075  89.652 -12.734  1.00  0.00     0.032 C 
ATOM     17  C   UNL     1      -5.462  91.047 -12.425  1.00  0.00     0.006 C 
ATOM     18  C   UNL     1      -7.526  91.897 -11.256  1.00  0.00     0.008 C 
ATOM     19  C   UNL     1      -5.290  92.878 -10.572  1.00  0.00     0.012 C 
ATOM     20  C   UNL     1      -5.617  92.079 -13.674  1.00  0.00    -0.025 C 
ATOM     21  C   UNL     1      -7.915  92.491 -12.639  1.00  0.00     0.005 C 
ATOM     22  C   UNL     1      -6.742  93.164 -13.409  1.00  0.00     0.003 C 
ATOM     23  C   UNL     1      -5.949  91.318 -15.015  1.00  0.00     0.010 C 
ATOM     24  C   UNL     1      -4.237  92.773 -13.863  1.00  0.00     0.012 C 
ATOM     25  C   UNL     1      -7.192  94.044 -14.669  1.00  0.00    -0.006 C 
ATOM     26  C   UNL     1      -6.319  92.196 -16.212  1.00  0.00     0.033 C 
ATOM     27  C   UNL     1      -7.501  93.114 -15.887  1.00  0.00     0.120 C 
ATOM     28  C   UNL     1      -8.477  94.851 -14.335  1.00  0.00     0.014 C 
ATOM     29  C   UNL     1      -6.095  95.110 -15.027  1.00  0.00     0.014 C 
ENDROOT
BRANCH   1  30
ATOM     30  C   UNL     1      -8.719  88.467  -8.859  1.00  0.00     0.048 C 
ATOM     31  O   UNL     1      -9.764  88.101  -8.265  1.00  0.00    -0.550 OA
ATOM     32  O   UNL     1      -8.871  89.051 -10.117  1.00  0.00    -0.550 OA
ENDBRANCH   1  30
BRANCH  27  33
ATOM     33  O   UNL     1      -7.889  93.788 -17.068  1.00  0.00    -0.393 OA
ATOM     34  H   UNL     1      -7.747  94.765 -16.991  1.00  0.00     0.210 HD
ENDBRANCH  27  33
TORSDOF 2
ENDMDL
MODEL 9
REMARK VINA RESULT:    -5.468      3.752      5.340
REMARK INTER + INTRA:          -5.405
REMARK INTER:                  -5.956
REMARK INTRA:                   0.551
REMARK UNBOUND:                 0.542
REMARK SMILES C[C@H]1[C@H]2C3=CC[C@H]4[C@@]5(C)CC[C@H](O)C(C)(C)[C@H]5CC[C@@]4(C)[C@@]3(C)CC[C@]2(C(=O)[O-])CC[C@@H]1C
REMARK SMILES IDX 26 1 30 2 25 3 3 4 31 5 24 6 4 7 2 8 32 9 22 10 5 11 1 12
REMARK SMILES IDX 33 13 23 14 20 15 6 16 7 17 19 18 21 19 8 20 18 21 17 22
REMARK SMILES IDX 10 23 9 24 14 25 11 26 12 27 15 28 16 29 27 30 28 31 29 32
REMARK SMILES IDX 13 33
REMARK H PARENT 13 34
REMARK Flexibility Score: inf
ROOT
ATOM      1  C   UNL     1     -13.083  93.276 -11.916  1.00  0.00     0.017 C 
ATOM      2  C   UNL     1     -14.555  93.457 -11.384  1.00  0.00     0.014 C 
ATOM      3  C   UNL     1     -12.176  94.374 -11.282  1.00  0.00     0.014 C 
ATOM      4  C   UNL     1     -12.496  91.918 -11.440  1.00  0.00     0.030 C 
ATOM      5  C   UNL     1     -14.882  92.569 -10.185  1.00  0.00     0.004 C 
ATOM      6  C   UNL     1     -10.661  94.239 -11.600  1.00  0.00     0.013 C 
ATOM      7  C   UNL     1     -11.059  91.739 -11.946  1.00  0.00    -0.063 C 
ATOM      8  C   UNL     1     -13.530  90.751 -11.494  1.00  0.00    -0.003 C 
ATOM      9  C   UNL     1     -14.730  91.055 -10.516  1.00  0.00    -0.011 C 
ATOM     10  C   UNL     1     -10.019  92.795 -11.511  1.00  0.00    -0.006 C 
ATOM     11  C   UNL     1     -10.669  90.577 -12.483  1.00  0.00    -0.027 C 
ATOM     12  C   UNL     1     -14.042  90.444 -12.915  1.00  0.00     0.008 C 
ATOM     13  C   UNL     1     -14.608  90.259  -9.204  1.00  0.00     0.008 C 
ATOM     14  C   UNL     1      -9.750  92.484  -9.995  1.00  0.00     0.017 C 
ATOM     15  C   UNL     1      -8.623  92.717 -12.354  1.00  0.00    -0.020 C 
ATOM     16  C   UNL     1      -9.332  90.376 -13.107  1.00  0.00     0.032 C 
ATOM     17  C   UNL     1      -8.162  91.210 -12.514  1.00  0.00     0.006 C 
ATOM     18  C   UNL     1      -8.754  93.295 -13.799  1.00  0.00     0.008 C 
ATOM     19  C   UNL     1      -7.555  93.573 -11.582  1.00  0.00     0.012 C 
ATOM     20  C   UNL     1      -6.768  90.981 -13.323  1.00  0.00    -0.025 C 
ATOM     21  C   UNL     1      -7.724  92.793 -14.849  1.00  0.00     0.005 C 
ATOM     22  C   UNL     1      -6.409  92.219 -14.245  1.00  0.00     0.003 C 
ATOM     23  C   UNL     1      -6.825  89.682 -14.215  1.00  0.00     0.010 C 
ATOM     24  C   UNL     1      -5.654  90.765 -12.258  1.00  0.00     0.012 C 
ATOM     25  C   UNL     1      -5.232  91.998 -15.307  1.00  0.00    -0.006 C 
ATOM     26  C   UNL     1      -5.653  89.475 -15.177  1.00  0.00     0.033 C 
ATOM     27  C   UNL     1      -5.477  90.678 -16.109  1.00  0.00     0.120 C 
ATOM     28  C   UNL     1      -5.182  93.178 -16.317  1.00  0.00     0.014 C 
ATOM     29  C   UNL     1      -3.832  91.983 -14.595  1.00  0.00     0.014 C 
ENDROOT
BRANCH   1  30
ATOM     30  C   UNL     1     -13.090  93.404 -13.449  1.00  0.00     0.048 C 
ATOM     31  O   UNL     1     -13.954  94.101 -14.038  1.00  0.00    -0.550 OA
ATOM     32  O   UNL     1     -12.130  92.775 -14.241  1.00  0.00    -0.550 OA
ENDBRANCH   1  30
BRANCH  27  33
ATOM     33  O   UNL     1      -4.482  90.368 -17.065  1.00  0.00    -0.393 OA
ATOM     34  H   UNL     1      -3.803  91.085 -17.126  1.00  0.00     0.210 HD
ENDBRANCH  27  33
TORSDOF 2
ENDMDL
