MODEL 1
REMARK VINA RESULT:     1.047      0.000      0.000
REMARK INTER + INTRA:           1.519
REMARK INTER:                   1.904
REMARK INTRA:                  -0.385
REMARK UNBOUND:                -0.385
REMARK SMILES CCCCCCCCCCCCCCCC(=O)[O-]
REMARK SMILES IDX 9 1 10 2 11 3 12 4 13 5 14 6 15 7 16 8 17 9 18 10 8 11 7 12
REMARK SMILES IDX 6 13 5 14 4 15 3 16 2 17 1 18
REMARK H PARENT
REMARK Flexibility Score: inf
ROOT
ATOM      1  C   UNL     1      59.084  -3.419  -6.121  1.00  0.00     0.000 C 
ENDROOT
BRANCH   1   2
ATOM      2  C   UNL     1      58.304  -3.622  -4.817  1.00  0.00     0.000 C 
BRANCH   2   3
ATOM      3  C   UNL     1      59.118  -4.444  -3.810  1.00  0.00     0.000 C 
BRANCH   3   4
ATOM      4  C   UNL     1      58.406  -5.762  -3.471  1.00  0.00     0.000 C 
BRANCH   4   5
ATOM      5  C   UNL     1      59.092  -6.529  -2.331  1.00  0.00     0.000 C 
BRANCH   5   6
ATOM      6  C   UNL     1      59.125  -5.731  -1.015  1.00  0.00     0.006 C 
BRANCH   6   7
ATOM      7  C   UNL     1      59.078  -6.645   0.217  1.00  0.00     0.053 C 
BRANCH   7   8
ATOM      8  C   UNL     1      58.070  -6.170   1.219  1.00  0.00     0.041 C 
ATOM      9  O   UNL     1      56.969  -5.694   0.835  1.00  0.00    -0.550 OA
ATOM     10  O   UNL     1      58.333  -6.287   2.578  1.00  0.00    -0.550 OA
ENDBRANCH   7   8
ENDBRANCH   6   7
ENDBRANCH   5   6
ENDBRANCH   4   5
ENDBRANCH   3   4
ENDBRANCH   2   3
ENDBRANCH   1   2
BRANCH   1  11
ATOM     11  C   UNL     1      58.570  -2.192  -6.885  1.00  0.00     0.000 C 
BRANCH  11  12
ATOM     12  C   UNL     1      58.957  -0.893  -6.161  1.00  0.00    -0.000 C 
BRANCH  12  13
ATOM     13  C   UNL     1      58.022   0.279  -6.512  1.00  0.00    -0.000 C 
BRANCH  13  14
ATOM     14  C   UNL     1      56.547  -0.134  -6.681  1.00  0.00    -0.000 C 
BRANCH  14  15
ATOM     15  C   UNL     1      56.042  -1.069  -5.557  1.00  0.00    -0.000 C 
BRANCH  15  16
ATOM     16  C   UNL     1      54.611  -1.587  -5.785  1.00  0.00    -0.000 C 
BRANCH  16  17
ATOM     17  C   UNL     1      53.681  -1.441  -4.567  1.00  0.00    -0.003 C 
ATOM     18  C   UNL     1      52.235  -1.830  -4.877  1.00  0.00     0.004 C 
ENDBRANCH  16  17
ENDBRANCH  15  16
ENDBRANCH  14  15
ENDBRANCH  13  14
ENDBRANCH  12  13
ENDBRANCH  11  12
ENDBRANCH   1  11
TORSDOF 14
ENDMDL
MODEL 2
REMARK VINA RESULT:     2.484      3.132      7.456
REMARK INTER + INTRA:           4.132
REMARK INTER:                   4.354
REMARK INTRA:                  -0.222
REMARK UNBOUND:                -0.385
REMARK SMILES CCCCCCCCCCCCCCCC(=O)[O-]
REMARK SMILES IDX 9 1 10 2 11 3 12 4 13 5 14 6 15 7 16 8 17 9 18 10 8 11 7 12
REMARK SMILES IDX 6 13 5 14 4 15 3 16 2 17 1 18
REMARK H PARENT
REMARK Flexibility Score: inf
ROOT
ATOM      1  C   UNL     1      57.525  -3.620  -5.002  1.00  0.00     0.000 C 
ENDROOT
BRANCH   1   2
ATOM      2  C   UNL     1      58.851  -2.856  -5.080  1.00  0.00     0.000 C 
BRANCH   2   3
ATOM      3  C   UNL     1      58.750  -1.674  -6.052  1.00  0.00     0.000 C 
BRANCH   3   4
ATOM      4  C   UNL     1      57.284  -1.362  -6.388  1.00  0.00     0.000 C 
BRANCH   4   5
ATOM      5  C   UNL     1      56.559  -0.629  -5.249  1.00  0.00     0.000 C 
BRANCH   5   6
ATOM      6  C   UNL     1      55.409  -1.457  -4.649  1.00  0.00     0.006 C 
BRANCH   6   7
ATOM      7  C   UNL     1      54.205  -1.546  -5.596  1.00  0.00     0.053 C 
BRANCH   7   8
ATOM      8  C   UNL     1      52.908  -1.454  -4.852  1.00  0.00     0.041 C 
ATOM      9  O   UNL     1      52.848  -0.836  -3.755  1.00  0.00    -0.550 OA
ATOM     10  O   UNL     1      51.758  -2.021  -5.386  1.00  0.00    -0.550 OA
ENDBRANCH   7   8
ENDBRANCH   6   7
ENDBRANCH   5   6
ENDBRANCH   4   5
ENDBRANCH   3   4
ENDBRANCH   2   3
ENDBRANCH   1   2
BRANCH   1  11
ATOM     11  C   UNL     1      57.758  -5.092  -4.636  1.00  0.00     0.000 C 
BRANCH  11  12
ATOM     12  C   UNL     1      58.967  -5.240  -3.698  1.00  0.00    -0.000 C 
BRANCH  12  13
ATOM     13  C   UNL     1      59.086  -6.657  -3.109  1.00  0.00    -0.000 C 
BRANCH  13  14
ATOM     14  C   UNL     1      59.125  -6.686  -1.568  1.00  0.00    -0.000 C 
BRANCH  14  15
ATOM     15  C   UNL     1      59.117  -5.277  -0.930  1.00  0.00    -0.000 C 
BRANCH  15  16
ATOM     16  C   UNL     1      58.840  -5.290   0.584  1.00  0.00    -0.000 C 
BRANCH  16  17
ATOM     17  C   UNL     1      58.374  -6.649   1.133  1.00  0.00    -0.003 C 
ATOM     18  C   UNL     1      58.884  -6.923   2.549  1.00  0.00     0.004 C 
ENDBRANCH  16  17
ENDBRANCH  15  16
ENDBRANCH  14  15
ENDBRANCH  13  14
ENDBRANCH  12  13
ENDBRANCH  11  12
ENDBRANCH   1  11
TORSDOF 14
ENDMDL
