MODEL 1
REMARK VINA RESULT:    -3.269      0.000      0.000
REMARK INTER + INTRA:          -4.242
REMARK INTER:                  -3.938
REMARK INTRA:                  -0.304
REMARK UNBOUND:                -0.304
REMARK SMILES O=c1c(O)c(-c2ccc(O)c(O)c2)oc2cc(O)cc(O)c12
REMARK SMILES IDX 5 1 3 2 2 3 1 4 22 5 20 6 19 7 17 8 16 9 15 10 14 11 6 12
REMARK SMILES IDX 7 13 8 14 9 15 13 16 11 17 10 18 12 20 4 22 21 24 18 26
REMARK H PARENT 10 19 12 21 4 23 21 25 18 27
REMARK Flexibility Score: inf
ROOT
ATOM      1  C   UNL     1     -23.696 -19.050 -13.082  1.00  0.00     0.180 A 
ATOM      2  C   UNL     1     -22.346 -18.896 -12.723  1.00  0.00     0.208 A 
ATOM      3  C   UNL     1     -21.661 -17.739 -13.130  1.00  0.00     0.238 A 
ATOM      4  O   UNL     1     -20.469 -17.582 -12.760  1.00  0.00    -0.285 OA
ATOM      5  C   UNL     1     -22.329 -16.762 -13.906  1.00  0.00     0.111 A 
ATOM      6  C   UNL     1     -21.722 -15.572 -14.407  1.00  0.00     0.134 A 
ATOM      7  C   UNL     1     -22.512 -14.612 -15.052  1.00  0.00     0.093 A 
ATOM      8  C   UNL     1     -23.875 -14.829 -15.270  1.00  0.00     0.123 A 
ATOM      9  C   UNL     1     -24.464 -16.014 -14.837  1.00  0.00     0.094 A 
ATOM     10  C   UNL     1     -23.709 -16.974 -14.159  1.00  0.00     0.146 A 
ATOM     11  O   UNL     1     -24.313 -18.086 -13.753  1.00  0.00    -0.452 OA
ENDROOT
BRANCH   1  12
ATOM     12  C   UNL     1     -24.477 -20.253 -12.710  1.00  0.00     0.025 A 
ATOM     13  C   UNL     1     -25.075 -20.323 -11.442  1.00  0.00     0.016 A 
ATOM     14  C   UNL     1     -25.834 -21.438 -11.079  1.00  0.00     0.051 A 
ATOM     15  C   UNL     1     -26.020 -22.492 -11.979  1.00  0.00     0.157 A 
ATOM     16  C   UNL     1     -24.682 -21.303 -13.622  1.00  0.00     0.062 A 
ATOM     17  C   UNL     1     -25.446 -22.423 -13.259  1.00  0.00     0.158 A 
BRANCH  15  18
ATOM     18  O   UNL     1     -26.780 -23.592 -11.587  1.00  0.00    -0.504 OA
ATOM     19  H   UNL     1     -27.412 -23.557 -10.796  1.00  0.00     0.293 HD
ENDBRANCH  15  18
BRANCH  17  20
ATOM     20  O   UNL     1     -25.638 -23.464 -14.168  1.00  0.00    -0.504 OA
ATOM     21  H   UNL     1     -25.480 -24.430 -13.909  1.00  0.00     0.293 HD
ENDBRANCH  17  20
ENDBRANCH   1  12
BRANCH   2  22
ATOM     22  O   UNL     1     -21.712 -19.864 -11.938  1.00  0.00    -0.502 OA
ATOM     23  H   UNL     1     -21.069 -19.624 -11.193  1.00  0.00     0.293 HD
ENDBRANCH   2  22
BRANCH   6  24
ATOM     24  O   UNL     1     -20.353 -15.299 -14.324  1.00  0.00    -0.507 OA
ATOM     25  H   UNL     1     -19.934 -14.662 -13.665  1.00  0.00     0.293 HD
ENDBRANCH   6  24
BRANCH   8  26
ATOM     26  O   UNL     1     -24.651 -13.876 -15.926  1.00  0.00    -0.508 OA
ATOM     27  H   UNL     1     -25.647 -14.003 -16.060  1.00  0.00     0.293 HD
ENDBRANCH   8  26
TORSDOF 6
ENDMDL
MODEL 2
REMARK VINA RESULT:    -1.648      1.729      3.174
REMARK INTER + INTRA:          -2.289
REMARK INTER:                  -2.395
REMARK INTRA:                   0.106
REMARK UNBOUND:                -0.304
REMARK SMILES O=c1c(O)c(-c2ccc(O)c(O)c2)oc2cc(O)cc(O)c12
REMARK SMILES IDX 5 1 3 2 2 3 1 4 22 5 20 6 19 7 17 8 16 9 15 10 14 11 6 12
REMARK SMILES IDX 7 13 8 14 9 15 13 16 11 17 10 18 12 20 4 22 21 24 18 26
REMARK H PARENT 10 19 12 21 4 23 21 25 18 27
REMARK Flexibility Score: inf
ROOT
ATOM      1  C   UNL     1     -23.243 -18.753 -13.473  1.00  0.00     0.180 A 
ATOM      2  C   UNL     1     -24.306 -18.180 -14.191  1.00  0.00     0.208 A 
ATOM      3  C   UNL     1     -24.220 -16.833 -14.577  1.00  0.00     0.238 A 
ATOM      4  O   UNL     1     -25.150 -16.341 -15.266  1.00  0.00    -0.285 OA
ATOM      5  C   UNL     1     -23.079 -16.072 -14.225  1.00  0.00     0.111 A 
ATOM      6  C   UNL     1     -22.904 -14.688 -14.529  1.00  0.00     0.134 A 
ATOM      7  C   UNL     1     -21.680 -14.069 -14.247  1.00  0.00     0.093 A 
ATOM      8  C   UNL     1     -20.648 -14.767 -13.614  1.00  0.00     0.123 A 
ATOM      9  C   UNL     1     -20.832 -16.101 -13.260  1.00  0.00     0.094 A 
ATOM     10  C   UNL     1     -22.029 -16.756 -13.561  1.00  0.00     0.146 A 
ATOM     11  O   UNL     1     -22.159 -18.032 -13.216  1.00  0.00    -0.452 OA
ENDROOT
BRANCH   1  12
ATOM     12  C   UNL     1     -23.272 -20.160 -13.011  1.00  0.00     0.025 A 
ATOM     13  C   UNL     1     -22.093 -20.922 -13.042  1.00  0.00     0.016 A 
ATOM     14  C   UNL     1     -22.094 -22.245 -12.591  1.00  0.00     0.051 A 
ATOM     15  C   UNL     1     -23.264 -22.821 -12.088  1.00  0.00     0.157 A 
ATOM     16  C   UNL     1     -24.443 -20.734 -12.485  1.00  0.00     0.062 A 
ATOM     17  C   UNL     1     -24.445 -22.061 -12.030  1.00  0.00     0.158 A 
BRANCH  15  18
ATOM     18  O   UNL     1     -23.235 -24.143 -11.648  1.00  0.00    -0.504 OA
ATOM     19  H   UNL     1     -23.240 -24.383 -10.664  1.00  0.00     0.293 HD
ENDBRANCH  15  18
BRANCH  17  20
ATOM     20  O   UNL     1     -25.613 -22.624 -11.517  1.00  0.00    -0.504 OA
ATOM     21  H   UNL     1     -26.527 -22.351 -11.856  1.00  0.00     0.293 HD
ENDBRANCH  17  20
ENDBRANCH   1  12
BRANCH   2  22
ATOM     22  O   UNL     1     -25.413 -18.956 -14.547  1.00  0.00    -0.502 OA
ATOM     23  H   UNL     1     -25.681 -19.788 -14.035  1.00  0.00     0.293 HD
ENDBRANCH   2  22
BRANCH   6  24
ATOM     24  O   UNL     1     -23.901 -13.876 -15.076  1.00  0.00    -0.507 OA
ATOM     25  H   UNL     1     -24.733 -13.580 -14.589  1.00  0.00     0.293 HD
ENDBRANCH   6  24
BRANCH   8  26
ATOM     26  O   UNL     1     -19.439 -14.140 -13.323  1.00  0.00    -0.508 OA
ATOM     27  H   UNL     1     -19.031 -14.177 -12.396  1.00  0.00     0.293 HD
ENDBRANCH   8  26
TORSDOF 6
ENDMDL
MODEL 3
REMARK VINA RESULT:    -1.117      1.467      6.925
REMARK INTER + INTRA:          -1.649
REMARK INTER:                  -1.398
REMARK INTRA:                  -0.251
REMARK UNBOUND:                -0.304
REMARK SMILES O=c1c(O)c(-c2ccc(O)c(O)c2)oc2cc(O)cc(O)c12
REMARK SMILES IDX 5 1 3 2 2 3 1 4 22 5 20 6 19 7 17 8 16 9 15 10 14 11 6 12
REMARK SMILES IDX 7 13 8 14 9 15 13 16 11 17 10 18 12 20 4 22 21 24 18 26
REMARK H PARENT 10 19 12 21 4 23 21 25 18 27
REMARK Flexibility Score: inf
ROOT
ATOM      1  C   UNL     1     -23.655 -19.121 -13.070  1.00  0.00     0.180 A 
ATOM      2  C   UNL     1     -24.140 -19.406 -11.782  1.00  0.00     0.208 A 
ATOM      3  C   UNL     1     -24.832 -20.609 -11.566  1.00  0.00     0.238 A 
ATOM      4  O   UNL     1     -25.216 -20.883 -10.400  1.00  0.00    -0.285 OA
ATOM      5  C   UNL     1     -25.046 -21.501 -12.643  1.00  0.00     0.111 A 
ATOM      6  C   UNL     1     -25.769 -22.728 -12.548  1.00  0.00     0.134 A 
ATOM      7  C   UNL     1     -25.807 -23.595 -13.646  1.00  0.00     0.093 A 
ATOM      8  C   UNL     1     -25.202 -23.250 -14.858  1.00  0.00     0.123 A 
ATOM      9  C   UNL     1     -24.545 -22.029 -14.978  1.00  0.00     0.094 A 
ATOM     10  C   UNL     1     -24.459 -21.159 -13.889  1.00  0.00     0.146 A 
ATOM     11  O   UNL     1     -23.814 -20.008 -14.045  1.00  0.00    -0.452 OA
ENDROOT
BRANCH   1  12
ATOM     12  C   UNL     1     -22.937 -17.863 -13.381  1.00  0.00     0.025 A 
ATOM     13  C   UNL     1     -21.603 -17.710 -12.970  1.00  0.00     0.016 A 
ATOM     14  C   UNL     1     -20.901 -16.540 -13.272  1.00  0.00     0.051 A 
ATOM     15  C   UNL     1     -21.512 -15.515 -13.999  1.00  0.00     0.157 A 
ATOM     16  C   UNL     1     -23.543 -16.840 -14.131  1.00  0.00     0.062 A 
ATOM     17  C   UNL     1     -22.839 -15.666 -14.436  1.00  0.00     0.158 A 
BRANCH  15  18
ATOM     18  O   UNL     1     -20.787 -14.358 -14.282  1.00  0.00    -0.504 OA
ATOM     19  H   UNL     1     -21.222 -13.444 -14.313  1.00  0.00     0.293 HD
ENDBRANCH  15  18
BRANCH  17  20
ATOM     20  O   UNL     1     -23.451 -14.653 -15.174  1.00  0.00    -0.504 OA
ATOM     21  H   UNL     1     -24.118 -14.018 -14.753  1.00  0.00     0.293 HD
ENDBRANCH  17  20
ENDBRANCH   1  12
BRANCH   2  22
ATOM     22  O   UNL     1     -23.898 -18.520 -10.728  1.00  0.00    -0.502 OA
ATOM     23  H   UNL     1     -24.372 -18.595  -9.836  1.00  0.00     0.293 HD
ENDBRANCH   2  22
BRANCH   6  24
ATOM     24  O   UNL     1     -26.486 -23.125 -11.415  1.00  0.00    -0.507 OA
ATOM     25  H   UNL     1     -26.333 -22.770 -10.484  1.00  0.00     0.293 HD
ENDBRANCH   6  24
BRANCH   8  26
ATOM     26  O   UNL     1     -25.257 -24.112 -15.951  1.00  0.00    -0.508 OA
ATOM     27  H   UNL     1     -24.862 -25.045 -15.911  1.00  0.00     0.293 HD
ENDBRANCH   8  26
TORSDOF 6
ENDMDL
