MODEL 1
REMARK VINA RESULT:    -3.683      0.000      0.000
REMARK INTER + INTRA:         -14.848
REMARK INTER:                  -9.281
REMARK INTRA:                  -5.567
REMARK UNBOUND:                -5.567
REMARK SMILES CCCCCCCCCCCCCCCCCCCCCCCCCCCC(=O)[O-]
REMARK SMILES IDX 15 1 16 2 17 3 18 4 19 5 20 6 21 7 22 8 23 9 24 10 25 11
REMARK SMILES IDX 26 12 27 13 28 14 29 15 30 16 14 17 13 18 12 19 11 20 10 21
REMARK SMILES IDX 9 22 8 23 7 24 6 25 5 26 4 27 3 28 2 29 1 30
REMARK H PARENT
REMARK Flexibility Score: inf
ROOT
ATOM      1  C   UNL     1     -10.856   7.032 -23.157  1.00  0.00     0.000 C 
ENDROOT
BRANCH   1   2
ATOM      2  C   UNL     1      -9.795   8.012 -22.629  1.00  0.00     0.000 C 
BRANCH   2   3
ATOM      3  C   UNL     1     -10.102   9.470 -23.015  1.00  0.00     0.000 C 
BRANCH   3   4
ATOM      4  C   UNL     1      -9.555  10.486 -21.997  1.00  0.00     0.000 C 
BRANCH   4   5
ATOM      5  C   UNL     1      -8.410  11.379 -22.513  1.00  0.00     0.000 C 
BRANCH   5   6
ATOM      6  C   UNL     1      -7.238  10.627 -23.175  1.00  0.00     0.000 C 
BRANCH   6   7
ATOM      7  C   UNL     1      -6.014  10.405 -22.266  1.00  0.00     0.000 C 
BRANCH   7   8
ATOM      8  C   UNL     1      -6.155   9.239 -21.269  1.00  0.00     0.000 C 
BRANCH   8   9
ATOM      9  C   UNL     1      -6.554   9.687 -19.845  1.00  0.00     0.000 C 
BRANCH   9  10
ATOM     10  C   UNL     1      -5.962   8.774 -18.758  1.00  0.00     0.000 C 
BRANCH  10  11
ATOM     11  C   UNL     1      -6.170   9.334 -17.342  1.00  0.00     0.000 C 
BRANCH  11  12
ATOM     12  C   UNL     1      -6.472  10.843 -17.349  1.00  0.00     0.006 C 
BRANCH  12  13
ATOM     13  C   UNL     1      -7.775  11.174 -16.610  1.00  0.00     0.053 C 
BRANCH  13  14
ATOM     14  C   UNL     1      -7.745  10.686 -15.194  1.00  0.00     0.041 C 
ATOM     15  O   UNL     1      -8.679   9.972 -14.748  1.00  0.00    -0.550 OA
ATOM     16  O   UNL     1      -6.696  11.049 -14.358  1.00  0.00    -0.550 OA
ENDBRANCH  13  14
ENDBRANCH  12  13
ENDBRANCH  11  12
ENDBRANCH  10  11
ENDBRANCH   9  10
ENDBRANCH   8   9
ENDBRANCH   7   8
ENDBRANCH   6   7
ENDBRANCH   5   6
ENDBRANCH   4   5
ENDBRANCH   3   4
ENDBRANCH   2   3
ENDBRANCH   1   2
BRANCH   1  17
ATOM     17  C   UNL     1     -11.090   5.855 -22.192  1.00  0.00     0.000 C 
BRANCH  17  18
ATOM     18  C   UNL     1     -12.150   6.165 -21.124  1.00  0.00     0.000 C 
BRANCH  18  19
ATOM     19  C   UNL     1     -13.089   7.314 -21.529  1.00  0.00     0.000 C 
BRANCH  19  20
ATOM     20  C   UNL     1     -12.951   8.554 -20.616  1.00  0.00     0.000 C 
BRANCH  20  21
ATOM     21  C   UNL     1     -12.215   8.275 -19.293  1.00  0.00     0.000 C 
BRANCH  21  22
ATOM     22  C   UNL     1     -11.144   9.316 -18.921  1.00  0.00    -0.000 C 
BRANCH  22  23
ATOM     23  C   UNL     1      -9.794   8.693 -18.498  1.00  0.00    -0.000 C 
BRANCH  23  24
ATOM     24  C   UNL     1      -9.798   7.159 -18.592  1.00  0.00    -0.000 C 
BRANCH  24  25
ATOM     25  C   UNL     1      -8.661   6.611 -19.471  1.00  0.00    -0.000 C 
BRANCH  25  26
ATOM     26  C   UNL     1      -8.460   5.095 -19.298  1.00  0.00    -0.000 C 
BRANCH  26  27
ATOM     27  C   UNL     1      -7.340   4.545 -20.197  1.00  0.00    -0.000 C 
BRANCH  27  28
ATOM     28  C   UNL     1      -7.530   4.921 -21.677  1.00  0.00    -0.000 C 
BRANCH  28  29
ATOM     29  C   UNL     1      -6.357   5.746 -22.228  1.00  0.00    -0.003 C 
ATOM     30  C   UNL     1      -6.619   6.272 -23.639  1.00  0.00     0.004 C 
ENDBRANCH  28  29
ENDBRANCH  27  28
ENDBRANCH  26  27
ENDBRANCH  25  26
ENDBRANCH  24  25
ENDBRANCH  23  24
ENDBRANCH  22  23
ENDBRANCH  21  22
ENDBRANCH  20  21
ENDBRANCH  19  20
ENDBRANCH  18  19
ENDBRANCH  17  18
ENDBRANCH   1  17
TORSDOF 26
ENDMDL
MODEL 2
REMARK VINA RESULT:    -3.671      2.438      6.110
REMARK INTER + INTRA:         -14.817
REMARK INTER:                  -9.317
REMARK INTRA:                  -5.500
REMARK UNBOUND:                -5.567
REMARK SMILES CCCCCCCCCCCCCCCCCCCCCCCCCCCC(=O)[O-]
REMARK SMILES IDX 15 1 16 2 17 3 18 4 19 5 20 6 21 7 22 8 23 9 24 10 25 11
REMARK SMILES IDX 26 12 27 13 28 14 29 15 30 16 14 17 13 18 12 19 11 20 10 21
REMARK SMILES IDX 9 22 8 23 7 24 6 25 5 26 4 27 3 28 2 29 1 30
REMARK H PARENT
REMARK Flexibility Score: inf
ROOT
ATOM      1  C   UNL     1      -6.467   8.363 -19.564  1.00  0.00     0.000 C 
ENDROOT
BRANCH   1   2
ATOM      2  C   UNL     1      -5.216   8.899 -18.847  1.00  0.00     0.000 C 
BRANCH   2   3
ATOM      3  C   UNL     1      -5.237   8.602 -17.337  1.00  0.00     0.000 C 
BRANCH   3   4
ATOM      4  C   UNL     1      -4.879   9.830 -16.482  1.00  0.00     0.000 C 
BRANCH   4   5
ATOM      5  C   UNL     1      -5.989  10.893 -16.366  1.00  0.00     0.000 C 
BRANCH   5   6
ATOM      6  C   UNL     1      -6.992  10.673 -15.216  1.00  0.00     0.000 C 
BRANCH   6   7
ATOM      7  C   UNL     1      -8.474  10.686 -15.636  1.00  0.00     0.000 C 
BRANCH   7   8
ATOM      8  C   UNL     1      -8.849   9.648 -16.711  1.00  0.00     0.000 C 
BRANCH   8   9
ATOM      9  C   UNL     1      -9.247  10.276 -18.066  1.00  0.00     0.000 C 
BRANCH   9  10
ATOM     10  C   UNL     1     -10.618   9.782 -18.558  1.00  0.00     0.000 C 
BRANCH  10  11
ATOM     11  C   UNL     1     -10.697   9.698 -20.090  1.00  0.00     0.000 C 
BRANCH  11  12
ATOM     12  C   UNL     1      -9.405  10.184 -20.770  1.00  0.00     0.006 C 
BRANCH  12  13
ATOM     13  C   UNL     1      -9.689  10.934 -22.077  1.00  0.00     0.053 C 
BRANCH  13  14
ATOM     14  C   UNL     1      -9.601  12.418 -21.893  1.00  0.00     0.041 C 
ATOM     15  O   UNL     1      -8.499  13.010 -22.023  1.00  0.00    -0.550 OA
ATOM     16  O   UNL     1     -10.735  13.141 -21.548  1.00  0.00    -0.550 OA
ENDBRANCH  13  14
ENDBRANCH  12  13
ENDBRANCH  11  12
ENDBRANCH  10  11
ENDBRANCH   9  10
ENDBRANCH   8   9
ENDBRANCH   7   8
ENDBRANCH   6   7
ENDBRANCH   5   6
ENDBRANCH   4   5
ENDBRANCH   3   4
ENDBRANCH   2   3
ENDBRANCH   1   2
BRANCH   1  17
ATOM     17  C   UNL     1      -7.060   7.131 -18.856  1.00  0.00     0.000 C 
BRANCH  17  18
ATOM     18  C   UNL     1      -8.516   6.855 -19.265  1.00  0.00     0.000 C 
BRANCH  18  19
ATOM     19  C   UNL     1      -8.754   5.393 -19.678  1.00  0.00     0.000 C 
BRANCH  19  20
ATOM     20  C   UNL     1      -7.440   4.612 -19.911  1.00  0.00     0.000 C 
BRANCH  20  21
ATOM     21  C   UNL     1      -7.303   4.033 -21.331  1.00  0.00     0.000 C 
BRANCH  21  22
ATOM     22  C   UNL     1      -6.040   4.480 -22.088  1.00  0.00    -0.000 C 
BRANCH  22  23
ATOM     23  C   UNL     1      -6.324   5.479 -23.232  1.00  0.00    -0.000 C 
BRANCH  23  24
ATOM     24  C   UNL     1      -6.297   6.941 -22.759  1.00  0.00    -0.000 C 
BRANCH  24  25
ATOM     25  C   UNL     1      -7.634   7.667 -22.984  1.00  0.00    -0.000 C 
BRANCH  25  26
ATOM     26  C   UNL     1      -8.786   6.696 -23.299  1.00  0.00    -0.000 C 
BRANCH  26  27
ATOM     27  C   UNL     1     -10.162   7.277 -22.933  1.00  0.00    -0.000 C 
BRANCH  27  28
ATOM     28  C   UNL     1     -11.199   6.187 -22.613  1.00  0.00    -0.000 C 
BRANCH  28  29
ATOM     29  C   UNL     1     -12.054   6.533 -21.383  1.00  0.00    -0.003 C 
ATOM     30  C   UNL     1     -13.231   7.447 -21.723  1.00  0.00     0.004 C 
ENDBRANCH  28  29
ENDBRANCH  27  28
ENDBRANCH  26  27
ENDBRANCH  25  26
ENDBRANCH  24  25
ENDBRANCH  23  24
ENDBRANCH  22  23
ENDBRANCH  21  22
ENDBRANCH  20  21
ENDBRANCH  19  20
ENDBRANCH  18  19
ENDBRANCH  17  18
ENDBRANCH   1  17
TORSDOF 26
ENDMDL
MODEL 3
REMARK VINA RESULT:    -3.661      2.245      5.855
REMARK INTER + INTRA:         -14.791
REMARK INTER:                  -9.215
REMARK INTRA:                  -5.576
REMARK UNBOUND:                -5.567
REMARK SMILES CCCCCCCCCCCCCCCCCCCCCCCCCCCC(=O)[O-]
REMARK SMILES IDX 15 1 16 2 17 3 18 4 19 5 20 6 21 7 22 8 23 9 24 10 25 11
REMARK SMILES IDX 26 12 27 13 28 14 29 15 30 16 14 17 13 18 12 19 11 20 10 21
REMARK SMILES IDX 9 22 8 23 7 24 6 25 5 26 4 27 3 28 2 29 1 30
REMARK H PARENT
REMARK Flexibility Score: inf
ROOT
ATOM      1  C   UNL     1     -12.761   6.982 -21.499  1.00  0.00     0.000 C 
ENDROOT
BRANCH   1   2
ATOM      2  C   UNL     1     -12.029   5.768 -20.901  1.00  0.00     0.000 C 
BRANCH   2   3
ATOM      3  C   UNL     1     -11.372   4.892 -21.982  1.00  0.00     0.000 C 
BRANCH   3   4
ATOM      4  C   UNL     1      -9.980   4.381 -21.572  1.00  0.00     0.000 C 
BRANCH   4   5
ATOM      5  C   UNL     1      -9.339   5.114 -20.378  1.00  0.00     0.000 C 
BRANCH   5   6
ATOM      6  C   UNL     1      -7.802   5.018 -20.297  1.00  0.00     0.000 C 
BRANCH   6   7
ATOM      7  C   UNL     1      -7.065   5.280 -21.624  1.00  0.00     0.000 C 
BRANCH   7   8
ATOM      8  C   UNL     1      -6.352   6.643 -21.708  1.00  0.00     0.000 C 
BRANCH   8   9
ATOM      9  C   UNL     1      -7.031   7.639 -22.675  1.00  0.00     0.000 C 
BRANCH   9  10
ATOM     10  C   UNL     1      -8.100   6.965 -23.552  1.00  0.00     0.000 C 
BRANCH  10  11
ATOM     11  C   UNL     1      -9.475   7.639 -23.425  1.00  0.00     0.000 C 
BRANCH  11  12
ATOM     12  C   UNL     1      -9.554   8.582 -22.212  1.00  0.00     0.006 C 
BRANCH  12  13
ATOM     13  C   UNL     1     -10.187   9.932 -22.571  1.00  0.00     0.053 C 
BRANCH  13  14
ATOM     14  C   UNL     1      -9.707  11.025 -21.666  1.00  0.00     0.041 C 
ATOM     15  O   UNL     1      -8.492  11.103 -21.353  1.00  0.00    -0.550 OA
ATOM     16  O   UNL     1     -10.613  11.940 -21.145  1.00  0.00    -0.550 OA
ENDBRANCH  13  14
ENDBRANCH  12  13
ENDBRANCH  11  12
ENDBRANCH  10  11
ENDBRANCH   9  10
ENDBRANCH   8   9
ENDBRANCH   7   8
ENDBRANCH   6   7
ENDBRANCH   5   6
ENDBRANCH   4   5
ENDBRANCH   3   4
ENDBRANCH   2   3
ENDBRANCH   1   2
BRANCH   1  17
ATOM     17  C   UNL     1     -12.844   8.157 -20.507  1.00  0.00     0.000 C 
BRANCH  17  18
ATOM     18  C   UNL     1     -11.806   8.055 -19.378  1.00  0.00     0.000 C 
BRANCH  18  19
ATOM     19  C   UNL     1     -11.371   9.429 -18.841  1.00  0.00     0.000 C 
BRANCH  19  20
ATOM     20  C   UNL     1     -10.041   9.375 -18.056  1.00  0.00     0.000 C 
BRANCH  20  21
ATOM     21  C   UNL     1      -9.094   8.250 -18.512  1.00  0.00     0.000 C 
BRANCH  21  22
ATOM     22  C   UNL     1      -7.659   8.708 -18.831  1.00  0.00    -0.000 C 
BRANCH  22  23
ATOM     23  C   UNL     1      -6.571   7.734 -18.327  1.00  0.00    -0.000 C 
BRANCH  23  24
ATOM     24  C   UNL     1      -5.316   8.463 -17.818  1.00  0.00    -0.000 C 
BRANCH  24  25
ATOM     25  C   UNL     1      -5.197   9.896 -18.360  1.00  0.00    -0.000 C 
BRANCH  25  26
ATOM     26  C   UNL     1      -4.347  10.803 -17.450  1.00  0.00    -0.000 C 
BRANCH  26  27
ATOM     27  C   UNL     1      -4.512  10.461 -15.960  1.00  0.00    -0.000 C 
BRANCH  27  28
ATOM     28  C   UNL     1      -5.483  11.412 -15.239  1.00  0.00    -0.000 C 
BRANCH  28  29
ATOM     29  C   UNL     1      -6.763  10.702 -14.771  1.00  0.00    -0.003 C 
ATOM     30  C   UNL     1      -7.981  11.064 -15.621  1.00  0.00     0.004 C 
ENDBRANCH  28  29
ENDBRANCH  27  28
ENDBRANCH  26  27
ENDBRANCH  25  26
ENDBRANCH  24  25
ENDBRANCH  23  24
ENDBRANCH  22  23
ENDBRANCH  21  22
ENDBRANCH  20  21
ENDBRANCH  19  20
ENDBRANCH  18  19
ENDBRANCH  17  18
ENDBRANCH   1  17
TORSDOF 26
ENDMDL
MODEL 4
REMARK VINA RESULT:    -3.655      1.649      3.990
REMARK INTER + INTRA:         -14.777
REMARK INTER:                  -9.500
REMARK INTRA:                  -5.277
REMARK UNBOUND:                -5.567
REMARK SMILES CCCCCCCCCCCCCCCCCCCCCCCCCCCC(=O)[O-]
REMARK SMILES IDX 15 1 16 2 17 3 18 4 19 5 20 6 21 7 22 8 23 9 24 10 25 11
REMARK SMILES IDX 26 12 27 13 28 14 29 15 30 16 14 17 13 18 12 19 11 20 10 21
REMARK SMILES IDX 9 22 8 23 7 24 6 25 5 26 4 27 3 28 2 29 1 30
REMARK H PARENT
REMARK Flexibility Score: inf
ROOT
ATOM      1  C   UNL     1     -12.916   8.147 -20.139  1.00  0.00     0.000 C 
ENDROOT
BRANCH   1   2
ATOM      2  C   UNL     1     -11.854   9.259 -20.104  1.00  0.00     0.000 C 
BRANCH   2   3
ATOM      3  C   UNL     1     -11.113   9.317 -18.756  1.00  0.00     0.000 C 
BRANCH   3   4
ATOM      4  C   UNL     1     -10.208   8.096 -18.519  1.00  0.00     0.000 C 
BRANCH   4   5
ATOM      5  C   UNL     1      -9.025   8.333 -17.560  1.00  0.00     0.000 C 
BRANCH   5   6
ATOM      6  C   UNL     1      -8.699   9.812 -17.273  1.00  0.00     0.000 C 
BRANCH   6   7
ATOM      7  C   UNL     1      -7.305  10.272 -17.741  1.00  0.00     0.000 C 
BRANCH   7   8
ATOM      8  C   UNL     1      -6.281   9.136 -17.928  1.00  0.00     0.000 C 
BRANCH   8   9
ATOM      9  C   UNL     1      -5.005   9.571 -18.683  1.00  0.00     0.000 C 
BRANCH   9  10
ATOM     10  C   UNL     1      -3.957  10.198 -17.748  1.00  0.00     0.000 C 
BRANCH  10  11
ATOM     11  C   UNL     1      -3.407   9.193 -16.724  1.00  0.00     0.000 C 
BRANCH  11  12
ATOM     12  C   UNL     1      -4.036   9.374 -15.332  1.00  0.00     0.006 C 
BRANCH  12  13
ATOM     13  C   UNL     1      -4.023  10.840 -14.880  1.00  0.00     0.053 C 
BRANCH  13  14
ATOM     14  C   UNL     1      -5.410  11.399 -14.780  1.00  0.00     0.041 C 
ATOM     15  O   UNL     1      -5.699  12.486 -15.343  1.00  0.00    -0.550 OA
ATOM     16  O   UNL     1      -6.374  10.730 -14.038  1.00  0.00    -0.550 OA
ENDBRANCH  13  14
ENDBRANCH  12  13
ENDBRANCH  11  12
ENDBRANCH  10  11
ENDBRANCH   9  10
ENDBRANCH   8   9
ENDBRANCH   7   8
ENDBRANCH   6   7
ENDBRANCH   5   6
ENDBRANCH   4   5
ENDBRANCH   3   4
ENDBRANCH   2   3
ENDBRANCH   1   2
BRANCH   1  17
ATOM     17  C   UNL     1     -13.024   7.491 -21.528  1.00  0.00     0.000 C 
BRANCH  17  18
ATOM     18  C   UNL     1     -11.768   7.706 -22.386  1.00  0.00     0.000 C 
BRANCH  18  19
ATOM     19  C   UNL     1     -10.926   6.429 -22.544  1.00  0.00     0.000 C 
BRANCH  19  20
ATOM     20  C   UNL     1     -11.490   5.234 -21.741  1.00  0.00     0.000 C 
BRANCH  20  21
ATOM     21  C   UNL     1     -10.630   4.839 -20.525  1.00  0.00     0.000 C 
BRANCH  21  22
ATOM     22  C   UNL     1      -9.120   4.748 -20.809  1.00  0.00    -0.000 C 
BRANCH  22  23
ATOM     23  C   UNL     1      -8.238   5.117 -19.595  1.00  0.00    -0.000 C 
BRANCH  23  24
ATOM     24  C   UNL     1      -7.234   6.237 -19.914  1.00  0.00    -0.000 C 
BRANCH  24  25
ATOM     25  C   UNL     1      -6.931   6.358 -21.416  1.00  0.00    -0.000 C 
BRANCH  25  26
ATOM     26  C   UNL     1      -6.904   7.820 -21.897  1.00  0.00    -0.000 C 
BRANCH  26  27
ATOM     27  C   UNL     1      -8.089   8.638 -21.359  1.00  0.00    -0.000 C 
BRANCH  27  28
ATOM     28  C   UNL     1      -7.770  10.139 -21.246  1.00  0.00    -0.000 C 
BRANCH  28  29
ATOM     29  C   UNL     1      -9.021  11.019 -21.401  1.00  0.00    -0.003 C 
ATOM     30  C   UNL     1      -9.733  10.799 -22.736  1.00  0.00     0.004 C 
ENDBRANCH  28  29
ENDBRANCH  27  28
ENDBRANCH  26  27
ENDBRANCH  25  26
ENDBRANCH  24  25
ENDBRANCH  23  24
ENDBRANCH  22  23
ENDBRANCH  21  22
ENDBRANCH  20  21
ENDBRANCH  19  20
ENDBRANCH  18  19
ENDBRANCH  17  18
ENDBRANCH   1  17
TORSDOF 26
ENDMDL
MODEL 5
REMARK VINA RESULT:    -3.587      1.889      4.621
REMARK INTER + INTRA:         -14.605
REMARK INTER:                  -9.214
REMARK INTRA:                  -5.391
REMARK UNBOUND:                -5.567
REMARK SMILES CCCCCCCCCCCCCCCCCCCCCCCCCCCC(=O)[O-]
REMARK SMILES IDX 15 1 16 2 17 3 18 4 19 5 20 6 21 7 22 8 23 9 24 10 25 11
REMARK SMILES IDX 26 12 27 13 28 14 29 15 30 16 14 17 13 18 12 19 11 20 10 21
REMARK SMILES IDX 9 22 8 23 7 24 6 25 5 26 4 27 3 28 2 29 1 30
REMARK H PARENT
REMARK Flexibility Score: inf
ROOT
ATOM      1  C   UNL     1      -5.850   9.226 -22.692  1.00  0.00     0.000 C 
ENDROOT
BRANCH   1   2
ATOM      2  C   UNL     1      -4.719  10.134 -22.178  1.00  0.00     0.000 C 
BRANCH   2   3
ATOM      3  C   UNL     1      -3.619   9.341 -21.450  1.00  0.00     0.000 C 
BRANCH   3   4
ATOM      4  C   UNL     1      -2.846  10.194 -20.428  1.00  0.00     0.000 C 
BRANCH   4   5
ATOM      5  C   UNL     1      -3.597  10.483 -19.114  1.00  0.00     0.000 C 
BRANCH   5   6
ATOM      6  C   UNL     1      -4.126   9.239 -18.373  1.00  0.00     0.000 C 
BRANCH   6   7
ATOM      7  C   UNL     1      -5.661   9.123 -18.315  1.00  0.00     0.000 C 
BRANCH   7   8
ATOM      8  C   UNL     1      -6.422  10.316 -18.925  1.00  0.00     0.000 C 
BRANCH   8   9
ATOM      9  C   UNL     1      -7.613  10.795 -18.065  1.00  0.00     0.000 C 
BRANCH   9  10
ATOM     10  C   UNL     1      -7.635  10.134 -16.676  1.00  0.00     0.000 C 
BRANCH  10  11
ATOM     11  C   UNL     1      -7.445  11.150 -15.538  1.00  0.00     0.000 C 
BRANCH  11  12
ATOM     12  C   UNL     1      -6.343  10.725 -14.553  1.00  0.00     0.006 C 
BRANCH  12  13
ATOM     13  C   UNL     1      -4.939  11.026 -15.093  1.00  0.00     0.053 C 
BRANCH  13  14
ATOM     14  C   UNL     1      -3.953   9.974 -14.685  1.00  0.00     0.041 C 
ATOM     15  O   UNL     1      -4.130   8.774 -15.018  1.00  0.00    -0.550 OA
ATOM     16  O   UNL     1      -2.854  10.319 -13.911  1.00  0.00    -0.550 OA
ENDBRANCH  13  14
ENDBRANCH  12  13
ENDBRANCH  11  12
ENDBRANCH  10  11
ENDBRANCH   9  10
ENDBRANCH   8   9
ENDBRANCH   7   8
ENDBRANCH   6   7
ENDBRANCH   5   6
ENDBRANCH   4   5
ENDBRANCH   3   4
ENDBRANCH   2   3
ENDBRANCH   1   2
BRANCH   1  17
ATOM     17  C   UNL     1      -5.867   7.860 -21.982  1.00  0.00     0.000 C 
BRANCH  17  18
ATOM     18  C   UNL     1      -7.199   7.579 -21.268  1.00  0.00     0.000 C 
BRANCH  18  19
ATOM     19  C   UNL     1      -7.198   6.243 -20.507  1.00  0.00     0.000 C 
BRANCH  19  20
ATOM     20  C   UNL     1      -8.419   6.083 -19.571  1.00  0.00     0.000 C 
BRANCH  20  21
ATOM     21  C   UNL     1      -8.805   7.374 -18.825  1.00  0.00     0.000 C 
BRANCH  21  22
ATOM     22  C   UNL     1     -10.313   7.535 -18.561  1.00  0.00    -0.000 C 
BRANCH  22  23
ATOM     23  C   UNL     1     -10.832   8.973 -18.790  1.00  0.00    -0.000 C 
BRANCH  23  24
ATOM     24  C   UNL     1     -12.217   9.000 -19.457  1.00  0.00    -0.000 C 
BRANCH  24  25
ATOM     25  C   UNL     1     -12.622   7.641 -20.051  1.00  0.00    -0.000 C 
BRANCH  25  26
ATOM     26  C   UNL     1     -12.984   7.733 -21.544  1.00  0.00    -0.000 C 
BRANCH  26  27
ATOM     27  C   UNL     1     -12.049   6.892 -22.429  1.00  0.00    -0.000 C 
BRANCH  27  28
ATOM     28  C   UNL     1     -10.593   7.388 -22.389  1.00  0.00    -0.000 C 
BRANCH  28  29
ATOM     29  C   UNL     1     -10.397   8.698 -23.168  1.00  0.00    -0.003 C 
ATOM     30  C   UNL     1      -9.910   9.843 -22.280  1.00  0.00     0.004 C 
ENDBRANCH  28  29
ENDBRANCH  27  28
ENDBRANCH  26  27
ENDBRANCH  25  26
ENDBRANCH  24  25
ENDBRANCH  23  24
ENDBRANCH  22  23
ENDBRANCH  21  22
ENDBRANCH  20  21
ENDBRANCH  19  20
ENDBRANCH  18  19
ENDBRANCH  17  18
ENDBRANCH   1  17
TORSDOF 26
ENDMDL
MODEL 6
REMARK VINA RESULT:    -3.586      1.729      4.068
REMARK INTER + INTRA:         -14.604
REMARK INTER:                  -9.619
REMARK INTRA:                  -4.984
REMARK UNBOUND:                -5.567
REMARK SMILES CCCCCCCCCCCCCCCCCCCCCCCCCCCC(=O)[O-]
REMARK SMILES IDX 15 1 16 2 17 3 18 4 19 5 20 6 21 7 22 8 23 9 24 10 25 11
REMARK SMILES IDX 26 12 27 13 28 14 29 15 30 16 14 17 13 18 12 19 11 20 10 21
REMARK SMILES IDX 9 22 8 23 7 24 6 25 5 26 4 27 3 28 2 29 1 30
REMARK H PARENT
REMARK Flexibility Score: inf
ROOT
ATOM      1  C   UNL     1     -12.745   7.785 -20.343  1.00  0.00     0.000 C 
ENDROOT
BRANCH   1   2
ATOM      2  C   UNL     1     -11.598   6.967 -19.726  1.00  0.00     0.000 C 
BRANCH   2   3
ATOM      3  C   UNL     1     -10.915   7.706 -18.561  1.00  0.00     0.000 C 
BRANCH   3   4
ATOM      4  C   UNL     1     -10.925   9.234 -18.736  1.00  0.00     0.000 C 
BRANCH   4   5
ATOM      5  C   UNL     1      -9.633   9.953 -18.299  1.00  0.00     0.000 C 
BRANCH   5   6
ATOM      6  C   UNL     1      -9.071   9.519 -16.931  1.00  0.00     0.000 C 
BRANCH   6   7
ATOM      7  C   UNL     1      -7.867  10.342 -16.434  1.00  0.00     0.000 C 
BRANCH   7   8
ATOM      8  C   UNL     1      -6.707  10.460 -17.441  1.00  0.00     0.000 C 
BRANCH   8   9
ATOM      9  C   UNL     1      -5.933   9.139 -17.651  1.00  0.00     0.000 C 
BRANCH   9  10
ATOM     10  C   UNL     1      -4.622   9.347 -18.429  1.00  0.00     0.000 C 
BRANCH  10  11
ATOM     11  C   UNL     1      -3.379   9.051 -17.575  1.00  0.00     0.000 C 
BRANCH  11  12
ATOM     12  C   UNL     1      -3.066  10.187 -16.585  1.00  0.00     0.006 C 
BRANCH  12  13
ATOM     13  C   UNL     1      -3.157   9.721 -15.127  1.00  0.00     0.053 C 
BRANCH  13  14
ATOM     14  C   UNL     1      -4.370  10.275 -14.445  1.00  0.00     0.041 C 
ATOM     15  O   UNL     1      -5.119   9.523 -13.769  1.00  0.00    -0.550 OA
ATOM     16  O   UNL     1      -4.688  11.620 -14.583  1.00  0.00    -0.550 OA
ENDBRANCH  13  14
ENDBRANCH  12  13
ENDBRANCH  11  12
ENDBRANCH  10  11
ENDBRANCH   9  10
ENDBRANCH   8   9
ENDBRANCH   7   8
ENDBRANCH   6   7
ENDBRANCH   5   6
ENDBRANCH   4   5
ENDBRANCH   3   4
ENDBRANCH   2   3
ENDBRANCH   1   2
BRANCH   1  17
ATOM     17  C   UNL     1     -12.675   7.814 -21.881  1.00  0.00     0.000 C 
BRANCH  17  18
ATOM     18  C   UNL     1     -11.385   8.465 -22.404  1.00  0.00     0.000 C 
BRANCH  18  19
ATOM     19  C   UNL     1     -10.621   7.568 -23.392  1.00  0.00     0.000 C 
BRANCH  19  20
ATOM     20  C   UNL     1     -11.171   6.124 -23.442  1.00  0.00     0.000 C 
BRANCH  20  21
ATOM     21  C   UNL     1     -10.219   5.073 -22.840  1.00  0.00     0.000 C 
BRANCH  21  22
ATOM     22  C   UNL     1      -8.745   5.231 -23.254  1.00  0.00    -0.000 C 
BRANCH  22  23
ATOM     23  C   UNL     1      -7.840   4.073 -22.775  1.00  0.00    -0.000 C 
BRANCH  23  24
ATOM     24  C   UNL     1      -6.785   4.532 -21.755  1.00  0.00    -0.000 C 
BRANCH  24  25
ATOM     25  C   UNL     1      -7.177   4.208 -20.304  1.00  0.00    -0.000 C 
BRANCH  25  26
ATOM     26  C   UNL     1      -8.123   5.262 -19.699  1.00  0.00    -0.000 C 
BRANCH  26  27
ATOM     27  C   UNL     1      -7.476   6.654 -19.616  1.00  0.00    -0.000 C 
BRANCH  27  28
ATOM     28  C   UNL     1      -8.057   7.639 -20.646  1.00  0.00    -0.000 C 
BRANCH  28  29
ATOM     29  C   UNL     1      -7.000   8.617 -21.184  1.00  0.00    -0.003 C 
ATOM     30  C   UNL     1      -7.527  10.047 -21.297  1.00  0.00     0.004 C 
ENDBRANCH  28  29
ENDBRANCH  27  28
ENDBRANCH  26  27
ENDBRANCH  25  26
ENDBRANCH  24  25
ENDBRANCH  23  24
ENDBRANCH  22  23
ENDBRANCH  21  22
ENDBRANCH  20  21
ENDBRANCH  19  20
ENDBRANCH  18  19
ENDBRANCH  17  18
ENDBRANCH   1  17
TORSDOF 26
ENDMDL
MODEL 7
REMARK VINA RESULT:    -3.571      2.433      5.218
REMARK INTER + INTRA:         -14.565
REMARK INTER:                  -9.600
REMARK INTRA:                  -4.965
REMARK UNBOUND:                -5.567
REMARK SMILES CCCCCCCCCCCCCCCCCCCCCCCCCCCC(=O)[O-]
REMARK SMILES IDX 15 1 16 2 17 3 18 4 19 5 20 6 21 7 22 8 23 9 24 10 25 11
REMARK SMILES IDX 26 12 27 13 28 14 29 15 30 16 14 17 13 18 12 19 11 20 10 21
REMARK SMILES IDX 9 22 8 23 7 24 6 25 5 26 4 27 3 28 2 29 1 30
REMARK H PARENT
REMARK Flexibility Score: inf
ROOT
ATOM      1  C   UNL     1     -12.038   6.994 -19.256  1.00  0.00     0.000 C 
ENDROOT
BRANCH   1   2
ATOM      2  C   UNL     1     -12.350   6.229 -20.553  1.00  0.00     0.000 C 
BRANCH   2   3
ATOM      3  C   UNL     1     -12.675   7.173 -21.725  1.00  0.00     0.000 C 
BRANCH   3   4
ATOM      4  C   UNL     1     -11.602   7.147 -22.827  1.00  0.00     0.000 C 
BRANCH   4   5
ATOM      5  C   UNL     1     -10.578   8.297 -22.772  1.00  0.00     0.000 C 
BRANCH   5   6
ATOM      6  C   UNL     1      -9.296   7.996 -21.971  1.00  0.00     0.000 C 
BRANCH   6   7
ATOM      7  C   UNL     1      -8.872   6.515 -21.958  1.00  0.00     0.000 C 
BRANCH   7   8
ATOM      8  C   UNL     1      -8.636   5.924 -20.555  1.00  0.00     0.000 C 
BRANCH   8   9
ATOM      9  C   UNL     1      -7.157   5.963 -20.107  1.00  0.00     0.000 C 
BRANCH   9  10
ATOM     10  C   UNL     1      -6.862   7.143 -19.165  1.00  0.00     0.000 C 
BRANCH  10  11
ATOM     11  C   UNL     1      -6.062   8.260 -19.854  1.00  0.00     0.000 C 
BRANCH  11  12
ATOM     12  C   UNL     1      -6.751   9.630 -19.738  1.00  0.00     0.006 C 
BRANCH  12  13
ATOM     13  C   UNL     1      -6.369  10.566 -20.891  1.00  0.00     0.053 C 
BRANCH  13  14
ATOM     14  C   UNL     1      -7.508  11.460 -21.277  1.00  0.00     0.041 C 
ATOM     15  O   UNL     1      -7.320  12.430 -22.055  1.00  0.00    -0.550 OA
ATOM     16  O   UNL     1      -8.774  11.235 -20.751  1.00  0.00    -0.550 OA
ENDBRANCH  13  14
ENDBRANCH  12  13
ENDBRANCH  11  12
ENDBRANCH  10  11
ENDBRANCH   9  10
ENDBRANCH   8   9
ENDBRANCH   7   8
ENDBRANCH   6   7
ENDBRANCH   5   6
ENDBRANCH   4   5
ENDBRANCH   3   4
ENDBRANCH   2   3
ENDBRANCH   1   2
BRANCH   1  17
ATOM     17  C   UNL     1     -12.262   8.510 -19.407  1.00  0.00     0.000 C 
BRANCH  17  18
ATOM     18  C   UNL     1     -11.083   9.339 -18.873  1.00  0.00     0.000 C 
BRANCH  18  19
ATOM     19  C   UNL     1      -9.915   8.469 -18.381  1.00  0.00     0.000 C 
BRANCH  19  20
ATOM     20  C   UNL     1      -9.354   8.930 -17.016  1.00  0.00     0.000 C 
BRANCH  20  21
ATOM     21  C   UNL     1      -8.905  10.403 -16.992  1.00  0.00     0.000 C 
BRANCH  21  22
ATOM     22  C   UNL     1      -8.234  10.849 -15.680  1.00  0.00    -0.000 C 
BRANCH  22  23
ATOM     23  C   UNL     1      -7.105  11.885 -15.883  1.00  0.00    -0.000 C 
BRANCH  23  24
ATOM     24  C   UNL     1      -6.037  11.817 -14.779  1.00  0.00    -0.000 C 
BRANCH  24  25
ATOM     25  C   UNL     1      -5.754  10.380 -14.310  1.00  0.00    -0.000 C 
BRANCH  25  26
ATOM     26  C   UNL     1      -4.501   9.779 -14.972  1.00  0.00    -0.000 C 
BRANCH  26  27
ATOM     27  C   UNL     1      -4.715   9.469 -16.462  1.00  0.00    -0.000 C 
BRANCH  27  28
ATOM     28  C   UNL     1      -3.391   9.274 -17.222  1.00  0.00    -0.000 C 
BRANCH  28  29
ATOM     29  C   UNL     1      -3.257  10.225 -18.421  1.00  0.00    -0.003 C 
ATOM     30  C   UNL     1      -2.538   9.581 -19.606  1.00  0.00     0.004 C 
ENDBRANCH  28  29
ENDBRANCH  27  28
ENDBRANCH  26  27
ENDBRANCH  25  26
ENDBRANCH  24  25
ENDBRANCH  23  24
ENDBRANCH  22  23
ENDBRANCH  21  22
ENDBRANCH  20  21
ENDBRANCH  19  20
ENDBRANCH  18  19
ENDBRANCH  17  18
ENDBRANCH   1  17
TORSDOF 26
ENDMDL
MODEL 8
REMARK VINA RESULT:    -3.543      1.470      4.625
REMARK INTER + INTRA:         -14.495
REMARK INTER:                  -9.412
REMARK INTRA:                  -5.083
REMARK UNBOUND:                -5.567
REMARK SMILES CCCCCCCCCCCCCCCCCCCCCCCCCCCC(=O)[O-]
REMARK SMILES IDX 15 1 16 2 17 3 18 4 19 5 20 6 21 7 22 8 23 9 24 10 25 11
REMARK SMILES IDX 26 12 27 13 28 14 29 15 30 16 14 17 13 18 12 19 11 20 10 21
REMARK SMILES IDX 9 22 8 23 7 24 6 25 5 26 4 27 3 28 2 29 1 30
REMARK H PARENT
REMARK Flexibility Score: inf
ROOT
ATOM      1  C   UNL     1     -10.929   9.132 -18.938  1.00  0.00     0.000 C 
ENDROOT
BRANCH   1   2
ATOM      2  C   UNL     1      -9.552   8.492 -18.693  1.00  0.00     0.000 C 
BRANCH   2   3
ATOM      3  C   UNL     1      -9.598   6.956 -18.778  1.00  0.00     0.000 C 
BRANCH   3   4
ATOM      4  C   UNL     1      -8.336   6.356 -19.421  1.00  0.00     0.000 C 
BRANCH   4   5
ATOM      5  C   UNL     1      -7.359   7.381 -20.030  1.00  0.00     0.000 C 
BRANCH   5   6
ATOM      6  C   UNL     1      -6.735   6.972 -21.379  1.00  0.00     0.000 C 
BRANCH   6   7
ATOM      7  C   UNL     1      -5.810   8.028 -22.012  1.00  0.00     0.000 C 
BRANCH   7   8
ATOM      8  C   UNL     1      -5.671   9.332 -21.204  1.00  0.00     0.000 C 
BRANCH   8   9
ATOM      9  C   UNL     1      -4.303   9.484 -20.503  1.00  0.00     0.000 C 
BRANCH   9  10
ATOM     10  C   UNL     1      -4.445   9.846 -19.015  1.00  0.00     0.000 C 
BRANCH  10  11
ATOM     11  C   UNL     1      -5.852  10.358 -18.666  1.00  0.00     0.000 C 
BRANCH  11  12
ATOM     12  C   UNL     1      -6.400   9.725 -17.376  1.00  0.00     0.006 C 
BRANCH  12  13
ATOM     13  C   UNL     1      -7.019  10.771 -16.439  1.00  0.00     0.053 C 
BRANCH  13  14
ATOM     14  C   UNL     1      -6.062  11.184 -15.364  1.00  0.00     0.041 C 
ATOM     15  O   UNL     1      -5.197  12.068 -15.589  1.00  0.00    -0.550 OA
ATOM     16  O   UNL     1      -6.109  10.568 -14.120  1.00  0.00    -0.550 OA
ENDBRANCH  13  14
ENDBRANCH  12  13
ENDBRANCH  11  12
ENDBRANCH  10  11
ENDBRANCH   9  10
ENDBRANCH   8   9
ENDBRANCH   7   8
ENDBRANCH   6   7
ENDBRANCH   5   6
ENDBRANCH   4   5
ENDBRANCH   3   4
ENDBRANCH   2   3
ENDBRANCH   1   2
BRANCH   1  17
ATOM     17  C   UNL     1     -11.998   8.088 -19.306  1.00  0.00     0.000 C 
BRANCH  17  18
ATOM     18  C   UNL     1     -12.874   8.527 -20.490  1.00  0.00     0.000 C 
BRANCH  18  19
ATOM     19  C   UNL     1     -13.105   7.402 -21.513  1.00  0.00     0.000 C 
BRANCH  19  20
ATOM     20  C   UNL     1     -12.377   6.090 -21.138  1.00  0.00     0.000 C 
BRANCH  20  21
ATOM     21  C   UNL     1     -11.419   5.576 -22.229  1.00  0.00     0.000 C 
BRANCH  21  22
ATOM     22  C   UNL     1     -10.189   6.469 -22.476  1.00  0.00    -0.000 C 
BRANCH  22  23
ATOM     23  C   UNL     1     -10.260   7.269 -23.797  1.00  0.00    -0.000 C 
BRANCH  23  24
ATOM     24  C   UNL     1      -9.486   8.595 -23.725  1.00  0.00    -0.000 C 
BRANCH  24  25
ATOM     25  C   UNL     1     -10.060   9.566 -22.680  1.00  0.00    -0.000 C 
BRANCH  25  26
ATOM     26  C   UNL     1      -8.961  10.316 -21.905  1.00  0.00    -0.000 C 
BRANCH  26  27
ATOM     27  C   UNL     1      -9.493  11.576 -21.202  1.00  0.00    -0.000 C 
BRANCH  27  28
ATOM     28  C   UNL     1     -10.327  12.468 -22.139  1.00  0.00    -0.000 C 
BRANCH  28  29
ATOM     29  C   UNL     1      -9.758  13.890 -22.255  1.00  0.00    -0.003 C 
ATOM     30  C   UNL     1     -10.614  14.928 -21.529  1.00  0.00     0.004 C 
ENDBRANCH  28  29
ENDBRANCH  27  28
ENDBRANCH  26  27
ENDBRANCH  25  26
ENDBRANCH  24  25
ENDBRANCH  23  24
ENDBRANCH  22  23
ENDBRANCH  21  22
ENDBRANCH  20  21
ENDBRANCH  19  20
ENDBRANCH  18  19
ENDBRANCH  17  18
ENDBRANCH   1  17
TORSDOF 26
ENDMDL
MODEL 9
REMARK VINA RESULT:    -3.509      2.569      4.943
REMARK INTER + INTRA:         -14.409
REMARK INTER:                  -9.758
REMARK INTRA:                  -4.651
REMARK UNBOUND:                -5.567
REMARK SMILES CCCCCCCCCCCCCCCCCCCCCCCCCCCC(=O)[O-]
REMARK SMILES IDX 15 1 16 2 17 3 18 4 19 5 20 6 21 7 22 8 23 9 24 10 25 11
REMARK SMILES IDX 26 12 27 13 28 14 29 15 30 16 14 17 13 18 12 19 11 20 10 21
REMARK SMILES IDX 9 22 8 23 7 24 6 25 5 26 4 27 3 28 2 29 1 30
REMARK H PARENT
REMARK Flexibility Score: inf
ROOT
ATOM      1  C   UNL     1     -11.843   9.211 -19.670  1.00  0.00     0.000 C 
ENDROOT
BRANCH   1   2
ATOM      2  C   UNL     1     -10.623   8.792 -18.832  1.00  0.00     0.000 C 
BRANCH   2   3
ATOM      3  C   UNL     1      -9.893  10.000 -18.219  1.00  0.00     0.000 C 
BRANCH   3   4
ATOM      4  C   UNL     1      -8.960   9.608 -17.059  1.00  0.00     0.000 C 
BRANCH   4   5
ATOM      5  C   UNL     1      -7.504  10.092 -17.197  1.00  0.00     0.000 C 
BRANCH   5   6
ATOM      6  C   UNL     1      -7.149  11.349 -16.378  1.00  0.00     0.000 C 
BRANCH   6   7
ATOM      7  C   UNL     1      -6.929  11.101 -14.873  1.00  0.00     0.000 C 
BRANCH   7   8
ATOM      8  C   UNL     1      -5.457  11.148 -14.421  1.00  0.00     0.000 C 
BRANCH   8   9
ATOM      9  C   UNL     1      -4.877   9.762 -14.059  1.00  0.00     0.000 C 
BRANCH   9  10
ATOM     10  C   UNL     1      -3.888   9.248 -15.118  1.00  0.00     0.000 C 
BRANCH  10  11
ATOM     11  C   UNL     1      -3.547  10.314 -16.172  1.00  0.00     0.000 C 
BRANCH  11  12
ATOM     12  C   UNL     1      -3.146   9.695 -17.522  1.00  0.00     0.006 C 
BRANCH  12  13
ATOM     13  C   UNL     1      -4.095  10.112 -18.652  1.00  0.00     0.053 C 
BRANCH  13  14
ATOM     14  C   UNL     1      -3.367  10.277 -19.951  1.00  0.00     0.041 C 
ATOM     15  O   UNL     1      -2.637  11.282 -20.147  1.00  0.00    -0.550 OA
ATOM     16  O   UNL     1      -3.523   9.331 -20.956  1.00  0.00    -0.550 OA
ENDBRANCH  13  14
ENDBRANCH  12  13
ENDBRANCH  11  12
ENDBRANCH  10  11
ENDBRANCH   9  10
ENDBRANCH   8   9
ENDBRANCH   7   8
ENDBRANCH   6   7
ENDBRANCH   5   6
ENDBRANCH   4   5
ENDBRANCH   3   4
ENDBRANCH   2   3
ENDBRANCH   1   2
BRANCH   1  17
ATOM     17  C   UNL     1     -12.840   8.054 -19.865  1.00  0.00     0.000 C 
BRANCH  17  18
ATOM     18  C   UNL     1     -13.115   7.750 -21.346  1.00  0.00     0.000 C 
BRANCH  18  19
ATOM     19  C   UNL     1     -12.325   6.536 -21.863  1.00  0.00     0.000 C 
BRANCH  19  20
ATOM     20  C   UNL     1     -11.744   5.667 -20.724  1.00  0.00     0.000 C 
BRANCH  20  21
ATOM     21  C   UNL     1     -10.256   5.315 -20.905  1.00  0.00     0.000 C 
BRANCH  21  22
ATOM     22  C   UNL     1      -9.403   5.453 -19.631  1.00  0.00    -0.000 C 
BRANCH  22  23
ATOM     23  C   UNL     1      -7.903   5.695 -19.913  1.00  0.00    -0.000 C 
BRANCH  23  24
ATOM     24  C   UNL     1      -7.369   6.961 -19.222  1.00  0.00    -0.000 C 
BRANCH  24  25
ATOM     25  C   UNL     1      -6.590   7.879 -20.178  1.00  0.00    -0.000 C 
BRANCH  25  26
ATOM     26  C   UNL     1      -7.463   9.006 -20.758  1.00  0.00    -0.000 C 
BRANCH  26  27
ATOM     27  C   UNL     1      -7.932   8.709 -22.191  1.00  0.00    -0.000 C 
BRANCH  27  28
ATOM     28  C   UNL     1      -9.459   8.546 -22.293  1.00  0.00    -0.000 C 
BRANCH  28  29
ATOM     29  C   UNL     1     -10.082   9.492 -23.332  1.00  0.00    -0.003 C 
ATOM     30  C   UNL     1      -9.550  10.921 -23.221  1.00  0.00     0.004 C 
ENDBRANCH  28  29
ENDBRANCH  27  28
ENDBRANCH  26  27
ENDBRANCH  25  26
ENDBRANCH  24  25
ENDBRANCH  23  24
ENDBRANCH  22  23
ENDBRANCH  21  22
ENDBRANCH  20  21
ENDBRANCH  19  20
ENDBRANCH  18  19
ENDBRANCH  17  18
ENDBRANCH   1  17
TORSDOF 26
ENDMDL
