MODEL 1
REMARK VINA RESULT:    -4.641      0.000      0.000
REMARK INTER + INTRA:         -13.989
REMARK INTER:                 -10.068
REMARK INTRA:                  -3.922
REMARK UNBOUND:                -3.922
REMARK SMILES CCCCCCCCCCCCCCCCCCCCCC(=O)[O-]
REMARK SMILES IDX 12 1 11 2 10 3 9 4 8 5 7 6 6 7 5 8 4 9 3 10 2 11 1 12 13 13
REMARK SMILES IDX 14 14 15 15 16 16 17 17 18 18 19 19 20 20 21 21 22 22 23 23
REMARK SMILES IDX 24 24
REMARK H PARENT
REMARK Flexibility Score: inf
ROOT
ATOM      1  C   UNL     1      20.809  21.556   7.917  1.00  0.00     0.000 C 
ENDROOT
BRANCH   1   2
ATOM      2  C   UNL     1      22.139  21.582   8.694  1.00  0.00     0.000 C 
BRANCH   2   3
ATOM      3  C   UNL     1      23.250  20.683   8.121  1.00  0.00     0.000 C 
BRANCH   3   4
ATOM      4  C   UNL     1      22.762  19.505   7.254  1.00  0.00    -0.000 C 
BRANCH   4   5
ATOM      5  C   UNL     1      23.779  19.050   6.186  1.00  0.00    -0.000 C 
BRANCH   5   6
ATOM      6  C   UNL     1      23.320  19.371   4.753  1.00  0.00    -0.000 C 
BRANCH   6   7
ATOM      7  C   UNL     1      21.884  19.926   4.692  1.00  0.00    -0.000 C 
BRANCH   7   8
ATOM      8  C   UNL     1      20.804  18.901   4.298  1.00  0.00    -0.000 C 
BRANCH   8   9
ATOM      9  C   UNL     1      19.728  18.717   5.382  1.00  0.00    -0.000 C 
BRANCH   9  10
ATOM     10  C   UNL     1      19.838  17.360   6.095  1.00  0.00    -0.000 C 
BRANCH  10  11
ATOM     11  C   UNL     1      20.660  16.337   5.297  1.00  0.00    -0.003 C 
ATOM     12  C   UNL     1      21.841  15.824   6.116  1.00  0.00     0.004 C 
ENDBRANCH  10  11
ENDBRANCH   9  10
ENDBRANCH   8   9
ENDBRANCH   7   8
ENDBRANCH   6   7
ENDBRANCH   5   6
ENDBRANCH   4   5
ENDBRANCH   3   4
ENDBRANCH   2   3
ENDBRANCH   1   2
BRANCH   1  13
ATOM     13  C   UNL     1      20.720  22.660   6.848  1.00  0.00     0.000 C 
BRANCH  13  14
ATOM     14  C   UNL     1      19.463  22.526   5.973  1.00  0.00     0.000 C 
BRANCH  14  15
ATOM     15  C   UNL     1      18.333  21.760   6.683  1.00  0.00     0.000 C 
BRANCH  15  16
ATOM     16  C   UNL     1      17.033  22.578   6.793  1.00  0.00     0.000 C 
BRANCH  16  17
ATOM     17  C   UNL     1      17.217  24.110   6.764  1.00  0.00     0.000 C 
BRANCH  17  18
ATOM     18  C   UNL     1      17.198  24.795   8.142  1.00  0.00     0.000 C 
BRANCH  18  19
ATOM     19  C   UNL     1      18.588  25.081   8.743  1.00  0.00     0.000 C 
BRANCH  19  20
ATOM     20  C   UNL     1      19.010  24.079   9.838  1.00  0.00     0.006 C 
BRANCH  20  21
ATOM     21  C   UNL     1      17.823  23.282  10.394  1.00  0.00     0.053 C 
BRANCH  21  22
ATOM     22  C   UNL     1      18.267  21.928  10.851  1.00  0.00     0.041 C 
ATOM     23  O   UNL     1      18.823  21.789  11.971  1.00  0.00    -0.550 OA
ATOM     24  O   UNL     1      18.037  20.815  10.051  1.00  0.00    -0.550 OA
ENDBRANCH  21  22
ENDBRANCH  20  21
ENDBRANCH  19  20
ENDBRANCH  18  19
ENDBRANCH  17  18
ENDBRANCH  16  17
ENDBRANCH  15  16
ENDBRANCH  14  15
ENDBRANCH  13  14
ENDBRANCH   1  13
TORSDOF 20
ENDMDL
MODEL 2
REMARK VINA RESULT:    -4.630      1.961      7.424
REMARK INTER + INTRA:         -13.965
REMARK INTER:                 -10.975
REMARK INTRA:                  -2.990
REMARK UNBOUND:                -3.922
REMARK SMILES CCCCCCCCCCCCCCCCCCCCCC(=O)[O-]
REMARK SMILES IDX 12 1 11 2 10 3 9 4 8 5 7 6 6 7 5 8 4 9 3 10 2 11 1 12 13 13
REMARK SMILES IDX 14 14 15 15 16 16 17 17 18 18 19 19 20 20 21 21 22 22 23 23
REMARK SMILES IDX 24 24
REMARK H PARENT
REMARK Flexibility Score: inf
ROOT
ATOM      1  C   UNL     1      21.619  21.357   7.308  1.00  0.00     0.000 C 
ENDROOT
BRANCH   1   2
ATOM      2  C   UNL     1      20.762  22.433   6.617  1.00  0.00     0.000 C 
BRANCH   2   3
ATOM      3  C   UNL     1      19.786  21.907   5.547  1.00  0.00     0.000 C 
BRANCH   3   4
ATOM      4  C   UNL     1      18.291  22.055   5.890  1.00  0.00    -0.000 C 
BRANCH   4   5
ATOM      5  C   UNL     1      17.836  23.516   6.087  1.00  0.00    -0.000 C 
BRANCH   5   6
ATOM      6  C   UNL     1      16.939  23.699   7.324  1.00  0.00    -0.000 C 
BRANCH   6   7
ATOM      7  C   UNL     1      17.277  24.969   8.129  1.00  0.00    -0.000 C 
BRANCH   7   8
ATOM      8  C   UNL     1      18.779  25.208   8.370  1.00  0.00    -0.000 C 
BRANCH   8   9
ATOM      9  C   UNL     1      19.211  24.902   9.814  1.00  0.00    -0.000 C 
BRANCH   9  10
ATOM     10  C   UNL     1      19.862  23.516   9.952  1.00  0.00    -0.000 C 
BRANCH  10  11
ATOM     11  C   UNL     1      18.897  22.463  10.517  1.00  0.00    -0.003 C 
ATOM     12  C   UNL     1      18.769  21.272   9.571  1.00  0.00     0.004 C 
ENDBRANCH  10  11
ENDBRANCH   9  10
ENDBRANCH   8   9
ENDBRANCH   7   8
ENDBRANCH   6   7
ENDBRANCH   5   6
ENDBRANCH   4   5
ENDBRANCH   3   4
ENDBRANCH   2   3
ENDBRANCH   1   2
BRANCH   1  13
ATOM     13  C   UNL     1      21.704  20.050   6.500  1.00  0.00     0.000 C 
BRANCH  13  14
ATOM     14  C   UNL     1      23.097  19.402   6.581  1.00  0.00     0.000 C 
BRANCH  14  15
ATOM     15  C   UNL     1      23.620  18.964   5.202  1.00  0.00     0.000 C 
BRANCH  15  16
ATOM     16  C   UNL     1      24.840  18.029   5.295  1.00  0.00     0.000 C 
BRANCH  16  17
ATOM     17  C   UNL     1      24.642  16.630   4.675  1.00  0.00     0.000 C 
BRANCH  17  18
ATOM     18  C   UNL     1      23.184  16.259   4.353  1.00  0.00     0.000 C 
BRANCH  18  19
ATOM     19  C   UNL     1      22.559  15.211   5.294  1.00  0.00     0.000 C 
BRANCH  19  20
ATOM     20  C   UNL     1      21.611  15.814   6.352  1.00  0.00     0.006 C 
BRANCH  20  21
ATOM     21  C   UNL     1      20.500  16.668   5.727  1.00  0.00     0.053 C 
BRANCH  21  22
ATOM     22  C   UNL     1      19.358  16.824   6.681  1.00  0.00     0.041 C 
ATOM     23  O   UNL     1      18.839  17.957   6.866  1.00  0.00    -0.550 OA
ATOM     24  O   UNL     1      18.847  15.715   7.342  1.00  0.00    -0.550 OA
ENDBRANCH  21  22
ENDBRANCH  20  21
ENDBRANCH  19  20
ENDBRANCH  18  19
ENDBRANCH  17  18
ENDBRANCH  16  17
ENDBRANCH  15  16
ENDBRANCH  14  15
ENDBRANCH  13  14
ENDBRANCH   1  13
TORSDOF 20
ENDMDL
MODEL 3
REMARK VINA RESULT:    -4.505      1.930      7.060
REMARK INTER + INTRA:         -13.694
REMARK INTER:                 -10.306
REMARK INTRA:                  -3.388
REMARK UNBOUND:                -3.922
REMARK SMILES CCCCCCCCCCCCCCCCCCCCCC(=O)[O-]
REMARK SMILES IDX 12 1 11 2 10 3 9 4 8 5 7 6 6 7 5 8 4 9 3 10 2 11 1 12 13 13
REMARK SMILES IDX 14 14 15 15 16 16 17 17 18 18 19 19 20 20 21 21 22 22 23 23
REMARK SMILES IDX 24 24
REMARK H PARENT
REMARK Flexibility Score: inf
ROOT
ATOM      1  C   UNL     1      20.675  23.218   7.664  1.00  0.00     0.000 C 
ENDROOT
BRANCH   1   2
ATOM      2  C   UNL     1      19.749  22.625   6.585  1.00  0.00     0.000 C 
BRANCH   2   3
ATOM      3  C   UNL     1      18.242  22.739   6.880  1.00  0.00     0.000 C 
BRANCH   3   4
ATOM      4  C   UNL     1      17.580  21.456   7.422  1.00  0.00    -0.000 C 
BRANCH   4   5
ATOM      5  C   UNL     1      18.442  20.692   8.448  1.00  0.00    -0.000 C 
BRANCH   5   6
ATOM      6  C   UNL     1      17.880  20.777   9.879  1.00  0.00    -0.000 C 
BRANCH   6   7
ATOM      7  C   UNL     1      18.416  21.989  10.664  1.00  0.00    -0.000 C 
BRANCH   7   8
ATOM      8  C   UNL     1      17.340  22.959  11.183  1.00  0.00    -0.000 C 
BRANCH   8   9
ATOM      9  C   UNL     1      17.096  24.147  10.236  1.00  0.00    -0.000 C 
BRANCH   9  10
ATOM     10  C   UNL     1      18.384  24.925   9.924  1.00  0.00    -0.000 C 
BRANCH  10  11
ATOM     11  C   UNL     1      18.210  25.917   8.764  1.00  0.00    -0.003 C 
ATOM     12  C   UNL     1      18.974  27.211   9.029  1.00  0.00     0.004 C 
ENDBRANCH  10  11
ENDBRANCH   9  10
ENDBRANCH   8   9
ENDBRANCH   7   8
ENDBRANCH   6   7
ENDBRANCH   5   6
ENDBRANCH   4   5
ENDBRANCH   3   4
ENDBRANCH   2   3
ENDBRANCH   1   2
BRANCH   1  13
ATOM     13  C   UNL     1      21.759  22.230   8.130  1.00  0.00     0.000 C 
BRANCH  13  14
ATOM     14  C   UNL     1      21.847  20.989   7.226  1.00  0.00     0.000 C 
BRANCH  14  15
ATOM     15  C   UNL     1      23.017  20.066   7.609  1.00  0.00     0.000 C 
BRANCH  15  16
ATOM     16  C   UNL     1      23.438  19.128   6.464  1.00  0.00     0.000 C 
BRANCH  16  17
ATOM     17  C   UNL     1      22.930  19.532   5.064  1.00  0.00     0.000 C 
BRANCH  17  18
ATOM     18  C   UNL     1      21.949  18.539   4.414  1.00  0.00     0.000 C 
BRANCH  18  19
ATOM     19  C   UNL     1      20.505  19.056   4.270  1.00  0.00     0.000 C 
BRANCH  19  20
ATOM     20  C   UNL     1      19.614  18.758   5.495  1.00  0.00     0.006 C 
BRANCH  20  21
ATOM     21  C   UNL     1      20.002  17.453   6.201  1.00  0.00     0.053 C 
BRANCH  21  22
ATOM     22  C   UNL     1      18.810  16.838   6.863  1.00  0.00     0.041 C 
ATOM     23  O   UNL     1      18.858  15.649   7.275  1.00  0.00    -0.550 OA
ATOM     24  O   UNL     1      17.656  17.588   7.053  1.00  0.00    -0.550 OA
ENDBRANCH  21  22
ENDBRANCH  20  21
ENDBRANCH  19  20
ENDBRANCH  18  19
ENDBRANCH  17  18
ENDBRANCH  16  17
ENDBRANCH  15  16
ENDBRANCH  14  15
ENDBRANCH  13  14
ENDBRANCH   1  13
TORSDOF 20
ENDMDL
MODEL 4
REMARK VINA RESULT:    -4.399      2.121      4.507
REMARK INTER + INTRA:         -13.464
REMARK INTER:                  -9.834
REMARK INTRA:                  -3.630
REMARK UNBOUND:                -3.922
REMARK SMILES CCCCCCCCCCCCCCCCCCCCCC(=O)[O-]
REMARK SMILES IDX 12 1 11 2 10 3 9 4 8 5 7 6 6 7 5 8 4 9 3 10 2 11 1 12 13 13
REMARK SMILES IDX 14 14 15 15 16 16 17 17 18 18 19 19 20 20 21 21 22 22 23 23
REMARK SMILES IDX 24 24
REMARK H PARENT
REMARK Flexibility Score: inf
ROOT
ATOM      1  C   UNL     1      20.159  23.865  10.020  1.00  0.00     0.000 C 
ENDROOT
BRANCH   1   2
ATOM      2  C   UNL     1      19.715  22.392  10.093  1.00  0.00     0.000 C 
BRANCH   2   3
ATOM      3  C   UNL     1      18.642  22.083  11.154  1.00  0.00     0.000 C 
BRANCH   3   4
ATOM      4  C   UNL     1      17.303  21.554  10.602  1.00  0.00    -0.000 C 
BRANCH   4   5
ATOM      5  C   UNL     1      17.413  20.185   9.899  1.00  0.00    -0.000 C 
BRANCH   5   6
ATOM      6  C   UNL     1      17.491  20.307   8.367  1.00  0.00    -0.000 C 
BRANCH   6   7
ATOM      7  C   UNL     1      17.678  18.949   7.665  1.00  0.00    -0.000 C 
BRANCH   7   8
ATOM      8  C   UNL     1      17.831  19.020   6.134  1.00  0.00    -0.000 C 
BRANCH   8   9
ATOM      9  C   UNL     1      18.630  17.839   5.557  1.00  0.00    -0.000 C 
BRANCH   9  10
ATOM     10  C   UNL     1      19.606  17.233   6.578  1.00  0.00    -0.000 C 
BRANCH  10  11
ATOM     11  C   UNL     1      20.945  16.825   5.945  1.00  0.00    -0.003 C 
ATOM     12  C   UNL     1      21.258  17.681   4.721  1.00  0.00     0.004 C 
ENDBRANCH  10  11
ENDBRANCH   9  10
ENDBRANCH   8   9
ENDBRANCH   7   8
ENDBRANCH   6   7
ENDBRANCH   5   6
ENDBRANCH   4   5
ENDBRANCH   3   4
ENDBRANCH   2   3
ENDBRANCH   1   2
BRANCH   1  13
ATOM     13  C   UNL     1      18.976  24.848  10.045  1.00  0.00     0.000 C 
BRANCH  13  14
ATOM     14  C   UNL     1      18.685  25.448   8.659  1.00  0.00     0.000 C 
BRANCH  14  15
ATOM     15  C   UNL     1      17.252  25.155   8.183  1.00  0.00     0.000 C 
BRANCH  15  16
ATOM     16  C   UNL     1      17.098  23.746   7.581  1.00  0.00     0.000 C 
BRANCH  16  17
ATOM     17  C   UNL     1      17.895  23.497   6.283  1.00  0.00     0.000 C 
BRANCH  17  18
ATOM     18  C   UNL     1      19.297  22.897   6.483  1.00  0.00     0.000 C 
BRANCH  18  19
ATOM     19  C   UNL     1      19.786  21.995   5.332  1.00  0.00     0.000 C 
BRANCH  19  20
ATOM     20  C   UNL     1      21.031  21.155   5.688  1.00  0.00     0.006 C 
BRANCH  20  21
ATOM     21  C   UNL     1      21.060  20.744   7.166  1.00  0.00     0.053 C 
BRANCH  21  22
ATOM     22  C   UNL     1      22.471  20.581   7.638  1.00  0.00     0.041 C 
ATOM     23  O   UNL     1      22.888  21.244   8.624  1.00  0.00    -0.550 OA
ATOM     24  O   UNL     1      23.315  19.675   7.009  1.00  0.00    -0.550 OA
ENDBRANCH  21  22
ENDBRANCH  20  21
ENDBRANCH  19  20
ENDBRANCH  18  19
ENDBRANCH  17  18
ENDBRANCH  16  17
ENDBRANCH  15  16
ENDBRANCH  14  15
ENDBRANCH  13  14
ENDBRANCH   1  13
TORSDOF 20
ENDMDL
MODEL 5
REMARK VINA RESULT:    -4.366      2.273      3.508
REMARK INTER + INTRA:         -13.393
REMARK INTER:                  -9.985
REMARK INTRA:                  -3.408
REMARK UNBOUND:                -3.922
REMARK SMILES CCCCCCCCCCCCCCCCCCCCCC(=O)[O-]
REMARK SMILES IDX 12 1 11 2 10 3 9 4 8 5 7 6 6 7 5 8 4 9 3 10 2 11 1 12 13 13
REMARK SMILES IDX 14 14 15 15 16 16 17 17 18 18 19 19 20 20 21 21 22 22 23 23
REMARK SMILES IDX 24 24
REMARK H PARENT
REMARK Flexibility Score: inf
ROOT
ATOM      1  C   UNL     1      19.833  23.154  10.370  1.00  0.00     0.000 C 
ENDROOT
BRANCH   1   2
ATOM      2  C   UNL     1      21.055  22.704   9.547  1.00  0.00     0.000 C 
BRANCH   2   3
ATOM      3  C   UNL     1      21.302  23.502   8.253  1.00  0.00     0.000 C 
BRANCH   3   4
ATOM      4  C   UNL     1      21.403  22.657   6.967  1.00  0.00    -0.000 C 
BRANCH   4   5
ATOM      5  C   UNL     1      21.069  21.165   7.172  1.00  0.00    -0.000 C 
BRANCH   5   6
ATOM      6  C   UNL     1      20.935  20.397   5.845  1.00  0.00    -0.000 C 
BRANCH   6   7
ATOM      7  C   UNL     1      20.284  21.235   4.729  1.00  0.00    -0.000 C 
BRANCH   7   8
ATOM      8  C   UNL     1      18.935  20.702   4.214  1.00  0.00    -0.000 C 
BRANCH   8   9
ATOM      9  C   UNL     1      18.362  19.575   5.090  1.00  0.00    -0.000 C 
BRANCH   9  10
ATOM     10  C   UNL     1      18.503  18.191   4.436  1.00  0.00    -0.000 C 
BRANCH  10  11
ATOM     11  C   UNL     1      19.181  17.167   5.358  1.00  0.00    -0.003 C 
ATOM     12  C   UNL     1      18.603  17.232   6.769  1.00  0.00     0.004 C 
ENDBRANCH  10  11
ENDBRANCH   9  10
ENDBRANCH   8   9
ENDBRANCH   7   8
ENDBRANCH   6   7
ENDBRANCH   5   6
ENDBRANCH   4   5
ENDBRANCH   3   4
ENDBRANCH   2   3
ENDBRANCH   1   2
BRANCH   1  13
ATOM     13  C   UNL     1      19.104  21.980  11.048  1.00  0.00     0.000 C 
BRANCH  13  14
ATOM     14  C   UNL     1      17.575  22.099  10.936  1.00  0.00     0.000 C 
BRANCH  14  15
ATOM     15  C   UNL     1      16.967  21.004  10.042  1.00  0.00     0.000 C 
BRANCH  15  16
ATOM     16  C   UNL     1      17.676  20.880   8.681  1.00  0.00     0.000 C 
BRANCH  16  17
ATOM     17  C   UNL     1      17.074  21.735   7.547  1.00  0.00     0.000 C 
BRANCH  17  18
ATOM     18  C   UNL     1      17.826  23.043   7.245  1.00  0.00     0.000 C 
BRANCH  18  19
ATOM     19  C   UNL     1      16.977  24.323   7.372  1.00  0.00     0.000 C 
BRANCH  19  20
ATOM     20  C   UNL     1      17.028  24.966   8.774  1.00  0.00     0.006 C 
BRANCH  20  21
ATOM     21  C   UNL     1      17.328  26.470   8.721  1.00  0.00     0.053 C 
BRANCH  21  22
ATOM     22  C   UNL     1      18.716  26.747   9.206  1.00  0.00     0.041 C 
ATOM     23  O   UNL     1      19.150  26.175  10.240  1.00  0.00    -0.550 OA
ATOM     24  O   UNL     1      19.540  27.613   8.499  1.00  0.00    -0.550 OA
ENDBRANCH  21  22
ENDBRANCH  20  21
ENDBRANCH  19  20
ENDBRANCH  18  19
ENDBRANCH  17  18
ENDBRANCH  16  17
ENDBRANCH  15  16
ENDBRANCH  14  15
ENDBRANCH  13  14
ENDBRANCH   1  13
TORSDOF 20
ENDMDL
MODEL 6
REMARK VINA RESULT:    -4.303      2.581      4.049
REMARK INTER + INTRA:         -13.257
REMARK INTER:                 -10.929
REMARK INTRA:                  -2.328
REMARK UNBOUND:                -3.922
REMARK SMILES CCCCCCCCCCCCCCCCCCCCCC(=O)[O-]
REMARK SMILES IDX 12 1 11 2 10 3 9 4 8 5 7 6 6 7 5 8 4 9 3 10 2 11 1 12 13 13
REMARK SMILES IDX 14 14 15 15 16 16 17 17 18 18 19 19 20 20 21 21 22 22 23 23
REMARK SMILES IDX 24 24
REMARK H PARENT
REMARK Flexibility Score: inf
ROOT
ATOM      1  C   UNL     1      20.078  23.190   9.940  1.00  0.00     0.000 C 
ENDROOT
BRANCH   1   2
ATOM      2  C   UNL     1      21.350  22.638   9.268  1.00  0.00     0.000 C 
BRANCH   2   3
ATOM      3  C   UNL     1      21.304  22.580   7.729  1.00  0.00     0.000 C 
BRANCH   3   4
ATOM      4  C   UNL     1      21.591  21.195   7.115  1.00  0.00    -0.000 C 
BRANCH   4   5
ATOM      5  C   UNL     1      21.675  21.200   5.574  1.00  0.00    -0.000 C 
BRANCH   5   6
ATOM      6  C   UNL     1      22.066  19.829   4.995  1.00  0.00    -0.000 C 
BRANCH   6   7
ATOM      7  C   UNL     1      23.399  19.298   5.556  1.00  0.00    -0.000 C 
BRANCH   7   8
ATOM      8  C   UNL     1      23.812  17.904   5.050  1.00  0.00    -0.000 C 
BRANCH   8   9
ATOM      9  C   UNL     1      25.292  17.828   4.640  1.00  0.00    -0.000 C 
BRANCH   9  10
ATOM     10  C   UNL     1      25.829  16.388   4.636  1.00  0.00    -0.000 C 
BRANCH  10  11
ATOM     11  C   UNL     1      27.341  16.321   4.371  1.00  0.00    -0.003 C 
ATOM     12  C   UNL     1      28.133  16.529   5.659  1.00  0.00     0.004 C 
ENDBRANCH  10  11
ENDBRANCH   9  10
ENDBRANCH   8   9
ENDBRANCH   7   8
ENDBRANCH   6   7
ENDBRANCH   5   6
ENDBRANCH   4   5
ENDBRANCH   3   4
ENDBRANCH   2   3
ENDBRANCH   1   2
BRANCH   1  13
ATOM     13  C   UNL     1      19.266  22.103  10.665  1.00  0.00     0.000 C 
BRANCH  13  14
ATOM     14  C   UNL     1      17.764  22.182  10.342  1.00  0.00     0.000 C 
BRANCH  14  15
ATOM     15  C   UNL     1      17.230  20.882   9.717  1.00  0.00     0.000 C 
BRANCH  15  16
ATOM     16  C   UNL     1      17.940  20.515   8.401  1.00  0.00     0.000 C 
BRANCH  16  17
ATOM     17  C   UNL     1      17.299  21.099   7.125  1.00  0.00     0.000 C 
BRANCH  17  18
ATOM     18  C   UNL     1      18.064  22.273   6.489  1.00  0.00     0.000 C 
BRANCH  18  19
ATOM     19  C   UNL     1      17.264  23.586   6.384  1.00  0.00     0.000 C 
BRANCH  19  20
ATOM     20  C   UNL     1      16.925  24.218   7.751  1.00  0.00     0.006 C 
BRANCH  20  21
ATOM     21  C   UNL     1      17.885  25.353   8.128  1.00  0.00     0.053 C 
BRANCH  21  22
ATOM     22  C   UNL     1      17.362  26.115   9.305  1.00  0.00     0.041 C 
ATOM     23  O   UNL     1      17.388  25.601  10.453  1.00  0.00    -0.550 OA
ATOM     24  O   UNL     1      16.875  27.405   9.137  1.00  0.00    -0.550 OA
ENDBRANCH  21  22
ENDBRANCH  20  21
ENDBRANCH  19  20
ENDBRANCH  18  19
ENDBRANCH  17  18
ENDBRANCH  16  17
ENDBRANCH  15  16
ENDBRANCH  14  15
ENDBRANCH  13  14
ENDBRANCH   1  13
TORSDOF 20
ENDMDL
MODEL 7
REMARK VINA RESULT:    -4.272      1.968      3.200
REMARK INTER + INTRA:         -13.188
REMARK INTER:                  -9.985
REMARK INTRA:                  -3.203
REMARK UNBOUND:                -3.922
REMARK SMILES CCCCCCCCCCCCCCCCCCCCCC(=O)[O-]
REMARK SMILES IDX 12 1 11 2 10 3 9 4 8 5 7 6 6 7 5 8 4 9 3 10 2 11 1 12 13 13
REMARK SMILES IDX 14 14 15 15 16 16 17 17 18 18 19 19 20 20 21 21 22 22 23 23
REMARK SMILES IDX 24 24
REMARK H PARENT
REMARK Flexibility Score: inf
ROOT
ATOM      1  C   UNL     1      19.540  21.627   4.366  1.00  0.00     0.000 C 
ENDROOT
BRANCH   1   2
ATOM      2  C   UNL     1      20.570  20.496   4.180  1.00  0.00     0.000 C 
BRANCH   2   3
ATOM      3  C   UNL     1      21.870  20.655   4.991  1.00  0.00     0.000 C 
BRANCH   3   4
ATOM      4  C   UNL     1      21.848  20.026   6.398  1.00  0.00    -0.000 C 
BRANCH   4   5
ATOM      5  C   UNL     1      23.202  19.433   6.840  1.00  0.00    -0.000 C 
BRANCH   5   6
ATOM      6  C   UNL     1      24.071  18.984   5.652  1.00  0.00    -0.000 C 
BRANCH   6   7
ATOM      7  C   UNL     1      23.866  17.502   5.284  1.00  0.00    -0.000 C 
BRANCH   7   8
ATOM      8  C   UNL     1      22.883  17.246   4.127  1.00  0.00    -0.000 C 
BRANCH   8   9
ATOM      9  C   UNL     1      21.689  16.367   4.537  1.00  0.00    -0.000 C 
BRANCH   9  10
ATOM     10  C   UNL     1      21.824  15.823   5.968  1.00  0.00    -0.000 C 
BRANCH  10  11
ATOM     11  C   UNL     1      20.536  15.991   6.788  1.00  0.00    -0.003 C 
ATOM     12  C   UNL     1      19.654  17.091   6.205  1.00  0.00     0.004 C 
ENDBRANCH  10  11
ENDBRANCH   9  10
ENDBRANCH   8   9
ENDBRANCH   7   8
ENDBRANCH   6   7
ENDBRANCH   5   6
ENDBRANCH   4   5
ENDBRANCH   3   4
ENDBRANCH   2   3
ENDBRANCH   1   2
BRANCH   1  13
ATOM     13  C   UNL     1      18.411  21.253   5.342  1.00  0.00     0.000 C 
BRANCH  13  14
ATOM     14  C   UNL     1      18.206  22.316   6.435  1.00  0.00     0.000 C 
BRANCH  14  15
ATOM     15  C   UNL     1      19.512  23.045   6.795  1.00  0.00     0.000 C 
BRANCH  15  16
ATOM     16  C   UNL     1      20.012  22.711   8.212  1.00  0.00     0.000 C 
BRANCH  16  17
ATOM     17  C   UNL     1      19.468  21.395   8.807  1.00  0.00     0.000 C 
BRANCH  17  18
ATOM     18  C   UNL     1      18.814  21.527  10.193  1.00  0.00     0.000 C 
BRANCH  18  19
ATOM     19  C   UNL     1      18.599  22.975  10.673  1.00  0.00     0.000 C 
BRANCH  19  20
ATOM     20  C   UNL     1      17.174  23.509  10.413  1.00  0.00     0.006 C 
BRANCH  20  21
ATOM     21  C   UNL     1      17.104  25.041  10.451  1.00  0.00     0.053 C 
BRANCH  21  22
ATOM     22  C   UNL     1      17.358  25.613   9.091  1.00  0.00     0.041 C 
ATOM     23  O   UNL     1      18.035  26.667   8.966  1.00  0.00    -0.550 OA
ATOM     24  O   UNL     1      16.875  24.963   7.963  1.00  0.00    -0.550 OA
ENDBRANCH  21  22
ENDBRANCH  20  21
ENDBRANCH  19  20
ENDBRANCH  18  19
ENDBRANCH  17  18
ENDBRANCH  16  17
ENDBRANCH  15  16
ENDBRANCH  14  15
ENDBRANCH  13  14
ENDBRANCH   1  13
TORSDOF 20
ENDMDL
MODEL 8
REMARK VINA RESULT:    -4.269      2.596      6.593
REMARK INTER + INTRA:         -13.182
REMARK INTER:                 -10.260
REMARK INTRA:                  -2.922
REMARK UNBOUND:                -3.922
REMARK SMILES CCCCCCCCCCCCCCCCCCCCCC(=O)[O-]
REMARK SMILES IDX 12 1 11 2 10 3 9 4 8 5 7 6 6 7 5 8 4 9 3 10 2 11 1 12 13 13
REMARK SMILES IDX 14 14 15 15 16 16 17 17 18 18 19 19 20 20 21 21 22 22 23 23
REMARK SMILES IDX 24 24
REMARK H PARENT
REMARK Flexibility Score: inf
ROOT
ATOM      1  C   UNL     1      17.952  21.909  11.319  1.00  0.00     0.000 C 
ENDROOT
BRANCH   1   2
ATOM      2  C   UNL     1      17.069  23.167  11.226  1.00  0.00     0.000 C 
BRANCH   2   3
ATOM      3  C   UNL     1      17.385  24.104  10.046  1.00  0.00     0.000 C 
BRANCH   3   4
ATOM      4  C   UNL     1      18.612  25.017  10.242  1.00  0.00    -0.000 C 
BRANCH   4   5
ATOM      5  C   UNL     1      19.848  24.588   9.425  1.00  0.00    -0.000 C 
BRANCH   5   6
ATOM      6  C   UNL     1      20.607  23.413  10.066  1.00  0.00    -0.000 C 
BRANCH   6   7
ATOM      7  C   UNL     1      21.447  22.615   9.051  1.00  0.00    -0.000 C 
BRANCH   7   8
ATOM      8  C   UNL     1      21.350  23.103   7.594  1.00  0.00    -0.000 C 
BRANCH   8   9
ATOM      9  C   UNL     1      21.040  21.970   6.601  1.00  0.00    -0.000 C 
BRANCH   9  10
ATOM     10  C   UNL     1      19.593  22.020   6.084  1.00  0.00    -0.000 C 
BRANCH  10  11
ATOM     11  C   UNL     1      18.827  23.252   6.588  1.00  0.00    -0.003 C 
ATOM     12  C   UNL     1      17.325  23.090   6.371  1.00  0.00     0.004 C 
ENDBRANCH  10  11
ENDBRANCH   9  10
ENDBRANCH   8   9
ENDBRANCH   7   8
ENDBRANCH   6   7
ENDBRANCH   5   6
ENDBRANCH   4   5
ENDBRANCH   3   4
ENDBRANCH   2   3
ENDBRANCH   1   2
BRANCH   1  13
ATOM     13  C   UNL     1      17.340  20.693  10.601  1.00  0.00     0.000 C 
BRANCH  13  14
ATOM     14  C   UNL     1      17.901  20.508   9.182  1.00  0.00     0.000 C 
BRANCH  14  15
ATOM     15  C   UNL     1      17.179  19.392   8.407  1.00  0.00     0.000 C 
BRANCH  15  16
ATOM     16  C   UNL     1      17.674  19.255   6.955  1.00  0.00     0.000 C 
BRANCH  16  17
ATOM     17  C   UNL     1      18.340  17.905   6.614  1.00  0.00     0.000 C 
BRANCH  17  18
ATOM     18  C   UNL     1      19.821  17.994   6.205  1.00  0.00     0.000 C 
BRANCH  18  19
ATOM     19  C   UNL     1      20.079  18.683   4.851  1.00  0.00     0.000 C 
BRANCH  19  20
ATOM     20  C   UNL     1      21.549  18.607   4.386  1.00  0.00     0.006 C 
BRANCH  20  21
ATOM     21  C   UNL     1      22.435  17.825   5.364  1.00  0.00     0.053 C 
BRANCH  21  22
ATOM     22  C   UNL     1      23.579  18.671   5.829  1.00  0.00     0.041 C 
ATOM     23  O   UNL     1      23.449  19.407   6.842  1.00  0.00    -0.550 OA
ATOM     24  O   UNL     1      24.796  18.621   5.162  1.00  0.00    -0.550 OA
ENDBRANCH  21  22
ENDBRANCH  20  21
ENDBRANCH  19  20
ENDBRANCH  18  19
ENDBRANCH  17  18
ENDBRANCH  16  17
ENDBRANCH  15  16
ENDBRANCH  14  15
ENDBRANCH  13  14
ENDBRANCH   1  13
TORSDOF 20
ENDMDL
MODEL 9
REMARK VINA RESULT:    -4.210      2.762      6.482
REMARK INTER + INTRA:         -13.053
REMARK INTER:                  -9.503
REMARK INTRA:                  -3.550
REMARK UNBOUND:                -3.922
REMARK SMILES CCCCCCCCCCCCCCCCCCCCCC(=O)[O-]
REMARK SMILES IDX 12 1 11 2 10 3 9 4 8 5 7 6 6 7 5 8 4 9 3 10 2 11 1 12 13 13
REMARK SMILES IDX 14 14 15 15 16 16 17 17 18 18 19 19 20 20 21 21 22 22 23 23
REMARK SMILES IDX 24 24
REMARK H PARENT
REMARK Flexibility Score: inf
ROOT
ATOM      1  C   UNL     1      21.963  21.897   8.771  1.00  0.00     0.000 C 
ENDROOT
BRANCH   1   2
ATOM      2  C   UNL     1      20.564  22.493   9.017  1.00  0.00     0.000 C 
BRANCH   2   3
ATOM      3  C   UNL     1      20.460  23.441  10.227  1.00  0.00     0.000 C 
BRANCH   3   4
ATOM      4  C   UNL     1      19.391  24.546  10.106  1.00  0.00    -0.000 C 
BRANCH   4   5
ATOM      5  C   UNL     1      19.326  25.204   8.712  1.00  0.00    -0.000 C 
BRANCH   5   6
ATOM      6  C   UNL     1      17.927  25.750   8.377  1.00  0.00    -0.000 C 
BRANCH   6   7
ATOM      7  C   UNL     1      16.875  24.639   8.201  1.00  0.00    -0.000 C 
BRANCH   7   8
ATOM      8  C   UNL     1      17.084  23.729   6.977  1.00  0.00    -0.000 C 
BRANCH   8   9
ATOM      9  C   UNL     1      17.288  22.252   7.355  1.00  0.00    -0.000 C 
BRANCH   9  10
ATOM     10  C   UNL     1      16.879  21.954   8.807  1.00  0.00    -0.000 C 
BRANCH  10  11
ATOM     11  C   UNL     1      17.455  20.627   9.323  1.00  0.00    -0.003 C 
ATOM     12  C   UNL     1      17.818  19.700   8.166  1.00  0.00     0.004 C 
ENDBRANCH  10  11
ENDBRANCH   9  10
ENDBRANCH   8   9
ENDBRANCH   7   8
ENDBRANCH   6   7
ENDBRANCH   5   6
ENDBRANCH   4   5
ENDBRANCH   3   4
ENDBRANCH   2   3
ENDBRANCH   1   2
BRANCH   1  13
ATOM     13  C   UNL     1      22.109  21.274   7.371  1.00  0.00     0.000 C 
BRANCH  13  14
ATOM     14  C   UNL     1      20.935  21.631   6.446  1.00  0.00     0.000 C 
BRANCH  14  15
ATOM     15  C   UNL     1      21.199  21.235   4.983  1.00  0.00     0.000 C 
BRANCH  15  16
ATOM     16  C   UNL     1      19.921  21.231   4.124  1.00  0.00     0.000 C 
BRANCH  16  17
ATOM     17  C   UNL     1      18.818  20.259   4.594  1.00  0.00     0.000 C 
BRANCH  17  18
ATOM     18  C   UNL     1      19.084  18.774   4.290  1.00  0.00     0.000 C 
BRANCH  18  19
ATOM     19  C   UNL     1      19.654  17.963   5.469  1.00  0.00     0.000 C 
BRANCH  19  20
ATOM     20  C   UNL     1      21.011  17.294   5.163  1.00  0.00     0.006 C 
BRANCH  20  21
ATOM     21  C   UNL     1      22.130  17.781   6.092  1.00  0.00     0.053 C 
BRANCH  21  22
ATOM     22  C   UNL     1      23.365  18.097   5.307  1.00  0.00     0.041 C 
ATOM     23  O   UNL     1      23.525  17.610   4.158  1.00  0.00    -0.550 OA
ATOM     24  O   UNL     1      24.322  18.955   5.834  1.00  0.00    -0.550 OA
ENDBRANCH  21  22
ENDBRANCH  20  21
ENDBRANCH  19  20
ENDBRANCH  18  19
ENDBRANCH  17  18
ENDBRANCH  16  17
ENDBRANCH  15  16
ENDBRANCH  14  15
ENDBRANCH  13  14
ENDBRANCH   1  13
TORSDOF 20
ENDMDL
