MODEL 1
REMARK VINA RESULT:    -6.687      0.000      0.000
REMARK INTER + INTRA:          -8.373
REMARK INTER:                  -8.055
REMARK INTRA:                  -0.318
REMARK UNBOUND:                -0.318
REMARK SMILES O=c1c(O)c(-c2ccc(O)c(O)c2)oc2cc(O)cc(O)c12
REMARK SMILES IDX 5 1 3 2 2 3 1 4 22 5 20 6 19 7 17 8 16 9 15 10 14 11 6 12
REMARK SMILES IDX 7 13 8 14 9 15 13 16 11 17 10 18 12 20 4 22 21 24 18 26
REMARK H PARENT 10 19 12 21 4 23 21 25 18 27
REMARK Flexibility Score: inf
ROOT
ATOM      1  C   UNL     1       9.213  10.277 -20.135  1.00  0.00     0.180 A 
ATOM      2  C   UNL     1       9.770  11.441 -19.577  1.00  0.00     0.208 A 
ATOM      3  C   UNL     1       9.982  12.557 -20.403  1.00  0.00     0.238 A 
ATOM      4  O   UNL     1      10.431  13.614 -19.887  1.00  0.00    -0.285 OA
ATOM      5  C   UNL     1       9.651  12.490 -21.777  1.00  0.00     0.111 A 
ATOM      6  C   UNL     1       9.860  13.547 -22.714  1.00  0.00     0.134 A 
ATOM      7  C   UNL     1       9.374  13.418 -24.021  1.00  0.00     0.093 A 
ATOM      8  C   UNL     1       8.744  12.244 -24.442  1.00  0.00     0.123 A 
ATOM      9  C   UNL     1       8.588  11.185 -23.552  1.00  0.00     0.094 A 
ATOM     10  C   UNL     1       9.030  11.297 -22.231  1.00  0.00     0.146 A 
ATOM     11  O   UNL     1       8.851  10.268 -21.412  1.00  0.00    -0.452 OA
ENDROOT
BRANCH   1  12
ATOM     12  C   UNL     1       8.983   9.053 -19.335  1.00  0.00     0.025 A 
ATOM     13  C   UNL     1       9.981   8.068 -19.277  1.00  0.00     0.016 A 
ATOM     14  C   UNL     1       9.794   6.914 -18.512  1.00  0.00     0.051 A 
ATOM     15  C   UNL     1       8.615   6.733 -17.783  1.00  0.00     0.157 A 
ATOM     16  C   UNL     1       7.806   8.878 -18.584  1.00  0.00     0.062 A 
ATOM     17  C   UNL     1       7.617   7.721 -17.813  1.00  0.00     0.158 A 
BRANCH  15  18
ATOM     18  O   UNL     1       8.455   5.570 -17.030  1.00  0.00    -0.504 OA
ATOM     19  H   UNL     1       7.596   5.034 -17.044  1.00  0.00     0.293 HD
ENDBRANCH  15  18
BRANCH  17  20
ATOM     20  O   UNL     1       6.446   7.553 -17.078  1.00  0.00    -0.504 OA
ATOM     21  H   UNL     1       6.336   7.956 -16.154  1.00  0.00     0.293 HD
ENDBRANCH  17  20
ENDBRANCH   1  12
BRANCH   2  22
ATOM     22  O   UNL     1      10.070  11.494 -18.213  1.00  0.00    -0.502 OA
ATOM     23  H   UNL     1       9.859  12.301 -17.640  1.00  0.00     0.293 HD
ENDBRANCH   2  22
BRANCH   6  24
ATOM     24  O   UNL     1      10.559  14.722 -22.421  1.00  0.00    -0.507 OA
ATOM     25  H   UNL     1      10.922  14.964 -21.512  1.00  0.00     0.293 HD
ENDBRANCH   6  24
BRANCH   8  26
ATOM     26  O   UNL     1       8.277  12.118 -25.749  1.00  0.00    -0.508 OA
ATOM     27  H   UNL     1       7.611  11.399 -26.007  1.00  0.00     0.293 HD
ENDBRANCH   8  26
TORSDOF 6
ENDMDL
MODEL 2
REMARK VINA RESULT:    -6.671      1.804      7.343
REMARK INTER + INTRA:          -8.354
REMARK INTER:                  -8.038
REMARK INTRA:                  -0.315
REMARK UNBOUND:                -0.318
REMARK SMILES O=c1c(O)c(-c2ccc(O)c(O)c2)oc2cc(O)cc(O)c12
REMARK SMILES IDX 5 1 3 2 2 3 1 4 22 5 20 6 19 7 17 8 16 9 15 10 14 11 6 12
REMARK SMILES IDX 7 13 8 14 9 15 13 16 11 17 10 18 12 20 4 22 21 24 18 26
REMARK H PARENT 10 19 12 21 4 23 21 25 18 27
REMARK Flexibility Score: inf
ROOT
ATOM      1  C   UNL     1       8.770   9.866 -19.029  1.00  0.00     0.180 A 
ATOM      2  C   UNL     1       9.294   8.597 -19.332  1.00  0.00     0.208 A 
ATOM      3  C   UNL     1       8.870   7.489 -18.581  1.00  0.00     0.238 A 
ATOM      4  O   UNL     1       9.302   6.348 -18.891  1.00  0.00    -0.285 OA
ATOM      5  C   UNL     1       7.941   7.665 -17.527  1.00  0.00     0.111 A 
ATOM      6  C   UNL     1       7.473   6.619 -16.676  1.00  0.00     0.134 A 
ATOM      7  C   UNL     1       6.455   6.884 -15.751  1.00  0.00     0.093 A 
ATOM      8  C   UNL     1       5.936   8.173 -15.603  1.00  0.00     0.123 A 
ATOM      9  C   UNL     1       6.428   9.212 -16.388  1.00  0.00     0.094 A 
ATOM     10  C   UNL     1       7.417   8.971 -17.344  1.00  0.00     0.146 A 
ATOM     11  O   UNL     1       7.851   9.988 -18.079  1.00  0.00    -0.452 OA
ENDROOT
BRANCH   1  12
ATOM     12  C   UNL     1       9.187  11.085 -19.758  1.00  0.00     0.025 A 
ATOM     13  C   UNL     1      10.359  11.754 -19.373  1.00  0.00     0.016 A 
ATOM     14  C   UNL     1      10.783  12.894 -20.060  1.00  0.00     0.051 A 
ATOM     15  C   UNL     1      10.051  13.374 -21.150  1.00  0.00     0.157 A 
ATOM     16  C   UNL     1       8.464  11.558 -20.869  1.00  0.00     0.062 A 
ATOM     17  C   UNL     1       8.889  12.702 -21.561  1.00  0.00     0.158 A 
BRANCH  15  18
ATOM     18  O   UNL     1      10.497  14.517 -21.816  1.00  0.00    -0.504 OA
ATOM     19  H   UNL     1      11.455  14.840 -21.747  1.00  0.00     0.293 HD
ENDBRANCH  15  18
BRANCH  17  20
ATOM     20  O   UNL     1       8.163  13.168 -22.656  1.00  0.00    -0.504 OA
ATOM     21  H   UNL     1       8.585  13.763 -23.359  1.00  0.00     0.293 HD
ENDBRANCH  17  20
ENDBRANCH   1  12
BRANCH   2  22
ATOM     22  O   UNL     1      10.194   8.442 -20.390  1.00  0.00    -0.502 OA
ATOM     23  H   UNL     1      10.049   7.770 -21.133  1.00  0.00     0.293 HD
ENDBRANCH   2  22
BRANCH   6  24
ATOM     24  O   UNL     1       7.989   5.320 -16.680  1.00  0.00    -0.507 OA
ATOM     25  H   UNL     1       7.496   4.504 -16.351  1.00  0.00     0.293 HD
ENDBRANCH   6  24
BRANCH   8  26
ATOM     26  O   UNL     1       4.934   8.431 -14.669  1.00  0.00    -0.508 OA
ATOM     27  H   UNL     1       4.208   7.753 -14.469  1.00  0.00     0.293 HD
ENDBRANCH   8  26
TORSDOF 6
ENDMDL
MODEL 3
REMARK VINA RESULT:    -6.388      2.459      7.239
REMARK INTER + INTRA:          -8.013
REMARK INTER:                  -7.682
REMARK INTRA:                  -0.331
REMARK UNBOUND:                -0.318
REMARK SMILES O=c1c(O)c(-c2ccc(O)c(O)c2)oc2cc(O)cc(O)c12
REMARK SMILES IDX 5 1 3 2 2 3 1 4 22 5 20 6 19 7 17 8 16 9 15 10 14 11 6 12
REMARK SMILES IDX 7 13 8 14 9 15 13 16 11 17 10 18 12 20 4 22 21 24 18 26
REMARK H PARENT 10 19 12 21 4 23 21 25 18 27
REMARK Flexibility Score: inf
ROOT
ATOM      1  C   UNL     1       6.900   9.770 -19.943  1.00  0.00     0.180 A 
ATOM      2  C   UNL     1       6.292  10.518 -18.920  1.00  0.00     0.208 A 
ATOM      3  C   UNL     1       6.003   9.890 -17.697  1.00  0.00     0.238 A 
ATOM      4  O   UNL     1       5.508  10.578 -16.766  1.00  0.00    -0.285 OA
ATOM      5  C   UNL     1       6.310   8.520 -17.519  1.00  0.00     0.111 A 
ATOM      6  C   UNL     1       6.026   7.772 -16.337  1.00  0.00     0.134 A 
ATOM      7  C   UNL     1       6.492   6.456 -16.222  1.00  0.00     0.093 A 
ATOM      8  C   UNL     1       7.176   5.842 -17.273  1.00  0.00     0.123 A 
ATOM      9  C   UNL     1       7.407   6.543 -18.453  1.00  0.00     0.094 A 
ATOM     10  C   UNL     1       6.986   7.869 -18.584  1.00  0.00     0.146 A 
ATOM     11  O   UNL     1       7.236   8.505 -19.722  1.00  0.00    -0.452 OA
ENDROOT
BRANCH   1  12
ATOM     12  C   UNL     1       7.211  10.355 -21.267  1.00  0.00     0.025 A 
ATOM     13  C   UNL     1       8.478  10.916 -21.494  1.00  0.00     0.016 A 
ATOM     14  C   UNL     1       8.801  11.454 -22.742  1.00  0.00     0.051 A 
ATOM     15  C   UNL     1       7.870  11.428 -23.785  1.00  0.00     0.157 A 
ATOM     16  C   UNL     1       6.284  10.311 -22.324  1.00  0.00     0.062 A 
ATOM     17  C   UNL     1       6.607  10.850 -23.578  1.00  0.00     0.158 A 
BRANCH  15  18
ATOM     18  O   UNL     1       8.219  11.976 -25.019  1.00  0.00    -0.504 OA
ATOM     19  H   UNL     1       7.691  11.784 -25.862  1.00  0.00     0.293 HD
ENDBRANCH  15  18
BRANCH  17  20
ATOM     20  O   UNL     1       5.679  10.808 -24.618  1.00  0.00    -0.504 OA
ATOM     21  H   UNL     1       4.996  10.063 -24.691  1.00  0.00     0.293 HD
ENDBRANCH  17  20
ENDBRANCH   1  12
BRANCH   2  22
ATOM     22  O   UNL     1       6.016  11.875 -19.108  1.00  0.00    -0.502 OA
ATOM     23  H   UNL     1       6.244  12.363 -19.966  1.00  0.00     0.293 HD
ENDBRANCH   2  22
BRANCH   6  24
ATOM     24  O   UNL     1       5.271   8.262 -15.267  1.00  0.00    -0.507 OA
ATOM     25  H   UNL     1       4.606   9.017 -15.330  1.00  0.00     0.293 HD
ENDBRANCH   6  24
BRANCH   8  26
ATOM     26  O   UNL     1       7.624   4.527 -17.157  1.00  0.00    -0.508 OA
ATOM     27  H   UNL     1       8.255   4.120 -17.837  1.00  0.00     0.293 HD
ENDBRANCH   8  26
TORSDOF 6
ENDMDL
MODEL 4
REMARK VINA RESULT:    -6.329      2.058      7.138
REMARK INTER + INTRA:          -7.942
REMARK INTER:                  -7.860
REMARK INTRA:                  -0.082
REMARK UNBOUND:                -0.318
REMARK SMILES O=c1c(O)c(-c2ccc(O)c(O)c2)oc2cc(O)cc(O)c12
REMARK SMILES IDX 5 1 3 2 2 3 1 4 22 5 20 6 19 7 17 8 16 9 15 10 14 11 6 12
REMARK SMILES IDX 7 13 8 14 9 15 13 16 11 17 10 18 12 20 4 22 21 24 18 26
REMARK H PARENT 10 19 12 21 4 23 21 25 18 27
REMARK Flexibility Score: inf
ROOT
ATOM      1  C   UNL     1       8.128   9.899 -18.676  1.00  0.00     0.180 A 
ATOM      2  C   UNL     1       7.680  10.320 -17.412  1.00  0.00     0.208 A 
ATOM      3  C   UNL     1       7.030   9.396 -16.577  1.00  0.00     0.238 A 
ATOM      4  O   UNL     1       6.679   9.764 -15.425  1.00  0.00    -0.285 OA
ATOM      5  C   UNL     1       6.824   8.068 -17.022  1.00  0.00     0.111 A 
ATOM      6  C   UNL     1       6.143   7.060 -16.276  1.00  0.00     0.134 A 
ATOM      7  C   UNL     1       6.112   5.745 -16.758  1.00  0.00     0.093 A 
ATOM      8  C   UNL     1       6.680   5.418 -17.992  1.00  0.00     0.123 A 
ATOM      9  C   UNL     1       7.295   6.407 -18.755  1.00  0.00     0.094 A 
ATOM     10  C   UNL     1       7.374   7.720 -18.283  1.00  0.00     0.146 A 
ATOM     11  O   UNL     1       7.978   8.630 -19.038  1.00  0.00    -0.452 OA
ENDROOT
BRANCH   1  12
ATOM     12  C   UNL     1       8.797  10.821 -19.622  1.00  0.00     0.025 A 
ATOM     13  C   UNL     1       8.216  11.064 -20.876  1.00  0.00     0.016 A 
ATOM     14  C   UNL     1       8.820  11.946 -21.776  1.00  0.00     0.051 A 
ATOM     15  C   UNL     1      10.002  12.609 -21.432  1.00  0.00     0.157 A 
ATOM     16  C   UNL     1       9.975  11.504 -19.269  1.00  0.00     0.062 A 
ATOM     17  C   UNL     1      10.581  12.392 -20.171  1.00  0.00     0.158 A 
BRANCH  15  18
ATOM     18  O   UNL     1      10.582  13.482 -22.352  1.00  0.00    -0.504 OA
ATOM     19  H   UNL     1      10.871  13.178 -23.274  1.00  0.00     0.293 HD
ENDBRANCH  15  18
BRANCH  17  20
ATOM     20  O   UNL     1      11.752  13.059 -19.816  1.00  0.00    -0.504 OA
ATOM     21  H   UNL     1      12.073  13.094 -18.856  1.00  0.00     0.293 HD
ENDBRANCH  17  20
ENDBRANCH   1  12
BRANCH   2  22
ATOM     22  O   UNL     1       7.913  11.629 -16.983  1.00  0.00    -0.502 OA
ATOM     23  H   UNL     1       8.218  12.362 -17.611  1.00  0.00     0.293 HD
ENDBRANCH   2  22
BRANCH   6  24
ATOM     24  O   UNL     1       5.464   7.301 -15.078  1.00  0.00    -0.507 OA
ATOM     25  H   UNL     1       5.407   8.197 -14.619  1.00  0.00     0.293 HD
ENDBRANCH   6  24
BRANCH   8  26
ATOM     26  O   UNL     1       6.631   4.111 -18.472  1.00  0.00    -0.508 OA
ATOM     27  H   UNL     1       5.791   3.733 -18.894  1.00  0.00     0.293 HD
ENDBRANCH   8  26
TORSDOF 6
ENDMDL
MODEL 5
REMARK VINA RESULT:    -6.309      1.694      2.582
REMARK INTER + INTRA:          -7.917
REMARK INTER:                  -7.781
REMARK INTRA:                  -0.136
REMARK UNBOUND:                -0.318
REMARK SMILES O=c1c(O)c(-c2ccc(O)c(O)c2)oc2cc(O)cc(O)c12
REMARK SMILES IDX 5 1 3 2 2 3 1 4 22 5 20 6 19 7 17 8 16 9 15 10 14 11 6 12
REMARK SMILES IDX 7 13 8 14 9 15 13 16 11 17 10 18 12 20 4 22 21 24 18 26
REMARK H PARENT 10 19 12 21 4 23 21 25 18 27
REMARK Flexibility Score: inf
ROOT
ATOM      1  C   UNL     1       7.981  10.108 -18.370  1.00  0.00     0.180 A 
ATOM      2  C   UNL     1       8.619  11.253 -17.862  1.00  0.00     0.208 A 
ATOM      3  C   UNL     1       9.263  12.126 -18.755  1.00  0.00     0.238 A 
ATOM      4  O   UNL     1       9.787  13.177 -18.301  1.00  0.00    -0.285 OA
ATOM      5  C   UNL     1       9.273  11.835 -20.140  1.00  0.00     0.111 A 
ATOM      6  C   UNL     1       9.928  12.628 -21.130  1.00  0.00     0.134 A 
ATOM      7  C   UNL     1       9.763  12.317 -22.486  1.00  0.00     0.093 A 
ATOM      8  C   UNL     1       9.019  11.203 -22.883  1.00  0.00     0.123 A 
ATOM      9  C   UNL     1       8.425  10.389 -21.922  1.00  0.00     0.094 A 
ATOM     10  C   UNL     1       8.542  10.694 -20.563  1.00  0.00     0.146 A 
ATOM     11  O   UNL     1       7.952   9.898 -19.680  1.00  0.00    -0.452 OA
ENDROOT
BRANCH   1  12
ATOM     12  C   UNL     1       7.304   9.129 -17.490  1.00  0.00     0.025 A 
ATOM     13  C   UNL     1       6.172   9.522 -16.760  1.00  0.00     0.016 A 
ATOM     14  C   UNL     1       5.506   8.609 -15.939  1.00  0.00     0.051 A 
ATOM     15  C   UNL     1       5.951   7.287 -15.847  1.00  0.00     0.157 A 
ATOM     16  C   UNL     1       7.738   7.792 -17.412  1.00  0.00     0.062 A 
ATOM     17  C   UNL     1       7.069   6.873 -16.590  1.00  0.00     0.158 A 
BRANCH  15  18
ATOM     18  O   UNL     1       5.267   6.397 -15.017  1.00  0.00    -0.504 OA
ATOM     19  H   UNL     1       4.352   6.035 -15.256  1.00  0.00     0.293 HD
ENDBRANCH  15  18
BRANCH  17  20
ATOM     20  O   UNL     1       7.509   5.553 -16.513  1.00  0.00    -0.504 OA
ATOM     21  H   UNL     1       8.458   5.294 -16.759  1.00  0.00     0.293 HD
ENDBRANCH  17  20
ENDBRANCH   1  12
BRANCH   2  22
ATOM     22  O   UNL     1       8.579  11.533 -16.494  1.00  0.00    -0.502 OA
ATOM     23  H   UNL     1       7.712  11.576 -15.972  1.00  0.00     0.293 HD
ENDBRANCH   2  22
BRANCH   6  24
ATOM     24  O   UNL     1      10.768  13.706 -20.836  1.00  0.00    -0.507 OA
ATOM     25  H   UNL     1      10.521  14.482 -20.240  1.00  0.00     0.293 HD
ENDBRANCH   6  24
BRANCH   8  26
ATOM     26  O   UNL     1       8.872  10.891 -24.233  1.00  0.00    -0.508 OA
ATOM     27  H   UNL     1       9.308  11.451 -24.956  1.00  0.00     0.293 HD
ENDBRANCH   8  26
TORSDOF 6
ENDMDL
MODEL 6
REMARK VINA RESULT:    -6.294      1.521      3.088
REMARK INTER + INTRA:          -7.900
REMARK INTER:                  -7.569
REMARK INTRA:                  -0.331
REMARK UNBOUND:                -0.318
REMARK SMILES O=c1c(O)c(-c2ccc(O)c(O)c2)oc2cc(O)cc(O)c12
REMARK SMILES IDX 5 1 3 2 2 3 1 4 22 5 20 6 19 7 17 8 16 9 15 10 14 11 6 12
REMARK SMILES IDX 7 13 8 14 9 15 13 16 11 17 10 18 12 20 4 22 21 24 18 26
REMARK H PARENT 10 19 12 21 4 23 21 25 18 27
REMARK Flexibility Score: inf
ROOT
ATOM      1  C   UNL     1       7.933   9.463 -20.441  1.00  0.00     0.180 A 
ATOM      2  C   UNL     1       7.440   9.062 -21.695  1.00  0.00     0.208 A 
ATOM      3  C   UNL     1       7.651   9.893 -22.808  1.00  0.00     0.238 A 
ATOM      4  O   UNL     1       7.254   9.504 -23.937  1.00  0.00    -0.285 OA
ATOM      5  C   UNL     1       8.338  11.121 -22.649  1.00  0.00     0.111 A 
ATOM      6  C   UNL     1       8.573  12.058 -23.700  1.00  0.00     0.134 A 
ATOM      7  C   UNL     1       9.378  13.180 -23.458  1.00  0.00     0.093 A 
ATOM      8  C   UNL     1       9.900  13.429 -22.186  1.00  0.00     0.123 A 
ATOM      9  C   UNL     1       9.627  12.551 -21.141  1.00  0.00     0.094 A 
ATOM     10  C   UNL     1       8.858  11.405 -21.360  1.00  0.00     0.146 A 
ATOM     11  O   UNL     1       8.630  10.588 -20.338  1.00  0.00    -0.452 OA
ENDROOT
BRANCH   1  12
ATOM     12  C   UNL     1       7.728   8.654 -19.219  1.00  0.00     0.025 A 
ATOM     13  C   UNL     1       8.702   7.719 -18.837  1.00  0.00     0.016 A 
ATOM     14  C   UNL     1       8.539   6.959 -17.676  1.00  0.00     0.051 A 
ATOM     15  C   UNL     1       7.409   7.133 -16.872  1.00  0.00     0.157 A 
ATOM     16  C   UNL     1       6.601   8.842 -18.396  1.00  0.00     0.062 A 
ATOM     17  C   UNL     1       6.437   8.081 -17.229  1.00  0.00     0.158 A 
BRANCH  15  18
ATOM     18  O   UNL     1       7.272   6.358 -15.719  1.00  0.00    -0.504 OA
ATOM     19  H   UNL     1       6.392   5.929 -15.462  1.00  0.00     0.293 HD
ENDBRANCH  15  18
BRANCH  17  20
ATOM     20  O   UNL     1       5.315   8.269 -16.424  1.00  0.00    -0.504 OA
ATOM     21  H   UNL     1       5.221   7.805 -15.528  1.00  0.00     0.293 HD
ENDBRANCH  17  20
ENDBRANCH   1  12
BRANCH   2  22
ATOM     22  O   UNL     1       6.783   7.836 -21.833  1.00  0.00    -0.502 OA
ATOM     23  H   UNL     1       7.101   7.117 -22.471  1.00  0.00     0.293 HD
ENDBRANCH   2  22
BRANCH   6  24
ATOM     24  O   UNL     1       8.022  11.951 -24.980  1.00  0.00    -0.507 OA
ATOM     25  H   UNL     1       7.371  12.607 -25.382  1.00  0.00     0.293 HD
ENDBRANCH   6  24
BRANCH   8  26
ATOM     26  O   UNL     1      10.687  14.554 -21.950  1.00  0.00    -0.508 OA
ATOM     27  H   UNL     1      10.273  15.455 -21.740  1.00  0.00     0.293 HD
ENDBRANCH   8  26
TORSDOF 6
ENDMDL
MODEL 7
REMARK VINA RESULT:    -6.280      1.918      7.087
REMARK INTER + INTRA:          -7.883
REMARK INTER:                  -7.553
REMARK INTRA:                  -0.330
REMARK UNBOUND:                -0.318
REMARK SMILES O=c1c(O)c(-c2ccc(O)c(O)c2)oc2cc(O)cc(O)c12
REMARK SMILES IDX 5 1 3 2 2 3 1 4 22 5 20 6 19 7 17 8 16 9 15 10 14 11 6 12
REMARK SMILES IDX 7 13 8 14 9 15 13 16 11 17 10 18 12 20 4 22 21 24 18 26
REMARK H PARENT 10 19 12 21 4 23 21 25 18 27
REMARK Flexibility Score: inf
ROOT
ATOM      1  C   UNL     1       7.821  10.832 -19.321  1.00  0.00     0.180 A 
ATOM      2  C   UNL     1       6.878  11.380 -18.433  1.00  0.00     0.208 A 
ATOM      3  C   UNL     1       6.339  10.566 -17.424  1.00  0.00     0.238 A 
ATOM      4  O   UNL     1       5.537  11.076 -16.599  1.00  0.00    -0.285 OA
ATOM      5  C   UNL     1       6.738   9.211 -17.325  1.00  0.00     0.111 A 
ATOM      6  C   UNL     1       6.228   8.284 -16.366  1.00  0.00     0.134 A 
ATOM      7  C   UNL     1       6.789   7.004 -16.276  1.00  0.00     0.093 A 
ATOM      8  C   UNL     1       7.797   6.597 -17.153  1.00  0.00     0.123 A 
ATOM      9  C   UNL     1       8.260   7.474 -18.130  1.00  0.00     0.094 A 
ATOM     10  C   UNL     1       7.746   8.770 -18.222  1.00  0.00     0.146 A 
ATOM     11  O   UNL     1       8.223   9.577 -19.161  1.00  0.00    -0.452 OA
ENDROOT
BRANCH   1  12
ATOM     12  C   UNL     1       8.413  11.620 -20.425  1.00  0.00     0.025 A 
ATOM     13  C   UNL     1       9.615  12.313 -20.213  1.00  0.00     0.016 A 
ATOM     14  C   UNL     1      10.203  13.046 -21.247  1.00  0.00     0.051 A 
ATOM     15  C   UNL     1       9.607  13.086 -22.511  1.00  0.00     0.157 A 
ATOM     16  C   UNL     1       7.826  11.646 -21.704  1.00  0.00     0.062 A 
ATOM     17  C   UNL     1       8.416  12.379 -22.744  1.00  0.00     0.158 A 
BRANCH  15  18
ATOM     18  O   UNL     1      10.216  13.828 -23.524  1.00  0.00    -0.504 OA
ATOM     19  H   UNL     1      11.180  13.680 -23.794  1.00  0.00     0.293 HD
ENDBRANCH  15  18
BRANCH  17  20
ATOM     20  O   UNL     1       7.825  12.404 -24.006  1.00  0.00    -0.504 OA
ATOM     21  H   UNL     1       7.710  11.561 -24.556  1.00  0.00     0.293 HD
ENDBRANCH  17  20
ENDBRANCH   1  12
BRANCH   2  22
ATOM     22  O   UNL     1       6.515  12.726 -18.535  1.00  0.00    -0.502 OA
ATOM     23  H   UNL     1       7.146  13.480 -18.295  1.00  0.00     0.293 HD
ENDBRANCH   2  22
BRANCH   6  24
ATOM     24  O   UNL     1       5.161   8.560 -15.506  1.00  0.00    -0.507 OA
ATOM     25  H   UNL     1       5.141   9.314 -14.837  1.00  0.00     0.293 HD
ENDBRANCH   6  24
BRANCH   8  26
ATOM     26  O   UNL     1       8.340   5.317 -17.066  1.00  0.00    -0.508 OA
ATOM     27  H   UNL     1       9.291   5.123 -17.356  1.00  0.00     0.293 HD
ENDBRANCH   8  26
TORSDOF 6
ENDMDL
MODEL 8
REMARK VINA RESULT:    -6.202      1.562      2.954
REMARK INTER + INTRA:          -7.789
REMARK INTER:                  -7.485
REMARK INTRA:                  -0.304
REMARK UNBOUND:                -0.318
REMARK SMILES O=c1c(O)c(-c2ccc(O)c(O)c2)oc2cc(O)cc(O)c12
REMARK SMILES IDX 5 1 3 2 2 3 1 4 22 5 20 6 19 7 17 8 16 9 15 10 14 11 6 12
REMARK SMILES IDX 7 13 8 14 9 15 13 16 11 17 10 18 12 20 4 22 21 24 18 26
REMARK H PARENT 10 19 12 21 4 23 21 25 18 27
REMARK Flexibility Score: inf
ROOT
ATOM      1  C   UNL     1       8.873  10.525 -21.259  1.00  0.00     0.180 A 
ATOM      2  C   UNL     1       9.066  10.296 -22.632  1.00  0.00     0.208 A 
ATOM      3  C   UNL     1       9.045  11.389 -23.514  1.00  0.00     0.238 A 
ATOM      4  O   UNL     1       9.272  11.185 -24.735  1.00  0.00    -0.285 OA
ATOM      5  C   UNL     1       8.816  12.693 -23.013  1.00  0.00     0.111 A 
ATOM      6  C   UNL     1       8.735  13.868 -23.820  1.00  0.00     0.134 A 
ATOM      7  C   UNL     1       8.636  15.123 -23.206  1.00  0.00     0.093 A 
ATOM      8  C   UNL     1       8.550  15.239 -21.816  1.00  0.00     0.123 A 
ATOM      9  C   UNL     1       8.568  14.094 -21.024  1.00  0.00     0.094 A 
ATOM     10  C   UNL     1       8.703  12.831 -21.605  1.00  0.00     0.146 A 
ATOM     11  O   UNL     1       8.727  11.766 -20.813  1.00  0.00    -0.452 OA
ENDROOT
BRANCH   1  12
ATOM     12  C   UNL     1       8.855   9.421 -20.271  1.00  0.00     0.025 A 
ATOM     13  C   UNL     1      10.068   8.935 -19.758  1.00  0.00     0.016 A 
ATOM     14  C   UNL     1      10.074   7.908 -18.810  1.00  0.00     0.051 A 
ATOM     15  C   UNL     1       8.871   7.363 -18.351  1.00  0.00     0.157 A 
ATOM     16  C   UNL     1       7.646   8.885 -19.793  1.00  0.00     0.062 A 
ATOM     17  C   UNL     1       7.650   7.856 -18.839  1.00  0.00     0.158 A 
BRANCH  15  18
ATOM     18  O   UNL     1       8.908   6.338 -17.406  1.00  0.00    -0.504 OA
ATOM     19  H   UNL     1       8.321   6.345 -16.581  1.00  0.00     0.293 HD
ENDBRANCH  15  18
BRANCH  17  20
ATOM     20  O   UNL     1       6.447   7.327 -18.376  1.00  0.00    -0.504 OA
ATOM     21  H   UNL     1       5.556   7.748 -18.611  1.00  0.00     0.293 HD
ENDBRANCH  17  20
ENDBRANCH   1  12
BRANCH   2  22
ATOM     22  O   UNL     1       9.311   9.003 -23.103  1.00  0.00    -0.502 OA
ATOM     23  H   UNL     1      10.042   8.415 -22.722  1.00  0.00     0.293 HD
ENDBRANCH   2  22
BRANCH   6  24
ATOM     24  O   UNL     1       8.720  13.855 -25.218  1.00  0.00    -0.507 OA
ATOM     25  H   UNL     1       8.824  13.029 -25.787  1.00  0.00     0.293 HD
ENDBRANCH   6  24
BRANCH   8  26
ATOM     26  O   UNL     1       8.436  16.490 -21.214  1.00  0.00    -0.508 OA
ATOM     27  H   UNL     1       7.542  16.962 -21.137  1.00  0.00     0.293 HD
ENDBRANCH   8  26
TORSDOF 6
ENDMDL
MODEL 9
REMARK VINA RESULT:    -6.116      2.836      7.416
REMARK INTER + INTRA:          -7.686
REMARK INTER:                  -7.463
REMARK INTRA:                  -0.223
REMARK UNBOUND:                -0.318
REMARK SMILES O=c1c(O)c(-c2ccc(O)c(O)c2)oc2cc(O)cc(O)c12
REMARK SMILES IDX 5 1 3 2 2 3 1 4 22 5 20 6 19 7 17 8 16 9 15 10 14 11 6 12
REMARK SMILES IDX 7 13 8 14 9 15 13 16 11 17 10 18 12 20 4 22 21 24 18 26
REMARK H PARENT 10 19 12 21 4 23 21 25 18 27
REMARK Flexibility Score: inf
ROOT
ATOM      1  C   UNL     1       8.487  13.634 -22.116  1.00  0.00     0.180 A 
ATOM      2  C   UNL     1       8.614  13.130 -23.422  1.00  0.00     0.208 A 
ATOM      3  C   UNL     1       8.857  11.759 -23.603  1.00  0.00     0.238 A 
ATOM      4  O   UNL     1       8.916  11.304 -24.775  1.00  0.00    -0.285 OA
ATOM      5  C   UNL     1       8.985  10.912 -22.476  1.00  0.00     0.111 A 
ATOM      6  C   UNL     1       9.270   9.515 -22.540  1.00  0.00     0.134 A 
ATOM      7  C   UNL     1       9.245   8.749 -21.367  1.00  0.00     0.093 A 
ATOM      8  C   UNL     1       9.009   9.344 -20.125  1.00  0.00     0.123 A 
ATOM      9  C   UNL     1       8.788  10.716 -20.046  1.00  0.00     0.094 A 
ATOM     10  C   UNL     1       8.771  11.500 -21.202  1.00  0.00     0.146 A 
ATOM     11  O   UNL     1       8.546  12.803 -21.082  1.00  0.00    -0.452 OA
ENDROOT
BRANCH   1  12
ATOM     12  C   UNL     1       8.256  15.071 -21.845  1.00  0.00     0.025 A 
ATOM     13  C   UNL     1       7.051  15.477 -21.251  1.00  0.00     0.016 A 
ATOM     14  C   UNL     1       6.821  16.826 -20.968  1.00  0.00     0.051 A 
ATOM     15  C   UNL     1       7.795  17.786 -21.258  1.00  0.00     0.157 A 
ATOM     16  C   UNL     1       9.244  16.036 -22.118  1.00  0.00     0.062 A 
ATOM     17  C   UNL     1       9.015  17.390 -21.832  1.00  0.00     0.158 A 
BRANCH  15  18
ATOM     18  O   UNL     1       7.537  19.125 -20.966  1.00  0.00    -0.504 OA
ATOM     19  H   UNL     1       8.029  19.620 -20.233  1.00  0.00     0.293 HD
ENDBRANCH  15  18
BRANCH  17  20
ATOM     20  O   UNL     1       9.996  18.339 -22.112  1.00  0.00    -0.504 OA
ATOM     21  H   UNL     1       9.955  18.915 -22.945  1.00  0.00     0.293 HD
ENDBRANCH  17  20
ENDBRANCH   1  12
BRANCH   2  22
ATOM     22  O   UNL     1       8.462  13.980 -24.522  1.00  0.00    -0.502 OA
ATOM     23  H   UNL     1       8.762  13.723 -25.454  1.00  0.00     0.293 HD
ENDBRANCH   2  22
BRANCH   6  24
ATOM     24  O   UNL     1       9.609   8.841 -23.717  1.00  0.00    -0.507 OA
ATOM     25  H   UNL     1       8.962   8.615 -24.457  1.00  0.00     0.293 HD
ENDBRANCH   6  24
BRANCH   8  26
ATOM     26  O   UNL     1       9.002   8.578 -18.961  1.00  0.00    -0.508 OA
ATOM     27  H   UNL     1       8.519   8.889 -18.126  1.00  0.00     0.293 HD
ENDBRANCH   8  26
TORSDOF 6
ENDMDL
