MODEL 1
REMARK VINA RESULT:    -5.052      0.000      0.000
REMARK INTER + INTRA:          -6.387
REMARK INTER:                  -6.085
REMARK INTRA:                  -0.301
REMARK UNBOUND:                -0.301
REMARK SMILES O=c1c(O)c(-c2ccc(O)c(O)c2)oc2cc(O)cc(O)c12
REMARK SMILES IDX 5 1 3 2 2 3 1 4 22 5 20 6 19 7 17 8 16 9 15 10 14 11 6 12
REMARK SMILES IDX 7 13 8 14 9 15 13 16 11 17 10 18 12 20 4 22 21 24 18 26
REMARK H PARENT 10 19 12 21 4 23 21 25 18 27
REMARK Flexibility Score: inf
ROOT
ATOM      1  C   UNL     1       1.131  -0.713  -7.196  1.00  0.00     0.180 A 
ATOM      2  C   UNL     1       2.511  -0.672  -7.463  1.00  0.00     0.208 A 
ATOM      3  C   UNL     1       3.204   0.534  -7.274  1.00  0.00     0.238 A 
ATOM      4  O   UNL     1       4.448   0.551  -7.463  1.00  0.00    -0.285 OA
ATOM      5  C   UNL     1       2.508   1.687  -6.838  1.00  0.00     0.111 A 
ATOM      6  C   UNL     1       3.102   2.971  -6.653  1.00  0.00     0.134 A 
ATOM      7  C   UNL     1       2.346   4.008  -6.092  1.00  0.00     0.093 A 
ATOM      8  C   UNL     1       0.998   3.825  -5.772  1.00  0.00     0.123 A 
ATOM      9  C   UNL     1       0.393   2.592  -6.005  1.00  0.00     0.094 A 
ATOM     10  C   UNL     1       1.132   1.528  -6.529  1.00  0.00     0.146 A 
ATOM     11  O   UNL     1       0.519   0.367  -6.726  1.00  0.00    -0.452 OA
ENDROOT
BRANCH   1  12
ATOM     12  C   UNL     1       0.327  -1.941  -7.395  1.00  0.00     0.025 A 
ATOM     13  C   UNL     1      -0.374  -2.120  -8.595  1.00  0.00     0.016 A 
ATOM     14  C   UNL     1      -1.123  -3.279  -8.811  1.00  0.00     0.051 A 
ATOM     15  C   UNL     1      -1.175  -4.286  -7.841  1.00  0.00     0.157 A 
ATOM     16  C   UNL     1       0.295  -2.960  -6.427  1.00  0.00     0.062 A 
ATOM     17  C   UNL     1      -0.450  -4.128  -6.636  1.00  0.00     0.158 A 
BRANCH  15  18
ATOM     18  O   UNL     1      -1.946  -5.417  -8.116  1.00  0.00    -0.504 OA
ATOM     19  H   UNL     1      -1.569  -6.291  -8.452  1.00  0.00     0.293 HD
ENDBRANCH  15  18
BRANCH  17  20
ATOM     20  O   UNL     1      -0.437  -5.098  -5.632  1.00  0.00    -0.504 OA
ATOM     21  H   UNL     1      -0.311  -6.085  -5.801  1.00  0.00     0.293 HD
ENDBRANCH  17  20
ENDBRANCH   1  12
BRANCH   2  22
ATOM     22  O   UNL     1       3.183  -1.827  -7.872  1.00  0.00    -0.502 OA
ATOM     23  H   UNL     1       4.087  -2.091  -7.501  1.00  0.00     0.293 HD
ENDBRANCH   2  22
BRANCH   6  24
ATOM     24  O   UNL     1       4.412   3.285  -7.025  1.00  0.00    -0.507 OA
ATOM     25  H   UNL     1       4.666   3.840  -7.828  1.00  0.00     0.293 HD
ENDBRANCH   6  24
BRANCH   8  26
ATOM     26  O   UNL     1       0.250   4.866  -5.230  1.00  0.00    -0.508 OA
ATOM     27  H   UNL     1      -0.714   5.023  -5.500  1.00  0.00     0.293 HD
ENDBRANCH   8  26
TORSDOF 6
ENDMDL
MODEL 2
REMARK VINA RESULT:    -5.028      2.534      7.426
REMARK INTER + INTRA:          -6.358
REMARK INTER:                  -6.077
REMARK INTRA:                  -0.281
REMARK UNBOUND:                -0.301
REMARK SMILES O=c1c(O)c(-c2ccc(O)c(O)c2)oc2cc(O)cc(O)c12
REMARK SMILES IDX 5 1 3 2 2 3 1 4 22 5 20 6 19 7 17 8 16 9 15 10 14 11 6 12
REMARK SMILES IDX 7 13 8 14 9 15 13 16 11 17 10 18 12 20 4 22 21 24 18 26
REMARK H PARENT 10 19 12 21 4 23 21 25 18 27
REMARK Flexibility Score: inf
ROOT
ATOM      1  C   UNL     1      -0.917   0.730  -7.330  1.00  0.00     0.180 A 
ATOM      2  C   UNL     1      -2.320   0.742  -7.418  1.00  0.00     0.208 A 
ATOM      3  C   UNL     1      -3.027  -0.446  -7.168  1.00  0.00     0.238 A 
ATOM      4  O   UNL     1      -4.285  -0.417  -7.195  1.00  0.00    -0.285 OA
ATOM      5  C   UNL     1      -2.322  -1.632  -6.852  1.00  0.00     0.111 A 
ATOM      6  C   UNL     1      -2.934  -2.901  -6.620  1.00  0.00     0.134 A 
ATOM      7  C   UNL     1      -2.149  -3.977  -6.186  1.00  0.00     0.093 A 
ATOM      8  C   UNL     1      -0.766  -3.847  -6.038  1.00  0.00     0.123 A 
ATOM      9  C   UNL     1      -0.152  -2.628  -6.320  1.00  0.00     0.094 A 
ATOM     10  C   UNL     1      -0.913  -1.527  -6.719  1.00  0.00     0.146 A 
ATOM     11  O   UNL     1      -0.289  -0.382  -6.967  1.00  0.00    -0.452 OA
ENDROOT
BRANCH   1  12
ATOM     12  C   UNL     1      -0.101   1.936  -7.604  1.00  0.00     0.025 A 
ATOM     13  C   UNL     1       0.520   2.080  -8.852  1.00  0.00     0.016 A 
ATOM     14  C   UNL     1       1.278   3.218  -9.136  1.00  0.00     0.051 A 
ATOM     15  C   UNL     1       1.418   4.238  -8.190  1.00  0.00     0.157 A 
ATOM     16  C   UNL     1       0.018   2.969  -6.657  1.00  0.00     0.062 A 
ATOM     17  C   UNL     1       0.773   4.116  -6.936  1.00  0.00     0.158 A 
BRANCH  15  18
ATOM     18  O   UNL     1       2.194   5.346  -8.535  1.00  0.00    -0.504 OA
ATOM     19  H   UNL     1       2.127   5.831  -9.418  1.00  0.00     0.293 HD
ENDBRANCH  15  18
BRANCH  17  20
ATOM     20  O   UNL     1       0.850   5.100  -5.950  1.00  0.00    -0.504 OA
ATOM     21  H   UNL     1       0.239   5.146  -5.147  1.00  0.00     0.293 HD
ENDBRANCH  17  20
ENDBRANCH   1  12
BRANCH   2  22
ATOM     22  O   UNL     1      -2.997   1.928  -7.711  1.00  0.00    -0.502 OA
ATOM     23  H   UNL     1      -2.759   2.811  -7.278  1.00  0.00     0.293 HD
ENDBRANCH   2  22
BRANCH   6  24
ATOM     24  O   UNL     1      -4.291  -3.162  -6.827  1.00  0.00    -0.507 OA
ATOM     25  H   UNL     1      -4.685  -3.518  -7.685  1.00  0.00     0.293 HD
ENDBRANCH   6  24
BRANCH   8  26
ATOM     26  O   UNL     1       0.008  -4.926  -5.620  1.00  0.00    -0.508 OA
ATOM     27  H   UNL     1       1.006  -4.837  -5.471  1.00  0.00     0.293 HD
ENDBRANCH   8  26
TORSDOF 6
ENDMDL
MODEL 3
REMARK VINA RESULT:    -4.829      2.246      6.469
REMARK INTER + INTRA:          -6.118
REMARK INTER:                  -5.838
REMARK INTRA:                  -0.280
REMARK UNBOUND:                -0.301
REMARK SMILES O=c1c(O)c(-c2ccc(O)c(O)c2)oc2cc(O)cc(O)c12
REMARK SMILES IDX 5 1 3 2 2 3 1 4 22 5 20 6 19 7 17 8 16 9 15 10 14 11 6 12
REMARK SMILES IDX 7 13 8 14 9 15 13 16 11 17 10 18 12 20 4 22 21 24 18 26
REMARK H PARENT 10 19 12 21 4 23 21 25 18 27
REMARK Flexibility Score: inf
ROOT
ATOM      1  C   UNL     1       1.698  -0.030  -6.628  1.00  0.00     0.180 A 
ATOM      2  C   UNL     1       1.796  -1.232  -7.352  1.00  0.00     0.208 A 
ATOM      3  C   UNL     1       0.628  -1.968  -7.608  1.00  0.00     0.238 A 
ATOM      4  O   UNL     1       0.715  -3.014  -8.302  1.00  0.00    -0.285 OA
ATOM      5  C   UNL     1      -0.618  -1.504  -7.123  1.00  0.00     0.111 A 
ATOM      6  C   UNL     1      -1.859  -2.191  -7.289  1.00  0.00     0.134 A 
ATOM      7  C   UNL     1      -3.049  -1.574  -6.883  1.00  0.00     0.093 A 
ATOM      8  C   UNL     1      -3.036  -0.326  -6.257  1.00  0.00     0.123 A 
ATOM      9  C   UNL     1      -1.824   0.326  -6.037  1.00  0.00     0.094 A 
ATOM     10  C   UNL     1      -0.624  -0.247  -6.464  1.00  0.00     0.146 A 
ATOM     11  O   UNL     1       0.507   0.412  -6.244  1.00  0.00    -0.452 OA
ENDROOT
BRANCH   1  12
ATOM     12  C   UNL     1       2.887   0.789  -6.297  1.00  0.00     0.025 A 
ATOM     13  C   UNL     1       3.745   0.377  -5.269  1.00  0.00     0.016 A 
ATOM     14  C   UNL     1       4.881   1.124  -4.953  1.00  0.00     0.051 A 
ATOM     15  C   UNL     1       5.192   2.286  -5.667  1.00  0.00     0.157 A 
ATOM     16  C   UNL     1       3.207   1.944  -7.032  1.00  0.00     0.062 A 
ATOM     17  C   UNL     1       4.348   2.699  -6.725  1.00  0.00     0.158 A 
BRANCH  15  18
ATOM     18  O   UNL     1       6.339   2.992  -5.298  1.00  0.00    -0.504 OA
ATOM     19  H   UNL     1       6.954   2.717  -4.545  1.00  0.00     0.293 HD
ENDBRANCH  15  18
BRANCH  17  20
ATOM     20  O   UNL     1       4.604   3.835  -7.494  1.00  0.00    -0.504 OA
ATOM     21  H   UNL     1       4.395   4.777  -7.198  1.00  0.00     0.293 HD
ENDBRANCH  17  20
ENDBRANCH   1  12
BRANCH   2  22
ATOM     22  O   UNL     1       3.033  -1.661  -7.839  1.00  0.00    -0.502 OA
ATOM     23  H   UNL     1       3.230  -2.632  -8.043  1.00  0.00     0.293 HD
ENDBRANCH   2  22
BRANCH   6  24
ATOM     24  O   UNL     1      -1.972  -3.480  -7.817  1.00  0.00    -0.507 OA
ATOM     25  H   UNL     1      -2.620  -4.181  -7.491  1.00  0.00     0.293 HD
ENDBRANCH   6  24
BRANCH   8  26
ATOM     26  O   UNL     1      -4.223   0.273  -5.842  1.00  0.00    -0.508 OA
ATOM     27  H   UNL     1      -4.627   1.054  -6.345  1.00  0.00     0.293 HD
ENDBRANCH   8  26
TORSDOF 6
ENDMDL
MODEL 4
REMARK VINA RESULT:    -4.755      2.380      7.034
REMARK INTER + INTRA:          -6.029
REMARK INTER:                  -5.719
REMARK INTRA:                  -0.310
REMARK UNBOUND:                -0.301
REMARK SMILES O=c1c(O)c(-c2ccc(O)c(O)c2)oc2cc(O)cc(O)c12
REMARK SMILES IDX 5 1 3 2 2 3 1 4 22 5 20 6 19 7 17 8 16 9 15 10 14 11 6 12
REMARK SMILES IDX 7 13 8 14 9 15 13 16 11 17 10 18 12 20 4 22 21 24 18 26
REMARK H PARENT 10 19 12 21 4 23 21 25 18 27
REMARK Flexibility Score: inf
ROOT
ATOM      1  C   UNL     1       0.332  -0.739  -6.202  1.00  0.00     0.180 A 
ATOM      2  C   UNL     1      -0.804   0.059  -6.420  1.00  0.00     0.208 A 
ATOM      3  C   UNL     1      -2.075  -0.536  -6.359  1.00  0.00     0.238 A 
ATOM      4  O   UNL     1      -3.090   0.194  -6.502  1.00  0.00    -0.285 OA
ATOM      5  C   UNL     1      -2.193  -1.922  -6.098  1.00  0.00     0.111 A 
ATOM      6  C   UNL     1      -3.427  -2.636  -6.054  1.00  0.00     0.134 A 
ATOM      7  C   UNL     1      -3.434  -3.979  -5.658  1.00  0.00     0.093 A 
ATOM      8  C   UNL     1      -2.245  -4.651  -5.368  1.00  0.00     0.123 A 
ATOM      9  C   UNL     1      -1.028  -3.978  -5.466  1.00  0.00     0.094 A 
ATOM     10  C   UNL     1      -0.993  -2.628  -5.823  1.00  0.00     0.146 A 
ATOM     11  O   UNL     1       0.186  -2.023  -5.895  1.00  0.00    -0.452 OA
ENDROOT
BRANCH   1  12
ATOM     12  C   UNL     1       1.706  -0.190  -6.274  1.00  0.00     0.025 A 
ATOM     13  C   UNL     1       2.265   0.421  -5.144  1.00  0.00     0.016 A 
ATOM     14  C   UNL     1       3.566   0.928  -5.185  1.00  0.00     0.051 A 
ATOM     15  C   UNL     1       4.337   0.822  -6.347  1.00  0.00     0.157 A 
ATOM     16  C   UNL     1       2.485  -0.319  -7.437  1.00  0.00     0.062 A 
ATOM     17  C   UNL     1       3.792   0.183  -7.487  1.00  0.00     0.158 A 
BRANCH  15  18
ATOM     18  O   UNL     1       5.627   1.355  -6.325  1.00  0.00    -0.504 OA
ATOM     19  H   UNL     1       6.021   1.914  -7.069  1.00  0.00     0.293 HD
ENDBRANCH  15  18
BRANCH  17  20
ATOM     20  O   UNL     1       4.508   0.021  -8.674  1.00  0.00    -0.504 OA
ATOM     21  H   UNL     1       5.469  -0.287  -8.718  1.00  0.00     0.293 HD
ENDBRANCH  17  20
ENDBRANCH   1  12
BRANCH   2  22
ATOM     22  O   UNL     1      -0.667   1.430  -6.655  1.00  0.00    -0.502 OA
ATOM     23  H   UNL     1      -1.350   2.107  -6.339  1.00  0.00     0.293 HD
ENDBRANCH   2  22
BRANCH   6  24
ATOM     24  O   UNL     1      -4.661  -2.085  -6.414  1.00  0.00    -0.507 OA
ATOM     25  H   UNL     1      -5.347  -2.541  -6.996  1.00  0.00     0.293 HD
ENDBRANCH   6  24
BRANCH   8  26
ATOM     26  O   UNL     1      -2.260  -5.991  -4.989  1.00  0.00    -0.508 OA
ATOM     27  H   UNL     1      -1.947  -6.287  -4.073  1.00  0.00     0.293 HD
ENDBRANCH   8  26
TORSDOF 6
ENDMDL
MODEL 5
REMARK VINA RESULT:    -4.749      2.845      3.355
REMARK INTER + INTRA:          -6.022
REMARK INTER:                  -5.732
REMARK INTRA:                  -0.290
REMARK UNBOUND:                -0.301
REMARK SMILES O=c1c(O)c(-c2ccc(O)c(O)c2)oc2cc(O)cc(O)c12
REMARK SMILES IDX 5 1 3 2 2 3 1 4 22 5 20 6 19 7 17 8 16 9 15 10 14 11 6 12
REMARK SMILES IDX 7 13 8 14 9 15 13 16 11 17 10 18 12 20 4 22 21 24 18 26
REMARK H PARENT 10 19 12 21 4 23 21 25 18 27
REMARK Flexibility Score: inf
ROOT
ATOM      1  C   UNL     1      -0.159   0.830  -6.165  1.00  0.00     0.180 A 
ATOM      2  C   UNL     1       0.987   0.046  -6.384  1.00  0.00     0.208 A 
ATOM      3  C   UNL     1       2.246   0.669  -6.384  1.00  0.00     0.238 A 
ATOM      4  O   UNL     1       3.272  -0.046  -6.526  1.00  0.00    -0.285 OA
ATOM      5  C   UNL     1       2.342   2.066  -6.183  1.00  0.00     0.111 A 
ATOM      6  C   UNL     1       3.562   2.807  -6.204  1.00  0.00     0.134 A 
ATOM      7  C   UNL     1       3.551   4.165  -5.863  1.00  0.00     0.093 A 
ATOM      8  C   UNL     1       2.356   4.824  -5.567  1.00  0.00     0.123 A 
ATOM      9  C   UNL     1       1.152   4.124  -5.602  1.00  0.00     0.094 A 
ATOM     10  C   UNL     1       1.135   2.759  -5.903  1.00  0.00     0.146 A 
ATOM     11  O   UNL     1      -0.032   2.128  -5.915  1.00  0.00    -0.452 OA
ENDROOT
BRANCH   1  12
ATOM     12  C   UNL     1      -1.523   0.251  -6.176  1.00  0.00     0.025 A 
ATOM     13  C   UNL     1      -2.003  -0.405  -5.034  1.00  0.00     0.016 A 
ATOM     14  C   UNL     1      -3.292  -0.941  -5.016  1.00  0.00     0.051 A 
ATOM     15  C   UNL     1      -4.131  -0.820  -6.129  1.00  0.00     0.157 A 
ATOM     16  C   UNL     1      -2.371   0.395  -7.288  1.00  0.00     0.062 A 
ATOM     17  C   UNL     1      -3.667  -0.136  -7.278  1.00  0.00     0.158 A 
BRANCH  15  18
ATOM     18  O   UNL     1      -5.406  -1.383  -6.049  1.00  0.00    -0.504 OA
ATOM     19  H   UNL     1      -5.843  -1.673  -5.186  1.00  0.00     0.293 HD
ENDBRANCH  15  18
BRANCH  17  20
ATOM     20  O   UNL     1      -4.453   0.042  -8.417  1.00  0.00    -0.504 OA
ATOM     21  H   UNL     1      -4.709  -0.702  -9.050  1.00  0.00     0.293 HD
ENDBRANCH  17  20
ENDBRANCH   1  12
BRANCH   2  22
ATOM     22  O   UNL     1       0.872  -1.335  -6.559  1.00  0.00    -0.502 OA
ATOM     23  H   UNL     1       1.171  -1.999  -5.855  1.00  0.00     0.293 HD
ENDBRANCH   2  22
BRANCH   6  24
ATOM     24  O   UNL     1       4.796   2.266  -6.576  1.00  0.00    -0.507 OA
ATOM     25  H   UNL     1       5.477   2.732  -7.157  1.00  0.00     0.293 HD
ENDBRANCH   6  24
BRANCH   8  26
ATOM     26  O   UNL     1       2.353   6.179  -5.244  1.00  0.00    -0.508 OA
ATOM     27  H   UNL     1       2.813   6.865  -5.831  1.00  0.00     0.293 HD
ENDBRANCH   8  26
TORSDOF 6
ENDMDL
MODEL 6
REMARK VINA RESULT:    -4.734      2.648      7.500
REMARK INTER + INTRA:          -6.004
REMARK INTER:                  -5.680
REMARK INTRA:                  -0.324
REMARK UNBOUND:                -0.301
REMARK SMILES O=c1c(O)c(-c2ccc(O)c(O)c2)oc2cc(O)cc(O)c12
REMARK SMILES IDX 5 1 3 2 2 3 1 4 22 5 20 6 19 7 17 8 16 9 15 10 14 11 6 12
REMARK SMILES IDX 7 13 8 14 9 15 13 16 11 17 10 18 12 20 4 22 21 24 18 26
REMARK H PARENT 10 19 12 21 4 23 21 25 18 27
REMARK Flexibility Score: inf
ROOT
ATOM      1  C   UNL     1      -0.965   0.738  -7.284  1.00  0.00     0.180 A 
ATOM      2  C   UNL     1      -2.359   0.674  -7.451  1.00  0.00     0.208 A 
ATOM      3  C   UNL     1      -3.010  -0.559  -7.273  1.00  0.00     0.238 A 
ATOM      4  O   UNL     1      -4.263  -0.599  -7.371  1.00  0.00    -0.285 OA
ATOM      5  C   UNL     1      -2.257  -1.712  -6.947  1.00  0.00     0.111 A 
ATOM      6  C   UNL     1      -2.806  -3.019  -6.783  1.00  0.00     0.134 A 
ATOM      7  C   UNL     1      -1.987  -4.061  -6.332  1.00  0.00     0.093 A 
ATOM      8  C   UNL     1      -0.624  -3.859  -6.102  1.00  0.00     0.123 A 
ATOM      9  C   UNL     1      -0.066  -2.600  -6.317  1.00  0.00     0.094 A 
ATOM     10  C   UNL     1      -0.866  -1.532  -6.731  1.00  0.00     0.146 A 
ATOM     11  O   UNL     1      -0.295  -0.347  -6.914  1.00  0.00    -0.452 OA
ENDROOT
BRANCH   1  12
ATOM     12  C   UNL     1      -0.206   1.995  -7.479  1.00  0.00     0.025 A 
ATOM     13  C   UNL     1       0.169   2.755  -6.363  1.00  0.00     0.016 A 
ATOM     14  C   UNL     1       0.901   3.933  -6.524  1.00  0.00     0.051 A 
ATOM     15  C   UNL     1       1.287   4.366  -7.797  1.00  0.00     0.157 A 
ATOM     16  C   UNL     1       0.199   2.414  -8.758  1.00  0.00     0.062 A 
ATOM     17  C   UNL     1       0.938   3.592  -8.929  1.00  0.00     0.158 A 
BRANCH  15  18
ATOM     18  O   UNL     1       2.013   5.555  -7.890  1.00  0.00    -0.504 OA
ATOM     19  H   UNL     1       3.021   5.605  -7.870  1.00  0.00     0.293 HD
ENDBRANCH  15  18
BRANCH  17  20
ATOM     20  O   UNL     1       1.304   3.949 -10.228  1.00  0.00    -0.504 OA
ATOM     21  H   UNL     1       1.514   3.285 -10.959  1.00  0.00     0.293 HD
ENDBRANCH  17  20
ENDBRANCH   1  12
BRANCH   2  22
ATOM     22  O   UNL     1      -3.086   1.828  -7.752  1.00  0.00    -0.502 OA
ATOM     23  H   UNL     1      -3.695   1.893  -8.559  1.00  0.00     0.293 HD
ENDBRANCH   2  22
BRANCH   6  24
ATOM     24  O   UNL     1      -4.133  -3.349  -7.074  1.00  0.00    -0.507 OA
ATOM     25  H   UNL     1      -4.732  -2.830  -7.698  1.00  0.00     0.293 HD
ENDBRANCH   6  24
BRANCH   8  26
ATOM     26  O   UNL     1       0.186  -4.905  -5.669  1.00  0.00    -0.508 OA
ATOM     27  H   UNL     1      -0.207  -5.772  -5.322  1.00  0.00     0.293 HD
ENDBRANCH   8  26
TORSDOF 6
ENDMDL
MODEL 7
REMARK VINA RESULT:    -4.690      3.770      8.516
REMARK INTER + INTRA:          -5.951
REMARK INTER:                  -5.759
REMARK INTRA:                  -0.191
REMARK UNBOUND:                -0.301
REMARK SMILES O=c1c(O)c(-c2ccc(O)c(O)c2)oc2cc(O)cc(O)c12
REMARK SMILES IDX 5 1 3 2 2 3 1 4 22 5 20 6 19 7 17 8 16 9 15 10 14 11 6 12
REMARK SMILES IDX 7 13 8 14 9 15 13 16 11 17 10 18 12 20 4 22 21 24 18 26
REMARK H PARENT 10 19 12 21 4 23 21 25 18 27
REMARK Flexibility Score: inf
ROOT
ATOM      1  C   UNL     1      -2.897  -1.184  -6.030  1.00  0.00     0.180 A 
ATOM      2  C   UNL     1      -4.261  -0.928  -5.804  1.00  0.00     0.208 A 
ATOM      3  C   UNL     1      -5.160  -2.007  -5.778  1.00  0.00     0.238 A 
ATOM      4  O   UNL     1      -6.371  -1.777  -5.522  1.00  0.00    -0.285 OA
ATOM      5  C   UNL     1      -4.688  -3.323  -5.995  1.00  0.00     0.111 A 
ATOM      6  C   UNL     1      -5.515  -4.486  -6.031  1.00  0.00     0.134 A 
ATOM      7  C   UNL     1      -4.924  -5.752  -6.122  1.00  0.00     0.093 A 
ATOM      8  C   UNL     1      -3.540  -5.893  -6.245  1.00  0.00     0.123 A 
ATOM      9  C   UNL     1      -2.728  -4.761  -6.271  1.00  0.00     0.094 A 
ATOM     10  C   UNL     1      -3.286  -3.486  -6.145  1.00  0.00     0.146 A 
ATOM     11  O   UNL     1      -2.475  -2.436  -6.165  1.00  0.00    -0.452 OA
ENDROOT
BRANCH   1  12
ATOM     12  C   UNL     1      -1.893  -0.097  -6.096  1.00  0.00     0.025 A 
ATOM     13  C   UNL     1      -0.848  -0.066  -5.163  1.00  0.00     0.016 A 
ATOM     14  C   UNL     1       0.120   0.939  -5.219  1.00  0.00     0.051 A 
ATOM     15  C   UNL     1       0.074   1.920  -6.215  1.00  0.00     0.157 A 
ATOM     16  C   UNL     1      -1.931   0.874  -7.112  1.00  0.00     0.062 A 
ATOM     17  C   UNL     1      -0.962   1.884  -7.179  1.00  0.00     0.158 A 
BRANCH  15  18
ATOM     18  O   UNL     1       1.068   2.900  -6.212  1.00  0.00    -0.504 OA
ATOM     19  H   UNL     1       1.392   3.379  -7.040  1.00  0.00     0.293 HD
ENDBRANCH  15  18
BRANCH  17  20
ATOM     20  O   UNL     1      -1.062   2.816  -8.213  1.00  0.00    -0.504 OA
ATOM     21  H   UNL     1      -0.793   2.631  -9.168  1.00  0.00     0.293 HD
ENDBRANCH  17  20
ENDBRANCH   1  12
BRANCH   2  22
ATOM     22  O   UNL     1      -4.703   0.377  -5.571  1.00  0.00    -0.502 OA
ATOM     23  H   UNL     1      -5.553   0.744  -5.981  1.00  0.00     0.293 HD
ENDBRANCH   2  22
BRANCH   6  24
ATOM     24  O   UNL     1      -6.912  -4.449  -6.008  1.00  0.00    -0.507 OA
ATOM     25  H   UNL     1      -7.466  -3.607  -5.966  1.00  0.00     0.293 HD
ENDBRANCH   6  24
BRANCH   8  26
ATOM     26  O   UNL     1      -2.962  -7.156  -6.351  1.00  0.00    -0.508 OA
ATOM     27  H   UNL     1      -1.990  -7.316  -6.114  1.00  0.00     0.293 HD
ENDBRANCH   8  26
TORSDOF 6
ENDMDL
MODEL 8
REMARK VINA RESULT:    -4.674      3.108      4.323
REMARK INTER + INTRA:          -5.931
REMARK INTER:                  -5.926
REMARK INTRA:                  -0.005
REMARK UNBOUND:                -0.301
REMARK SMILES O=c1c(O)c(-c2ccc(O)c(O)c2)oc2cc(O)cc(O)c12
REMARK SMILES IDX 5 1 3 2 2 3 1 4 22 5 20 6 19 7 17 8 16 9 15 10 14 11 6 12
REMARK SMILES IDX 7 13 8 14 9 15 13 16 11 17 10 18 12 20 4 22 21 24 18 26
REMARK H PARENT 10 19 12 21 4 23 21 25 18 27
REMARK Flexibility Score: inf
ROOT
ATOM      1  C   UNL     1       0.552   1.889  -6.312  1.00  0.00     0.180 A 
ATOM      2  C   UNL     1       0.774   3.277  -6.344  1.00  0.00     0.208 A 
ATOM      3  C   UNL     1       2.048   3.769  -6.014  1.00  0.00     0.238 A 
ATOM      4  O   UNL     1       2.256   5.007  -6.097  1.00  0.00    -0.285 OA
ATOM      5  C   UNL     1       3.076   2.870  -5.641  1.00  0.00     0.111 A 
ATOM      6  C   UNL     1       4.391   3.261  -5.248  1.00  0.00     0.134 A 
ATOM      7  C   UNL     1       5.365   2.280  -5.026  1.00  0.00     0.093 A 
ATOM      8  C   UNL     1       5.055   0.921  -5.117  1.00  0.00     0.123 A 
ATOM      9  C   UNL     1       3.758   0.529  -5.442  1.00  0.00     0.094 A 
ATOM     10  C   UNL     1       2.773   1.485  -5.705  1.00  0.00     0.146 A 
ATOM     11  O   UNL     1       1.553   1.067  -6.021  1.00  0.00    -0.452 OA
ENDROOT
BRANCH   1  12
ATOM     12  C   UNL     1      -0.770   1.296  -6.622  1.00  0.00     0.025 A 
ATOM     13  C   UNL     1      -1.398   1.607  -7.836  1.00  0.00     0.016 A 
ATOM     14  C   UNL     1      -2.635   1.044  -8.156  1.00  0.00     0.051 A 
ATOM     15  C   UNL     1      -3.261   0.150  -7.281  1.00  0.00     0.157 A 
ATOM     16  C   UNL     1      -1.385   0.381  -5.749  1.00  0.00     0.062 A 
ATOM     17  C   UNL     1      -2.624  -0.192  -6.064  1.00  0.00     0.158 A 
BRANCH  15  18
ATOM     18  O   UNL     1      -4.500  -0.372  -7.657  1.00  0.00    -0.504 OA
ATOM     19  H   UNL     1      -5.374   0.127  -7.571  1.00  0.00     0.293 HD
ENDBRANCH  15  18
BRANCH  17  20
ATOM     20  O   UNL     1      -3.177  -1.091  -5.151  1.00  0.00    -0.504 OA
ATOM     21  H   UNL     1      -4.089  -1.512  -5.254  1.00  0.00     0.293 HD
ENDBRANCH  17  20
ENDBRANCH   1  12
BRANCH   2  22
ATOM     22  O   UNL     1      -0.248   4.145  -6.736  1.00  0.00    -0.502 OA
ATOM     23  H   UNL     1      -0.093   5.134  -6.887  1.00  0.00     0.293 HD
ENDBRANCH   2  22
BRANCH   6  24
ATOM     24  O   UNL     1       4.780   4.587  -5.037  1.00  0.00    -0.507 OA
ATOM     25  H   UNL     1       5.625   5.003  -5.399  1.00  0.00     0.293 HD
ENDBRANCH   6  24
BRANCH   8  26
ATOM     26  O   UNL     1       6.026  -0.047  -4.879  1.00  0.00    -0.508 OA
ATOM     27  H   UNL     1       5.982  -0.961  -5.314  1.00  0.00     0.293 HD
ENDBRANCH   8  26
TORSDOF 6
ENDMDL
MODEL 9
REMARK VINA RESULT:    -4.642      2.912      4.131
REMARK INTER + INTRA:          -5.893
REMARK INTER:                  -5.665
REMARK INTRA:                  -0.229
REMARK UNBOUND:                -0.301
REMARK SMILES O=c1c(O)c(-c2ccc(O)c(O)c2)oc2cc(O)cc(O)c12
REMARK SMILES IDX 5 1 3 2 2 3 1 4 22 5 20 6 19 7 17 8 16 9 15 10 14 11 6 12
REMARK SMILES IDX 7 13 8 14 9 15 13 16 11 17 10 18 12 20 4 22 21 24 18 26
REMARK H PARENT 10 19 12 21 4 23 21 25 18 27
REMARK Flexibility Score: inf
ROOT
ATOM      1  C   UNL     1      -1.229   0.098  -6.607  1.00  0.00     0.180 A 
ATOM      2  C   UNL     1      -1.362   1.374  -7.182  1.00  0.00     0.208 A 
ATOM      3  C   UNL     1      -0.204   2.120  -7.456  1.00  0.00     0.238 A 
ATOM      4  O   UNL     1      -0.326   3.238  -8.020  1.00  0.00    -0.285 OA
ATOM      5  C   UNL     1       1.069   1.590  -7.135  1.00  0.00     0.111 A 
ATOM      6  C   UNL     1       2.305   2.275  -7.331  1.00  0.00     0.134 A 
ATOM      7  C   UNL     1       3.512   1.602  -7.099  1.00  0.00     0.093 A 
ATOM      8  C   UNL     1       3.525   0.292  -6.616  1.00  0.00     0.123 A 
ATOM      9  C   UNL     1       2.322  -0.365  -6.365  1.00  0.00     0.094 A 
ATOM     10  C   UNL     1       1.103   0.267  -6.621  1.00  0.00     0.146 A 
ATOM     11  O   UNL     1      -0.019  -0.399  -6.378  1.00  0.00    -0.452 OA
ENDROOT
BRANCH   1  12
ATOM     12  C   UNL     1      -2.403  -0.738  -6.267  1.00  0.00     0.025 A 
ATOM     13  C   UNL     1      -3.233  -0.363  -5.201  1.00  0.00     0.016 A 
ATOM     14  C   UNL     1      -4.355  -1.127  -4.876  1.00  0.00     0.051 A 
ATOM     15  C   UNL     1      -4.681  -2.269  -5.615  1.00  0.00     0.157 A 
ATOM     16  C   UNL     1      -2.739  -1.873  -7.026  1.00  0.00     0.062 A 
ATOM     17  C   UNL     1      -3.866  -2.643  -6.710  1.00  0.00     0.158 A 
BRANCH  15  18
ATOM     18  O   UNL     1      -5.813  -2.992  -5.235  1.00  0.00    -0.504 OA
ATOM     19  H   UNL     1      -6.321  -2.836  -4.376  1.00  0.00     0.293 HD
ENDBRANCH  15  18
BRANCH  17  20
ATOM     20  O   UNL     1      -4.138  -3.757  -7.506  1.00  0.00    -0.504 OA
ATOM     21  H   UNL     1      -4.513  -4.625  -7.153  1.00  0.00     0.293 HD
ENDBRANCH  17  20
ENDBRANCH   1  12
BRANCH   2  22
ATOM     22  O   UNL     1      -2.626   1.870  -7.510  1.00  0.00    -0.502 OA
ATOM     23  H   UNL     1      -3.028   2.679  -7.054  1.00  0.00     0.293 HD
ENDBRANCH   2  22
BRANCH   6  24
ATOM     24  O   UNL     1       2.402   3.613  -7.721  1.00  0.00    -0.507 OA
ATOM     25  H   UNL     1       3.037   3.965  -8.422  1.00  0.00     0.293 HD
ENDBRANCH   6  24
BRANCH   8  26
ATOM     26  O   UNL     1       4.730  -0.364  -6.374  1.00  0.00    -0.508 OA
ATOM     27  H   UNL     1       5.075  -0.509  -5.432  1.00  0.00     0.293 HD
ENDBRANCH   8  26
TORSDOF 6
ENDMDL
