MODEL 1
REMARK VINA RESULT:    -4.221      0.000      0.000
REMARK INTER + INTRA:          -9.292
REMARK INTER:                  -7.183
REMARK INTRA:                  -2.109
REMARK UNBOUND:                -2.109
REMARK SMILES CCCCCCCCCCCCCC(=O)[O-]
REMARK SMILES IDX 8 1 9 2 10 3 11 4 12 5 13 6 14 7 15 8 16 9 7 10 6 11 5 12
REMARK SMILES IDX 4 13 3 14 2 15 1 16
REMARK H PARENT
REMARK Flexibility Score: inf
ROOT
ATOM      1  C   UNL     1      18.786 -32.574  21.086  1.00  0.00     0.000 C 
ENDROOT
BRANCH   1   2
ATOM      2  C   UNL     1      17.896 -31.479  20.467  1.00  0.00     0.000 C 
BRANCH   2   3
ATOM      3  C   UNL     1      17.070 -30.668  21.479  1.00  0.00     0.000 C 
BRANCH   3   4
ATOM      4  C   UNL     1      17.376 -31.045  22.937  1.00  0.00     0.000 C 
BRANCH   4   5
ATOM      5  C   UNL     1      16.084 -31.174  23.751  1.00  0.00     0.006 C 
BRANCH   5   6
ATOM      6  C   UNL     1      15.108 -30.042  23.415  1.00  0.00     0.053 C 
BRANCH   6   7
ATOM      7  C   UNL     1      13.703 -30.455  23.716  1.00  0.00     0.041 C 
ATOM      8  O   UNL     1      13.466 -31.600  24.183  1.00  0.00    -0.550 OA
ATOM      9  O   UNL     1      12.649 -29.594  23.436  1.00  0.00    -0.550 OA
ENDBRANCH   6   7
ENDBRANCH   5   6
ENDBRANCH   4   5
ENDBRANCH   3   4
ENDBRANCH   2   3
ENDBRANCH   1   2
BRANCH   1  10
ATOM     10  C   UNL     1      18.343 -34.010  20.727  1.00  0.00     0.000 C 
BRANCH  10  11
ATOM     11  C   UNL     1      17.585 -34.689  21.881  1.00  0.00    -0.000 C 
BRANCH  11  12
ATOM     12  C   UNL     1      16.061 -34.536  21.755  1.00  0.00    -0.000 C 
BRANCH  12  13
ATOM     13  C   UNL     1      15.553 -34.856  20.340  1.00  0.00    -0.000 C 
BRANCH  13  14
ATOM     14  C   UNL     1      14.678 -33.718  19.801  1.00  0.00    -0.000 C 
BRANCH  14  15
ATOM     15  C   UNL     1      14.246 -32.775  20.930  1.00  0.00    -0.003 C 
ATOM     16  C   UNL     1      13.245 -31.739  20.429  1.00  0.00     0.004 C 
ENDBRANCH  14  15
ENDBRANCH  13  14
ENDBRANCH  12  13
ENDBRANCH  11  12
ENDBRANCH  10  11
ENDBRANCH   1  10
TORSDOF 12
ENDMDL
MODEL 2
REMARK VINA RESULT:    -4.147      1.315      3.450
REMARK INTER + INTRA:          -9.164
REMARK INTER:                  -7.389
REMARK INTRA:                  -1.775
REMARK UNBOUND:                -2.109
REMARK SMILES CCCCCCCCCCCCCC(=O)[O-]
REMARK SMILES IDX 8 1 9 2 10 3 11 4 12 5 13 6 14 7 15 8 16 9 7 10 6 11 5 12
REMARK SMILES IDX 4 13 3 14 2 15 1 16
REMARK H PARENT
REMARK Flexibility Score: inf
ROOT
ATOM      1  C   UNL     1      16.601 -35.239  19.406  1.00  0.00     0.000 C 
ENDROOT
BRANCH   1   2
ATOM      2  C   UNL     1      15.378 -34.967  20.301  1.00  0.00     0.000 C 
BRANCH   2   3
ATOM      3  C   UNL     1      14.588 -33.695  19.949  1.00  0.00     0.000 C 
BRANCH   3   4
ATOM      4  C   UNL     1      14.211 -32.866  21.187  1.00  0.00     0.000 C 
BRANCH   4   5
ATOM      5  C   UNL     1      13.660 -31.496  20.779  1.00  0.00     0.006 C 
BRANCH   5   6
ATOM      6  C   UNL     1      14.120 -30.406  21.752  1.00  0.00     0.053 C 
BRANCH   6   7
ATOM      7  C   UNL     1      13.160 -30.283  22.893  1.00  0.00     0.041 C 
ATOM      8  O   UNL     1      13.463 -30.739  24.027  1.00  0.00    -0.550 OA
ATOM      9  O   UNL     1      11.912 -29.709  22.693  1.00  0.00    -0.550 OA
ENDBRANCH   6   7
ENDBRANCH   5   6
ENDBRANCH   4   5
ENDBRANCH   3   4
ENDBRANCH   2   3
ENDBRANCH   1   2
BRANCH   1  10
ATOM     10  C   UNL     1      17.365 -33.961  18.993  1.00  0.00     0.000 C 
BRANCH  10  11
ATOM     11  C   UNL     1      18.248 -33.420  20.131  1.00  0.00    -0.000 C 
BRANCH  11  12
ATOM     12  C   UNL     1      17.832 -32.011  20.581  1.00  0.00    -0.000 C 
BRANCH  12  13
ATOM     13  C   UNL     1      18.333 -31.674  21.994  1.00  0.00    -0.000 C 
BRANCH  13  14
ATOM     14  C   UNL     1      17.220 -31.865  23.031  1.00  0.00    -0.000 C 
BRANCH  14  15
ATOM     15  C   UNL     1      17.142 -33.326  23.491  1.00  0.00    -0.003 C 
ATOM     16  C   UNL     1      15.880 -33.581  24.308  1.00  0.00     0.004 C 
ENDBRANCH  14  15
ENDBRANCH  13  14
ENDBRANCH  12  13
ENDBRANCH  11  12
ENDBRANCH  10  11
ENDBRANCH   1  10
TORSDOF 12
ENDMDL
MODEL 3
REMARK VINA RESULT:    -4.109      1.422      3.853
REMARK INTER + INTRA:          -9.100
REMARK INTER:                  -7.205
REMARK INTRA:                  -1.894
REMARK UNBOUND:                -2.109
REMARK SMILES CCCCCCCCCCCCCC(=O)[O-]
REMARK SMILES IDX 8 1 9 2 10 3 11 4 12 5 13 6 14 7 15 8 16 9 7 10 6 11 5 12
REMARK SMILES IDX 4 13 3 14 2 15 1 16
REMARK H PARENT
REMARK Flexibility Score: inf
ROOT
ATOM      1  C   UNL     1      17.374 -33.886  19.013  1.00  0.00     0.000 C 
ENDROOT
BRANCH   1   2
ATOM      2  C   UNL     1      16.612 -35.161  19.419  1.00  0.00     0.000 C 
BRANCH   2   3
ATOM      3  C   UNL     1      15.354 -34.921  20.270  1.00  0.00     0.000 C 
BRANCH   3   4
ATOM      4  C   UNL     1      14.612 -33.632  19.884  1.00  0.00     0.000 C 
BRANCH   4   5
ATOM      5  C   UNL     1      14.187 -32.851  21.133  1.00  0.00     0.006 C 
BRANCH   5   6
ATOM      6  C   UNL     1      13.499 -31.537  20.752  1.00  0.00     0.053 C 
BRANCH   6   7
ATOM      7  C   UNL     1      12.825 -30.933  21.943  1.00  0.00     0.041 C 
ATOM      8  O   UNL     1      11.643 -30.509  21.855  1.00  0.00    -0.550 OA
ATOM      9  O   UNL     1      13.519 -30.793  23.138  1.00  0.00    -0.550 OA
ENDBRANCH   6   7
ENDBRANCH   5   6
ENDBRANCH   4   5
ENDBRANCH   3   4
ENDBRANCH   2   3
ENDBRANCH   1   2
BRANCH   1  10
ATOM     10  C   UNL     1      18.226 -33.283  20.151  1.00  0.00     0.000 C 
BRANCH  10  11
ATOM     11  C   UNL     1      17.846 -31.822  20.449  1.00  0.00    -0.000 C 
BRANCH  11  12
ATOM     12  C   UNL     1      17.418 -31.610  21.910  1.00  0.00    -0.000 C 
BRANCH  12  13
ATOM     13  C   UNL     1      18.395 -32.252  22.908  1.00  0.00    -0.000 C 
BRANCH  13  14
ATOM     14  C   UNL     1      17.639 -32.925  24.059  1.00  0.00    -0.000 C 
BRANCH  14  15
ATOM     15  C   UNL     1      16.779 -34.088  23.548  1.00  0.00    -0.003 C 
ATOM     16  C   UNL     1      17.636 -35.308  23.231  1.00  0.00     0.004 C 
ENDBRANCH  14  15
ENDBRANCH  13  14
ENDBRANCH  12  13
ENDBRANCH  11  12
ENDBRANCH  10  11
ENDBRANCH   1  10
TORSDOF 12
ENDMDL
MODEL 4
REMARK VINA RESULT:    -4.107      1.266      2.330
REMARK INTER + INTRA:          -9.098
REMARK INTER:                  -7.360
REMARK INTRA:                  -1.738
REMARK UNBOUND:                -2.109
REMARK SMILES CCCCCCCCCCCCCC(=O)[O-]
REMARK SMILES IDX 8 1 9 2 10 3 11 4 12 5 13 6 14 7 15 8 16 9 7 10 6 11 5 12
REMARK SMILES IDX 4 13 3 14 2 15 1 16
REMARK H PARENT
REMARK Flexibility Score: inf
ROOT
ATOM      1  C   UNL     1      16.955 -31.005  21.253  1.00  0.00     0.000 C 
ENDROOT
BRANCH   1   2
ATOM      2  C   UNL     1      17.395 -30.717  22.700  1.00  0.00     0.000 C 
BRANCH   2   3
ATOM      3  C   UNL     1      16.280 -30.840  23.753  1.00  0.00     0.000 C 
BRANCH   3   4
ATOM      4  C   UNL     1      15.740 -32.272  23.882  1.00  0.00     0.000 C 
BRANCH   4   5
ATOM      5  C   UNL     1      14.273 -32.344  23.442  1.00  0.00     0.006 C 
BRANCH   5   6
ATOM      6  C   UNL     1      13.584 -30.986  23.607  1.00  0.00     0.053 C 
BRANCH   6   7
ATOM      7  C   UNL     1      12.817 -30.634  22.371  1.00  0.00     0.041 C 
ATOM      8  O   UNL     1      13.195 -31.062  21.249  1.00  0.00    -0.550 OA
ATOM      9  O   UNL     1      11.714 -29.794  22.452  1.00  0.00    -0.550 OA
ENDBRANCH   6   7
ENDBRANCH   5   6
ENDBRANCH   4   5
ENDBRANCH   3   4
ENDBRANCH   2   3
ENDBRANCH   1   2
BRANCH   1  10
ATOM     10  C   UNL     1      17.915 -31.942  20.487  1.00  0.00     0.000 C 
BRANCH  10  11
ATOM     11  C   UNL     1      18.612 -32.947  21.420  1.00  0.00    -0.000 C 
BRANCH  11  12
ATOM     12  C   UNL     1      18.370 -34.406  21.002  1.00  0.00    -0.000 C 
BRANCH  12  13
ATOM     13  C   UNL     1      17.964 -34.534  19.525  1.00  0.00    -0.000 C 
BRANCH  13  14
ATOM     14  C   UNL     1      16.694 -35.380  19.377  1.00  0.00    -0.000 C 
BRANCH  14  15
ATOM     15  C   UNL     1      15.679 -35.045  20.476  1.00  0.00    -0.003 C 
ATOM     16  C   UNL     1      14.783 -33.882  20.063  1.00  0.00     0.004 C 
ENDBRANCH  14  15
ENDBRANCH  13  14
ENDBRANCH  12  13
ENDBRANCH  11  12
ENDBRANCH  10  11
ENDBRANCH   1  10
TORSDOF 12
ENDMDL
MODEL 5
REMARK VINA RESULT:    -4.096      3.495      5.698
REMARK INTER + INTRA:          -9.077
REMARK INTER:                  -7.366
REMARK INTRA:                  -1.712
REMARK UNBOUND:                -2.109
REMARK SMILES CCCCCCCCCCCCCC(=O)[O-]
REMARK SMILES IDX 8 1 9 2 10 3 11 4 12 5 13 6 14 7 15 8 16 9 7 10 6 11 5 12
REMARK SMILES IDX 4 13 3 14 2 15 1 16
REMARK H PARENT
REMARK Flexibility Score: inf
ROOT
ATOM      1  C   UNL     1      14.601 -30.674  21.396  1.00  0.00     0.000 C 
ENDROOT
BRANCH   1   2
ATOM      2  C   UNL     1      13.444 -31.489  20.787  1.00  0.00     0.000 C 
BRANCH   2   3
ATOM      3  C   UNL     1      13.865 -32.802  20.107  1.00  0.00     0.000 C 
BRANCH   3   4
ATOM      4  C   UNL     1      15.270 -33.265  20.524  1.00  0.00     0.000 C 
BRANCH   4   5
ATOM      5  C   UNL     1      15.386 -34.791  20.451  1.00  0.00     0.006 C 
BRANCH   5   6
ATOM      6  C   UNL     1      16.654 -35.280  21.158  1.00  0.00     0.053 C 
BRANCH   6   7
ATOM      7  C   UNL     1      17.225 -36.467  20.448  1.00  0.00     0.041 C 
ATOM      8  O   UNL     1      17.951 -37.287  21.069  1.00  0.00    -0.550 OA
ATOM      9  O   UNL     1      16.996 -36.642  19.089  1.00  0.00    -0.550 OA
ENDBRANCH   6   7
ENDBRANCH   5   6
ENDBRANCH   4   5
ENDBRANCH   3   4
ENDBRANCH   2   3
ENDBRANCH   1   2
BRANCH   1  10
ATOM     10  C   UNL     1      14.508 -30.514  22.930  1.00  0.00     0.000 C 
BRANCH  10  11
ATOM     11  C   UNL     1      13.364 -31.349  23.532  1.00  0.00    -0.000 C 
BRANCH  11  12
ATOM     12  C   UNL     1      13.867 -32.412  24.520  1.00  0.00    -0.000 C 
BRANCH  12  13
ATOM     13  C   UNL     1      14.757 -33.468  23.845  1.00  0.00    -0.000 C 
BRANCH  13  14
ATOM     14  C   UNL     1      16.093 -33.613  24.583  1.00  0.00    -0.000 C 
BRANCH  14  15
ATOM     15  C   UNL     1      17.205 -32.839  23.865  1.00  0.00    -0.003 C 
ATOM     16  C   UNL     1      17.876 -31.841  24.802  1.00  0.00     0.004 C 
ENDBRANCH  14  15
ENDBRANCH  13  14
ENDBRANCH  12  13
ENDBRANCH  11  12
ENDBRANCH  10  11
ENDBRANCH   1  10
TORSDOF 12
ENDMDL
MODEL 6
REMARK VINA RESULT:    -4.092      3.200      5.077
REMARK INTER + INTRA:          -9.072
REMARK INTER:                  -7.094
REMARK INTRA:                  -1.978
REMARK UNBOUND:                -2.109
REMARK SMILES CCCCCCCCCCCCCC(=O)[O-]
REMARK SMILES IDX 8 1 9 2 10 3 11 4 12 5 13 6 14 7 15 8 16 9 7 10 6 11 5 12
REMARK SMILES IDX 4 13 3 14 2 15 1 16
REMARK H PARENT
REMARK Flexibility Score: inf
ROOT
ATOM      1  C   UNL     1      17.232 -32.526  24.277  1.00  0.00     0.000 C 
ENDROOT
BRANCH   1   2
ATOM      2  C   UNL     1      16.009 -33.448  24.438  1.00  0.00     0.000 C 
BRANCH   2   3
ATOM      3  C   UNL     1      15.158 -33.620  23.168  1.00  0.00     0.000 C 
BRANCH   3   4
ATOM      4  C   UNL     1      15.941 -34.253  22.008  1.00  0.00     0.000 C 
BRANCH   4   5
ATOM      5  C   UNL     1      15.088 -34.300  20.735  1.00  0.00     0.006 C 
BRANCH   5   6
ATOM      6  C   UNL     1      15.951 -34.080  19.488  1.00  0.00     0.053 C 
BRANCH   6   7
ATOM      7  C   UNL     1      16.975 -35.163  19.362  1.00  0.00     0.041 C 
ATOM      8  O   UNL     1      16.616 -36.366  19.259  1.00  0.00    -0.550 OA
ATOM      9  O   UNL     1      18.328 -34.850  19.407  1.00  0.00    -0.550 OA
ENDBRANCH   6   7
ENDBRANCH   5   6
ENDBRANCH   4   5
ENDBRANCH   3   4
ENDBRANCH   2   3
ENDBRANCH   1   2
BRANCH   1  10
ATOM     10  C   UNL     1      16.871 -31.082  23.863  1.00  0.00     0.000 C 
BRANCH  10  11
ATOM     11  C   UNL     1      17.566 -30.662  22.556  1.00  0.00    -0.000 C 
BRANCH  11  12
ATOM     12  C   UNL     1      16.597 -30.611  21.364  1.00  0.00    -0.000 C 
BRANCH  12  13
ATOM     13  C   UNL     1      15.280 -29.897  21.707  1.00  0.00    -0.000 C 
BRANCH  13  14
ATOM     14  C   UNL     1      14.073 -30.728  21.255  1.00  0.00    -0.000 C 
BRANCH  14  15
ATOM     15  C   UNL     1      13.063 -30.897  22.397  1.00  0.00    -0.003 C 
ATOM     16  C   UNL     1      13.322 -29.892  23.515  1.00  0.00     0.004 C 
ENDBRANCH  14  15
ENDBRANCH  13  14
ENDBRANCH  12  13
ENDBRANCH  11  12
ENDBRANCH  10  11
ENDBRANCH   1  10
TORSDOF 12
ENDMDL
MODEL 7
REMARK VINA RESULT:    -4.053      2.880      4.595
REMARK INTER + INTRA:          -9.005
REMARK INTER:                  -7.208
REMARK INTRA:                  -1.797
REMARK UNBOUND:                -2.109
REMARK SMILES CCCCCCCCCCCCCC(=O)[O-]
REMARK SMILES IDX 8 1 9 2 10 3 11 4 12 5 13 6 14 7 15 8 16 9 7 10 6 11 5 12
REMARK SMILES IDX 4 13 3 14 2 15 1 16
REMARK H PARENT
REMARK Flexibility Score: inf
ROOT
ATOM      1  C   UNL     1      17.133 -30.045  22.642  1.00  0.00     0.000 C 
ENDROOT
BRANCH   1   2
ATOM      2  C   UNL     1      17.174 -30.570  21.195  1.00  0.00     0.000 C 
BRANCH   2   3
ATOM      3  C   UNL     1      18.457 -31.327  20.817  1.00  0.00     0.000 C 
BRANCH   3   4
ATOM      4  C   UNL     1      18.285 -32.853  20.870  1.00  0.00     0.000 C 
BRANCH   4   5
ATOM      5  C   UNL     1      17.613 -33.372  19.594  1.00  0.00     0.006 C 
BRANCH   5   6
ATOM      6  C   UNL     1      18.066 -34.800  19.277  1.00  0.00     0.053 C 
BRANCH   6   7
ATOM      7  C   UNL     1      17.143 -35.795  19.906  1.00  0.00     0.041 C 
ATOM      8  O   UNL     1      15.905 -35.740  19.680  1.00  0.00    -0.550 OA
ATOM      9  O   UNL     1      17.641 -36.753  20.779  1.00  0.00    -0.550 OA
ENDBRANCH   6   7
ENDBRANCH   5   6
ENDBRANCH   4   5
ENDBRANCH   3   4
ENDBRANCH   2   3
ENDBRANCH   1   2
BRANCH   1  10
ATOM     10  C   UNL     1      16.083 -30.749  23.529  1.00  0.00     0.000 C 
BRANCH  10  11
ATOM     11  C   UNL     1      16.554 -32.138  23.995  1.00  0.00    -0.000 C 
BRANCH  11  12
ATOM     12  C   UNL     1      15.669 -33.273  23.456  1.00  0.00    -0.000 C 
BRANCH  12  13
ATOM     13  C   UNL     1      14.371 -32.752  22.817  1.00  0.00    -0.000 C 
BRANCH  13  14
ATOM     14  C   UNL     1      14.403 -32.921  21.294  1.00  0.00    -0.000 C 
BRANCH  14  15
ATOM     15  C   UNL     1      13.507 -31.884  20.606  1.00  0.00    -0.003 C 
ATOM     16  C   UNL     1      12.848 -30.962  21.627  1.00  0.00     0.004 C 
ENDBRANCH  14  15
ENDBRANCH  13  14
ENDBRANCH  12  13
ENDBRANCH  11  12
ENDBRANCH  10  11
ENDBRANCH   1  10
TORSDOF 12
ENDMDL
MODEL 8
REMARK VINA RESULT:    -4.051      2.575      5.325
REMARK INTER + INTRA:          -9.001
REMARK INTER:                  -6.899
REMARK INTRA:                  -2.102
REMARK UNBOUND:                -2.109
REMARK SMILES CCCCCCCCCCCCCC(=O)[O-]
REMARK SMILES IDX 8 1 9 2 10 3 11 4 12 5 13 6 14 7 15 8 16 9 7 10 6 11 5 12
REMARK SMILES IDX 4 13 3 14 2 15 1 16
REMARK H PARENT
REMARK Flexibility Score: inf
ROOT
ATOM      1  C   UNL     1      13.607 -31.059  21.217  1.00  0.00     0.000 C 
ENDROOT
BRANCH   1   2
ATOM      2  C   UNL     1      13.814 -32.434  20.554  1.00  0.00     0.000 C 
BRANCH   2   3
ATOM      3  C   UNL     1      14.702 -33.407  21.347  1.00  0.00     0.000 C 
BRANCH   3   4
ATOM      4  C   UNL     1      15.474 -34.380  20.442  1.00  0.00     0.000 C 
BRANCH   4   5
ATOM      5  C   UNL     1      16.576 -35.099  21.227  1.00  0.00     0.006 C 
BRANCH   5   6
ATOM      6  C   UNL     1      16.772 -34.462  22.607  1.00  0.00     0.053 C 
BRANCH   6   7
ATOM      7  C   UNL     1      18.212 -34.509  23.006  1.00  0.00     0.041 C 
ATOM      8  O   UNL     1      18.532 -34.518  24.225  1.00  0.00    -0.550 OA
ATOM      9  O   UNL     1      19.205 -34.493  22.035  1.00  0.00    -0.550 OA
ENDBRANCH   6   7
ENDBRANCH   5   6
ENDBRANCH   4   5
ENDBRANCH   3   4
ENDBRANCH   2   3
ENDBRANCH   1   2
BRANCH   1  10
ATOM     10  C   UNL     1      13.012 -31.139  22.640  1.00  0.00     0.000 C 
BRANCH  10  11
ATOM     11  C   UNL     1      13.981 -30.598  23.706  1.00  0.00    -0.000 C 
BRANCH  11  12
ATOM     12  C   UNL     1      15.309 -30.115  23.104  1.00  0.00    -0.000 C 
BRANCH  12  13
ATOM     13  C   UNL     1      16.530 -30.755  23.784  1.00  0.00    -0.000 C 
BRANCH  13  14
ATOM     14  C   UNL     1      17.714 -30.845  22.814  1.00  0.00    -0.000 C 
BRANCH  14  15
ATOM     15  C   UNL     1      17.249 -30.674  21.362  1.00  0.00    -0.003 C 
ATOM     16  C   UNL     1      17.983 -31.635  20.432  1.00  0.00     0.004 C 
ENDBRANCH  14  15
ENDBRANCH  13  14
ENDBRANCH  12  13
ENDBRANCH  11  12
ENDBRANCH  10  11
ENDBRANCH   1  10
TORSDOF 12
ENDMDL
MODEL 9
REMARK VINA RESULT:    -4.004      1.442      3.362
REMARK INTER + INTRA:          -8.921
REMARK INTER:                  -7.182
REMARK INTRA:                  -1.739
REMARK UNBOUND:                -2.109
REMARK SMILES CCCCCCCCCCCCCC(=O)[O-]
REMARK SMILES IDX 8 1 9 2 10 3 11 4 12 5 13 6 14 7 15 8 16 9 7 10 6 11 5 12
REMARK SMILES IDX 4 13 3 14 2 15 1 16
REMARK H PARENT
REMARK Flexibility Score: inf
ROOT
ATOM      1  C   UNL     1      16.739 -34.667  19.362  1.00  0.00     0.000 C 
ENDROOT
BRANCH   1   2
ATOM      2  C   UNL     1      15.373 -34.813  20.059  1.00  0.00     0.000 C 
BRANCH   2   3
ATOM      3  C   UNL     1      14.523 -33.532  20.092  1.00  0.00     0.000 C 
BRANCH   3   4
ATOM      4  C   UNL     1      14.590 -32.809  21.447  1.00  0.00     0.000 C 
BRANCH   4   5
ATOM      5  C   UNL     1      14.277 -31.318  21.285  1.00  0.00     0.006 C 
BRANCH   5   6
ATOM      6  C   UNL     1      12.803 -31.030  21.584  1.00  0.00     0.053 C 
BRANCH   6   7
ATOM      7  C   UNL     1      12.664 -30.295  22.879  1.00  0.00     0.041 C 
ATOM      8  O   UNL     1      11.881 -29.312  22.969  1.00  0.00    -0.550 OA
ATOM      9  O   UNL     1      13.434 -30.664  23.975  1.00  0.00    -0.550 OA
ENDBRANCH   6   7
ENDBRANCH   5   6
ENDBRANCH   4   5
ENDBRANCH   3   4
ENDBRANCH   2   3
ENDBRANCH   1   2
BRANCH   1  10
ATOM     10  C   UNL     1      17.747 -35.778  19.733  1.00  0.00     0.000 C 
BRANCH  10  11
ATOM     11  C   UNL     1      17.706 -36.122  21.232  1.00  0.00    -0.000 C 
BRANCH  11  12
ATOM     12  C   UNL     1      18.549 -35.158  22.081  1.00  0.00    -0.000 C 
BRANCH  12  13
ATOM     13  C   UNL     1      17.683 -34.209  22.926  1.00  0.00    -0.000 C 
BRANCH  13  14
ATOM     14  C   UNL     1      18.157 -32.759  22.781  1.00  0.00    -0.000 C 
BRANCH  14  15
ATOM     15  C   UNL     1      18.665 -32.486  21.360  1.00  0.00    -0.003 C 
ATOM     16  C   UNL     1      17.995 -31.252  20.763  1.00  0.00     0.004 C 
ENDBRANCH  14  15
ENDBRANCH  13  14
ENDBRANCH  12  13
ENDBRANCH  11  12
ENDBRANCH  10  11
ENDBRANCH   1  10
TORSDOF 12
ENDMDL
