MODEL 1
REMARK VINA RESULT:    -4.894      0.000      0.000
REMARK INTER + INTRA:          -9.422
REMARK INTER:                  -8.328
REMARK INTRA:                  -1.094
REMARK UNBOUND:                -1.094
REMARK SMILES CCCCCCCCCCCCCC(=O)[O-]
REMARK SMILES IDX 8 1 9 2 10 3 11 4 12 5 13 6 14 7 15 8 16 9 7 10 6 11 5 12
REMARK SMILES IDX 4 13 3 14 2 15 1 16
REMARK H PARENT
REMARK Flexibility Score: inf
ROOT
ATOM      1  C   UNL     1       7.411  56.482  22.400  1.00  0.00     0.000 C 
ENDROOT
BRANCH   1   2
ATOM      2  C   UNL     1       6.254  57.219  21.713  1.00  0.00     0.000 C 
BRANCH   2   3
ATOM      3  C   UNL     1       5.035  57.313  22.637  1.00  0.00     0.000 C 
BRANCH   3   4
ATOM      4  C   UNL     1       3.936  58.186  22.013  1.00  0.00     0.000 C 
BRANCH   4   5
ATOM      5  C   UNL     1       3.262  59.126  23.029  1.00  0.00     0.006 C 
BRANCH   5   6
ATOM      6  C   UNL     1       2.814  60.472  22.432  1.00  0.00     0.053 C 
BRANCH   6   7
ATOM      7  C   UNL     1       1.732  60.315  21.406  1.00  0.00     0.041 C 
ATOM      8  O   UNL     1       2.010  60.370  20.179  1.00  0.00    -0.550 OA
ATOM      9  O   UNL     1       0.412  60.144  21.803  1.00  0.00    -0.550 OA
ENDBRANCH   6   7
ENDBRANCH   5   6
ENDBRANCH   4   5
ENDBRANCH   3   4
ENDBRANCH   2   3
ENDBRANCH   1   2
BRANCH   1  10
ATOM     10  C   UNL     1       7.748  55.178  21.663  1.00  0.00     0.000 C 
BRANCH  10  11
ATOM     11  C   UNL     1       6.899  53.984  22.131  1.00  0.00    -0.000 C 
BRANCH  11  12
ATOM     12  C   UNL     1       6.553  53.964  23.636  1.00  0.00    -0.000 C 
BRANCH  12  13
ATOM     13  C   UNL     1       7.605  53.290  24.539  1.00  0.00    -0.000 C 
BRANCH  13  14
ATOM     14  C   UNL     1       8.191  54.228  25.620  1.00  0.00    -0.000 C 
BRANCH  14  15
ATOM     15  C   UNL     1       9.596  54.752  25.281  1.00  0.00    -0.003 C 
ATOM     16  C   UNL     1      10.268  53.963  24.160  1.00  0.00     0.004 C 
ENDBRANCH  14  15
ENDBRANCH  13  14
ENDBRANCH  12  13
ENDBRANCH  11  12
ENDBRANCH  10  11
ENDBRANCH   1  10
TORSDOF 12
ENDMDL
MODEL 2
REMARK VINA RESULT:    -4.681      4.306      8.349
REMARK INTER + INTRA:          -9.059
REMARK INTER:                  -8.511
REMARK INTRA:                  -0.548
REMARK UNBOUND:                -1.094
REMARK SMILES CCCCCCCCCCCCCC(=O)[O-]
REMARK SMILES IDX 8 1 9 2 10 3 11 4 12 5 13 6 14 7 15 8 16 9 7 10 6 11 5 12
REMARK SMILES IDX 4 13 3 14 2 15 1 16
REMARK H PARENT
REMARK Flexibility Score: inf
ROOT
ATOM      1  C   UNL     1       6.476  56.753  21.765  1.00  0.00     0.000 C 
ENDROOT
BRANCH   1   2
ATOM      2  C   UNL     1       7.559  56.069  22.608  1.00  0.00     0.000 C 
BRANCH   2   3
ATOM      3  C   UNL     1       7.147  54.639  22.977  1.00  0.00     0.000 C 
BRANCH   3   4
ATOM      4  C   UNL     1       8.286  53.647  22.693  1.00  0.00     0.000 C 
BRANCH   4   5
ATOM      5  C   UNL     1       9.682  54.235  22.967  1.00  0.00     0.006 C 
BRANCH   5   6
ATOM      6  C   UNL     1      10.358  53.675  24.230  1.00  0.00     0.053 C 
BRANCH   6   7
ATOM      7  C   UNL     1      10.339  54.644  25.373  1.00  0.00     0.041 C 
ATOM      8  O   UNL     1       9.581  55.649  25.338  1.00  0.00    -0.550 OA
ATOM      9  O   UNL     1      11.182  54.457  26.462  1.00  0.00    -0.550 OA
ENDBRANCH   6   7
ENDBRANCH   5   6
ENDBRANCH   4   5
ENDBRANCH   3   4
ENDBRANCH   2   3
ENDBRANCH   1   2
BRANCH   1  10
ATOM     10  C   UNL     1       5.273  57.152  22.632  1.00  0.00     0.000 C 
BRANCH  10  11
ATOM     11  C   UNL     1       4.327  58.143  21.932  1.00  0.00    -0.000 C 
BRANCH  11  12
ATOM     12  C   UNL     1       3.256  58.792  22.835  1.00  0.00    -0.000 C 
BRANCH  12  13
ATOM     13  C   UNL     1       2.746  60.166  22.360  1.00  0.00    -0.000 C 
BRANCH  13  14
ATOM     14  C   UNL     1       1.547  60.703  23.177  1.00  0.00    -0.000 C 
BRANCH  14  15
ATOM     15  C   UNL     1       0.920  59.650  24.106  1.00  0.00    -0.003 C 
ATOM     16  C   UNL     1      -0.287  60.182  24.875  1.00  0.00     0.004 C 
ENDBRANCH  14  15
ENDBRANCH  13  14
ENDBRANCH  12  13
ENDBRANCH  11  12
ENDBRANCH  10  11
ENDBRANCH   1  10
TORSDOF 12
ENDMDL
MODEL 3
REMARK VINA RESULT:    -4.671      3.688      4.892
REMARK INTER + INTRA:          -9.042
REMARK INTER:                  -7.626
REMARK INTRA:                  -1.416
REMARK UNBOUND:                -1.094
REMARK SMILES CCCCCCCCCCCCCC(=O)[O-]
REMARK SMILES IDX 8 1 9 2 10 3 11 4 12 5 13 6 14 7 15 8 16 9 7 10 6 11 5 12
REMARK SMILES IDX 4 13 3 14 2 15 1 16
REMARK H PARENT
REMARK Flexibility Score: inf
ROOT
ATOM      1  C   UNL     1       6.556  53.201  24.091  1.00  0.00     0.000 C 
ENDROOT
BRANCH   1   2
ATOM      2  C   UNL     1       6.611  54.723  23.909  1.00  0.00     0.000 C 
BRANCH   2   3
ATOM      3  C   UNL     1       5.463  55.213  23.019  1.00  0.00     0.000 C 
BRANCH   3   4
ATOM      4  C   UNL     1       5.840  56.518  22.303  1.00  0.00     0.000 C 
BRANCH   4   5
ATOM      5  C   UNL     1       7.361  56.729  22.192  1.00  0.00     0.006 C 
BRANCH   5   6
ATOM      6  C   UNL     1       7.924  56.483  20.782  1.00  0.00     0.053 C 
BRANCH   6   7
ATOM      7  C   UNL     1       7.550  55.137  20.239  1.00  0.00     0.041 C 
ATOM      8  O   UNL     1       6.826  55.047  19.213  1.00  0.00    -0.550 OA
ATOM      9  O   UNL     1       7.973  53.981  20.884  1.00  0.00    -0.550 OA
ENDBRANCH   6   7
ENDBRANCH   5   6
ENDBRANCH   4   5
ENDBRANCH   3   4
ENDBRANCH   2   3
ENDBRANCH   1   2
BRANCH   1  10
ATOM     10  C   UNL     1       7.829  52.681  24.774  1.00  0.00     0.000 C 
BRANCH  10  11
ATOM     11  C   UNL     1       8.874  52.150  23.777  1.00  0.00    -0.000 C 
BRANCH  11  12
ATOM     12  C   UNL     1      10.252  52.846  23.825  1.00  0.00    -0.000 C 
BRANCH  12  13
ATOM     13  C   UNL     1      10.228  54.362  23.550  1.00  0.00    -0.000 C 
BRANCH  13  14
ATOM     14  C   UNL     1      10.058  55.224  24.822  1.00  0.00    -0.000 C 
BRANCH  14  15
ATOM     15  C   UNL     1      10.847  54.693  26.030  1.00  0.00    -0.003 C 
ATOM     16  C   UNL     1      10.033  54.704  27.322  1.00  0.00     0.004 C 
ENDBRANCH  14  15
ENDBRANCH  13  14
ENDBRANCH  12  13
ENDBRANCH  11  12
ENDBRANCH  10  11
ENDBRANCH   1  10
TORSDOF 12
ENDMDL
MODEL 4
REMARK VINA RESULT:    -4.649      1.230      1.842
REMARK INTER + INTRA:          -9.005
REMARK INTER:                  -8.279
REMARK INTRA:                  -0.726
REMARK UNBOUND:                -1.094
REMARK SMILES CCCCCCCCCCCCCC(=O)[O-]
REMARK SMILES IDX 8 1 9 2 10 3 11 4 12 5 13 6 14 7 15 8 16 9 7 10 6 11 5 12
REMARK SMILES IDX 4 13 3 14 2 15 1 16
REMARK H PARENT
REMARK Flexibility Score: inf
ROOT
ATOM      1  C   UNL     1       5.649  55.264  22.832  1.00  0.00     0.000 C 
ENDROOT
BRANCH   1   2
ATOM      2  C   UNL     1       5.749  56.567  22.029  1.00  0.00     0.000 C 
BRANCH   2   3
ATOM      3  C   UNL     1       5.002  57.705  22.733  1.00  0.00     0.000 C 
BRANCH   3   4
ATOM      4  C   UNL     1       3.685  58.029  22.013  1.00  0.00     0.000 C 
BRANCH   4   5
ATOM      5  C   UNL     1       3.571  59.507  21.597  1.00  0.00     0.006 C 
BRANCH   5   6
ATOM      6  C   UNL     1       2.808  60.382  22.606  1.00  0.00     0.053 C 
BRANCH   6   7
ATOM      7  C   UNL     1       1.471  59.811  22.970  1.00  0.00     0.041 C 
ATOM      8  O   UNL     1       1.221  59.494  24.163  1.00  0.00    -0.550 OA
ATOM      9  O   UNL     1       0.512  59.597  21.988  1.00  0.00    -0.550 OA
ENDBRANCH   6   7
ENDBRANCH   5   6
ENDBRANCH   4   5
ENDBRANCH   3   4
ENDBRANCH   2   3
ENDBRANCH   1   2
BRANCH   1  10
ATOM     10  C   UNL     1       6.459  54.143  22.165  1.00  0.00     0.000 C 
BRANCH  10  11
ATOM     11  C   UNL     1       7.725  54.654  21.454  1.00  0.00    -0.000 C 
BRANCH  11  12
ATOM     12  C   UNL     1       8.940  54.916  22.370  1.00  0.00    -0.000 C 
BRANCH  12  13
ATOM     13  C   UNL     1       9.501  53.671  23.085  1.00  0.00    -0.000 C 
BRANCH  13  14
ATOM     14  C   UNL     1       9.167  53.616  24.594  1.00  0.00    -0.000 C 
BRANCH  14  15
ATOM     15  C   UNL     1       9.600  54.875  25.362  1.00  0.00    -0.003 C 
ATOM     16  C   UNL     1      10.925  54.695  26.098  1.00  0.00     0.004 C 
ENDBRANCH  14  15
ENDBRANCH  13  14
ENDBRANCH  12  13
ENDBRANCH  11  12
ENDBRANCH  10  11
ENDBRANCH   1  10
TORSDOF 12
ENDMDL
MODEL 5
REMARK VINA RESULT:    -4.643      4.106      7.271
REMARK INTER + INTRA:          -8.993
REMARK INTER:                  -7.802
REMARK INTRA:                  -1.192
REMARK UNBOUND:                -1.094
REMARK SMILES CCCCCCCCCCCCCC(=O)[O-]
REMARK SMILES IDX 8 1 9 2 10 3 11 4 12 5 13 6 14 7 15 8 16 9 7 10 6 11 5 12
REMARK SMILES IDX 4 13 3 14 2 15 1 16
REMARK H PARENT
REMARK Flexibility Score: inf
ROOT
ATOM      1  C   UNL     1       6.201  53.663  21.327  1.00  0.00     0.000 C 
ENDROOT
BRANCH   1   2
ATOM      2  C   UNL     1       7.227  53.170  22.355  1.00  0.00     0.000 C 
BRANCH   2   3
ATOM      3  C   UNL     1       6.850  53.623  23.770  1.00  0.00     0.000 C 
BRANCH   3   4
ATOM      4  C   UNL     1       7.885  53.142  24.797  1.00  0.00     0.000 C 
BRANCH   4   5
ATOM      5  C   UNL     1       9.245  52.792  24.167  1.00  0.00     0.006 C 
BRANCH   5   6
ATOM      6  C   UNL     1      10.195  53.994  24.026  1.00  0.00     0.053 C 
BRANCH   6   7
ATOM      7  C   UNL     1      10.232  54.848  25.258  1.00  0.00     0.041 C 
ATOM      8  O   UNL     1       9.556  55.908  25.314  1.00  0.00    -0.550 OA
ATOM      9  O   UNL     1      11.039  54.490  26.331  1.00  0.00    -0.550 OA
ENDBRANCH   6   7
ENDBRANCH   5   6
ENDBRANCH   4   5
ENDBRANCH   3   4
ENDBRANCH   2   3
ENDBRANCH   1   2
BRANCH   1  10
ATOM     10  C   UNL     1       6.878  54.501  20.232  1.00  0.00     0.000 C 
BRANCH  10  11
ATOM     11  C   UNL     1       7.901  55.507  20.788  1.00  0.00    -0.000 C 
BRANCH  11  12
ATOM     12  C   UNL     1       7.336  56.899  21.146  1.00  0.00    -0.000 C 
BRANCH  12  13
ATOM     13  C   UNL     1       6.756  57.024  22.568  1.00  0.00    -0.000 C 
BRANCH  13  14
ATOM     14  C   UNL     1       5.212  56.955  22.620  1.00  0.00    -0.000 C 
BRANCH  14  15
ATOM     15  C   UNL     1       4.523  58.085  21.838  1.00  0.00    -0.003 C 
ATOM     16  C   UNL     1       3.396  58.749  22.625  1.00  0.00     0.004 C 
ENDBRANCH  14  15
ENDBRANCH  13  14
ENDBRANCH  12  13
ENDBRANCH  11  12
ENDBRANCH  10  11
ENDBRANCH   1  10
TORSDOF 12
ENDMDL
MODEL 6
REMARK VINA RESULT:    -4.601      1.287      1.950
REMARK INTER + INTRA:          -8.923
REMARK INTER:                  -7.811
REMARK INTRA:                  -1.112
REMARK UNBOUND:                -1.094
REMARK SMILES CCCCCCCCCCCCCC(=O)[O-]
REMARK SMILES IDX 8 1 9 2 10 3 11 4 12 5 13 6 14 7 15 8 16 9 7 10 6 11 5 12
REMARK SMILES IDX 4 13 3 14 2 15 1 16
REMARK H PARENT
REMARK Flexibility Score: inf
ROOT
ATOM      1  C   UNL     1       8.047  56.299  21.519  1.00  0.00     0.000 C 
ENDROOT
BRANCH   1   2
ATOM      2  C   UNL     1       6.983  56.900  22.446  1.00  0.00     0.000 C 
BRANCH   2   3
ATOM      3  C   UNL     1       5.868  55.887  22.733  1.00  0.00     0.000 C 
BRANCH   3   4
ATOM      4  C   UNL     1       4.485  56.547  22.637  1.00  0.00     0.000 C 
BRANCH   4   5
ATOM      5  C   UNL     1       4.541  57.993  22.111  1.00  0.00     0.006 C 
BRANCH   5   6
ATOM      6  C   UNL     1       3.280  58.819  22.418  1.00  0.00     0.053 C 
BRANCH   6   7
ATOM      7  C   UNL     1       2.621  59.348  21.180  1.00  0.00     0.041 C 
ATOM      8  O   UNL     1       1.993  58.570  20.415  1.00  0.00    -0.550 OA
ATOM      9  O   UNL     1       2.730  60.694  20.852  1.00  0.00    -0.550 OA
ENDBRANCH   6   7
ENDBRANCH   5   6
ENDBRANCH   4   5
ENDBRANCH   3   4
ENDBRANCH   2   3
ENDBRANCH   1   2
BRANCH   1  10
ATOM     10  C   UNL     1       7.654  54.883  21.073  1.00  0.00     0.000 C 
BRANCH  10  11
ATOM     11  C   UNL     1       8.536  53.788  21.697  1.00  0.00    -0.000 C 
BRANCH  11  12
ATOM     12  C   UNL     1       9.712  54.294  22.561  1.00  0.00    -0.000 C 
BRANCH  12  13
ATOM     13  C   UNL     1       9.882  53.579  23.916  1.00  0.00    -0.000 C 
BRANCH  13  14
ATOM     14  C   UNL     1      10.264  54.526  25.077  1.00  0.00    -0.000 C 
BRANCH  14  15
ATOM     15  C   UNL     1       9.091  54.840  26.021  1.00  0.00    -0.003 C 
ATOM     16  C   UNL     1       7.819  54.077  25.660  1.00  0.00     0.004 C 
ENDBRANCH  14  15
ENDBRANCH  13  14
ENDBRANCH  12  13
ENDBRANCH  11  12
ENDBRANCH  10  11
ENDBRANCH   1  10
TORSDOF 12
ENDMDL
MODEL 7
REMARK VINA RESULT:    -4.545      4.981      7.738
REMARK INTER + INTRA:          -8.827
REMARK INTER:                  -7.892
REMARK INTRA:                  -0.935
REMARK UNBOUND:                -1.094
REMARK SMILES CCCCCCCCCCCCCC(=O)[O-]
REMARK SMILES IDX 8 1 9 2 10 3 11 4 12 5 13 6 14 7 15 8 16 9 7 10 6 11 5 12
REMARK SMILES IDX 4 13 3 14 2 15 1 16
REMARK H PARENT
REMARK Flexibility Score: inf
ROOT
ATOM      1  C   UNL     1       7.227  54.948  24.910  1.00  0.00     0.000 C 
ENDROOT
BRANCH   1   2
ATOM      2  C   UNL     1       8.134  54.024  25.732  1.00  0.00     0.000 C 
BRANCH   2   3
ATOM      3  C   UNL     1       9.415  54.748  26.160  1.00  0.00     0.000 C 
BRANCH   3   4
ATOM      4  C   UNL     1      10.584  54.396  25.228  1.00  0.00     0.000 C 
BRANCH   4   5
ATOM      5  C   UNL     1      10.185  54.367  23.742  1.00  0.00     0.006 C 
BRANCH   5   6
ATOM      6  C   UNL     1      10.647  53.103  22.996  1.00  0.00     0.053 C 
BRANCH   6   7
ATOM      7  C   UNL     1       9.906  51.874  23.429  1.00  0.00     0.041 C 
ATOM      8  O   UNL     1       8.648  51.883  23.492  1.00  0.00    -0.550 OA
ATOM      9  O   UNL     1      10.604  50.731  23.797  1.00  0.00    -0.550 OA
ENDBRANCH   6   7
ENDBRANCH   5   6
ENDBRANCH   4   5
ENDBRANCH   3   4
ENDBRANCH   2   3
ENDBRANCH   1   2
BRANCH   1  10
ATOM     10  C   UNL     1       6.362  54.142  23.930  1.00  0.00     0.000 C 
BRANCH  10  11
ATOM     11  C   UNL     1       6.014  54.922  22.651  1.00  0.00    -0.000 C 
BRANCH  11  12
ATOM     12  C   UNL     1       6.923  56.132  22.342  1.00  0.00    -0.000 C 
BRANCH  12  13
ATOM     13  C   UNL     1       7.846  55.960  21.120  1.00  0.00    -0.000 C 
BRANCH  13  14
ATOM     14  C   UNL     1       7.617  54.642  20.345  1.00  0.00    -0.000 C 
BRANCH  14  15
ATOM     15  C   UNL     1       7.000  54.851  18.953  1.00  0.00    -0.003 C 
ATOM     16  C   UNL     1       6.172  53.655  18.486  1.00  0.00     0.004 C 
ENDBRANCH  14  15
ENDBRANCH  13  14
ENDBRANCH  12  13
ENDBRANCH  11  12
ENDBRANCH  10  11
ENDBRANCH   1  10
TORSDOF 12
ENDMDL
MODEL 8
REMARK VINA RESULT:    -4.537      1.872      2.431
REMARK INTER + INTRA:          -8.813
REMARK INTER:                  -8.185
REMARK INTRA:                  -0.628
REMARK UNBOUND:                -1.094
REMARK SMILES CCCCCCCCCCCCCC(=O)[O-]
REMARK SMILES IDX 8 1 9 2 10 3 11 4 12 5 13 6 14 7 15 8 16 9 7 10 6 11 5 12
REMARK SMILES IDX 4 13 3 14 2 15 1 16
REMARK H PARENT
REMARK Flexibility Score: inf
ROOT
ATOM      1  C   UNL     1       5.316  56.988  22.617  1.00  0.00     0.000 C 
ENDROOT
BRANCH   1   2
ATOM      2  C   UNL     1       4.593  58.091  21.834  1.00  0.00     0.000 C 
BRANCH   2   3
ATOM      3  C   UNL     1       3.285  58.491  22.528  1.00  0.00     0.000 C 
BRANCH   3   4
ATOM      4  C   UNL     1       2.094  58.382  21.564  1.00  0.00     0.000 C 
BRANCH   4   5
ATOM      5  C   UNL     1       2.291  59.187  20.267  1.00  0.00     0.006 C 
BRANCH   5   6
ATOM      6  C   UNL     1       0.995  59.414  19.470  1.00  0.00     0.053 C 
BRANCH   6   7
ATOM      7  C   UNL     1       1.089  58.911  18.061  1.00  0.00     0.041 C 
ATOM      8  O   UNL     1       2.021  59.301  17.311  1.00  0.00    -0.550 OA
ATOM      9  O   UNL     1       0.127  58.039  17.565  1.00  0.00    -0.550 OA
ENDBRANCH   6   7
ENDBRANCH   5   6
ENDBRANCH   4   5
ENDBRANCH   3   4
ENDBRANCH   2   3
ENDBRANCH   1   2
BRANCH   1  10
ATOM     10  C   UNL     1       6.771  56.843  22.146  1.00  0.00     0.000 C 
BRANCH  10  11
ATOM     11  C   UNL     1       7.294  55.399  22.243  1.00  0.00    -0.000 C 
BRANCH  11  12
ATOM     12  C   UNL     1       6.688  54.547  23.380  1.00  0.00    -0.000 C 
BRANCH  12  13
ATOM     13  C   UNL     1       7.702  53.703  24.176  1.00  0.00    -0.000 C 
BRANCH  13  14
ATOM     14  C   UNL     1       8.820  54.538  24.843  1.00  0.00    -0.000 C 
BRANCH  14  15
ATOM     15  C   UNL     1      10.235  54.121  24.411  1.00  0.00    -0.003 C 
ATOM     16  C   UNL     1      10.250  53.352  23.091  1.00  0.00     0.004 C 
ENDBRANCH  14  15
ENDBRANCH  13  14
ENDBRANCH  12  13
ENDBRANCH  11  12
ENDBRANCH  10  11
ENDBRANCH   1  10
TORSDOF 12
ENDMDL
MODEL 9
REMARK VINA RESULT:    -4.525      2.434      4.082
REMARK INTER + INTRA:          -8.793
REMARK INTER:                  -8.152
REMARK INTRA:                  -0.642
REMARK UNBOUND:                -1.094
REMARK SMILES CCCCCCCCCCCCCC(=O)[O-]
REMARK SMILES IDX 8 1 9 2 10 3 11 4 12 5 13 6 14 7 15 8 16 9 7 10 6 11 5 12
REMARK SMILES IDX 4 13 3 14 2 15 1 16
REMARK H PARENT
REMARK Flexibility Score: inf
ROOT
ATOM      1  C   UNL     1       4.730  58.008  22.665  1.00  0.00     0.000 C 
ENDROOT
BRANCH   1   2
ATOM      2  C   UNL     1       3.413  58.266  21.923  1.00  0.00     0.000 C 
BRANCH   2   3
ATOM      3  C   UNL     1       3.394  59.670  21.307  1.00  0.00     0.000 C 
BRANCH   3   4
ATOM      4  C   UNL     1       2.032  59.971  20.664  1.00  0.00     0.000 C 
BRANCH   4   5
ATOM      5  C   UNL     1       1.553  58.858  19.714  1.00  0.00     0.006 C 
BRANCH   5   6
ATOM      6  C   UNL     1       1.559  59.260  18.229  1.00  0.00     0.053 C 
BRANCH   6   7
ATOM      7  C   UNL     1       0.291  58.883  17.524  1.00  0.00     0.041 C 
ATOM      8  O   UNL     1       0.157  57.731  17.034  1.00  0.00    -0.550 OA
ATOM      9  O   UNL     1      -0.731  59.814  17.379  1.00  0.00    -0.550 OA
ENDBRANCH   6   7
ENDBRANCH   5   6
ENDBRANCH   4   5
ENDBRANCH   3   4
ENDBRANCH   2   3
ENDBRANCH   1   2
BRANCH   1  10
ATOM     10  C   UNL     1       5.321  56.644  22.280  1.00  0.00     0.000 C 
BRANCH  10  11
ATOM     11  C   UNL     1       6.811  56.717  21.905  1.00  0.00    -0.000 C 
BRANCH  11  12
ATOM     12  C   UNL     1       7.634  55.444  22.201  1.00  0.00    -0.000 C 
BRANCH  12  13
ATOM     13  C   UNL     1       6.822  54.135  22.238  1.00  0.00    -0.000 C 
BRANCH  13  14
ATOM     14  C   UNL     1       6.504  53.558  20.839  1.00  0.00    -0.000 C 
BRANCH  14  15
ATOM     15  C   UNL     1       7.467  54.043  19.744  1.00  0.00    -0.003 C 
ATOM     16  C   UNL     1       6.748  54.704  18.571  1.00  0.00     0.004 C 
ENDBRANCH  14  15
ENDBRANCH  13  14
ENDBRANCH  12  13
ENDBRANCH  11  12
ENDBRANCH  10  11
ENDBRANCH   1  10
TORSDOF 12
ENDMDL
