MODEL 1
REMARK VINA RESULT:     0.000      0.000      0.000
REMARK INTER + INTRA:          -0.319
REMARK INTER:                   0.000
REMARK INTRA:                  -0.319
REMARK UNBOUND:                -0.319
REMARK SMILES O=c1cc(-c2ccc(O)c(O)c2)oc2cc(O)cc(O)c12
REMARK SMILES IDX 4 1 3 2 2 3 1 4 21 5 19 6 18 7 16 8 15 9 14 10 13 11 5 12
REMARK SMILES IDX 6 13 7 14 8 15 12 16 10 17 9 18 11 20 20 22 17 24
REMARK H PARENT 9 19 11 21 20 23 17 25
REMARK Flexibility Score: inf
ROOT
ATOM      1  C   UNL     1      18.769 110.273  87.542  1.00  0.00     0.138 A 
ATOM      2  C   UNL     1      19.849 109.448  87.898  1.00  0.00     0.100 A 
ATOM      3  C   UNL     1      20.421 109.576  89.165  1.00  0.00     0.197 A 
ATOM      4  O   UNL     1      21.389 108.830  89.477  1.00  0.00    -0.289 OA
ATOM      5  C   UNL     1      19.907 110.528  90.068  1.00  0.00     0.107 A 
ATOM      6  C   UNL     1      20.429 110.722  91.368  1.00  0.00     0.134 A 
ATOM      7  C   UNL     1      19.857 111.689  92.210  1.00  0.00     0.093 A 
ATOM      8  C   UNL     1      18.773 112.461  91.774  1.00  0.00     0.123 A 
ATOM      9  C   UNL     1      18.255 112.271  90.492  1.00  0.00     0.094 A 
ATOM     10  C   UNL     1      18.812 111.314  89.638  1.00  0.00     0.146 A 
ATOM     11  O   UNL     1      18.301 111.155  88.421  1.00  0.00    -0.456 OA
ENDROOT
BRANCH   1  12
ATOM     12  C   UNL     1      18.120 110.180  86.210  1.00  0.00     0.021 A 
ATOM     13  C   UNL     1      18.570 109.278  85.229  1.00  0.00     0.016 A 
ATOM     14  C   UNL     1      17.946 109.220  83.982  1.00  0.00     0.051 A 
ATOM     15  C   UNL     1      16.868 110.061  83.681  1.00  0.00     0.157 A 
ATOM     16  C   UNL     1      17.047 111.033  85.902  1.00  0.00     0.062 A 
ATOM     17  C   UNL     1      16.414 110.981  84.653  1.00  0.00     0.158 A 
BRANCH  15  18
ATOM     18  O   UNL     1      16.287 109.950  82.415  1.00  0.00    -0.504 OA
ATOM     19  H   UNL     1      16.395 109.146  81.814  1.00  0.00     0.293 HD
ENDBRANCH  15  18
BRANCH  17  20
ATOM     20  O   UNL     1      15.349 111.854  84.425  1.00  0.00    -0.504 OA
ATOM     21  H   UNL     1      14.972 112.059  83.511  1.00  0.00     0.293 HD
ENDBRANCH  17  20
ENDBRANCH   1  12
BRANCH   6  22
ATOM     22  O   UNL     1      21.508 109.967  91.829  1.00  0.00    -0.507 OA
ATOM     23  H   UNL     1      21.488 108.954  91.830  1.00  0.00     0.293 HD
ENDBRANCH   6  22
BRANCH   8  24
ATOM     24  O   UNL     1      18.205 113.419  92.609  1.00  0.00    -0.508 OA
ATOM     25  H   UNL     1      18.436 113.468  93.595  1.00  0.00     0.293 HD
ENDBRANCH   8  24
TORSDOF 5
ENDMDL
MODEL 2
REMARK VINA RESULT:     0.000      2.478      3.456
REMARK INTER + INTRA:          -0.319
REMARK INTER:                   0.000
REMARK INTRA:                  -0.319
REMARK UNBOUND:                -0.319
REMARK SMILES O=c1cc(-c2ccc(O)c(O)c2)oc2cc(O)cc(O)c12
REMARK SMILES IDX 4 1 3 2 2 3 1 4 21 5 19 6 18 7 16 8 15 9 14 10 13 11 5 12
REMARK SMILES IDX 6 13 7 14 8 15 12 16 10 17 9 18 11 20 20 22 17 24
REMARK H PARENT 9 19 11 21 20 23 17 25
REMARK Flexibility Score: inf
ROOT
ATOM      1  C   UNL     1      20.618 108.944  90.051  1.00  0.00     0.138 A 
ATOM      2  C   UNL     1      21.787 108.202  90.289  1.00  0.00     0.100 A 
ATOM      3  C   UNL     1      22.550 108.471  91.427  1.00  0.00     0.197 A 
ATOM      4  O   UNL     1      23.597 107.799  91.633  1.00  0.00    -0.289 OA
ATOM      5  C   UNL     1      22.137 109.479  92.320  1.00  0.00     0.107 A 
ATOM      6  C   UNL     1      22.851 109.814  93.494  1.00  0.00     0.134 A 
ATOM      7  C   UNL     1      22.369 110.828  94.336  1.00  0.00     0.093 A 
ATOM      8  C   UNL     1      21.186 111.509  94.026  1.00  0.00     0.123 A 
ATOM      9  C   UNL     1      20.478 111.181  92.869  1.00  0.00     0.094 A 
ATOM     10  C   UNL     1      20.942 110.174  92.017  1.00  0.00     0.146 A 
ATOM     11  O   UNL     1      20.250 109.883  90.919  1.00  0.00    -0.456 OA
ENDROOT
BRANCH   1  12
ATOM     12  C   UNL     1      19.767 108.702  88.859  1.00  0.00     0.021 A 
ATOM     13  C   UNL     1      20.102 107.734  87.895  1.00  0.00     0.016 A 
ATOM     14  C   UNL     1      19.288 107.535  86.779  1.00  0.00     0.051 A 
ATOM     15  C   UNL     1      18.129 108.297  86.594  1.00  0.00     0.157 A 
ATOM     16  C   UNL     1      18.611 109.476  88.665  1.00  0.00     0.062 A 
ATOM     17  C   UNL     1      17.787 109.282  87.549  1.00  0.00     0.158 A 
BRANCH  15  18
ATOM     18  O   UNL     1      17.357 108.046  85.457  1.00  0.00    -0.504 OA
ATOM     19  H   UNL     1      17.414 108.586  84.606  1.00  0.00     0.293 HD
ENDBRANCH  15  18
BRANCH  17  20
ATOM     20  O   UNL     1      16.651 110.085  87.430  1.00  0.00    -0.504 OA
ATOM     21  H   UNL     1      16.490 110.921  87.973  1.00  0.00     0.293 HD
ENDBRANCH  17  20
ENDBRANCH   1  12
BRANCH   6  22
ATOM     22  O   UNL     1      24.033 109.151  93.829  1.00  0.00    -0.507 OA
ATOM     23  H   UNL     1      24.072 108.142  93.918  1.00  0.00     0.293 HD
ENDBRANCH   6  22
BRANCH   8  24
ATOM     24  O   UNL     1      20.707 112.514  94.862  1.00  0.00    -0.508 OA
ATOM     25  H   UNL     1      21.093 112.663  95.787  1.00  0.00     0.293 HD
ENDBRANCH   8  24
TORSDOF 5
ENDMDL
MODEL 3
REMARK VINA RESULT:     0.000      3.621      7.611
REMARK INTER + INTRA:          -0.319
REMARK INTER:                   0.000
REMARK INTRA:                  -0.319
REMARK UNBOUND:                -0.319
REMARK SMILES O=c1cc(-c2ccc(O)c(O)c2)oc2cc(O)cc(O)c12
REMARK SMILES IDX 4 1 3 2 2 3 1 4 21 5 19 6 18 7 16 8 15 9 14 10 13 11 5 12
REMARK SMILES IDX 6 13 7 14 8 15 12 16 10 17 9 18 11 20 20 22 17 24
REMARK H PARENT 9 19 11 21 20 23 17 25
REMARK Flexibility Score: inf
ROOT
ATOM      1  C   UNL     1      22.813 110.256  90.110  1.00  0.00     0.138 A 
ATOM      2  C   UNL     1      23.466 110.380  88.873  1.00  0.00     0.100 A 
ATOM      3  C   UNL     1      22.863 111.113  87.848  1.00  0.00     0.197 A 
ATOM      4  O   UNL     1      23.458 111.219  86.742  1.00  0.00    -0.289 OA
ATOM      5  C   UNL     1      21.611 111.719  88.070  1.00  0.00     0.107 A 
ATOM      6  C   UNL     1      20.932 112.477  87.088  1.00  0.00     0.134 A 
ATOM      7  C   UNL     1      19.689 113.053  87.390  1.00  0.00     0.093 A 
ATOM      8  C   UNL     1      19.116 112.887  88.657  1.00  0.00     0.123 A 
ATOM      9  C   UNL     1      19.783 112.141  89.629  1.00  0.00     0.094 A 
ATOM     10  C   UNL     1      21.022 111.558  89.347  1.00  0.00     0.146 A 
ATOM     11  O   UNL     1      21.635 110.850  90.291  1.00  0.00    -0.456 OA
ENDROOT
BRANCH   1  12
ATOM     12  C   UNL     1      23.406 109.491  91.236  1.00  0.00     0.021 A 
ATOM     13  C   UNL     1      24.641 108.831  91.111  1.00  0.00     0.016 A 
ATOM     14  C   UNL     1      25.170 108.111  92.183  1.00  0.00     0.051 A 
ATOM     15  C   UNL     1      24.480 108.025  93.397  1.00  0.00     0.157 A 
ATOM     16  C   UNL     1      22.707 109.394  92.451  1.00  0.00     0.062 A 
ATOM     17  C   UNL     1      23.231 108.674  93.532  1.00  0.00     0.158 A 
BRANCH  15  18
ATOM     18  O   UNL     1      25.066 107.291  94.431  1.00  0.00    -0.504 OA
ATOM     19  H   UNL     1      24.646 106.476  94.853  1.00  0.00     0.293 HD
ENDBRANCH  15  18
BRANCH  17  20
ATOM     20  O   UNL     1      22.483 108.630  94.710  1.00  0.00    -0.504 OA
ATOM     21  H   UNL     1      21.871 109.372  95.018  1.00  0.00     0.293 HD
ENDBRANCH  17  20
ENDBRANCH   1  12
BRANCH   6  22
ATOM     22  O   UNL     1      21.480 112.659  85.817  1.00  0.00    -0.507 OA
ATOM     23  H   UNL     1      21.857 113.553  85.522  1.00  0.00     0.293 HD
ENDBRANCH   6  22
BRANCH   8  24
ATOM     24  O   UNL     1      17.883 113.460  88.956  1.00  0.00    -0.508 OA
ATOM     25  H   UNL     1      17.798 114.222  89.620  1.00  0.00     0.293 HD
ENDBRANCH   8  24
TORSDOF 5
ENDMDL
MODEL 4
REMARK VINA RESULT:     0.000      4.627      6.578
REMARK INTER + INTRA:          -0.319
REMARK INTER:                   0.000
REMARK INTRA:                  -0.319
REMARK UNBOUND:                -0.319
REMARK SMILES O=c1cc(-c2ccc(O)c(O)c2)oc2cc(O)cc(O)c12
REMARK SMILES IDX 4 1 3 2 2 3 1 4 21 5 19 6 18 7 16 8 15 9 14 10 13 11 5 12
REMARK SMILES IDX 6 13 7 14 8 15 12 16 10 17 9 18 11 20 20 22 17 24
REMARK H PARENT 9 19 11 21 20 23 17 25
REMARK Flexibility Score: inf
ROOT
ATOM      1  C   UNL     1      20.613 105.806  88.989  1.00  0.00     0.138 A 
ATOM      2  C   UNL     1      19.900 105.133  89.996  1.00  0.00     0.100 A 
ATOM      3  C   UNL     1      18.856 105.788  90.652  1.00  0.00     0.197 A 
ATOM      4  O   UNL     1      18.221 105.176  91.553  1.00  0.00    -0.289 OA
ATOM      5  C   UNL     1      18.531 107.112  90.295  1.00  0.00     0.107 A 
ATOM      6  C   UNL     1      17.490 107.846  90.909  1.00  0.00     0.134 A 
ATOM      7  C   UNL     1      17.225 109.159  90.492  1.00  0.00     0.093 A 
ATOM      8  C   UNL     1      17.981 109.749  89.471  1.00  0.00     0.123 A 
ATOM      9  C   UNL     1      19.008 109.027  88.862  1.00  0.00     0.094 A 
ATOM     10  C   UNL     1      19.288 107.717  89.264  1.00  0.00     0.146 A 
ATOM     11  O   UNL     1      20.274 107.053  88.668  1.00  0.00    -0.456 OA
ENDROOT
BRANCH   1  12
ATOM     12  C   UNL     1      21.731 105.160  88.256  1.00  0.00     0.021 A 
ATOM     13  C   UNL     1      22.148 103.850  88.551  1.00  0.00     0.016 A 
ATOM     14  C   UNL     1      23.209 103.272  87.852  1.00  0.00     0.051 A 
ATOM     15  C   UNL     1      23.881 103.985  86.853  1.00  0.00     0.157 A 
ATOM     16  C   UNL     1      22.414 105.880  87.262  1.00  0.00     0.062 A 
ATOM     17  C   UNL     1      23.479 105.307  86.556  1.00  0.00     0.158 A 
BRANCH  15  18
ATOM     18  O   UNL     1      24.932 103.347  86.190  1.00  0.00    -0.504 OA
ATOM     19  H   UNL     1      25.592 102.731  86.641  1.00  0.00     0.293 HD
ENDBRANCH  15  18
BRANCH  17  20
ATOM     20  O   UNL     1      24.103 106.082  85.576  1.00  0.00    -0.504 OA
ATOM     21  H   UNL     1      23.608 106.603  84.867  1.00  0.00     0.293 HD
ENDBRANCH  17  20
ENDBRANCH   1  12
BRANCH   6  22
ATOM     22  O   UNL     1      16.720 107.284  91.929  1.00  0.00    -0.507 OA
ATOM     23  H   UNL     1      15.819 107.668  92.190  1.00  0.00     0.293 HD
ENDBRANCH   6  22
BRANCH   8  24
ATOM     24  O   UNL     1      17.717 111.051  89.057  1.00  0.00    -0.508 OA
ATOM     25  H   UNL     1      18.461 111.682  88.780  1.00  0.00     0.293 HD
ENDBRANCH   8  24
TORSDOF 5
ENDMDL
MODEL 5
REMARK VINA RESULT:     0.000      5.737      9.175
REMARK INTER + INTRA:          -0.319
REMARK INTER:                   0.000
REMARK INTRA:                  -0.319
REMARK UNBOUND:                -0.319
REMARK SMILES O=c1cc(-c2ccc(O)c(O)c2)oc2cc(O)cc(O)c12
REMARK SMILES IDX 4 1 3 2 2 3 1 4 21 5 19 6 18 7 16 8 15 9 14 10 13 11 5 12
REMARK SMILES IDX 6 13 7 14 8 15 12 16 10 17 9 18 11 20 20 22 17 24
REMARK H PARENT 9 19 11 21 20 23 17 25
REMARK Flexibility Score: inf
ROOT
ATOM      1  C   UNL     1      24.659 107.893  88.815  1.00  0.00     0.138 A 
ATOM      2  C   UNL     1      26.030 108.093  88.581  1.00  0.00     0.100 A 
ATOM      3  C   UNL     1      26.634 107.482  87.480  1.00  0.00     0.197 A 
ATOM      4  O   UNL     1      27.865 107.668  87.277  1.00  0.00    -0.289 OA
ATOM      5  C   UNL     1      25.862 106.677  86.620  1.00  0.00     0.107 A 
ATOM      6  C   UNL     1      26.395 106.023  85.485  1.00  0.00     0.134 A 
ATOM      7  C   UNL     1      25.557 105.242  84.674  1.00  0.00     0.093 A 
ATOM      8  C   UNL     1      24.196 105.107  84.978  1.00  0.00     0.123 A 
ATOM      9  C   UNL     1      23.667 105.752  86.096  1.00  0.00     0.094 A 
ATOM     10  C   UNL     1      24.485 106.533  86.917  1.00  0.00     0.146 A 
ATOM     11  O   UNL     1      23.956 107.135  87.978  1.00  0.00    -0.456 OA
ENDROOT
BRANCH   1  12
ATOM     12  C   UNL     1      23.963 108.518  89.968  1.00  0.00     0.021 A 
ATOM     13  C   UNL     1      24.648 109.322  90.898  1.00  0.00     0.016 A 
ATOM     14  C   UNL     1      23.969 109.888  91.977  1.00  0.00     0.051 A 
ATOM     15  C   UNL     1      22.600 109.662  92.160  1.00  0.00     0.157 A 
ATOM     16  C   UNL     1      22.592 108.281  90.159  1.00  0.00     0.062 A 
ATOM     17  C   UNL     1      21.903 108.846  91.240  1.00  0.00     0.158 A 
BRANCH  15  18
ATOM     18  O   UNL     1      21.981 110.261  93.260  1.00  0.00    -0.504 OA
ATOM     19  H   UNL     1      21.105 109.949  93.653  1.00  0.00     0.293 HD
ENDBRANCH  15  18
BRANCH  17  20
ATOM     20  O   UNL     1      20.539 108.571  91.359  1.00  0.00    -0.504 OA
ATOM     21  H   UNL     1      19.808 109.218  91.102  1.00  0.00     0.293 HD
ENDBRANCH  17  20
ENDBRANCH   1  12
BRANCH   6  22
ATOM     22  O   UNL     1      27.747 106.140  85.158  1.00  0.00    -0.507 OA
ATOM     23  H   UNL     1      28.257 105.382  84.719  1.00  0.00     0.293 HD
ENDBRANCH   6  22
BRANCH   8  24
ATOM     24  O   UNL     1      23.365 104.333  84.173  1.00  0.00    -0.508 OA
ATOM     25  H   UNL     1      23.409 103.320  84.183  1.00  0.00     0.293 HD
ENDBRANCH   8  24
TORSDOF 5
ENDMDL
MODEL 6
REMARK VINA RESULT:     0.000      3.837      7.061
REMARK INTER + INTRA:          -0.319
REMARK INTER:                   0.000
REMARK INTRA:                  -0.319
REMARK UNBOUND:                -0.319
REMARK SMILES O=c1cc(-c2ccc(O)c(O)c2)oc2cc(O)cc(O)c12
REMARK SMILES IDX 4 1 3 2 2 3 1 4 21 5 19 6 18 7 16 8 15 9 14 10 13 11 5 12
REMARK SMILES IDX 6 13 7 14 8 15 12 16 10 17 9 18 11 20 20 22 17 24
REMARK H PARENT 9 19 11 21 20 23 17 25
REMARK Flexibility Score: inf
ROOT
ATOM      1  C   UNL     1      21.723 109.345  89.208  1.00  0.00     0.138 A 
ATOM      2  C   UNL     1      23.100 109.621  89.254  1.00  0.00     0.100 A 
ATOM      3  C   UNL     1      23.944 109.069  88.288  1.00  0.00     0.197 A 
ATOM      4  O   UNL     1      25.178 109.323  88.337  1.00  0.00    -0.289 OA
ATOM      5  C   UNL     1      23.403 108.245  87.281  1.00  0.00     0.107 A 
ATOM      6  C   UNL     1      24.187 107.647  86.267  1.00  0.00     0.134 A 
ATOM      7  C   UNL     1      23.570 106.844  85.295  1.00  0.00     0.093 A 
ATOM      8  C   UNL     1      22.186 106.631  85.319  1.00  0.00     0.123 A 
ATOM      9  C   UNL     1      21.410 107.221  86.317  1.00  0.00     0.094 A 
ATOM     10  C   UNL     1      22.005 108.024  87.295  1.00  0.00     0.146 A 
ATOM     11  O   UNL     1      21.243 108.572  88.237  1.00  0.00    -0.456 OA
ENDROOT
BRANCH   1  12
ATOM     12  C   UNL     1      20.779 109.906  90.207  1.00  0.00     0.021 A 
ATOM     13  C   UNL     1      21.219 110.721  91.264  1.00  0.00     0.016 A 
ATOM     14  C   UNL     1      20.309 111.226  92.194  1.00  0.00     0.051 A 
ATOM     15  C   UNL     1      18.946 110.926  92.098  1.00  0.00     0.157 A 
ATOM     16  C   UNL     1      19.412 109.594  90.117  1.00  0.00     0.062 A 
ATOM     17  C   UNL     1      18.492 110.097  91.046  1.00  0.00     0.158 A 
BRANCH  15  18
ATOM     18  O   UNL     1      18.089 111.465  93.059  1.00  0.00    -0.504 OA
ATOM     19  H   UNL     1      17.579 112.329  92.940  1.00  0.00     0.293 HD
ENDBRANCH  15  18
BRANCH  17  20
ATOM     20  O   UNL     1      17.149 109.750  90.887  1.00  0.00    -0.504 OA
ATOM     21  H   UNL     1      16.449 110.364  90.498  1.00  0.00     0.293 HD
ENDBRANCH  17  20
ENDBRANCH   1  12
BRANCH   6  22
ATOM     22  O   UNL     1      25.568 107.842  86.218  1.00  0.00    -0.507 OA
ATOM     23  H   UNL     1      26.057 108.370  86.930  1.00  0.00     0.293 HD
ENDBRANCH   6  22
BRANCH   8  24
ATOM     24  O   UNL     1      21.575 105.835  84.354  1.00  0.00    -0.508 OA
ATOM     25  H   UNL     1      20.570 105.710  84.328  1.00  0.00     0.293 HD
ENDBRANCH   8  24
TORSDOF 5
ENDMDL
MODEL 7
REMARK VINA RESULT:     0.000      6.822      9.605
REMARK INTER + INTRA:          -0.319
REMARK INTER:                   0.000
REMARK INTRA:                  -0.319
REMARK UNBOUND:                -0.319
REMARK SMILES O=c1cc(-c2ccc(O)c(O)c2)oc2cc(O)cc(O)c12
REMARK SMILES IDX 4 1 3 2 2 3 1 4 21 5 19 6 18 7 16 8 15 9 14 10 13 11 5 12
REMARK SMILES IDX 6 13 7 14 8 15 12 16 10 17 9 18 11 20 20 22 17 24
REMARK H PARENT 9 19 11 21 20 23 17 25
REMARK Flexibility Score: inf
ROOT
ATOM      1  C   UNL     1      17.445 113.052  96.193  1.00  0.00     0.138 A 
ATOM      2  C   UNL     1      18.277 114.071  95.700  1.00  0.00     0.100 A 
ATOM      3  C   UNL     1      18.904 114.939  96.597  1.00  0.00     0.197 A 
ATOM      4  O   UNL     1      19.650 115.850  96.145  1.00  0.00    -0.289 OA
ATOM      5  C   UNL     1      18.695 114.780  97.981  1.00  0.00     0.107 A 
ATOM      6  C   UNL     1      19.290 115.615  98.955  1.00  0.00     0.134 A 
ATOM      7  C   UNL     1      19.036 115.386 100.316  1.00  0.00     0.093 A 
ATOM      8  C   UNL     1      18.200 114.337 100.718  1.00  0.00     0.123 A 
ATOM      9  C   UNL     1      17.612 113.511  99.760  1.00  0.00     0.094 A 
ATOM     10  C   UNL     1      17.852 113.723  98.399  1.00  0.00     0.146 A 
ATOM     11  O   UNL     1      17.277 112.922  97.507  1.00  0.00    -0.456 OA
ENDROOT
BRANCH   1  12
ATOM     12  C   UNL     1      16.754 112.099  95.288  1.00  0.00     0.021 A 
ATOM     13  C   UNL     1      16.879 112.186  93.889  1.00  0.00     0.016 A 
ATOM     14  C   UNL     1      16.210 111.282  93.063  1.00  0.00     0.051 A 
ATOM     15  C   UNL     1      15.398 110.280  93.606  1.00  0.00     0.157 A 
ATOM     16  C   UNL     1      15.929 111.102  95.833  1.00  0.00     0.062 A 
ATOM     17  C   UNL     1      15.254 110.190  95.010  1.00  0.00     0.158 A 
BRANCH  15  18
ATOM     18  O   UNL     1      14.759 109.407  92.724  1.00  0.00    -0.504 OA
ATOM     19  H   UNL     1      13.942 109.649  92.183  1.00  0.00     0.293 HD
ENDBRANCH  15  18
BRANCH  17  20
ATOM     20  O   UNL     1      14.459 109.222  95.626  1.00  0.00    -0.504 OA
ATOM     21  H   UNL     1      13.723 108.713  95.157  1.00  0.00     0.293 HD
ENDBRANCH  17  20
ENDBRANCH   1  12
BRANCH   6  22
ATOM     22  O   UNL     1      20.128 116.667  98.583  1.00  0.00    -0.507 OA
ATOM     23  H   UNL     1      20.247 117.486  99.168  1.00  0.00     0.293 HD
ENDBRANCH   6  22
BRANCH   8  24
ATOM     24  O   UNL     1      17.949 114.110 102.069  1.00  0.00    -0.508 OA
ATOM     25  H   UNL     1      17.214 114.605 102.563  1.00  0.00     0.293 HD
ENDBRANCH   8  24
TORSDOF 5
ENDMDL
MODEL 8
REMARK VINA RESULT:     0.000      3.477      7.205
REMARK INTER + INTRA:          -0.319
REMARK INTER:                   0.000
REMARK INTRA:                  -0.319
REMARK UNBOUND:                -0.319
REMARK SMILES O=c1cc(-c2ccc(O)c(O)c2)oc2cc(O)cc(O)c12
REMARK SMILES IDX 4 1 3 2 2 3 1 4 21 5 19 6 18 7 16 8 15 9 14 10 13 11 5 12
REMARK SMILES IDX 6 13 7 14 8 15 12 16 10 17 9 18 11 20 20 22 17 24
REMARK H PARENT 9 19 11 21 20 23 17 25
REMARK Flexibility Score: inf
ROOT
ATOM      1  C   UNL     1      18.508 110.854  91.442  1.00  0.00     0.138 A 
ATOM      2  C   UNL     1      18.487 110.644  90.053  1.00  0.00     0.100 A 
ATOM      3  C   UNL     1      17.648 111.424  89.254  1.00  0.00     0.197 A 
ATOM      4  O   UNL     1      17.636 111.230  88.008  1.00  0.00    -0.289 OA
ATOM      5  C   UNL     1      16.837 112.410  89.851  1.00  0.00     0.107 A 
ATOM      6  C   UNL     1      15.960 113.241  89.116  1.00  0.00     0.134 A 
ATOM      7  C   UNL     1      15.190 114.204  89.786  1.00  0.00     0.093 A 
ATOM      8  C   UNL     1      15.283 114.351  91.175  1.00  0.00     0.123 A 
ATOM      9  C   UNL     1      16.148 113.534  91.903  1.00  0.00     0.094 A 
ATOM     10  C   UNL     1      16.923 112.567  91.255  1.00  0.00     0.146 A 
ATOM     11  O   UNL     1      17.737 111.800  91.973  1.00  0.00    -0.456 OA
ENDROOT
BRANCH   1  12
ATOM     12  C   UNL     1      19.380 110.056  92.340  1.00  0.00     0.021 A 
ATOM     13  C   UNL     1      20.211 109.034  91.847  1.00  0.00     0.016 A 
ATOM     14  C   UNL     1      21.014 108.294  92.717  1.00  0.00     0.051 A 
ATOM     15  C   UNL     1      21.002 108.548  94.093  1.00  0.00     0.157 A 
ATOM     16  C   UNL     1      19.359 110.302  93.723  1.00  0.00     0.062 A 
ATOM     17  C   UNL     1      20.162 109.565  94.603  1.00  0.00     0.158 A 
BRANCH  15  18
ATOM     18  O   UNL     1      21.831 107.774  94.908  1.00  0.00    -0.504 OA
ATOM     19  H   UNL     1      21.569 107.440  95.824  1.00  0.00     0.293 HD
ENDBRANCH  15  18
BRANCH  17  20
ATOM     20  O   UNL     1      20.092 109.874  95.963  1.00  0.00    -0.504 OA
ATOM     21  H   UNL     1      19.931 110.803  96.324  1.00  0.00     0.293 HD
ENDBRANCH  17  20
ENDBRANCH   1  12
BRANCH   6  22
ATOM     22  O   UNL     1      15.847 113.117  87.730  1.00  0.00    -0.507 OA
ATOM     23  H   UNL     1      14.964 112.896  87.285  1.00  0.00     0.293 HD
ENDBRANCH   6  22
BRANCH   8  24
ATOM     24  O   UNL     1      14.519 115.307  91.839  1.00  0.00    -0.508 OA
ATOM     25  H   UNL     1      13.557 115.492  91.579  1.00  0.00     0.293 HD
ENDBRANCH   8  24
TORSDOF 5
ENDMDL
MODEL 9
REMARK VINA RESULT:     0.000      6.598      8.175
REMARK INTER + INTRA:          -0.319
REMARK INTER:                   0.000
REMARK INTRA:                  -0.319
REMARK UNBOUND:                -0.319
REMARK SMILES O=c1cc(-c2ccc(O)c(O)c2)oc2cc(O)cc(O)c12
REMARK SMILES IDX 4 1 3 2 2 3 1 4 21 5 19 6 18 7 16 8 15 9 14 10 13 11 5 12
REMARK SMILES IDX 6 13 7 14 8 15 12 16 10 17 9 18 11 20 20 22 17 24
REMARK H PARENT 9 19 11 21 20 23 17 25
REMARK Flexibility Score: inf
ROOT
ATOM      1  C   UNL     1      24.882 112.459  88.467  1.00  0.00     0.138 A 
ATOM      2  C   UNL     1      25.493 113.199  89.494  1.00  0.00     0.100 A 
ATOM      3  C   UNL     1      25.497 114.593  89.426  1.00  0.00     0.197 A 
ATOM      4  O   UNL     1      26.046 115.248  90.352  1.00  0.00    -0.289 OA
ATOM      5  C   UNL     1      24.886 115.239  88.332  1.00  0.00     0.107 A 
ATOM      6  C   UNL     1      24.846 116.645  88.187  1.00  0.00     0.134 A 
ATOM      7  C   UNL     1      24.213 117.210  87.069  1.00  0.00     0.093 A 
ATOM      8  C   UNL     1      23.619 116.395  86.098  1.00  0.00     0.123 A 
ATOM      9  C   UNL     1      23.655 115.007  86.239  1.00  0.00     0.094 A 
ATOM     10  C   UNL     1      24.282 114.424  87.345  1.00  0.00     0.146 A 
ATOM     11  O   UNL     1      24.305 113.099  87.453  1.00  0.00    -0.456 OA
ENDROOT
BRANCH   1  12
ATOM     12  C   UNL     1      24.846 110.975  88.487  1.00  0.00     0.021 A 
ATOM     13  C   UNL     1      25.445 110.235  89.522  1.00  0.00     0.016 A 
ATOM     14  C   UNL     1      25.404 108.839  89.509  1.00  0.00     0.051 A 
ATOM     15  C   UNL     1      24.775 108.152  88.465  1.00  0.00     0.157 A 
ATOM     16  C   UNL     1      24.227 110.284  87.432  1.00  0.00     0.062 A 
ATOM     17  C   UNL     1      24.180 108.884  87.412  1.00  0.00     0.158 A 
BRANCH  15  18
ATOM     18  O   UNL     1      24.767 106.756  88.514  1.00  0.00    -0.504 OA
ATOM     19  H   UNL     1      24.821 106.221  89.368  1.00  0.00     0.293 HD
ENDBRANCH  15  18
BRANCH  17  20
ATOM     20  O   UNL     1      23.540 108.269  86.335  1.00  0.00    -0.504 OA
ATOM     21  H   UNL     1      23.116 107.353  86.377  1.00  0.00     0.293 HD
ENDBRANCH  17  20
ENDBRANCH   1  12
BRANCH   6  22
ATOM     22  O   UNL     1      25.430 117.482  89.139  1.00  0.00    -0.507 OA
ATOM     23  H   UNL     1      25.079 117.536  90.088  1.00  0.00     0.293 HD
ENDBRANCH   6  22
BRANCH   8  24
ATOM     24  O   UNL     1      22.990 116.957  84.991  1.00  0.00    -0.508 OA
ATOM     25  H   UNL     1      23.103 116.567  84.062  1.00  0.00     0.293 HD
ENDBRANCH   8  24
TORSDOF 5
ENDMDL
