MODEL 1
REMARK VINA RESULT:    -3.532      0.000      0.000
REMARK INTER + INTRA:          -5.535
REMARK INTER:                  -4.771
REMARK INTRA:                  -0.764
REMARK UNBOUND:                -0.764
REMARK SMILES C=C[C@](C)(CCC=C(C)C)OC(C)=O
REMARK SMILES IDX 3 1 4 2 5 3 6 4 7 5 9 6 8 7 10 8 2 9 1 10 11 11 12 12 14 13
REMARK SMILES IDX 13 14
REMARK H PARENT
REMARK Flexibility Score: inf
ROOT
ATOM      1  C   UNL     1     108.557  94.739  24.332  1.00  0.00     0.127 C 
ATOM      2  C   UNL     1     107.742  95.212  23.104  1.00  0.00     0.061 C 
ENDROOT
BRANCH   1   3
ATOM      3  C   UNL     1     109.147  95.931  25.144  1.00  0.00     0.057 C 
BRANCH   3   4
ATOM      4  C   UNL     1     109.224  97.277  24.398  1.00  0.00     0.032 C 
BRANCH   4   5
ATOM      5  C   UNL     1     110.653  97.753  24.310  1.00  0.00    -0.028 C 
ATOM      6  C   UNL     1     110.998  96.822  22.010  1.00  0.00     0.039 C 
ATOM      7  C   UNL     1     111.472  97.526  23.257  1.00  0.00    -0.080 C 
ATOM      8  C   UNL     1     112.893  98.026  23.292  1.00  0.00     0.039 C 
ENDBRANCH   4   5
ENDBRANCH   3   4
ENDBRANCH   1   3
BRANCH   1   9
ATOM      9  C   UNL     1     109.663  93.777  23.912  1.00  0.00     0.013 C 
ATOM     10  C   UNL     1     110.335  92.968  24.744  1.00  0.00     0.008 C 
ENDBRANCH   1   9
BRANCH   1  11
ATOM     11  O   UNL     1     107.695  93.972  25.191  1.00  0.00    -0.455 OA
BRANCH  11  12
ATOM     12  C   UNL     1     106.396  94.309  25.606  1.00  0.00     0.303 C 
ATOM     13  O   UNL     1     105.378  93.793  25.073  1.00  0.00    -0.253 OA
ATOM     14  C   UNL     1     106.221  95.334  26.674  1.00  0.00     0.139 C 
ENDBRANCH  11  12
ENDBRANCH   1  11
TORSDOF 6
ENDMDL
MODEL 2
REMARK VINA RESULT:    -3.527      2.029      3.415
REMARK INTER + INTRA:          -5.529
REMARK INTER:                  -4.530
REMARK INTRA:                  -0.999
REMARK UNBOUND:                -0.764
REMARK SMILES C=C[C@](C)(CCC=C(C)C)OC(C)=O
REMARK SMILES IDX 3 1 4 2 5 3 6 4 7 5 9 6 8 7 10 8 2 9 1 10 11 11 12 12 14 13
REMARK SMILES IDX 13 14
REMARK H PARENT
REMARK Flexibility Score: inf
ROOT
ATOM      1  C   UNL     1     106.697  96.907  24.386  1.00  0.00     0.127 C 
ATOM      2  C   UNL     1     106.114  98.338  24.476  1.00  0.00     0.061 C 
ENDROOT
BRANCH   1   3
ATOM      3  C   UNL     1     108.087  96.791  25.080  1.00  0.00     0.057 C 
BRANCH   3   4
ATOM      4  C   UNL     1     109.229  96.242  24.205  1.00  0.00     0.032 C 
BRANCH   4   5
ATOM      5  C   UNL     1     109.712  94.914  24.735  1.00  0.00    -0.028 C 
ATOM      6  C   UNL     1     109.925  93.891  22.459  1.00  0.00     0.039 C 
ATOM      7  C   UNL     1     109.996  93.839  23.965  1.00  0.00    -0.080 C 
ATOM      8  C   UNL     1     110.444  92.553  24.608  1.00  0.00     0.039 C 
ENDBRANCH   4   5
ENDBRANCH   3   4
ENDBRANCH   1   3
BRANCH   1   9
ATOM      9  C   UNL     1     106.782  96.445  22.935  1.00  0.00     0.013 C 
ATOM     10  C   UNL     1     106.235  95.320  22.453  1.00  0.00     0.008 C 
ENDBRANCH   1   9
BRANCH   1  11
ATOM     11  O   UNL     1     105.783  95.995  25.020  1.00  0.00    -0.455 OA
BRANCH  11  12
ATOM     12  C   UNL     1     106.044  95.160  26.119  1.00  0.00     0.303 C 
ATOM     13  O   UNL     1     106.066  95.607  27.297  1.00  0.00    -0.253 OA
ATOM     14  C   UNL     1     106.347  93.721  25.879  1.00  0.00     0.139 C 
ENDBRANCH  11  12
ENDBRANCH   1  11
TORSDOF 6
ENDMDL
MODEL 3
REMARK VINA RESULT:    -3.412      2.317      3.919
REMARK INTER + INTRA:          -5.374
REMARK INTER:                  -5.015
REMARK INTRA:                  -0.359
REMARK UNBOUND:                -0.764
REMARK SMILES C=C[C@](C)(CCC=C(C)C)OC(C)=O
REMARK SMILES IDX 3 1 4 2 5 3 6 4 7 5 9 6 8 7 10 8 2 9 1 10 11 11 12 12 14 13
REMARK SMILES IDX 13 14
REMARK H PARENT
REMARK Flexibility Score: inf
ROOT
ATOM      1  C   UNL     1     105.928  95.232  25.006  1.00  0.00     0.127 C 
ATOM      2  C   UNL     1     105.996  93.860  25.720  1.00  0.00     0.061 C 
ENDROOT
BRANCH   1   3
ATOM      3  C   UNL     1     107.067  95.409  23.958  1.00  0.00     0.057 C 
BRANCH   3   4
ATOM      4  C   UNL     1     108.427  95.868  24.518  1.00  0.00     0.032 C 
BRANCH   4   5
ATOM      5  C   UNL     1     109.228  94.684  25.000  1.00  0.00    -0.028 C 
ATOM      6  C   UNL     1     110.178  94.191  22.735  1.00  0.00     0.039 C 
ATOM      7  C   UNL     1     109.993  93.902  24.204  1.00  0.00    -0.080 C 
ATOM      8  C   UNL     1     110.728  92.725  24.792  1.00  0.00     0.039 C 
ENDBRANCH   4   5
ENDBRANCH   3   4
ENDBRANCH   1   3
BRANCH   1   9
ATOM      9  C   UNL     1     105.947  96.372  26.018  1.00  0.00     0.013 C 
ATOM     10  C   UNL     1     106.029  96.220  27.347  1.00  0.00     0.008 C 
ENDBRANCH   1   9
BRANCH   1  11
ATOM     11  O   UNL     1     104.659  95.342  24.338  1.00  0.00    -0.455 OA
BRANCH  11  12
ATOM     12  C   UNL     1     104.185  94.544  23.283  1.00  0.00     0.303 C 
ATOM     13  O   UNL     1     104.592  94.702  22.101  1.00  0.00    -0.253 OA
ATOM     14  C   UNL     1     103.144  93.516  23.565  1.00  0.00     0.139 C 
ENDBRANCH  11  12
ENDBRANCH   1  11
TORSDOF 6
ENDMDL
MODEL 4
REMARK VINA RESULT:    -3.387      2.205      5.407
REMARK INTER + INTRA:          -5.339
REMARK INTER:                  -4.423
REMARK INTRA:                  -0.917
REMARK UNBOUND:                -0.764
REMARK SMILES C=C[C@](C)(CCC=C(C)C)OC(C)=O
REMARK SMILES IDX 3 1 4 2 5 3 6 4 7 5 9 6 8 7 10 8 2 9 1 10 11 11 12 12 14 13
REMARK SMILES IDX 13 14
REMARK H PARENT
REMARK Flexibility Score: inf
ROOT
ATOM      1  C   UNL     1     108.109  95.509  24.690  1.00  0.00     0.127 C 
ATOM      2  C   UNL     1     109.377  96.266  25.156  1.00  0.00     0.061 C 
ENDROOT
BRANCH   1   3
ATOM      3  C   UNL     1     107.421  96.201  23.475  1.00  0.00     0.057 C 
BRANCH   3   4
ATOM      4  C   UNL     1     106.530  95.294  22.605  1.00  0.00     0.032 C 
BRANCH   4   5
ATOM      5  C   UNL     1     105.100  95.775  22.631  1.00  0.00    -0.028 C 
ATOM      6  C   UNL     1     104.303  93.858  24.033  1.00  0.00     0.039 C 
ATOM      7  C   UNL     1     104.084  95.122  23.239  1.00  0.00    -0.080 C 
ATOM      8  C   UNL     1     102.687  95.683  23.175  1.00  0.00     0.039 C 
ENDBRANCH   4   5
ENDBRANCH   3   4
ENDBRANCH   1   3
BRANCH   1   9
ATOM      9  C   UNL     1     107.123  95.342  25.841  1.00  0.00     0.013 C 
ATOM     10  C   UNL     1     106.327  96.309  26.318  1.00  0.00     0.008 C 
ENDBRANCH   1   9
BRANCH   1  11
ATOM     11  O   UNL     1     108.482  94.172  24.315  1.00  0.00    -0.455 OA
BRANCH  11  12
ATOM     12  C   UNL     1     109.765  93.715  23.969  1.00  0.00     0.303 C 
ATOM     13  O   UNL     1     110.292  94.004  22.862  1.00  0.00    -0.253 OA
ATOM     14  C   UNL     1     110.499  92.831  24.918  1.00  0.00     0.139 C 
ENDBRANCH  11  12
ENDBRANCH   1  11
TORSDOF 6
ENDMDL
MODEL 5
REMARK VINA RESULT:    -3.386      2.583      5.158
REMARK INTER + INTRA:          -5.339
REMARK INTER:                  -4.598
REMARK INTRA:                  -0.740
REMARK UNBOUND:                -0.764
REMARK SMILES C=C[C@](C)(CCC=C(C)C)OC(C)=O
REMARK SMILES IDX 3 1 4 2 5 3 6 4 7 5 9 6 8 7 10 8 2 9 1 10 11 11 12 12 14 13
REMARK SMILES IDX 13 14
REMARK H PARENT
REMARK Flexibility Score: inf
ROOT
ATOM      1  C   UNL     1     109.707  95.411  23.423  1.00  0.00     0.127 C 
ATOM      2  C   UNL     1     110.019  96.185  24.727  1.00  0.00     0.061 C 
ENDROOT
BRANCH   1   3
ATOM      3  C   UNL     1     108.356  95.854  22.783  1.00  0.00     0.057 C 
BRANCH   3   4
ATOM      4  C   UNL     1     107.093  95.181  23.353  1.00  0.00     0.032 C 
BRANCH   4   5
ATOM      5  C   UNL     1     106.688  95.830  24.654  1.00  0.00    -0.028 C 
ATOM      6  C   UNL     1     106.483  93.650  25.872  1.00  0.00     0.039 C 
ATOM      7  C   UNL     1     106.379  95.153  25.783  1.00  0.00    -0.080 C 
ATOM      8  C   UNL     1     105.958  95.907  27.018  1.00  0.00     0.039 C 
ENDBRANCH   4   5
ENDBRANCH   3   4
ENDBRANCH   1   3
BRANCH   1   9
ATOM      9  C   UNL     1     109.716  93.906  23.669  1.00  0.00     0.013 C 
ATOM     10  C   UNL     1     110.133  93.314  24.797  1.00  0.00     0.008 C 
ENDBRANCH   1   9
BRANCH   1  11
ATOM     11  O   UNL     1     110.767  95.647  22.481  1.00  0.00    -0.455 OA
BRANCH  11  12
ATOM     12  C   UNL     1     111.311  94.727  21.570  1.00  0.00     0.303 C 
ATOM     13  O   UNL     1     110.641  94.284  20.599  1.00  0.00    -0.253 OA
ATOM     14  C   UNL     1     112.700  94.230  21.784  1.00  0.00     0.139 C 
ENDBRANCH  11  12
ENDBRANCH   1  11
TORSDOF 6
ENDMDL
MODEL 6
REMARK VINA RESULT:    -3.380     13.029     14.208
REMARK INTER + INTRA:          -5.331
REMARK INTER:                  -4.254
REMARK INTRA:                  -1.077
REMARK UNBOUND:                -0.764
REMARK SMILES C=C[C@](C)(CCC=C(C)C)OC(C)=O
REMARK SMILES IDX 3 1 4 2 5 3 6 4 7 5 9 6 8 7 10 8 2 9 1 10 11 11 12 12 14 13
REMARK SMILES IDX 13 14
REMARK H PARENT
REMARK Flexibility Score: inf
ROOT
ATOM      1  C   UNL     1     103.734  82.272  25.564  1.00  0.00     0.127 C 
ATOM      2  C   UNL     1     102.307  82.507  25.012  1.00  0.00     0.061 C 
ENDROOT
BRANCH   1   3
ATOM      3  C   UNL     1     104.784  83.221  24.912  1.00  0.00     0.057 C 
BRANCH   3   4
ATOM      4  C   UNL     1     104.500  83.633  23.455  1.00  0.00     0.032 C 
BRANCH   4   5
ATOM      5  C   UNL     1     105.539  83.052  22.528  1.00  0.00    -0.028 C 
ATOM      6  C   UNL     1     104.029  81.232  21.703  1.00  0.00     0.039 C 
ATOM      7  C   UNL     1     105.352  81.954  21.760  1.00  0.00    -0.080 C 
ATOM      8  C   UNL     1     106.474  81.446  20.892  1.00  0.00     0.039 C 
ENDBRANCH   4   5
ENDBRANCH   3   4
ENDBRANCH   1   3
BRANCH   1   9
ATOM      9  C   UNL     1     104.149  80.814  25.393  1.00  0.00     0.013 C 
ATOM     10  C   UNL     1     105.409  80.388  25.224  1.00  0.00     0.008 C 
ENDBRANCH   1   9
BRANCH   1  11
ATOM     11  O   UNL     1     103.722  82.496  26.984  1.00  0.00    -0.455 OA
BRANCH  11  12
ATOM     12  C   UNL     1     104.609  83.297  27.723  1.00  0.00     0.303 C 
ATOM     13  O   UNL     1     104.306  84.468  28.074  1.00  0.00    -0.253 OA
ATOM     14  C   UNL     1     105.958  82.760  28.061  1.00  0.00     0.139 C 
ENDBRANCH  11  12
ENDBRANCH   1  11
TORSDOF 6
ENDMDL
MODEL 7
REMARK VINA RESULT:    -3.324      1.650      2.161
REMARK INTER + INTRA:          -5.254
REMARK INTER:                  -4.229
REMARK INTRA:                  -1.025
REMARK UNBOUND:                -0.764
REMARK SMILES C=C[C@](C)(CCC=C(C)C)OC(C)=O
REMARK SMILES IDX 3 1 4 2 5 3 6 4 7 5 9 6 8 7 10 8 2 9 1 10 11 11 12 12 14 13
REMARK SMILES IDX 13 14
REMARK H PARENT
REMARK Flexibility Score: inf
ROOT
ATOM      1  C   UNL     1     108.776  95.041  24.283  1.00  0.00     0.127 C 
ATOM      2  C   UNL     1     107.667  95.236  23.221  1.00  0.00     0.061 C 
ENDROOT
BRANCH   1   3
ATOM      3  C   UNL     1     109.959  96.038  24.091  1.00  0.00     0.057 C 
BRANCH   3   4
ATOM      4  C   UNL     1     110.281  96.421  22.635  1.00  0.00     0.032 C 
BRANCH   4   5
ATOM      5  C   UNL     1     111.537  95.726  22.169  1.00  0.00    -0.028 C 
ATOM      6  C   UNL     1     110.298  94.067  20.760  1.00  0.00     0.039 C 
ATOM      7  C   UNL     1     111.558  94.647  21.355  1.00  0.00    -0.080 C 
ATOM      8  C   UNL     1     112.873  94.016  20.978  1.00  0.00     0.039 C 
ENDBRANCH   4   5
ENDBRANCH   3   4
ENDBRANCH   1   3
BRANCH   1   9
ATOM      9  C   UNL     1     109.282  93.603  24.283  1.00  0.00     0.013 C 
ATOM     10  C   UNL     1     110.403  93.182  24.886  1.00  0.00     0.008 C 
ENDBRANCH   1   9
BRANCH   1  11
ATOM     11  O   UNL     1     108.206  95.241  25.588  1.00  0.00    -0.455 OA
BRANCH  11  12
ATOM     12  C   UNL     1     106.877  95.007  25.977  1.00  0.00     0.303 C 
ATOM     13  O   UNL     1     106.390  93.845  26.000  1.00  0.00    -0.253 OA
ATOM     14  C   UNL     1     106.010  96.168  26.329  1.00  0.00     0.139 C 
ENDBRANCH  11  12
ENDBRANCH   1  11
TORSDOF 6
ENDMDL
MODEL 8
REMARK VINA RESULT:    -3.314      2.333      5.320
REMARK INTER + INTRA:          -5.241
REMARK INTER:                  -4.618
REMARK INTRA:                  -0.623
REMARK UNBOUND:                -0.764
REMARK SMILES C=C[C@](C)(CCC=C(C)C)OC(C)=O
REMARK SMILES IDX 3 1 4 2 5 3 6 4 7 5 9 6 8 7 10 8 2 9 1 10 11 11 12 12 14 13
REMARK SMILES IDX 13 14
REMARK H PARENT
REMARK Flexibility Score: inf
ROOT
ATOM      1  C   UNL     1     108.761  94.649  24.451  1.00  0.00     0.127 C 
ATOM      2  C   UNL     1     108.886  96.058  25.079  1.00  0.00     0.061 C 
ENDROOT
BRANCH   1   3
ATOM      3  C   UNL     1     107.675  93.782  25.157  1.00  0.00     0.057 C 
BRANCH   3   4
ATOM      4  C   UNL     1     106.409  94.533  25.608  1.00  0.00     0.032 C 
BRANCH   4   5
ATOM      5  C   UNL     1     105.172  93.864  25.059  1.00  0.00    -0.028 C 
ATOM      6  C   UNL     1     105.012  95.402  23.088  1.00  0.00     0.039 C 
ATOM      7  C   UNL     1     104.515  94.265  23.947  1.00  0.00    -0.080 C 
ATOM      8  C   UNL     1     103.271  93.538  23.508  1.00  0.00     0.039 C 
ENDBRANCH   4   5
ENDBRANCH   3   4
ENDBRANCH   1   3
BRANCH   1   9
ATOM      9  C   UNL     1     110.107  93.932  24.455  1.00  0.00     0.013 C 
ATOM     10  C   UNL     1     110.292  92.648  24.793  1.00  0.00     0.008 C 
ENDBRANCH   1   9
BRANCH   1  11
ATOM     11  O   UNL     1     108.413  94.792  23.063  1.00  0.00    -0.455 OA
BRANCH  11  12
ATOM     12  C   UNL     1     109.295  94.935  21.979  1.00  0.00     0.303 C 
ATOM     13  O   UNL     1     109.932  96.004  21.783  1.00  0.00    -0.253 OA
ATOM     14  C   UNL     1     109.444  93.810  21.013  1.00  0.00     0.139 C 
ENDBRANCH  11  12
ENDBRANCH   1  11
TORSDOF 6
ENDMDL
MODEL 9
REMARK VINA RESULT:    -3.310     13.207     14.206
REMARK INTER + INTRA:          -5.235
REMARK INTER:                  -4.521
REMARK INTRA:                  -0.714
REMARK UNBOUND:                -0.764
REMARK SMILES C=C[C@](C)(CCC=C(C)C)OC(C)=O
REMARK SMILES IDX 3 1 4 2 5 3 6 4 7 5 9 6 8 7 10 8 2 9 1 10 11 11 12 12 14 13
REMARK SMILES IDX 13 14
REMARK H PARENT
REMARK Flexibility Score: inf
ROOT
ATOM      1  C   UNL     1     103.855  82.165  25.498  1.00  0.00     0.127 C 
ATOM      2  C   UNL     1     104.242  80.682  25.283  1.00  0.00     0.061 C 
ENDROOT
BRANCH   1   3
ATOM      3  C   UNL     1     103.647  82.922  24.151  1.00  0.00     0.057 C 
BRANCH   3   4
ATOM      4  C   UNL     1     104.902  83.588  23.558  1.00  0.00     0.032 C 
BRANCH   4   5
ATOM      5  C   UNL     1     104.887  83.501  22.051  1.00  0.00    -0.028 C 
ATOM      6  C   UNL     1     106.333  81.456  21.986  1.00  0.00     0.039 C 
ATOM      7  C   UNL     1     105.552  82.569  21.331  1.00  0.00    -0.080 C 
ATOM      8  C   UNL     1     105.487  82.597  19.826  1.00  0.00     0.039 C 
ENDBRANCH   4   5
ENDBRANCH   3   4
ENDBRANCH   1   3
BRANCH   1   9
ATOM      9  C   UNL     1     104.891  82.878  26.360  1.00  0.00     0.013 C 
ATOM     10  C   UNL     1     104.674  83.340  27.600  1.00  0.00     0.008 C 
ENDBRANCH   1   9
BRANCH   1  11
ATOM     11  O   UNL     1     102.633  82.219  26.255  1.00  0.00    -0.455 OA
BRANCH  11  12
ATOM     12  C   UNL     1     101.346  82.502  25.768  1.00  0.00     0.303 C 
ATOM     13  O   UNL     1     100.698  81.664  25.087  1.00  0.00    -0.253 OA
ATOM     14  C   UNL     1     100.754  83.845  26.027  1.00  0.00     0.139 C 
ENDBRANCH  11  12
ENDBRANCH   1  11
TORSDOF 6
ENDMDL
