MODEL 1
REMARK VINA RESULT:    -6.199      0.000      0.000
REMARK INTER + INTRA:          -7.580
REMARK INTER:                  -7.287
REMARK INTRA:                  -0.294
REMARK UNBOUND:                -0.294
REMARK SMILES O=c1c(O)c(-c2ccc(O)cc2)oc2cc(O)cc(O)c12
REMARK SMILES IDX 5 1 3 2 2 3 1 4 21 5 19 6 18 7 16 8 15 9 14 10 13 11 6 12
REMARK SMILES IDX 7 13 8 14 9 15 12 16 11 17 10 18 4 20 20 22 17 24
REMARK H PARENT 10 19 4 21 20 23 17 25
REMARK Flexibility Score: inf
ROOT
ATOM      1  C   UNL     1      28.594  33.714 125.363  1.00  0.00     0.180 A 
ATOM      2  C   UNL     1      27.262  33.898 124.953  1.00  0.00     0.208 A 
ATOM      3  C   UNL     1      26.916  33.629 123.618  1.00  0.00     0.238 A 
ATOM      4  O   UNL     1      25.735  33.848 123.244  1.00  0.00    -0.285 OA
ATOM      5  C   UNL     1      27.903  33.164 122.716  1.00  0.00     0.111 A 
ATOM      6  C   UNL     1      27.657  32.821 121.353  1.00  0.00     0.134 A 
ATOM      7  C   UNL     1      28.733  32.497 120.516  1.00  0.00     0.093 A 
ATOM      8  C   UNL     1      30.036  32.438 121.010  1.00  0.00     0.123 A 
ATOM      9  C   UNL     1      30.281  32.714 122.356  1.00  0.00     0.094 A 
ATOM     10  C   UNL     1      29.233  33.076 123.206  1.00  0.00     0.146 A 
ATOM     11  O   UNL     1      29.508  33.339 124.477  1.00  0.00    -0.452 OA
ENDROOT
BRANCH   1  12
ATOM     12  C   UNL     1      29.028  33.953 126.758  1.00  0.00     0.021 A 
ATOM     13  C   UNL     1      29.639  35.174 127.093  1.00  0.00     0.016 A 
ATOM     14  C   UNL     1      30.077  35.411 128.399  1.00  0.00     0.047 A 
ATOM     15  C   UNL     1      29.926  34.429 129.383  1.00  0.00     0.115 A 
ATOM     16  C   UNL     1      28.897  32.960 127.748  1.00  0.00     0.016 A 
ATOM     17  C   UNL     1      29.337  33.201 129.053  1.00  0.00     0.047 A 
BRANCH  15  18
ATOM     18  O   UNL     1      30.367  34.679 130.680  1.00  0.00    -0.508 OA
ATOM     19  H   UNL     1      29.801  34.444 131.486  1.00  0.00     0.293 HD
ENDBRANCH  15  18
ENDBRANCH   1  12
BRANCH   2  20
ATOM     20  O   UNL     1      26.308  34.379 125.854  1.00  0.00    -0.502 OA
ATOM     21  H   UNL     1      25.586  33.789 126.250  1.00  0.00     0.293 HD
ENDBRANCH   2  20
BRANCH   6  22
ATOM     22  O   UNL     1      26.382  32.758 120.782  1.00  0.00    -0.507 OA
ATOM     23  H   UNL     1      26.005  31.953 120.306  1.00  0.00     0.293 HD
ENDBRANCH   6  22
BRANCH   8  24
ATOM     24  O   UNL     1      31.080  32.097 120.154  1.00  0.00    -0.508 OA
ATOM     25  H   UNL     1      31.888  31.580 120.483  1.00  0.00     0.293 HD
ENDBRANCH   8  24
TORSDOF 5
ENDMDL
MODEL 2
REMARK VINA RESULT:    -5.861      1.604      2.183
REMARK INTER + INTRA:          -7.182
REMARK INTER:                  -6.899
REMARK INTRA:                  -0.284
REMARK UNBOUND:                -0.294
REMARK SMILES O=c1c(O)c(-c2ccc(O)cc2)oc2cc(O)cc(O)c12
REMARK SMILES IDX 5 1 3 2 2 3 1 4 21 5 19 6 18 7 16 8 15 9 14 10 13 11 6 12
REMARK SMILES IDX 7 13 8 14 9 15 12 16 11 17 10 18 4 20 20 22 17 24
REMARK H PARENT 10 19 4 21 20 23 17 25
REMARK Flexibility Score: inf
ROOT
ATOM      1  C   UNL     1      29.270  34.229 126.759  1.00  0.00     0.180 A 
ATOM      2  C   UNL     1      28.327  35.163 126.298  1.00  0.00     0.208 A 
ATOM      3  C   UNL     1      28.071  35.249 124.920  1.00  0.00     0.238 A 
ATOM      4  O   UNL     1      27.266  36.125 124.507  1.00  0.00    -0.285 OA
ATOM      5  C   UNL     1      28.749  34.389 124.023  1.00  0.00     0.111 A 
ATOM      6  C   UNL     1      28.538  34.361 122.612  1.00  0.00     0.134 A 
ATOM      7  C   UNL     1      29.359  33.561 121.806  1.00  0.00     0.093 A 
ATOM      8  C   UNL     1      30.336  32.739 122.366  1.00  0.00     0.123 A 
ATOM      9  C   UNL     1      30.511  32.714 123.751  1.00  0.00     0.094 A 
ATOM     10  C   UNL     1      29.733  33.527 124.577  1.00  0.00     0.146 A 
ATOM     11  O   UNL     1      29.936  33.482 125.887  1.00  0.00    -0.452 OA
ENDROOT
BRANCH   1  12
ATOM     12  C   UNL     1      29.575  34.062 128.199  1.00  0.00     0.021 A 
ATOM     13  C   UNL     1      28.859  33.118 128.953  1.00  0.00     0.016 A 
ATOM     14  C   UNL     1      29.115  32.961 130.319  1.00  0.00     0.047 A 
ATOM     15  C   UNL     1      30.077  33.755 130.951  1.00  0.00     0.115 A 
ATOM     16  C   UNL     1      30.528  34.873 128.845  1.00  0.00     0.016 A 
ATOM     17  C   UNL     1      30.781  34.714 130.211  1.00  0.00     0.047 A 
BRANCH  15  18
ATOM     18  O   UNL     1      30.322  33.587 132.311  1.00  0.00    -0.508 OA
ATOM     19  H   UNL     1      30.945  32.864 132.652  1.00  0.00     0.293 HD
ENDBRANCH  15  18
ENDBRANCH   1  12
BRANCH   2  20
ATOM     20  O   UNL     1      27.685  36.018 127.198  1.00  0.00    -0.502 OA
ATOM     21  H   UNL     1      26.685  35.990 127.357  1.00  0.00     0.293 HD
ENDBRANCH   2  20
BRANCH   6  22
ATOM     22  O   UNL     1      27.528  35.073 121.959  1.00  0.00    -0.507 OA
ATOM     23  H   UNL     1      27.596  35.438 121.022  1.00  0.00     0.293 HD
ENDBRANCH   6  22
BRANCH   8  24
ATOM     24  O   UNL     1      31.124  31.943 121.536  1.00  0.00    -0.508 OA
ATOM     25  H   UNL     1      31.974  31.506 121.873  1.00  0.00     0.293 HD
ENDBRANCH   8  24
TORSDOF 5
ENDMDL
MODEL 3
REMARK VINA RESULT:    -5.762      1.797      3.626
REMARK INTER + INTRA:          -7.066
REMARK INTER:                  -6.785
REMARK INTRA:                  -0.281
REMARK UNBOUND:                -0.294
REMARK SMILES O=c1c(O)c(-c2ccc(O)cc2)oc2cc(O)cc(O)c12
REMARK SMILES IDX 5 1 3 2 2 3 1 4 21 5 19 6 18 7 16 8 15 9 14 10 13 11 6 12
REMARK SMILES IDX 7 13 8 14 9 15 12 16 11 17 10 18 4 20 20 22 17 24
REMARK H PARENT 10 19 4 21 20 23 17 25
REMARK Flexibility Score: inf
ROOT
ATOM      1  C   UNL     1      29.021  33.707 126.833  1.00  0.00     0.180 A 
ATOM      2  C   UNL     1      29.892  33.202 125.853  1.00  0.00     0.208 A 
ATOM      3  C   UNL     1      29.493  33.231 124.506  1.00  0.00     0.238 A 
ATOM      4  O   UNL     1      30.253  32.727 123.639  1.00  0.00    -0.285 OA
ATOM      5  C   UNL     1      28.235  33.780 124.157  1.00  0.00     0.111 A 
ATOM      6  C   UNL     1      27.746  33.898 122.822  1.00  0.00     0.134 A 
ATOM      7  C   UNL     1      26.434  34.337 122.603  1.00  0.00     0.093 A 
ATOM      8  C   UNL     1      25.618  34.725 123.665  1.00  0.00     0.123 A 
ATOM      9  C   UNL     1      26.107  34.670 124.972  1.00  0.00     0.094 A 
ATOM     10  C   UNL     1      27.399  34.202 125.224  1.00  0.00     0.146 A 
ATOM     11  O   UNL     1      27.823  34.155 126.481  1.00  0.00    -0.452 OA
ENDROOT
BRANCH   1  12
ATOM     12  C   UNL     1      29.382  33.733 128.270  1.00  0.00     0.021 A 
ATOM     13  C   UNL     1      28.850  32.762 129.134  1.00  0.00     0.016 A 
ATOM     14  C   UNL     1      29.160  32.781 130.497  1.00  0.00     0.047 A 
ATOM     15  C   UNL     1      29.991  33.778 131.017  1.00  0.00     0.115 A 
ATOM     16  C   UNL     1      30.203  34.746 128.802  1.00  0.00     0.016 A 
ATOM     17  C   UNL     1      30.510  34.762 130.166  1.00  0.00     0.047 A 
BRANCH  15  18
ATOM     18  O   UNL     1      30.292  33.784 132.376  1.00  0.00    -0.508 OA
ATOM     19  H   UNL     1      30.541  34.639 132.860  1.00  0.00     0.293 HD
ENDBRANCH  15  18
ENDBRANCH   1  12
BRANCH   2  20
ATOM     20  O   UNL     1      31.119  32.643 126.222  1.00  0.00    -0.502 OA
ATOM     21  H   UNL     1      31.272  31.642 126.259  1.00  0.00     0.293 HD
ENDBRANCH   2  20
BRANCH   6  22
ATOM     22  O   UNL     1      28.510  33.626 121.684  1.00  0.00    -0.507 OA
ATOM     23  H   UNL     1      28.225  33.828 120.738  1.00  0.00     0.293 HD
ENDBRANCH   6  22
BRANCH   8  24
ATOM     24  O   UNL     1      24.323  35.172 123.410  1.00  0.00    -0.508 OA
ATOM     25  H   UNL     1      23.991  35.323 122.465  1.00  0.00     0.293 HD
ENDBRANCH   8  24
TORSDOF 5
ENDMDL
MODEL 4
REMARK VINA RESULT:    -5.718      1.703      3.359
REMARK INTER + INTRA:          -7.015
REMARK INTER:                  -6.746
REMARK INTRA:                  -0.269
REMARK UNBOUND:                -0.294
REMARK SMILES O=c1c(O)c(-c2ccc(O)cc2)oc2cc(O)cc(O)c12
REMARK SMILES IDX 5 1 3 2 2 3 1 4 21 5 19 6 18 7 16 8 15 9 14 10 13 11 6 12
REMARK SMILES IDX 7 13 8 14 9 15 12 16 11 17 10 18 4 20 20 22 17 24
REMARK H PARENT 10 19 4 21 20 23 17 25
REMARK Flexibility Score: inf
ROOT
ATOM      1  C   UNL     1      29.012  33.681 126.687  1.00  0.00     0.180 A 
ATOM      2  C   UNL     1      29.913  33.149 125.749  1.00  0.00     0.208 A 
ATOM      3  C   UNL     1      29.558  33.145 124.390  1.00  0.00     0.238 A 
ATOM      4  O   UNL     1      30.344  32.618 123.561  1.00  0.00    -0.285 OA
ATOM      5  C   UNL     1      28.314  33.688 123.986  1.00  0.00     0.111 A 
ATOM      6  C   UNL     1      27.870  33.774 122.632  1.00  0.00     0.134 A 
ATOM      7  C   UNL     1      26.567  34.210 122.360  1.00  0.00     0.093 A 
ATOM      8  C   UNL     1      25.718  34.627 123.384  1.00  0.00     0.123 A 
ATOM      9  C   UNL     1      26.163  34.604 124.707  1.00  0.00     0.094 A 
ATOM     10  C   UNL     1      27.445  34.139 125.013  1.00  0.00     0.146 A 
ATOM     11  O   UNL     1      27.827  34.124 126.284  1.00  0.00    -0.452 OA
ENDROOT
BRANCH   1  12
ATOM     12  C   UNL     1      29.326  33.742 128.133  1.00  0.00     0.021 A 
ATOM     13  C   UNL     1      30.140  34.779 128.621  1.00  0.00     0.016 A 
ATOM     14  C   UNL     1      30.467  34.842 129.979  1.00  0.00     0.047 A 
ATOM     15  C   UNL     1      30.000  33.865 130.863  1.00  0.00     0.115 A 
ATOM     16  C   UNL     1      28.875  32.750 129.024  1.00  0.00     0.016 A 
ATOM     17  C   UNL     1      29.205  32.817 130.382  1.00  0.00     0.047 A 
BRANCH  15  18
ATOM     18  O   UNL     1      30.333  33.941 132.213  1.00  0.00    -0.508 OA
ATOM     19  H   UNL     1      30.735  33.152 132.705  1.00  0.00     0.293 HD
ENDBRANCH  15  18
ENDBRANCH   1  12
BRANCH   2  20
ATOM     20  O   UNL     1      31.125  32.597 126.172  1.00  0.00    -0.502 OA
ATOM     21  H   UNL     1      31.717  33.047 126.861  1.00  0.00     0.293 HD
ENDBRANCH   2  20
BRANCH   6  22
ATOM     22  O   UNL     1      28.670  33.471 121.527  1.00  0.00    -0.507 OA
ATOM     23  H   UNL     1      28.423  32.815 120.802  1.00  0.00     0.293 HD
ENDBRANCH   6  22
BRANCH   8  24
ATOM     24  O   UNL     1      24.433  35.070 123.076  1.00  0.00    -0.508 OA
ATOM     25  H   UNL     1      23.932  35.708 123.684  1.00  0.00     0.293 HD
ENDBRANCH   8  24
TORSDOF 5
ENDMDL
MODEL 5
REMARK VINA RESULT:    -5.663      1.754      3.840
REMARK INTER + INTRA:          -6.950
REMARK INTER:                  -6.674
REMARK INTRA:                  -0.276
REMARK UNBOUND:                -0.294
REMARK SMILES O=c1c(O)c(-c2ccc(O)cc2)oc2cc(O)cc(O)c12
REMARK SMILES IDX 5 1 3 2 2 3 1 4 21 5 19 6 18 7 16 8 15 9 14 10 13 11 6 12
REMARK SMILES IDX 7 13 8 14 9 15 12 16 11 17 10 18 4 20 20 22 17 24
REMARK H PARENT 10 19 4 21 20 23 17 25
REMARK Flexibility Score: inf
ROOT
ATOM      1  C   UNL     1      27.899  34.162 125.619  1.00  0.00     0.180 A 
ATOM      2  C   UNL     1      28.360  33.405 124.528  1.00  0.00     0.208 A 
ATOM      3  C   UNL     1      27.566  33.319 123.373  1.00  0.00     0.238 A 
ATOM      4  O   UNL     1      27.959  32.595 122.421  1.00  0.00    -0.285 OA
ATOM      5  C   UNL     1      26.329  34.005 123.317  1.00  0.00     0.111 A 
ATOM      6  C   UNL     1      25.463  34.022 122.183  1.00  0.00     0.134 A 
ATOM      7  C   UNL     1      24.203  34.626 122.285  1.00  0.00     0.093 A 
ATOM      8  C   UNL     1      23.806  35.271 123.456  1.00  0.00     0.123 A 
ATOM      9  C   UNL     1      24.670  35.312 124.552  1.00  0.00     0.094 A 
ATOM     10  C   UNL     1      25.918  34.687 124.493  1.00  0.00     0.146 A 
ATOM     11  O   UNL     1      26.705  34.740 125.560  1.00  0.00    -0.452 OA
ENDROOT
BRANCH   1  12
ATOM     12  C   UNL     1      28.691  34.319 126.860  1.00  0.00     0.021 A 
ATOM     13  C   UNL     1      28.598  33.344 127.868  1.00  0.00     0.016 A 
ATOM     14  C   UNL     1      29.320  33.485 129.057  1.00  0.00     0.047 A 
ATOM     15  C   UNL     1      30.130  34.605 129.262  1.00  0.00     0.115 A 
ATOM     16  C   UNL     1      29.492  35.456 127.080  1.00  0.00     0.016 A 
ATOM     17  C   UNL     1      30.212  35.593 128.271  1.00  0.00     0.047 A 
BRANCH  15  18
ATOM     18  O   UNL     1      30.844  34.731 130.451  1.00  0.00    -0.508 OA
ATOM     19  H   UNL     1      30.721  35.531 131.060  1.00  0.00     0.293 HD
ENDBRANCH  15  18
ENDBRANCH   1  12
BRANCH   2  20
ATOM     20  O   UNL     1      29.574  32.716 124.613  1.00  0.00    -0.502 OA
ATOM     21  H   UNL     1      30.036  32.325 123.800  1.00  0.00     0.293 HD
ENDBRANCH   2  20
BRANCH   6  22
ATOM     22  O   UNL     1      25.799  33.489 120.936  1.00  0.00    -0.507 OA
ATOM     23  H   UNL     1      25.198  32.897 120.383  1.00  0.00     0.293 HD
ENDBRANCH   6  22
BRANCH   8  24
ATOM     24  O   UNL     1      22.552  35.875 123.518  1.00  0.00    -0.508 OA
ATOM     25  H   UNL     1      21.918  35.862 122.727  1.00  0.00     0.293 HD
ENDBRANCH   8  24
TORSDOF 5
ENDMDL
MODEL 6
REMARK VINA RESULT:    -5.444      1.807      6.695
REMARK INTER + INTRA:          -6.692
REMARK INTER:                  -7.196
REMARK INTRA:                   0.504
REMARK UNBOUND:                -0.294
REMARK SMILES O=c1c(O)c(-c2ccc(O)cc2)oc2cc(O)cc(O)c12
REMARK SMILES IDX 5 1 3 2 2 3 1 4 21 5 19 6 18 7 16 8 15 9 14 10 13 11 6 12
REMARK SMILES IDX 7 13 8 14 9 15 12 16 11 17 10 18 4 20 20 22 17 24
REMARK H PARENT 10 19 4 21 20 23 17 25
REMARK Flexibility Score: inf
ROOT
ATOM      1  C   UNL     1      27.900  33.105 122.267  1.00  0.00     0.180 A 
ATOM      2  C   UNL     1      26.618  33.635 122.493  1.00  0.00     0.208 A 
ATOM      3  C   UNL     1      26.365  34.321 123.692  1.00  0.00     0.238 A 
ATOM      4  O   UNL     1      25.200  34.744 123.912  1.00  0.00    -0.285 OA
ATOM      5  C   UNL     1      27.402  34.483 124.642  1.00  0.00     0.111 A 
ATOM      6  C   UNL     1      27.269  35.195 125.872  1.00  0.00     0.134 A 
ATOM      7  C   UNL     1      28.322  35.180 126.796  1.00  0.00     0.093 A 
ATOM      8  C   UNL     1      29.525  34.537 126.506  1.00  0.00     0.123 A 
ATOM      9  C   UNL     1      29.687  33.887 125.281  1.00  0.00     0.094 A 
ATOM     10  C   UNL     1      28.642  33.854 124.355  1.00  0.00     0.146 A 
ATOM     11  O   UNL     1      28.832  33.218 123.206  1.00  0.00    -0.452 OA
ENDROOT
BRANCH   1  12
ATOM     12  C   UNL     1      28.249  32.392 121.017  1.00  0.00     0.021 A 
ATOM     13  C   UNL     1      29.571  31.964 120.811  1.00  0.00     0.016 A 
ATOM     14  C   UNL     1      29.927  31.309 119.628  1.00  0.00     0.047 A 
ATOM     15  C   UNL     1      28.972  31.086 118.631  1.00  0.00     0.115 A 
ATOM     16  C   UNL     1      27.297  32.183 120.002  1.00  0.00     0.016 A 
ATOM     17  C   UNL     1      27.656  31.528 118.820  1.00  0.00     0.047 A 
BRANCH  15  18
ATOM     18  O   UNL     1      29.341  30.431 117.459  1.00  0.00    -0.508 OA
ATOM     19  H   UNL     1      30.289  30.108 117.308  1.00  0.00     0.293 HD
ENDBRANCH  15  18
ENDBRANCH   1  12
BRANCH   2  20
ATOM     20  O   UNL     1      25.602  33.444 121.552  1.00  0.00    -0.502 OA
ATOM     21  H   UNL     1      25.152  34.215 121.073  1.00  0.00     0.293 HD
ENDBRANCH   2  20
BRANCH   6  22
ATOM     22  O   UNL     1      26.145  35.948 126.220  1.00  0.00    -0.507 OA
ATOM     23  H   UNL     1      25.825  36.100 127.165  1.00  0.00     0.293 HD
ENDBRANCH   6  22
BRANCH   8  24
ATOM     24  O   UNL     1      30.558  34.555 127.441  1.00  0.00    -0.508 OA
ATOM     25  H   UNL     1      31.400  34.006 127.312  1.00  0.00     0.293 HD
ENDBRANCH   8  24
TORSDOF 5
ENDMDL
MODEL 7
REMARK VINA RESULT:    -5.412      2.144      4.203
REMARK INTER + INTRA:          -6.655
REMARK INTER:                  -6.359
REMARK INTRA:                  -0.296
REMARK UNBOUND:                -0.294
REMARK SMILES O=c1c(O)c(-c2ccc(O)cc2)oc2cc(O)cc(O)c12
REMARK SMILES IDX 5 1 3 2 2 3 1 4 21 5 19 6 18 7 16 8 15 9 14 10 13 11 6 12
REMARK SMILES IDX 7 13 8 14 9 15 12 16 11 17 10 18 4 20 20 22 17 24
REMARK H PARENT 10 19 4 21 20 23 17 25
REMARK Flexibility Score: inf
ROOT
ATOM      1  C   UNL     1      28.552  33.259 122.638  1.00  0.00     0.180 A 
ATOM      2  C   UNL     1      29.816  32.725 122.333  1.00  0.00     0.208 A 
ATOM      3  C   UNL     1      30.005  32.084 121.098  1.00  0.00     0.238 A 
ATOM      4  O   UNL     1      31.123  31.561 120.853  1.00  0.00    -0.285 OA
ATOM      5  C   UNL     1      28.932  32.000 120.178  1.00  0.00     0.111 A 
ATOM      6  C   UNL     1      29.022  31.409 118.882  1.00  0.00     0.134 A 
ATOM      7  C   UNL     1      27.864  31.264 118.107  1.00  0.00     0.093 A 
ATOM      8  C   UNL     1      26.635  31.747 118.552  1.00  0.00     0.123 A 
ATOM      9  C   UNL     1      26.546  32.380 119.793  1.00  0.00     0.094 A 
ATOM     10  C   UNL     1      27.677  32.507 120.604  1.00  0.00     0.146 A 
ATOM     11  O   UNL     1      27.549  33.106 121.781  1.00  0.00    -0.452 OA
ENDROOT
BRANCH   1  12
ATOM     12  C   UNL     1      28.283  33.970 123.909  1.00  0.00     0.021 A 
ATOM     13  C   UNL     1      27.694  33.276 124.980  1.00  0.00     0.016 A 
ATOM     14  C   UNL     1      27.411  33.934 126.180  1.00  0.00     0.047 A 
ATOM     15  C   UNL     1      27.696  35.295 126.322  1.00  0.00     0.115 A 
ATOM     16  C   UNL     1      28.549  35.345 124.051  1.00  0.00     0.016 A 
ATOM     17  C   UNL     1      28.264  36.000 125.253  1.00  0.00     0.047 A 
BRANCH  15  18
ATOM     18  O   UNL     1      27.410  35.937 127.524  1.00  0.00    -0.508 OA
ATOM     19  H   UNL     1      27.155  36.917 127.554  1.00  0.00     0.293 HD
ENDBRANCH  15  18
ENDBRANCH   1  12
BRANCH   2  20
ATOM     20  O   UNL     1      30.854  32.800 123.266  1.00  0.00    -0.502 OA
ATOM     21  H   UNL     1      31.212  33.682 123.613  1.00  0.00     0.293 HD
ENDBRANCH   2  20
BRANCH   6  22
ATOM     22  O   UNL     1      30.218  30.977 118.302  1.00  0.00    -0.507 OA
ATOM     23  H   UNL     1      30.930  31.587 117.930  1.00  0.00     0.293 HD
ENDBRANCH   6  22
BRANCH   8  24
ATOM     24  O   UNL     1      25.506  31.601 117.749  1.00  0.00    -0.508 OA
ATOM     25  H   UNL     1      25.123  32.380 117.225  1.00  0.00     0.293 HD
ENDBRANCH   8  24
TORSDOF 5
ENDMDL
MODEL 8
REMARK VINA RESULT:    -5.323      1.305      2.057
REMARK INTER + INTRA:          -6.550
REMARK INTER:                  -6.271
REMARK INTRA:                  -0.279
REMARK UNBOUND:                -0.294
REMARK SMILES O=c1c(O)c(-c2ccc(O)cc2)oc2cc(O)cc(O)c12
REMARK SMILES IDX 5 1 3 2 2 3 1 4 21 5 19 6 18 7 16 8 15 9 14 10 13 11 6 12
REMARK SMILES IDX 7 13 8 14 9 15 12 16 11 17 10 18 4 20 20 22 17 24
REMARK H PARENT 10 19 4 21 20 23 17 25
REMARK Flexibility Score: inf
ROOT
ATOM      1  C   UNL     1      28.131  33.544 123.693  1.00  0.00     0.180 A 
ATOM      2  C   UNL     1      26.878  33.880 123.151  1.00  0.00     0.208 A 
ATOM      3  C   UNL     1      26.594  33.527 121.821  1.00  0.00     0.238 A 
ATOM      4  O   UNL     1      25.492  33.878 121.324  1.00  0.00    -0.285 OA
ATOM      5  C   UNL     1      27.560  32.829 121.057  1.00  0.00     0.111 A 
ATOM      6  C   UNL     1      27.364  32.386 119.714  1.00  0.00     0.134 A 
ATOM      7  C   UNL     1      28.435  31.821 119.010  1.00  0.00     0.093 A 
ATOM      8  C   UNL     1      29.673  31.621 119.621  1.00  0.00     0.123 A 
ATOM      9  C   UNL     1      29.858  31.997 120.953  1.00  0.00     0.094 A 
ATOM     10  C   UNL     1      28.820  32.596 121.669  1.00  0.00     0.146 A 
ATOM     11  O   UNL     1      29.039  32.948 122.930  1.00  0.00    -0.452 OA
ENDROOT
BRANCH   1  12
ATOM     12  C   UNL     1      28.493  33.861 125.093  1.00  0.00     0.021 A 
ATOM     13  C   UNL     1      28.272  32.904 126.098  1.00  0.00     0.016 A 
ATOM     14  C   UNL     1      28.586  33.191 127.430  1.00  0.00     0.047 A 
ATOM     15  C   UNL     1      29.109  34.440 127.778  1.00  0.00     0.115 A 
ATOM     16  C   UNL     1      29.001  35.124 125.452  1.00  0.00     0.016 A 
ATOM     17  C   UNL     1      29.314  35.407 126.785  1.00  0.00     0.047 A 
BRANCH  15  18
ATOM     18  O   UNL     1      29.418  34.711 129.108  1.00  0.00    -0.508 OA
ATOM     19  H   UNL     1      29.856  35.582 129.383  1.00  0.00     0.293 HD
ENDBRANCH  15  18
ENDBRANCH   1  12
BRANCH   2  20
ATOM     20  O   UNL     1      25.948  34.589 123.915  1.00  0.00    -0.502 OA
ATOM     21  H   UNL     1      25.324  35.279 123.512  1.00  0.00     0.293 HD
ENDBRANCH   2  20
BRANCH   6  22
ATOM     22  O   UNL     1      26.141  32.453 119.041  1.00  0.00    -0.507 OA
ATOM     23  H   UNL     1      25.274  32.759 119.454  1.00  0.00     0.293 HD
ENDBRANCH   6  22
BRANCH   8  24
ATOM     24  O   UNL     1      30.712  31.041 118.896  1.00  0.00    -0.508 OA
ATOM     25  H   UNL     1      31.340  31.600 118.330  1.00  0.00     0.293 HD
ENDBRANCH   8  24
TORSDOF 5
ENDMDL
MODEL 9
REMARK VINA RESULT:    -5.192      2.231      7.171
REMARK INTER + INTRA:          -6.396
REMARK INTER:                  -6.853
REMARK INTRA:                   0.457
REMARK UNBOUND:                -0.294
REMARK SMILES O=c1c(O)c(-c2ccc(O)cc2)oc2cc(O)cc(O)c12
REMARK SMILES IDX 5 1 3 2 2 3 1 4 21 5 19 6 18 7 16 8 15 9 14 10 13 11 6 12
REMARK SMILES IDX 7 13 8 14 9 15 12 16 11 17 10 18 4 20 20 22 17 24
REMARK H PARENT 10 19 4 21 20 23 17 25
REMARK Flexibility Score: inf
ROOT
ATOM      1  C   UNL     1      28.802  33.052 122.188  1.00  0.00     0.180 A 
ATOM      2  C   UNL     1      29.877  33.127 123.091  1.00  0.00     0.208 A 
ATOM      3  C   UNL     1      29.687  33.769 124.325  1.00  0.00     0.238 A 
ATOM      4  O   UNL     1      30.668  33.881 125.106  1.00  0.00    -0.285 OA
ATOM      5  C   UNL     1      28.420  34.313 124.648  1.00  0.00     0.111 A 
ATOM      6  C   UNL     1      28.103  34.949 125.885  1.00  0.00     0.134 A 
ATOM      7  C   UNL     1      26.856  35.567 126.045  1.00  0.00     0.093 A 
ATOM      8  C   UNL     1      25.892  35.514 125.039  1.00  0.00     0.123 A 
ATOM      9  C   UNL     1      26.170  34.842 123.847  1.00  0.00     0.094 A 
ATOM     10  C   UNL     1      27.418  34.248 123.644  1.00  0.00     0.146 A 
ATOM     11  O   UNL     1      27.646  33.628 122.493  1.00  0.00    -0.452 OA
ENDROOT
BRANCH   1  12
ATOM     12  C   UNL     1      28.919  32.369 120.879  1.00  0.00     0.021 A 
ATOM     13  C   UNL     1      27.880  32.490 119.941  1.00  0.00     0.016 A 
ATOM     14  C   UNL     1      27.960  31.835 118.708  1.00  0.00     0.047 A 
ATOM     15  C   UNL     1      29.069  31.040 118.403  1.00  0.00     0.115 A 
ATOM     16  C   UNL     1      30.024  31.551 120.574  1.00  0.00     0.016 A 
ATOM     17  C   UNL     1      30.100  30.898 119.340  1.00  0.00     0.047 A 
BRANCH  15  18
ATOM     18  O   UNL     1      29.135  30.395 117.170  1.00  0.00    -0.508 OA
ATOM     19  H   UNL     1      28.954  30.888 116.304  1.00  0.00     0.293 HD
ENDBRANCH  15  18
ENDBRANCH   1  12
BRANCH   2  20
ATOM     20  O   UNL     1      31.125  32.603 122.743  1.00  0.00    -0.502 OA
ATOM     21  H   UNL     1      31.538  32.742 121.828  1.00  0.00     0.293 HD
ENDBRANCH   2  20
BRANCH   6  22
ATOM     22  O   UNL     1      28.960  34.979 126.989  1.00  0.00    -0.507 OA
ATOM     23  H   UNL     1      28.869  35.610 127.770  1.00  0.00     0.293 HD
ENDBRANCH   6  22
BRANCH   8  24
ATOM     24  O   UNL     1      24.656  36.125 125.238  1.00  0.00    -0.508 OA
ATOM     25  H   UNL     1      24.164  36.051 126.121  1.00  0.00     0.293 HD
ENDBRANCH   8  24
TORSDOF 5
ENDMDL
