MODEL 1
REMARK VINA RESULT:    -3.902      0.000      0.000
REMARK INTER + INTRA:          -9.655
REMARK INTER:                  -8.464
REMARK INTRA:                  -1.191
REMARK UNBOUND:                -1.191
REMARK SMILES CCCCCCCCCCCCCCCCCCCCCC(=O)[O-]
REMARK SMILES IDX 12 1 11 2 10 3 9 4 8 5 7 6 6 7 5 8 4 9 3 10 2 11 1 12 13 13
REMARK SMILES IDX 14 14 15 15 16 16 17 17 18 18 19 19 20 20 21 21 22 22 23 23
REMARK SMILES IDX 24 24
REMARK H PARENT
REMARK Flexibility Score: inf
ROOT
ATOM      1  C   UNL     1     110.569 103.909 111.032  1.00  0.00     0.000 C 
ENDROOT
BRANCH   1   2
ATOM      2  C   UNL     1     109.062 103.882 110.729  1.00  0.00     0.000 C 
BRANCH   2   3
ATOM      3  C   UNL     1     108.516 105.253 110.299  1.00  0.00     0.000 C 
BRANCH   3   4
ATOM      4  C   UNL     1     109.349 106.388 110.912  1.00  0.00    -0.000 C 
BRANCH   4   5
ATOM      5  C   UNL     1     108.509 107.634 111.241  1.00  0.00    -0.000 C 
BRANCH   5   6
ATOM      6  C   UNL     1     107.106 107.345 111.814  1.00  0.00    -0.000 C 
BRANCH   6   7
ATOM      7  C   UNL     1     107.089 106.501 113.101  1.00  0.00    -0.000 C 
BRANCH   7   8
ATOM      8  C   UNL     1     105.669 106.147 113.565  1.00  0.00    -0.000 C 
BRANCH   8   9
ATOM      9  C   UNL     1     105.023 107.327 114.305  1.00  0.00    -0.000 C 
BRANCH   9  10
ATOM     10  C   UNL     1     104.223 106.892 115.547  1.00  0.00    -0.000 C 
BRANCH  10  11
ATOM     11  C   UNL     1     104.805 107.371 116.889  1.00  0.00    -0.003 C 
ATOM     12  C   UNL     1     105.400 108.776 116.816  1.00  0.00     0.004 C 
ENDBRANCH  10  11
ENDBRANCH   9  10
ENDBRANCH   8   9
ENDBRANCH   7   8
ENDBRANCH   6   7
ENDBRANCH   5   6
ENDBRANCH   4   5
ENDBRANCH   3   4
ENDBRANCH   2   3
ENDBRANCH   1   2
BRANCH   1  13
ATOM     13  C   UNL     1     111.167 102.497 111.155  1.00  0.00     0.000 C 
BRANCH  13  14
ATOM     14  C   UNL     1     112.126 102.352 112.352  1.00  0.00     0.000 C 
BRANCH  14  15
ATOM     15  C   UNL     1     113.549 101.886 111.995  1.00  0.00     0.000 C 
BRANCH  15  16
ATOM     16  C   UNL     1     114.319 102.912 111.144  1.00  0.00     0.000 C 
BRANCH  16  17
ATOM     17  C   UNL     1     114.441 104.283 111.829  1.00  0.00     0.000 C 
BRANCH  17  18
ATOM     18  C   UNL     1     114.847 104.169 113.309  1.00  0.00     0.000 C 
BRANCH  18  19
ATOM     19  C   UNL     1     115.598 105.413 113.810  1.00  0.00     0.000 C 
BRANCH  19  20
ATOM     20  C   UNL     1     116.934 105.629 113.078  1.00  0.00     0.006 C 
BRANCH  20  21
ATOM     21  C   UNL     1     117.882 104.433 113.237  1.00  0.00     0.053 C 
BRANCH  21  22
ATOM     22  C   UNL     1     118.994 104.724 114.197  1.00  0.00     0.041 C 
ATOM     23  O   UNL     1     119.100 104.064 115.265  1.00  0.00    -0.550 OA
ATOM     24  O   UNL     1     119.933 105.703 113.897  1.00  0.00    -0.550 OA
ENDBRANCH  21  22
ENDBRANCH  20  21
ENDBRANCH  19  20
ENDBRANCH  18  19
ENDBRANCH  17  18
ENDBRANCH  16  17
ENDBRANCH  15  16
ENDBRANCH  14  15
ENDBRANCH  13  14
ENDBRANCH   1  13
TORSDOF 20
ENDMDL
MODEL 2
REMARK VINA RESULT:    -3.705      2.020      2.841
REMARK INTER + INTRA:          -9.228
REMARK INTER:                  -8.143
REMARK INTRA:                  -1.085
REMARK UNBOUND:                -1.191
REMARK SMILES CCCCCCCCCCCCCCCCCCCCCC(=O)[O-]
REMARK SMILES IDX 12 1 11 2 10 3 9 4 8 5 7 6 6 7 5 8 4 9 3 10 2 11 1 12 13 13
REMARK SMILES IDX 14 14 15 15 16 16 17 17 18 18 19 19 20 20 21 21 22 22 23 23
REMARK SMILES IDX 24 24
REMARK H PARENT
REMARK Flexibility Score: inf
ROOT
ATOM      1  C   UNL     1     109.984 104.163 111.316  1.00  0.00     0.000 C 
ENDROOT
BRANCH   1   2
ATOM      2  C   UNL     1     108.855 105.037 110.745  1.00  0.00     0.000 C 
BRANCH   2   3
ATOM      3  C   UNL     1     109.163 106.539 110.829  1.00  0.00     0.000 C 
BRANCH   3   4
ATOM      4  C   UNL     1     108.210 107.238 111.810  1.00  0.00    -0.000 C 
BRANCH   4   5
ATOM      5  C   UNL     1     107.365 106.247 112.630  1.00  0.00    -0.000 C 
BRANCH   5   6
ATOM      6  C   UNL     1     106.453 106.891 113.694  1.00  0.00    -0.000 C 
BRANCH   6   7
ATOM      7  C   UNL     1     104.985 107.075 113.269  1.00  0.00    -0.000 C 
BRANCH   7   8
ATOM      8  C   UNL     1     104.133 105.818 113.502  1.00  0.00    -0.000 C 
BRANCH   8   9
ATOM      9  C   UNL     1     102.638 106.167 113.536  1.00  0.00    -0.000 C 
BRANCH   9  10
ATOM     10  C   UNL     1     102.097 106.622 112.169  1.00  0.00    -0.000 C 
BRANCH  10  11
ATOM     11  C   UNL     1     100.575 106.472 111.994  1.00  0.00    -0.003 C 
ATOM     12  C   UNL     1     100.148 106.365 110.531  1.00  0.00     0.004 C 
ENDBRANCH  10  11
ENDBRANCH   9  10
ENDBRANCH   8   9
ENDBRANCH   7   8
ENDBRANCH   6   7
ENDBRANCH   5   6
ENDBRANCH   4   5
ENDBRANCH   3   4
ENDBRANCH   2   3
ENDBRANCH   1   2
BRANCH   1  13
ATOM     13  C   UNL     1     110.206 102.881 110.495  1.00  0.00     0.000 C 
BRANCH  13  14
ATOM     14  C   UNL     1     111.164 101.887 111.179  1.00  0.00     0.000 C 
BRANCH  14  15
ATOM     15  C   UNL     1     111.977 102.467 112.350  1.00  0.00     0.000 C 
BRANCH  15  16
ATOM     16  C   UNL     1     113.476 102.125 112.267  1.00  0.00     0.000 C 
BRANCH  16  17
ATOM     17  C   UNL     1     114.226 102.982 111.235  1.00  0.00     0.000 C 
BRANCH  17  18
ATOM     18  C   UNL     1     114.595 104.373 111.779  1.00  0.00     0.000 C 
BRANCH  18  19
ATOM     19  C   UNL     1     114.863 104.360 113.293  1.00  0.00     0.000 C 
BRANCH  19  20
ATOM     20  C   UNL     1     116.160 105.099 113.667  1.00  0.00     0.006 C 
BRANCH  20  21
ATOM     21  C   UNL     1     117.328 104.722 112.745  1.00  0.00     0.053 C 
BRANCH  21  22
ATOM     22  C   UNL     1     118.654 105.020 113.374  1.00  0.00     0.041 C 
ATOM     23  O   UNL     1     119.380 105.945 112.919  1.00  0.00    -0.550 OA
ATOM     24  O   UNL     1     119.077 104.298 114.483  1.00  0.00    -0.550 OA
ENDBRANCH  21  22
ENDBRANCH  20  21
ENDBRANCH  19  20
ENDBRANCH  18  19
ENDBRANCH  17  18
ENDBRANCH  16  17
ENDBRANCH  15  16
ENDBRANCH  14  15
ENDBRANCH  13  14
ENDBRANCH   1  13
TORSDOF 20
ENDMDL
MODEL 3
REMARK VINA RESULT:    -3.405      2.274      3.159
REMARK INTER + INTRA:          -8.576
REMARK INTER:                  -7.678
REMARK INTRA:                  -0.898
REMARK UNBOUND:                -1.191
REMARK SMILES CCCCCCCCCCCCCCCCCCCCCC(=O)[O-]
REMARK SMILES IDX 12 1 11 2 10 3 9 4 8 5 7 6 6 7 5 8 4 9 3 10 2 11 1 12 13 13
REMARK SMILES IDX 14 14 15 15 16 16 17 17 18 18 19 19 20 20 21 21 22 22 23 23
REMARK SMILES IDX 24 24
REMARK H PARENT
REMARK Flexibility Score: inf
ROOT
ATOM      1  C   UNL     1     108.821 104.667 110.818  1.00  0.00     0.000 C 
ENDROOT
BRANCH   1   2
ATOM      2  C   UNL     1     109.278 106.132 110.727  1.00  0.00     0.000 C 
BRANCH   2   3
ATOM      3  C   UNL     1     108.362 107.091 111.503  1.00  0.00     0.000 C 
BRANCH   3   4
ATOM      4  C   UNL     1     108.027 106.524 112.890  1.00  0.00    -0.000 C 
BRANCH   4   5
ATOM      5  C   UNL     1     106.538 106.174 113.050  1.00  0.00    -0.000 C 
BRANCH   5   6
ATOM      6  C   UNL     1     105.684 107.252 113.747  1.00  0.00    -0.000 C 
BRANCH   6   7
ATOM      7  C   UNL     1     104.359 106.748 114.346  1.00  0.00    -0.000 C 
BRANCH   7   8
ATOM      8  C   UNL     1     103.582 105.828 113.392  1.00  0.00    -0.000 C 
BRANCH   8   9
ATOM      9  C   UNL     1     102.111 106.257 113.292  1.00  0.00    -0.000 C 
BRANCH   9  10
ATOM     10  C   UNL     1     101.705 106.683 111.869  1.00  0.00    -0.000 C 
BRANCH  10  11
ATOM     11  C   UNL     1     100.220 106.466 111.529  1.00  0.00    -0.003 C 
ATOM     12  C   UNL     1      99.998 106.003 110.090  1.00  0.00     0.004 C 
ENDBRANCH  10  11
ENDBRANCH   9  10
ENDBRANCH   8   9
ENDBRANCH   7   8
ENDBRANCH   6   7
ENDBRANCH   5   6
ENDBRANCH   4   5
ENDBRANCH   3   4
ENDBRANCH   2   3
ENDBRANCH   1   2
BRANCH   1  13
ATOM     13  C   UNL     1     109.909 103.683 110.355  1.00  0.00     0.000 C 
BRANCH  13  14
ATOM     14  C   UNL     1     110.650 103.011 111.527  1.00  0.00     0.000 C 
BRANCH  14  15
ATOM     15  C   UNL     1     111.588 101.857 111.128  1.00  0.00     0.000 C 
BRANCH  15  16
ATOM     16  C   UNL     1     112.946 101.912 111.852  1.00  0.00     0.000 C 
BRANCH  16  17
ATOM     17  C   UNL     1     113.213 103.272 112.515  1.00  0.00     0.000 C 
BRANCH  17  18
ATOM     18  C   UNL     1     114.599 103.840 112.160  1.00  0.00     0.000 C 
BRANCH  18  19
ATOM     19  C   UNL     1     114.853 105.214 112.801  1.00  0.00     0.000 C 
BRANCH  19  20
ATOM     20  C   UNL     1     116.140 105.241 113.644  1.00  0.00     0.006 C 
BRANCH  20  21
ATOM     21  C   UNL     1     117.334 104.628 112.898  1.00  0.00     0.053 C 
BRANCH  21  22
ATOM     22  C   UNL     1     118.628 105.272 113.290  1.00  0.00     0.041 C 
ATOM     23  O   UNL     1     119.285 104.832 114.271  1.00  0.00    -0.550 OA
ATOM     24  O   UNL     1     119.126 106.338 112.551  1.00  0.00    -0.550 OA
ENDBRANCH  21  22
ENDBRANCH  20  21
ENDBRANCH  19  20
ENDBRANCH  18  19
ENDBRANCH  17  18
ENDBRANCH  16  17
ENDBRANCH  15  16
ENDBRANCH  14  15
ENDBRANCH  13  14
ENDBRANCH   1  13
TORSDOF 20
ENDMDL
MODEL 4
REMARK VINA RESULT:    -3.337      4.326     10.315
REMARK INTER + INTRA:          -8.430
REMARK INTER:                  -7.182
REMARK INTRA:                  -1.248
REMARK UNBOUND:                -1.191
REMARK SMILES CCCCCCCCCCCCCCCCCCCCCC(=O)[O-]
REMARK SMILES IDX 12 1 11 2 10 3 9 4 8 5 7 6 6 7 5 8 4 9 3 10 2 11 1 12 13 13
REMARK SMILES IDX 14 14 15 15 16 16 17 17 18 18 19 19 20 20 21 21 22 22 23 23
REMARK SMILES IDX 24 24
REMARK H PARENT
REMARK Flexibility Score: inf
ROOT
ATOM      1  C   UNL     1     110.474 103.590 111.603  1.00  0.00     0.000 C 
ENDROOT
BRANCH   1   2
ATOM      2  C   UNL     1     111.367 102.362 111.363  1.00  0.00     0.000 C 
BRANCH   2   3
ATOM      3  C   UNL     1     112.589 102.322 112.293  1.00  0.00     0.000 C 
BRANCH   3   4
ATOM      4  C   UNL     1     113.881 102.118 111.488  1.00  0.00    -0.000 C 
BRANCH   4   5
ATOM      5  C   UNL     1     114.599 103.440 111.165  1.00  0.00    -0.000 C 
BRANCH   5   6
ATOM      6  C   UNL     1     114.296 104.602 112.132  1.00  0.00    -0.000 C 
BRANCH   6   7
ATOM      7  C   UNL     1     115.347 104.826 113.234  1.00  0.00    -0.000 C 
BRANCH   7   8
ATOM      8  C   UNL     1     116.760 104.399 112.808  1.00  0.00    -0.000 C 
BRANCH   8   9
ATOM      9  C   UNL     1     117.712 104.375 114.013  1.00  0.00    -0.000 C 
BRANCH   9  10
ATOM     10  C   UNL     1     119.094 104.974 113.697  1.00  0.00    -0.000 C 
BRANCH  10  11
ATOM     11  C   UNL     1     119.189 105.699 112.343  1.00  0.00    -0.003 C 
ATOM     12  C   UNL     1     118.922 107.200 112.448  1.00  0.00     0.004 C 
ENDBRANCH  10  11
ENDBRANCH   9  10
ENDBRANCH   8   9
ENDBRANCH   7   8
ENDBRANCH   6   7
ENDBRANCH   5   6
ENDBRANCH   4   5
ENDBRANCH   3   4
ENDBRANCH   2   3
ENDBRANCH   1   2
BRANCH   1  13
ATOM     13  C   UNL     1     109.532 103.871 110.419  1.00  0.00     0.000 C 
BRANCH  13  14
ATOM     14  C   UNL     1     108.643 105.109 110.639  1.00  0.00     0.000 C 
BRANCH  14  15
ATOM     15  C   UNL     1     109.391 106.377 111.091  1.00  0.00     0.000 C 
BRANCH  15  16
ATOM     16  C   UNL     1     108.494 107.628 111.110  1.00  0.00     0.000 C 
BRANCH  16  17
ATOM     17  C   UNL     1     107.087 107.344 111.660  1.00  0.00     0.000 C 
BRANCH  17  18
ATOM     18  C   UNL     1     107.112 106.856 113.119  1.00  0.00     0.000 C 
BRANCH  18  19
ATOM     19  C   UNL     1     105.935 105.922 113.447  1.00  0.00     0.000 C 
BRANCH  19  20
ATOM     20  C   UNL     1     104.781 106.655 114.152  1.00  0.00     0.006 C 
BRANCH  20  21
ATOM     21  C   UNL     1     105.219 108.011 114.724  1.00  0.00     0.053 C 
BRANCH  21  22
ATOM     22  C   UNL     1     105.177 108.025 116.221  1.00  0.00     0.041 C 
ATOM     23  O   UNL     1     105.872 108.855 116.867  1.00  0.00    -0.550 OA
ATOM     24  O   UNL     1     104.347 107.145 116.903  1.00  0.00    -0.550 OA
ENDBRANCH  21  22
ENDBRANCH  20  21
ENDBRANCH  19  20
ENDBRANCH  18  19
ENDBRANCH  17  18
ENDBRANCH  16  17
ENDBRANCH  15  16
ENDBRANCH  14  15
ENDBRANCH  13  14
ENDBRANCH   1  13
TORSDOF 20
ENDMDL
MODEL 5
REMARK VINA RESULT:    -3.018      1.193      1.837
REMARK INTER + INTRA:          -7.738
REMARK INTER:                  -6.309
REMARK INTRA:                  -1.429
REMARK UNBOUND:                -1.191
REMARK SMILES CCCCCCCCCCCCCCCCCCCCCC(=O)[O-]
REMARK SMILES IDX 12 1 11 2 10 3 9 4 8 5 7 6 6 7 5 8 4 9 3 10 2 11 1 12 13 13
REMARK SMILES IDX 14 14 15 15 16 16 17 17 18 18 19 19 20 20 21 21 22 22 23 23
REMARK SMILES IDX 24 24
REMARK H PARENT
REMARK Flexibility Score: inf
ROOT
ATOM      1  C   UNL     1     111.257 102.062 110.919  1.00  0.00     0.000 C 
ENDROOT
BRANCH   1   2
ATOM      2  C   UNL     1     109.897 102.756 110.738  1.00  0.00     0.000 C 
BRANCH   2   3
ATOM      3  C   UNL     1     109.936 104.248 111.103  1.00  0.00     0.000 C 
BRANCH   3   4
ATOM      4  C   UNL     1     108.642 104.950 110.666  1.00  0.00    -0.000 C 
BRANCH   4   5
ATOM      5  C   UNL     1     108.784 106.481 110.603  1.00  0.00    -0.000 C 
BRANCH   5   6
ATOM      6  C   UNL     1     108.547 107.214 111.939  1.00  0.00    -0.000 C 
BRANCH   6   7
ATOM      7  C   UNL     1     107.519 106.551 112.874  1.00  0.00    -0.000 C 
BRANCH   7   8
ATOM      8  C   UNL     1     106.131 107.203 112.794  1.00  0.00    -0.000 C 
BRANCH   8   9
ATOM      9  C   UNL     1     105.268 106.806 114.002  1.00  0.00    -0.000 C 
BRANCH   9  10
ATOM     10  C   UNL     1     104.245 105.705 113.671  1.00  0.00    -0.000 C 
BRANCH  10  11
ATOM     11  C   UNL     1     102.772 106.141 113.774  1.00  0.00    -0.003 C 
ATOM     12  C   UNL     1     102.190 106.602 112.439  1.00  0.00     0.004 C 
ENDBRANCH  10  11
ENDBRANCH   9  10
ENDBRANCH   8   9
ENDBRANCH   7   8
ENDBRANCH   6   7
ENDBRANCH   5   6
ENDBRANCH   4   5
ENDBRANCH   3   4
ENDBRANCH   2   3
ENDBRANCH   1   2
BRANCH   1  13
ATOM     13  C   UNL     1     111.976 102.507 112.204  1.00  0.00     0.000 C 
BRANCH  13  14
ATOM     14  C   UNL     1     113.248 101.688 112.496  1.00  0.00     0.000 C 
BRANCH  14  15
ATOM     15  C   UNL     1     114.573 102.420 112.216  1.00  0.00     0.000 C 
BRANCH  15  16
ATOM     16  C   UNL     1     114.413 103.594 111.234  1.00  0.00     0.000 C 
BRANCH  16  17
ATOM     17  C   UNL     1     114.496 104.964 111.926  1.00  0.00     0.000 C 
BRANCH  17  18
ATOM     18  C   UNL     1     114.902 104.854 113.406  1.00  0.00     0.000 C 
BRANCH  18  19
ATOM     19  C   UNL     1     116.008 105.853 113.788  1.00  0.00     0.000 C 
BRANCH  19  20
ATOM     20  C   UNL     1     117.266 105.700 112.916  1.00  0.00     0.006 C 
BRANCH  20  21
ATOM     21  C   UNL     1     117.922 104.322 113.083  1.00  0.00     0.053 C 
BRANCH  21  22
ATOM     22  C   UNL     1     119.008 104.341 114.114  1.00  0.00     0.041 C 
ATOM     23  O   UNL     1     119.189 103.344 114.864  1.00  0.00    -0.550 OA
ATOM     24  O   UNL     1     119.841 105.447 114.228  1.00  0.00    -0.550 OA
ENDBRANCH  21  22
ENDBRANCH  20  21
ENDBRANCH  19  20
ENDBRANCH  18  19
ENDBRANCH  17  18
ENDBRANCH  16  17
ENDBRANCH  15  16
ENDBRANCH  14  15
ENDBRANCH  13  14
ENDBRANCH   1  13
TORSDOF 20
ENDMDL
MODEL 6
REMARK VINA RESULT:    -2.761      5.941     11.677
REMARK INTER + INTRA:          -7.180
REMARK INTER:                  -6.113
REMARK INTRA:                  -1.067
REMARK UNBOUND:                -1.191
REMARK SMILES CCCCCCCCCCCCCCCCCCCCCC(=O)[O-]
REMARK SMILES IDX 12 1 11 2 10 3 9 4 8 5 7 6 6 7 5 8 4 9 3 10 2 11 1 12 13 13
REMARK SMILES IDX 14 14 15 15 16 16 17 17 18 18 19 19 20 20 21 21 22 22 23 23
REMARK SMILES IDX 24 24
REMARK H PARENT
REMARK Flexibility Score: inf
ROOT
ATOM      1  C   UNL     1     109.701 104.530 110.723  1.00  0.00     0.000 C 
ENDROOT
BRANCH   1   2
ATOM      2  C   UNL     1     110.085 103.385 111.674  1.00  0.00     0.000 C 
BRANCH   2   3
ATOM      3  C   UNL     1     111.208 102.498 111.116  1.00  0.00     0.000 C 
BRANCH   3   4
ATOM      4  C   UNL     1     112.028 101.874 112.254  1.00  0.00    -0.000 C 
BRANCH   4   5
ATOM      5  C   UNL     1     113.544 102.050 112.066  1.00  0.00    -0.000 C 
BRANCH   5   6
ATOM      6  C   UNL     1     113.957 103.212 111.140  1.00  0.00    -0.000 C 
BRANCH   6   7
ATOM      7  C   UNL     1     115.196 104.003 111.599  1.00  0.00    -0.000 C 
BRANCH   7   8
ATOM      8  C   UNL     1     115.006 104.668 112.971  1.00  0.00    -0.000 C 
BRANCH   8   9
ATOM      9  C   UNL     1     116.307 105.335 113.442  1.00  0.00    -0.000 C 
BRANCH   9  10
ATOM     10  C   UNL     1     117.564 104.719 112.799  1.00  0.00    -0.000 C 
BRANCH  10  11
ATOM     11  C   UNL     1     118.880 105.025 113.536  1.00  0.00    -0.003 C 
ATOM     12  C   UNL     1     119.028 104.250 114.844  1.00  0.00     0.004 C 
ENDBRANCH  10  11
ENDBRANCH   9  10
ENDBRANCH   8   9
ENDBRANCH   7   8
ENDBRANCH   6   7
ENDBRANCH   5   6
ENDBRANCH   4   5
ENDBRANCH   3   4
ENDBRANCH   2   3
ENDBRANCH   1   2
BRANCH   1  13
ATOM     13  C   UNL     1     108.386 105.216 111.132  1.00  0.00     0.000 C 
BRANCH  13  14
ATOM     14  C   UNL     1     108.502 106.751 111.195  1.00  0.00     0.000 C 
BRANCH  14  15
ATOM     15  C   UNL     1     107.317 107.467 111.868  1.00  0.00     0.000 C 
BRANCH  15  16
ATOM     16  C   UNL     1     106.866 106.783 113.171  1.00  0.00     0.000 C 
BRANCH  16  17
ATOM     17  C   UNL     1     105.379 107.019 113.483  1.00  0.00     0.000 C 
BRANCH  17  18
ATOM     18  C   UNL     1     104.556 105.719 113.453  1.00  0.00     0.000 C 
BRANCH  18  19
ATOM     19  C   UNL     1     103.043 105.978 113.540  1.00  0.00     0.000 C 
BRANCH  19  20
ATOM     20  C   UNL     1     102.511 106.762 112.328  1.00  0.00     0.006 C 
BRANCH  20  21
ATOM     21  C   UNL     1     100.999 106.579 112.138  1.00  0.00     0.053 C 
BRANCH  21  22
ATOM     22  C   UNL     1     100.613 106.572 110.691  1.00  0.00     0.041 C 
ATOM     23  O   UNL     1     100.973 107.514 109.934  1.00  0.00    -0.550 OA
ATOM     24  O   UNL     1      99.885 105.510 110.169  1.00  0.00    -0.550 OA
ENDBRANCH  21  22
ENDBRANCH  20  21
ENDBRANCH  19  20
ENDBRANCH  18  19
ENDBRANCH  17  18
ENDBRANCH  16  17
ENDBRANCH  15  16
ENDBRANCH  14  15
ENDBRANCH  13  14
ENDBRANCH   1  13
TORSDOF 20
ENDMDL
MODEL 7
REMARK VINA RESULT:    -2.601      4.458     10.182
REMARK INTER + INTRA:          -6.833
REMARK INTER:                  -5.648
REMARK INTRA:                  -1.185
REMARK UNBOUND:                -1.191
REMARK SMILES CCCCCCCCCCCCCCCCCCCCCC(=O)[O-]
REMARK SMILES IDX 12 1 11 2 10 3 9 4 8 5 7 6 6 7 5 8 4 9 3 10 2 11 1 12 13 13
REMARK SMILES IDX 14 14 15 15 16 16 17 17 18 18 19 19 20 20 21 21 22 22 23 23
REMARK SMILES IDX 24 24
REMARK H PARENT
REMARK Flexibility Score: inf
ROOT
ATOM      1  C   UNL     1     112.248 102.066 112.555  1.00  0.00     0.000 C 
ENDROOT
BRANCH   1   2
ATOM      2  C   UNL     1     113.757 102.357 112.521  1.00  0.00     0.000 C 
BRANCH   2   3
ATOM      3  C   UNL     1     114.270 102.684 111.110  1.00  0.00     0.000 C 
BRANCH   3   4
ATOM      4  C   UNL     1     114.905 104.082 111.070  1.00  0.00    -0.000 C 
BRANCH   4   5
ATOM      5  C   UNL     1     114.429 104.988 112.219  1.00  0.00    -0.000 C 
BRANCH   5   6
ATOM      6  C   UNL     1     115.494 105.303 113.288  1.00  0.00    -0.000 C 
BRANCH   6   7
ATOM      7  C   UNL     1     116.691 104.334 113.321  1.00  0.00    -0.000 C 
BRANCH   7   8
ATOM      8  C   UNL     1     117.654 104.614 114.485  1.00  0.00    -0.000 C 
BRANCH   8   9
ATOM      9  C   UNL     1     119.114 104.440 114.042  1.00  0.00    -0.000 C 
BRANCH   9  10
ATOM     10  C   UNL     1     119.756 105.755 113.563  1.00  0.00    -0.000 C 
BRANCH  10  11
ATOM     11  C   UNL     1     119.005 106.461 112.420  1.00  0.00    -0.003 C 
ATOM     12  C   UNL     1     119.760 106.418 111.092  1.00  0.00     0.004 C 
ENDBRANCH  10  11
ENDBRANCH   9  10
ENDBRANCH   8   9
ENDBRANCH   7   8
ENDBRANCH   6   7
ENDBRANCH   5   6
ENDBRANCH   4   5
ENDBRANCH   3   4
ENDBRANCH   2   3
ENDBRANCH   1   2
BRANCH   1  13
ATOM     13  C   UNL     1     111.728 101.506 111.219  1.00  0.00     0.000 C 
BRANCH  13  14
ATOM     14  C   UNL     1     110.468 102.233 110.712  1.00  0.00     0.000 C 
BRANCH  14  15
ATOM     15  C   UNL     1     110.481 103.762 110.891  1.00  0.00     0.000 C 
BRANCH  15  16
ATOM     16  C   UNL     1     109.139 104.318 111.398  1.00  0.00     0.000 C 
BRANCH  16  17
ATOM     17  C   UNL     1     108.580 105.435 110.502  1.00  0.00     0.000 C 
BRANCH  17  18
ATOM     18  C   UNL     1     109.114 106.825 110.889  1.00  0.00     0.000 C 
BRANCH  18  19
ATOM     19  C   UNL     1     108.066 107.673 111.628  1.00  0.00     0.000 C 
BRANCH  19  20
ATOM     20  C   UNL     1     107.261 106.853 112.652  1.00  0.00     0.006 C 
BRANCH  20  21
ATOM     21  C   UNL     1     105.882 107.467 112.930  1.00  0.00     0.053 C 
BRANCH  21  22
ATOM     22  C   UNL     1     105.106 106.667 113.931  1.00  0.00     0.041 C 
ATOM     23  O   UNL     1     104.911 107.120 115.091  1.00  0.00    -0.550 OA
ATOM     24  O   UNL     1     104.569 105.437 113.573  1.00  0.00    -0.550 OA
ENDBRANCH  21  22
ENDBRANCH  20  21
ENDBRANCH  19  20
ENDBRANCH  18  19
ENDBRANCH  17  18
ENDBRANCH  16  17
ENDBRANCH  15  16
ENDBRANCH  14  15
ENDBRANCH  13  14
ENDBRANCH   1  13
TORSDOF 20
ENDMDL
MODEL 8
REMARK VINA RESULT:    -2.110      3.404      6.408
REMARK INTER + INTRA:          -5.767
REMARK INTER:                  -4.325
REMARK INTRA:                  -1.442
REMARK UNBOUND:                -1.191
REMARK SMILES CCCCCCCCCCCCCCCCCCCCCC(=O)[O-]
REMARK SMILES IDX 12 1 11 2 10 3 9 4 8 5 7 6 6 7 5 8 4 9 3 10 2 11 1 12 13 13
REMARK SMILES IDX 14 14 15 15 16 16 17 17 18 18 19 19 20 20 21 21 22 22 23 23
REMARK SMILES IDX 24 24
REMARK H PARENT
REMARK Flexibility Score: inf
ROOT
ATOM      1  C   UNL     1     109.362 103.799 111.208  1.00  0.00     0.000 C 
ENDROOT
BRANCH   1   2
ATOM      2  C   UNL     1     108.855 105.051 110.473  1.00  0.00     0.000 C 
BRANCH   2   3
ATOM      3  C   UNL     1     108.490 106.197 111.429  1.00  0.00     0.000 C 
BRANCH   3   4
ATOM      4  C   UNL     1     109.219 107.490 111.035  1.00  0.00    -0.000 C 
BRANCH   4   5
ATOM      5  C   UNL     1     110.673 107.246 110.596  1.00  0.00    -0.000 C 
BRANCH   5   6
ATOM      6  C   UNL     1     111.132 108.063 109.371  1.00  0.00    -0.000 C 
BRANCH   6   7
ATOM      7  C   UNL     1     112.614 107.890 108.990  1.00  0.00    -0.000 C 
BRANCH   7   8
ATOM      8  C   UNL     1     112.976 108.586 107.670  1.00  0.00    -0.000 C 
BRANCH   8   9
ATOM      9  C   UNL     1     113.410 107.561 106.611  1.00  0.00    -0.000 C 
BRANCH   9  10
ATOM     10  C   UNL     1     112.442 107.488 105.416  1.00  0.00    -0.000 C 
BRANCH  10  11
ATOM     11  C   UNL     1     113.013 106.798 104.164  1.00  0.00    -0.003 C 
ATOM     12  C   UNL     1     114.470 107.166 103.891  1.00  0.00     0.004 C 
ENDBRANCH  10  11
ENDBRANCH   9  10
ENDBRANCH   8   9
ENDBRANCH   7   8
ENDBRANCH   6   7
ENDBRANCH   5   6
ENDBRANCH   4   5
ENDBRANCH   3   4
ENDBRANCH   2   3
ENDBRANCH   1   2
BRANCH   1  13
ATOM     13  C   UNL     1     110.723 103.317 110.678  1.00  0.00     0.000 C 
BRANCH  13  14
ATOM     14  C   UNL     1     111.140 101.948 111.248  1.00  0.00     0.000 C 
BRANCH  14  15
ATOM     15  C   UNL     1     112.178 102.005 112.384  1.00  0.00     0.000 C 
BRANCH  15  16
ATOM     16  C   UNL     1     113.150 103.191 112.250  1.00  0.00     0.000 C 
BRANCH  16  17
ATOM     17  C   UNL     1     114.408 102.841 111.440  1.00  0.00     0.000 C 
BRANCH  17  18
ATOM     18  C   UNL     1     115.562 103.829 111.686  1.00  0.00     0.000 C 
BRANCH  18  19
ATOM     19  C   UNL     1     115.145 105.011 112.577  1.00  0.00     0.000 C 
BRANCH  19  20
ATOM     20  C   UNL     1     116.180 105.315 113.673  1.00  0.00     0.006 C 
BRANCH  20  21
ATOM     21  C   UNL     1     117.445 104.456 113.531  1.00  0.00     0.053 C 
BRANCH  21  22
ATOM     22  C   UNL     1     118.659 105.289 113.261  1.00  0.00     0.041 C 
ATOM     23  O   UNL     1     119.630 105.277 114.065  1.00  0.00    -0.550 OA
ATOM     24  O   UNL     1     118.735 106.056 112.104  1.00  0.00    -0.550 OA
ENDBRANCH  21  22
ENDBRANCH  20  21
ENDBRANCH  19  20
ENDBRANCH  18  19
ENDBRANCH  17  18
ENDBRANCH  16  17
ENDBRANCH  15  16
ENDBRANCH  14  15
ENDBRANCH  13  14
ENDBRANCH   1  13
TORSDOF 20
ENDMDL
MODEL 9
REMARK VINA RESULT:    -1.886      4.524      9.129
REMARK INTER + INTRA:          -5.281
REMARK INTER:                  -4.001
REMARK INTRA:                  -1.280
REMARK UNBOUND:                -1.191
REMARK SMILES CCCCCCCCCCCCCCCCCCCCCC(=O)[O-]
REMARK SMILES IDX 12 1 11 2 10 3 9 4 8 5 7 6 6 7 5 8 4 9 3 10 2 11 1 12 13 13
REMARK SMILES IDX 14 14 15 15 16 16 17 17 18 18 19 19 20 20 21 21 22 22 23 23
REMARK SMILES IDX 24 24
REMARK H PARENT
REMARK Flexibility Score: inf
ROOT
ATOM      1  C   UNL     1     109.850 103.556 111.609  1.00  0.00     0.000 C 
ENDROOT
BRANCH   1   2
ATOM      2  C   UNL     1     111.094 102.773 111.157  1.00  0.00     0.000 C 
BRANCH   2   3
ATOM      3  C   UNL     1     112.025 102.408 112.323  1.00  0.00     0.000 C 
BRANCH   3   4
ATOM      4  C   UNL     1     113.427 102.048 111.809  1.00  0.00    -0.000 C 
BRANCH   4   5
ATOM      5  C   UNL     1     114.118 103.219 111.088  1.00  0.00    -0.000 C 
BRANCH   5   6
ATOM      6  C   UNL     1     114.250 104.511 111.919  1.00  0.00    -0.000 C 
BRANCH   6   7
ATOM      7  C   UNL     1     114.842 104.324 113.327  1.00  0.00    -0.000 C 
BRANCH   7   8
ATOM      8  C   UNL     1     116.182 105.051 113.515  1.00  0.00    -0.000 C 
BRANCH   8   9
ATOM      9  C   UNL     1     117.311 104.320 112.774  1.00  0.00    -0.000 C 
BRANCH   9  10
ATOM     10  C   UNL     1     118.672 104.443 113.483  1.00  0.00    -0.000 C 
BRANCH  10  11
ATOM     11  C   UNL     1     119.378 105.798 113.294  1.00  0.00    -0.003 C 
ATOM     12  C   UNL     1     119.211 106.367 111.886  1.00  0.00     0.004 C 
ENDBRANCH  10  11
ENDBRANCH   9  10
ENDBRANCH   8   9
ENDBRANCH   7   8
ENDBRANCH   6   7
ENDBRANCH   5   6
ENDBRANCH   4   5
ENDBRANCH   3   4
ENDBRANCH   2   3
ENDBRANCH   1   2
BRANCH   1  13
ATOM     13  C   UNL     1     109.357 104.545 110.538  1.00  0.00     0.000 C 
BRANCH  13  14
ATOM     14  C   UNL     1     108.520 105.697 111.123  1.00  0.00     0.000 C 
BRANCH  14  15
ATOM     15  C   UNL     1     109.032 107.110 110.790  1.00  0.00     0.000 C 
BRANCH  15  16
ATOM     16  C   UNL     1     110.569 107.206 110.791  1.00  0.00     0.000 C 
BRANCH  16  17
ATOM     17  C   UNL     1     111.114 108.041 109.622  1.00  0.00     0.000 C 
BRANCH  17  18
ATOM     18  C   UNL     1     112.575 107.697 109.282  1.00  0.00     0.000 C 
BRANCH  18  19
ATOM     19  C   UNL     1     113.095 108.477 108.064  1.00  0.00     0.000 C 
BRANCH  19  20
ATOM     20  C   UNL     1     112.807 107.755 106.736  1.00  0.00     0.006 C 
BRANCH  20  21
ATOM     21  C   UNL     1     113.824 108.120 105.645  1.00  0.00     0.053 C 
BRANCH  21  22
ATOM     22  C   UNL     1     113.732 107.202 104.466  1.00  0.00     0.041 C 
ATOM     23  O   UNL     1     114.740 107.004 103.735  1.00  0.00    -0.550 OA
ATOM     24  O   UNL     1     112.543 106.537 104.192  1.00  0.00    -0.550 OA
ENDBRANCH  21  22
ENDBRANCH  20  21
ENDBRANCH  19  20
ENDBRANCH  18  19
ENDBRANCH  17  18
ENDBRANCH  16  17
ENDBRANCH  15  16
ENDBRANCH  14  15
ENDBRANCH  13  14
ENDBRANCH   1  13
TORSDOF 20
ENDMDL
