MODEL 1
REMARK VINA RESULT:    -4.613      0.000      0.000
REMARK INTER + INTRA:          -9.346
REMARK INTER:                  -7.848
REMARK INTRA:                  -1.498
REMARK UNBOUND:                -1.498
REMARK SMILES CCCCCCCCCCCCCC(=O)[O-]
REMARK SMILES IDX 8 1 9 2 10 3 11 4 12 5 13 6 14 7 15 8 16 9 7 10 6 11 5 12
REMARK SMILES IDX 4 13 3 14 2 15 1 16
REMARK H PARENT
REMARK Flexibility Score: inf
ROOT
ATOM      1  C   UNL     1      10.248  13.314  15.228  1.00  0.00     0.000 C 
ENDROOT
BRANCH   1   2
ATOM      2  C   UNL     1       9.555  14.682  15.092  1.00  0.00     0.000 C 
BRANCH   2   3
ATOM      3  C   UNL     1       9.754  15.379  13.733  1.00  0.00     0.000 C 
BRANCH   3   4
ATOM      4  C   UNL     1      10.549  14.524  12.733  1.00  0.00     0.000 C 
BRANCH   4   5
ATOM      5  C   UNL     1      10.983  15.327  11.488  1.00  0.00     0.006 C 
BRANCH   5   6
ATOM      6  C   UNL     1      10.742  14.584  10.164  1.00  0.00     0.053 C 
BRANCH   6   7
ATOM      7  C   UNL     1       9.288  14.374   9.885  1.00  0.00     0.041 C 
ATOM      8  O   UNL     1       8.472  15.324  10.026  1.00  0.00    -0.550 OA
ATOM      9  O   UNL     1       8.827  13.123   9.495  1.00  0.00    -0.550 OA
ENDBRANCH   6   7
ENDBRANCH   5   6
ENDBRANCH   4   5
ENDBRANCH   3   4
ENDBRANCH   2   3
ENDBRANCH   1   2
BRANCH   1  10
ATOM     10  C   UNL     1      11.125  13.209  16.484  1.00  0.00     0.000 C 
BRANCH  10  11
ATOM     11  C   UNL     1      12.370  14.100  16.362  1.00  0.00    -0.000 C 
BRANCH  11  12
ATOM     12  C   UNL     1      13.146  13.866  15.054  1.00  0.00    -0.000 C 
BRANCH  12  13
ATOM     13  C   UNL     1      13.732  15.138  14.409  1.00  0.00    -0.000 C 
BRANCH  13  14
ATOM     14  C   UNL     1      13.030  16.454  14.798  1.00  0.00    -0.000 C 
BRANCH  14  15
ATOM     15  C   UNL     1      13.917  17.709  14.712  1.00  0.00    -0.003 C 
ATOM     16  C   UNL     1      13.661  18.697  15.849  1.00  0.00     0.004 C 
ENDBRANCH  14  15
ENDBRANCH  13  14
ENDBRANCH  12  13
ENDBRANCH  11  12
ENDBRANCH  10  11
ENDBRANCH   1  10
TORSDOF 12
ENDMDL
MODEL 2
REMARK VINA RESULT:    -4.582      1.307      2.807
REMARK INTER + INTRA:          -9.295
REMARK INTER:                  -7.885
REMARK INTRA:                  -1.411
REMARK UNBOUND:                -1.498
REMARK SMILES CCCCCCCCCCCCCC(=O)[O-]
REMARK SMILES IDX 8 1 9 2 10 3 11 4 12 5 13 6 14 7 15 8 16 9 7 10 6 11 5 12
REMARK SMILES IDX 4 13 3 14 2 15 1 16
REMARK H PARENT
REMARK Flexibility Score: inf
ROOT
ATOM      1  C   UNL     1      12.502  14.110  16.201  1.00  0.00     0.000 C 
ENDROOT
BRANCH   1   2
ATOM      2  C   UNL     1      11.243  13.230  16.314  1.00  0.00     0.000 C 
BRANCH   2   3
ATOM      3  C   UNL     1      10.189  13.461  15.216  1.00  0.00     0.000 C 
BRANCH   3   4
ATOM      4  C   UNL     1       9.446  14.799  15.371  1.00  0.00     0.000 C 
BRANCH   4   5
ATOM      5  C   UNL     1       9.396  15.599  14.053  1.00  0.00     0.006 C 
BRANCH   5   6
ATOM      6  C   UNL     1      10.270  15.002  12.938  1.00  0.00     0.053 C 
BRANCH   6   7
ATOM      7  C   UNL     1      10.478  15.955  11.805  1.00  0.00     0.041 C 
ATOM      8  O   UNL     1      11.277  16.921  11.927  1.00  0.00    -0.550 OA
ATOM      9  O   UNL     1       9.768  15.793  10.621  1.00  0.00    -0.550 OA
ENDBRANCH   6   7
ENDBRANCH   5   6
ENDBRANCH   4   5
ENDBRANCH   3   4
ENDBRANCH   2   3
ENDBRANCH   1   2
BRANCH   1  10
ATOM     10  C   UNL     1      13.259  13.906  14.881  1.00  0.00     0.000 C 
BRANCH  10  11
ATOM     11  C   UNL     1      13.657  15.254  14.263  1.00  0.00    -0.000 C 
BRANCH  11  12
ATOM     12  C   UNL     1      13.015  16.454  14.981  1.00  0.00    -0.000 C 
BRANCH  12  13
ATOM     13  C   UNL     1      13.824  17.765  14.909  1.00  0.00    -0.000 C 
BRANCH  13  14
ATOM     14  C   UNL     1      13.469  18.815  15.981  1.00  0.00    -0.000 C 
BRANCH  14  15
ATOM     15  C   UNL     1      14.677  19.534  16.605  1.00  0.00    -0.003 C 
ATOM     16  C   UNL     1      14.639  19.545  18.133  1.00  0.00     0.004 C 
ENDBRANCH  14  15
ENDBRANCH  13  14
ENDBRANCH  12  13
ENDBRANCH  11  12
ENDBRANCH  10  11
ENDBRANCH   1  10
TORSDOF 12
ENDMDL
MODEL 3
REMARK VINA RESULT:    -4.577      1.033      1.728
REMARK INTER + INTRA:          -9.286
REMARK INTER:                  -7.886
REMARK INTRA:                  -1.400
REMARK UNBOUND:                -1.498
REMARK SMILES CCCCCCCCCCCCCC(=O)[O-]
REMARK SMILES IDX 8 1 9 2 10 3 11 4 12 5 13 6 14 7 15 8 16 9 7 10 6 11 5 12
REMARK SMILES IDX 4 13 3 14 2 15 1 16
REMARK H PARENT
REMARK Flexibility Score: inf
ROOT
ATOM      1  C   UNL     1      11.126  13.302  16.473  1.00  0.00     0.000 C 
ENDROOT
BRANCH   1   2
ATOM      2  C   UNL     1      10.196  13.508  15.264  1.00  0.00     0.000 C 
BRANCH   2   3
ATOM      3  C   UNL     1       9.201  14.675  15.400  1.00  0.00     0.000 C 
BRANCH   3   4
ATOM      4  C   UNL     1       9.409  15.766  14.337  1.00  0.00     0.000 C 
BRANCH   4   5
ATOM      5  C   UNL     1      10.020  15.209  13.035  1.00  0.00     0.006 C 
BRANCH   5   6
ATOM      6  C   UNL     1       9.798  16.118  11.815  1.00  0.00     0.053 C 
BRANCH   6   7
ATOM      7  C   UNL     1       8.635  15.680  10.983  1.00  0.00     0.041 C 
ATOM      8  O   UNL     1       7.479  16.118  11.229  1.00  0.00    -0.550 OA
ATOM      9  O   UNL     1       8.820  14.768   9.952  1.00  0.00    -0.550 OA
ENDBRANCH   6   7
ENDBRANCH   5   6
ENDBRANCH   4   5
ENDBRANCH   3   4
ENDBRANCH   2   3
ENDBRANCH   1   2
BRANCH   1  10
ATOM     10  C   UNL     1      12.472  14.026  16.324  1.00  0.00     0.000 C 
BRANCH  10  11
ATOM     11  C   UNL     1      13.041  13.840  14.910  1.00  0.00    -0.000 C 
BRANCH  11  12
ATOM     12  C   UNL     1      13.552  15.155  14.294  1.00  0.00    -0.000 C 
BRANCH  12  13
ATOM     13  C   UNL     1      12.971  16.437  14.924  1.00  0.00    -0.000 C 
BRANCH  13  14
ATOM     14  C   UNL     1      13.853  17.694  14.785  1.00  0.00    -0.000 C 
BRANCH  14  15
ATOM     15  C   UNL     1      13.252  18.974  15.392  1.00  0.00    -0.003 C 
ATOM     16  C   UNL     1      13.756  19.255  16.807  1.00  0.00     0.004 C 
ENDBRANCH  14  15
ENDBRANCH  13  14
ENDBRANCH  12  13
ENDBRANCH  11  12
ENDBRANCH  10  11
ENDBRANCH   1  10
TORSDOF 12
ENDMDL
MODEL 4
REMARK VINA RESULT:    -4.509      3.435      5.873
REMARK INTER + INTRA:          -9.170
REMARK INTER:                  -7.903
REMARK INTRA:                  -1.266
REMARK UNBOUND:                -1.498
REMARK SMILES CCCCCCCCCCCCCC(=O)[O-]
REMARK SMILES IDX 8 1 9 2 10 3 11 4 12 5 13 6 14 7 15 8 16 9 7 10 6 11 5 12
REMARK SMILES IDX 4 13 3 14 2 15 1 16
REMARK H PARENT
REMARK Flexibility Score: inf
ROOT
ATOM      1  C   UNL     1      11.076  13.357  16.431  1.00  0.00     0.000 C 
ENDROOT
BRANCH   1   2
ATOM      2  C   UNL     1      12.479  13.947  16.197  1.00  0.00     0.000 C 
BRANCH   2   3
ATOM      3  C   UNL     1      13.061  13.701  14.792  1.00  0.00     0.000 C 
BRANCH   3   4
ATOM      4  C   UNL     1      13.886  14.889  14.271  1.00  0.00     0.000 C 
BRANCH   4   5
ATOM      5  C   UNL     1      13.254  16.248  14.633  1.00  0.00     0.006 C 
BRANCH   5   6
ATOM      6  C   UNL     1      13.951  17.446  13.967  1.00  0.00     0.053 C 
BRANCH   6   7
ATOM      7  C   UNL     1      14.706  18.284  14.949  1.00  0.00     0.041 C 
ATOM      8  O   UNL     1      15.934  18.509  14.778  1.00  0.00    -0.550 OA
ATOM      9  O   UNL     1      14.062  18.795  16.069  1.00  0.00    -0.550 OA
ENDBRANCH   6   7
ENDBRANCH   5   6
ENDBRANCH   4   5
ENDBRANCH   3   4
ENDBRANCH   2   3
ENDBRANCH   1   2
BRANCH   1  10
ATOM     10  C   UNL     1      10.190  13.402  15.178  1.00  0.00     0.000 C 
BRANCH  10  11
ATOM     11  C   UNL     1       9.380  14.706  15.126  1.00  0.00    -0.000 C 
BRANCH  11  12
ATOM     12  C   UNL     1       9.799  15.624  13.964  1.00  0.00    -0.000 C 
BRANCH  12  13
ATOM     13  C   UNL     1      10.415  14.897  12.751  1.00  0.00    -0.000 C 
BRANCH  13  14
ATOM     14  C   UNL     1       9.784  15.246  11.388  1.00  0.00    -0.000 C 
BRANCH  14  15
ATOM     15  C   UNL     1      10.080  14.237  10.264  1.00  0.00    -0.003 C 
ATOM     16  C   UNL     1       8.814  13.726   9.577  1.00  0.00     0.004 C 
ENDBRANCH  14  15
ENDBRANCH  13  14
ENDBRANCH  12  13
ENDBRANCH  11  12
ENDBRANCH  10  11
ENDBRANCH   1  10
TORSDOF 12
ENDMDL
MODEL 5
REMARK VINA RESULT:    -4.500      1.724      3.297
REMARK INTER + INTRA:          -9.156
REMARK INTER:                  -7.773
REMARK INTRA:                  -1.382
REMARK UNBOUND:                -1.498
REMARK SMILES CCCCCCCCCCCCCC(=O)[O-]
REMARK SMILES IDX 8 1 9 2 10 3 11 4 12 5 13 6 14 7 15 8 16 9 7 10 6 11 5 12
REMARK SMILES IDX 4 13 3 14 2 15 1 16
REMARK H PARENT
REMARK Flexibility Score: inf
ROOT
ATOM      1  C   UNL     1       9.118  15.990  13.966  1.00  0.00     0.000 C 
ENDROOT
BRANCH   1   2
ATOM      2  C   UNL     1       8.125  17.109  13.603  1.00  0.00     0.000 C 
BRANCH   2   3
ATOM      3  C   UNL     1       7.938  17.347  12.093  1.00  0.00     0.000 C 
BRANCH   3   4
ATOM      4  C   UNL     1       7.915  16.042  11.280  1.00  0.00     0.000 C 
BRANCH   4   5
ATOM      5  C   UNL     1       9.116  15.926  10.318  1.00  0.00     0.006 C 
BRANCH   5   6
ATOM      6  C   UNL     1       9.736  14.520  10.277  1.00  0.00     0.053 C 
BRANCH   6   7
ATOM      7  C   UNL     1       9.253  13.718   9.111  1.00  0.00     0.041 C 
ATOM      8  O   UNL     1       9.752  13.897   7.969  1.00  0.00    -0.550 OA
ATOM      9  O   UNL     1       8.232  12.790   9.279  1.00  0.00    -0.550 OA
ENDBRANCH   6   7
ENDBRANCH   5   6
ENDBRANCH   4   5
ENDBRANCH   3   4
ENDBRANCH   2   3
ENDBRANCH   1   2
BRANCH   1  10
ATOM     10  C   UNL     1      10.567  16.486  14.078  1.00  0.00     0.000 C 
BRANCH  10  11
ATOM     11  C   UNL     1      11.531  15.530  13.361  1.00  0.00    -0.000 C 
BRANCH  11  12
ATOM     12  C   UNL     1      12.857  15.340  14.118  1.00  0.00    -0.000 C 
BRANCH  12  13
ATOM     13  C   UNL     1      12.947  14.050  14.959  1.00  0.00    -0.000 C 
BRANCH  13  14
ATOM     14  C   UNL     1      11.837  13.014  14.692  1.00  0.00    -0.000 C 
BRANCH  14  15
ATOM     15  C   UNL     1      10.895  12.757  15.881  1.00  0.00    -0.003 C 
ATOM     16  C   UNL     1      11.359  13.442  17.166  1.00  0.00     0.004 C 
ENDBRANCH  14  15
ENDBRANCH  13  14
ENDBRANCH  12  13
ENDBRANCH  11  12
ENDBRANCH  10  11
ENDBRANCH   1  10
TORSDOF 12
ENDMDL
MODEL 6
REMARK VINA RESULT:    -4.479      1.591      2.154
REMARK INTER + INTRA:          -9.119
REMARK INTER:                  -7.448
REMARK INTRA:                  -1.671
REMARK UNBOUND:                -1.498
REMARK SMILES CCCCCCCCCCCCCC(=O)[O-]
REMARK SMILES IDX 8 1 9 2 10 3 11 4 12 5 13 6 14 7 15 8 16 9 7 10 6 11 5 12
REMARK SMILES IDX 4 13 3 14 2 15 1 16
REMARK H PARENT
REMARK Flexibility Score: inf
ROOT
ATOM      1  C   UNL     1      10.249  13.473  15.255  1.00  0.00     0.000 C 
ENDROOT
BRANCH   1   2
ATOM      2  C   UNL     1       9.268  14.655  15.356  1.00  0.00     0.000 C 
BRANCH   2   3
ATOM      3  C   UNL     1       9.484  15.769  14.314  1.00  0.00     0.000 C 
BRANCH   3   4
ATOM      4  C   UNL     1      10.218  15.277  13.056  1.00  0.00     0.000 C 
BRANCH   4   5
ATOM      5  C   UNL     1       9.480  15.660  11.756  1.00  0.00     0.006 C 
BRANCH   5   6
ATOM      6  C   UNL     1       8.148  16.388  12.000  1.00  0.00     0.053 C 
BRANCH   6   7
ATOM      7  C   UNL     1       7.531  16.887  10.731  1.00  0.00     0.041 C 
ATOM      8  O   UNL     1       7.958  16.482   9.618  1.00  0.00    -0.550 OA
ATOM      9  O   UNL     1       6.503  17.821  10.777  1.00  0.00    -0.550 OA
ENDBRANCH   6   7
ENDBRANCH   5   6
ENDBRANCH   4   5
ENDBRANCH   3   4
ENDBRANCH   2   3
ENDBRANCH   1   2
BRANCH   1  10
ATOM     10  C   UNL     1      11.124  13.312  16.507  1.00  0.00     0.000 C 
BRANCH  10  11
ATOM     11  C   UNL     1      12.470  14.030  16.330  1.00  0.00    -0.000 C 
BRANCH  11  12
ATOM     12  C   UNL     1      13.083  13.817  14.935  1.00  0.00    -0.000 C 
BRANCH  12  13
ATOM     13  C   UNL     1      13.669  15.086  14.281  1.00  0.00    -0.000 C 
BRANCH  13  14
ATOM     14  C   UNL     1      13.149  16.419  14.854  1.00  0.00    -0.000 C 
BRANCH  14  15
ATOM     15  C   UNL     1      13.056  17.567  13.834  1.00  0.00    -0.003 C 
ATOM     16  C   UNL     1      13.415  17.131  12.414  1.00  0.00     0.004 C 
ENDBRANCH  14  15
ENDBRANCH  13  14
ENDBRANCH  12  13
ENDBRANCH  11  12
ENDBRANCH  10  11
ENDBRANCH   1  10
TORSDOF 12
ENDMDL
MODEL 7
REMARK VINA RESULT:    -4.436      3.341      5.676
REMARK INTER + INTRA:          -9.046
REMARK INTER:                  -7.629
REMARK INTRA:                  -1.417
REMARK UNBOUND:                -1.498
REMARK SMILES CCCCCCCCCCCCCC(=O)[O-]
REMARK SMILES IDX 8 1 9 2 10 3 11 4 12 5 13 6 14 7 15 8 16 9 7 10 6 11 5 12
REMARK SMILES IDX 4 13 3 14 2 15 1 16
REMARK H PARENT
REMARK Flexibility Score: inf
ROOT
ATOM      1  C   UNL     1      12.479  14.073  16.309  1.00  0.00     0.000 C 
ENDROOT
BRANCH   1   2
ATOM      2  C   UNL     1      13.064  13.911  14.894  1.00  0.00     0.000 C 
BRANCH   2   3
ATOM      3  C   UNL     1      13.716  15.178  14.311  1.00  0.00     0.000 C 
BRANCH   3   4
ATOM      4  C   UNL     1      13.057  16.475  14.811  1.00  0.00     0.000 C 
BRANCH   4   5
ATOM      5  C   UNL     1      13.767  17.738  14.281  1.00  0.00     0.006 C 
BRANCH   5   6
ATOM      6  C   UNL     1      15.240  17.840  14.711  1.00  0.00     0.053 C 
BRANCH   6   7
ATOM      7  C   UNL     1      16.156  18.075  13.552  1.00  0.00     0.041 C 
ATOM      8  O   UNL     1      16.727  19.190  13.413  1.00  0.00    -0.550 OA
ATOM      9  O   UNL     1      16.359  17.075  12.610  1.00  0.00    -0.550 OA
ENDBRANCH   6   7
ENDBRANCH   5   6
ENDBRANCH   4   5
ENDBRANCH   3   4
ENDBRANCH   2   3
ENDBRANCH   1   2
BRANCH   1  10
ATOM     10  C   UNL     1      11.158  13.315  16.502  1.00  0.00     0.000 C 
BRANCH  10  11
ATOM     11  C   UNL     1      10.272  13.429  15.253  1.00  0.00    -0.000 C 
BRANCH  11  12
ATOM     12  C   UNL     1       9.291  14.612  15.323  1.00  0.00    -0.000 C 
BRANCH  12  13
ATOM     13  C   UNL     1       9.473  15.674  14.219  1.00  0.00    -0.000 C 
BRANCH  13  14
ATOM     14  C   UNL     1      10.246  15.199  12.972  1.00  0.00    -0.000 C 
BRANCH  14  15
ATOM     15  C   UNL     1       9.852  15.901  11.661  1.00  0.00    -0.003 C 
ATOM     16  C   UNL     1       9.505  14.920  10.542  1.00  0.00     0.004 C 
ENDBRANCH  14  15
ENDBRANCH  13  14
ENDBRANCH  12  13
ENDBRANCH  11  12
ENDBRANCH  10  11
ENDBRANCH   1  10
TORSDOF 12
ENDMDL
MODEL 8
REMARK VINA RESULT:    -4.381      2.329      3.025
REMARK INTER + INTRA:          -8.953
REMARK INTER:                  -7.480
REMARK INTRA:                  -1.473
REMARK UNBOUND:                -1.498
REMARK SMILES CCCCCCCCCCCCCC(=O)[O-]
REMARK SMILES IDX 8 1 9 2 10 3 11 4 12 5 13 6 14 7 15 8 16 9 7 10 6 11 5 12
REMARK SMILES IDX 4 13 3 14 2 15 1 16
REMARK H PARENT
REMARK Flexibility Score: inf
ROOT
ATOM      1  C   UNL     1       9.444  14.794  15.081  1.00  0.00     0.000 C 
ENDROOT
BRANCH   1   2
ATOM      2  C   UNL     1       9.824  15.806  13.985  1.00  0.00     0.000 C 
BRANCH   2   3
ATOM      3  C   UNL     1      10.324  15.181  12.669  1.00  0.00     0.000 C 
BRANCH   3   4
ATOM      4  C   UNL     1       9.681  15.813  11.424  1.00  0.00     0.000 C 
BRANCH   4   5
ATOM      5  C   UNL     1       8.171  16.070  11.608  1.00  0.00     0.006 C 
BRANCH   5   6
ATOM      6  C   UNL     1       7.757  17.523  11.323  1.00  0.00     0.053 C 
BRANCH   6   7
ATOM      7  C   UNL     1       6.784  18.046  12.332  1.00  0.00     0.041 C 
ATOM      8  O   UNL     1       5.712  18.590  11.956  1.00  0.00    -0.550 OA
ATOM      9  O   UNL     1       7.074  17.960  13.688  1.00  0.00    -0.550 OA
ENDBRANCH   6   7
ENDBRANCH   5   6
ENDBRANCH   4   5
ENDBRANCH   3   4
ENDBRANCH   2   3
ENDBRANCH   1   2
BRANCH   1  10
ATOM     10  C   UNL     1      10.284  13.510  15.029  1.00  0.00     0.000 C 
BRANCH  10  11
ATOM     11  C   UNL     1      11.138  13.360  16.297  1.00  0.00    -0.000 C 
BRANCH  11  12
ATOM     12  C   UNL     1      12.477  14.113  16.208  1.00  0.00    -0.000 C 
BRANCH  12  13
ATOM     13  C   UNL     1      13.260  13.894  14.897  1.00  0.00    -0.000 C 
BRANCH  13  14
ATOM     14  C   UNL     1      13.630  15.179  14.131  1.00  0.00    -0.000 C 
BRANCH  14  15
ATOM     15  C   UNL     1      13.206  16.487  14.823  1.00  0.00    -0.003 C 
ATOM     16  C   UNL     1      14.237  17.604  14.665  1.00  0.00     0.004 C 
ENDBRANCH  14  15
ENDBRANCH  13  14
ENDBRANCH  12  13
ENDBRANCH  11  12
ENDBRANCH  10  11
ENDBRANCH   1  10
TORSDOF 12
ENDMDL
MODEL 9
REMARK VINA RESULT:    -4.364      2.390      4.955
REMARK INTER + INTRA:          -8.923
REMARK INTER:                  -7.236
REMARK INTRA:                  -1.687
REMARK UNBOUND:                -1.498
REMARK SMILES CCCCCCCCCCCCCC(=O)[O-]
REMARK SMILES IDX 8 1 9 2 10 3 11 4 12 5 13 6 14 7 15 8 16 9 7 10 6 11 5 12
REMARK SMILES IDX 4 13 3 14 2 15 1 16
REMARK H PARENT
REMARK Flexibility Score: inf
ROOT
ATOM      1  C   UNL     1      11.269  13.197  16.303  1.00  0.00     0.000 C 
ENDROOT
BRANCH   1   2
ATOM      2  C   UNL     1      12.512  14.093  16.161  1.00  0.00     0.000 C 
BRANCH   2   3
ATOM      3  C   UNL     1      13.268  13.948  14.827  1.00  0.00     0.000 C 
BRANCH   3   4
ATOM      4  C   UNL     1      13.670  15.302  14.217  1.00  0.00     0.000 C 
BRANCH   4   5
ATOM      5  C   UNL     1      13.133  16.496  15.032  1.00  0.00     0.006 C 
BRANCH   5   6
ATOM      6  C   UNL     1      13.348  17.855  14.345  1.00  0.00     0.053 C 
BRANCH   6   7
ATOM      7  C   UNL     1      12.100  18.372  13.702  1.00  0.00     0.041 C 
ATOM      8  O   UNL     1      11.205  18.916  14.402  1.00  0.00    -0.550 OA
ATOM      9  O   UNL     1      11.911  18.229  12.333  1.00  0.00    -0.550 OA
ENDBRANCH   6   7
ENDBRANCH   5   6
ENDBRANCH   4   5
ENDBRANCH   3   4
ENDBRANCH   2   3
ENDBRANCH   1   2
BRANCH   1  10
ATOM     10  C   UNL     1      10.258  13.389  15.163  1.00  0.00     0.000 C 
BRANCH  10  11
ATOM     11  C   UNL     1       9.361  14.607  15.424  1.00  0.00    -0.000 C 
BRANCH  11  12
ATOM     12  C   UNL     1       9.541  15.719  14.375  1.00  0.00    -0.000 C 
BRANCH  12  13
ATOM     13  C   UNL     1      10.204  15.268  13.057  1.00  0.00    -0.000 C 
BRANCH  13  14
ATOM     14  C   UNL     1       9.454  15.676  11.773  1.00  0.00    -0.000 C 
BRANCH  14  15
ATOM     15  C   UNL     1       8.195  16.530  12.005  1.00  0.00    -0.003 C 
ATOM     16  C   UNL     1       7.402  16.779  10.722  1.00  0.00     0.004 C 
ENDBRANCH  14  15
ENDBRANCH  13  14
ENDBRANCH  12  13
ENDBRANCH  11  12
ENDBRANCH  10  11
ENDBRANCH   1  10
TORSDOF 12
ENDMDL
