MODEL 1
REMARK VINA RESULT:    -4.583      0.000      0.000
REMARK INTER + INTRA:         -10.958
REMARK INTER:                  -8.870
REMARK INTRA:                  -2.088
REMARK UNBOUND:                -2.088
REMARK SMILES CCCCCCCCCCCCCCCCCC(=O)[O-]
REMARK SMILES IDX 10 1 11 2 12 3 13 4 14 5 15 6 16 7 17 8 18 9 19 10 20 11
REMARK SMILES IDX 9 12 8 13 7 14 6 15 5 16 4 17 3 18 2 19 1 20
REMARK H PARENT
REMARK Flexibility Score: inf
ROOT
ATOM      1  C   UNL     1     -26.819 -11.815  16.624  1.00  0.00     0.000 C 
ENDROOT
BRANCH   1   2
ATOM      2  C   UNL     1     -27.487 -10.780  17.543  1.00  0.00     0.000 C 
BRANCH   2   3
ATOM      3  C   UNL     1     -29.019 -10.776  17.416  1.00  0.00     0.000 C 
BRANCH   3   4
ATOM      4  C   UNL     1     -29.566 -12.061  16.770  1.00  0.00     0.000 C 
BRANCH   4   5
ATOM      5  C   UNL     1     -30.465 -12.892  17.710  1.00  0.00     0.000 C 
BRANCH   5   6
ATOM      6  C   UNL     1     -30.503 -14.378  17.312  1.00  0.00     0.000 C 
BRANCH   6   7
ATOM      7  C   UNL     1     -30.604 -14.587  15.792  1.00  0.00     0.006 C 
BRANCH   7   8
ATOM      8  C   UNL     1     -31.642 -15.638  15.366  1.00  0.00     0.053 C 
BRANCH   8   9
ATOM      9  C   UNL     1     -33.029 -15.074  15.335  1.00  0.00     0.041 C 
ATOM     10  O   UNL     1     -34.021 -15.837  15.205  1.00  0.00    -0.550 OA
ATOM     11  O   UNL     1     -33.223 -13.701  15.423  1.00  0.00    -0.550 OA
ENDBRANCH   8   9
ENDBRANCH   7   8
ENDBRANCH   6   7
ENDBRANCH   5   6
ENDBRANCH   4   5
ENDBRANCH   3   4
ENDBRANCH   2   3
ENDBRANCH   1   2
BRANCH   1  12
ATOM     12  C   UNL     1     -25.473 -12.323  17.175  1.00  0.00     0.000 C 
BRANCH  12  13
ATOM     13  C   UNL     1     -25.649 -13.537  18.113  1.00  0.00    -0.000 C 
BRANCH  13  14
ATOM     14  C   UNL     1     -26.860 -14.416  17.759  1.00  0.00    -0.000 C 
BRANCH  14  15
ATOM     15  C   UNL     1     -26.468 -15.856  17.391  1.00  0.00    -0.000 C 
BRANCH  15  16
ATOM     16  C   UNL     1     -27.699 -16.749  17.127  1.00  0.00    -0.000 C 
BRANCH  16  17
ATOM     17  C   UNL     1     -27.587 -17.597  15.845  1.00  0.00    -0.000 C 
BRANCH  17  18
ATOM     18  C   UNL     1     -28.927 -18.112  15.294  1.00  0.00    -0.000 C 
BRANCH  18  19
ATOM     19  C   UNL     1     -28.856 -18.475  13.804  1.00  0.00    -0.003 C 
ATOM     20  C   UNL     1     -29.372 -17.332  12.936  1.00  0.00     0.004 C 
ENDBRANCH  18  19
ENDBRANCH  17  18
ENDBRANCH  16  17
ENDBRANCH  15  16
ENDBRANCH  14  15
ENDBRANCH  13  14
ENDBRANCH  12  13
ENDBRANCH   1  12
TORSDOF 16
ENDMDL
MODEL 2
REMARK VINA RESULT:    -4.525      1.781      4.513
REMARK INTER + INTRA:         -10.845
REMARK INTER:                  -8.928
REMARK INTRA:                  -1.918
REMARK UNBOUND:                -2.088
REMARK SMILES CCCCCCCCCCCCCCCCCC(=O)[O-]
REMARK SMILES IDX 10 1 11 2 12 3 13 4 14 5 15 6 16 7 17 8 18 9 19 10 20 11
REMARK SMILES IDX 9 12 8 13 7 14 6 15 5 16 4 17 3 18 2 19 1 20
REMARK H PARENT
REMARK Flexibility Score: inf
ROOT
ATOM      1  C   UNL     1     -27.002 -11.779  16.637  1.00  0.00     0.000 C 
ENDROOT
BRANCH   1   2
ATOM      2  C   UNL     1     -25.641 -12.049  17.299  1.00  0.00     0.000 C 
BRANCH   2   3
ATOM      3  C   UNL     1     -25.627 -13.353  18.113  1.00  0.00     0.000 C 
BRANCH   3   4
ATOM      4  C   UNL     1     -26.673 -14.370  17.627  1.00  0.00     0.000 C 
BRANCH   4   5
ATOM      5  C   UNL     1     -26.075 -15.741  17.249  1.00  0.00     0.000 C 
BRANCH   5   6
ATOM      6  C   UNL     1     -27.163 -16.801  17.004  1.00  0.00     0.000 C 
BRANCH   6   7
ATOM      7  C   UNL     1     -28.516 -16.187  16.603  1.00  0.00     0.006 C 
BRANCH   7   8
ATOM      8  C   UNL     1     -29.370 -17.083  15.691  1.00  0.00     0.053 C 
BRANCH   8   9
ATOM      9  C   UNL     1     -29.621 -16.446  14.358  1.00  0.00     0.041 C 
ATOM     10  O   UNL     1     -30.288 -15.382  14.278  1.00  0.00    -0.550 OA
ATOM     11  O   UNL     1     -29.141 -17.046  13.200  1.00  0.00    -0.550 OA
ENDBRANCH   8   9
ENDBRANCH   7   8
ENDBRANCH   6   7
ENDBRANCH   5   6
ENDBRANCH   4   5
ENDBRANCH   3   4
ENDBRANCH   2   3
ENDBRANCH   1   2
BRANCH   1  12
ATOM     12  C   UNL     1     -27.786 -10.645  17.324  1.00  0.00     0.000 C 
BRANCH  12  13
ATOM     13  C   UNL     1     -29.276 -10.999  17.514  1.00  0.00    -0.000 C 
BRANCH  13  14
ATOM     14  C   UNL     1     -29.708 -12.266  16.757  1.00  0.00    -0.000 C 
BRANCH  14  15
ATOM     15  C   UNL     1     -30.220 -13.376  17.689  1.00  0.00    -0.000 C 
BRANCH  15  16
ATOM     16  C   UNL     1     -31.747 -13.572  17.582  1.00  0.00    -0.000 C 
BRANCH  16  17
ATOM     17  C   UNL     1     -32.165 -15.016  17.243  1.00  0.00    -0.000 C 
BRANCH  17  18
ATOM     18  C   UNL     1     -33.164 -15.141  16.081  1.00  0.00    -0.000 C 
BRANCH  18  19
ATOM     19  C   UNL     1     -33.590 -13.779  15.515  1.00  0.00    -0.003 C 
ATOM     20  C   UNL     1     -35.101 -13.591  15.618  1.00  0.00     0.004 C 
ENDBRANCH  18  19
ENDBRANCH  17  18
ENDBRANCH  16  17
ENDBRANCH  15  16
ENDBRANCH  14  15
ENDBRANCH  13  14
ENDBRANCH  12  13
ENDBRANCH   1  12
TORSDOF 16
ENDMDL
MODEL 3
REMARK VINA RESULT:    -4.441      1.632      3.396
REMARK INTER + INTRA:         -10.682
REMARK INTER:                  -9.350
REMARK INTRA:                  -1.331
REMARK UNBOUND:                -2.088
REMARK SMILES CCCCCCCCCCCCCCCCCC(=O)[O-]
REMARK SMILES IDX 10 1 11 2 12 3 13 4 14 5 15 6 16 7 17 8 18 9 19 10 20 11
REMARK SMILES IDX 9 12 8 13 7 14 6 15 5 16 4 17 3 18 2 19 1 20
REMARK H PARENT
REMARK Flexibility Score: inf
ROOT
ATOM      1  C   UNL     1     -26.676 -14.216  17.839  1.00  0.00     0.000 C 
ENDROOT
BRANCH   1   2
ATOM      2  C   UNL     1     -25.364 -13.417  17.812  1.00  0.00     0.000 C 
BRANCH   2   3
ATOM      3  C   UNL     1     -25.569 -11.954  17.387  1.00  0.00     0.000 C 
BRANCH   3   4
ATOM      4  C   UNL     1     -26.934 -11.714  16.719  1.00  0.00     0.000 C 
BRANCH   4   5
ATOM      5  C   UNL     1     -27.745 -10.570  17.362  1.00  0.00     0.000 C 
BRANCH   5   6
ATOM      6  C   UNL     1     -29.225 -10.945  17.556  1.00  0.00     0.000 C 
BRANCH   6   7
ATOM      7  C   UNL     1     -29.637 -12.187  16.745  1.00  0.00     0.006 C 
BRANCH   7   8
ATOM      8  C   UNL     1     -30.445 -13.223  17.544  1.00  0.00     0.053 C 
BRANCH   8   9
ATOM      9  C   UNL     1     -30.800 -14.417  16.712  1.00  0.00     0.041 C 
ATOM     10  O   UNL     1     -31.450 -15.370  17.215  1.00  0.00    -0.550 OA
ATOM     11  O   UNL     1     -30.388 -14.488  15.388  1.00  0.00    -0.550 OA
ENDBRANCH   8   9
ENDBRANCH   7   8
ENDBRANCH   6   7
ENDBRANCH   5   6
ENDBRANCH   4   5
ENDBRANCH   3   4
ENDBRANCH   2   3
ENDBRANCH   1   2
BRANCH   1  12
ATOM     12  C   UNL     1     -26.498 -15.675  17.377  1.00  0.00     0.000 C 
BRANCH  12  13
ATOM     13  C   UNL     1     -27.850 -16.384  17.151  1.00  0.00    -0.000 C 
BRANCH  13  14
ATOM     14  C   UNL     1     -27.753 -17.616  16.237  1.00  0.00    -0.000 C 
BRANCH  14  15
ATOM     15  C   UNL     1     -28.555 -17.461  14.935  1.00  0.00    -0.000 C 
BRANCH  15  16
ATOM     16  C   UNL     1     -28.283 -18.609  13.939  1.00  0.00    -0.000 C 
BRANCH  16  17
ATOM     17  C   UNL     1     -27.585 -18.154  12.643  1.00  0.00    -0.000 C 
BRANCH  17  18
ATOM     18  C   UNL     1     -27.456 -19.242  11.565  1.00  0.00    -0.000 C 
BRANCH  18  19
ATOM     19  C   UNL     1     -27.532 -18.678  10.139  1.00  0.00    -0.003 C 
ATOM     20  C   UNL     1     -28.364 -17.399  10.100  1.00  0.00     0.004 C 
ENDBRANCH  18  19
ENDBRANCH  17  18
ENDBRANCH  16  17
ENDBRANCH  15  16
ENDBRANCH  14  15
ENDBRANCH  13  14
ENDBRANCH  12  13
ENDBRANCH   1  12
TORSDOF 16
ENDMDL
MODEL 4
REMARK VINA RESULT:    -4.436      1.013      2.148
REMARK INTER + INTRA:         -10.673
REMARK INTER:                  -9.148
REMARK INTRA:                  -1.526
REMARK UNBOUND:                -2.088
REMARK SMILES CCCCCCCCCCCCCCCCCC(=O)[O-]
REMARK SMILES IDX 10 1 11 2 12 3 13 4 14 5 15 6 16 7 17 8 18 9 19 10 20 11
REMARK SMILES IDX 9 12 8 13 7 14 6 15 5 16 4 17 3 18 2 19 1 20
REMARK H PARENT
REMARK Flexibility Score: inf
ROOT
ATOM      1  C   UNL     1     -25.249 -13.174  17.464  1.00  0.00     0.000 C 
ENDROOT
BRANCH   1   2
ATOM      2  C   UNL     1     -25.650 -11.694  17.351  1.00  0.00     0.000 C 
BRANCH   2   3
ATOM      3  C   UNL     1     -26.993 -11.497  16.632  1.00  0.00     0.000 C 
BRANCH   3   4
ATOM      4  C   UNL     1     -27.896 -10.464  17.328  1.00  0.00     0.000 C 
BRANCH   4   5
ATOM      5  C   UNL     1     -29.293 -11.008  17.693  1.00  0.00     0.000 C 
BRANCH   5   6
ATOM      6  C   UNL     1     -29.738 -12.140  16.751  1.00  0.00     0.000 C 
BRANCH   6   7
ATOM      7  C   UNL     1     -30.155 -13.415  17.505  1.00  0.00     0.006 C 
BRANCH   7   8
ATOM      8  C   UNL     1     -31.650 -13.758  17.386  1.00  0.00     0.053 C 
BRANCH   8   9
ATOM      9  C   UNL     1     -32.023 -14.156  15.991  1.00  0.00     0.041 C 
ATOM     10  O   UNL     1     -33.065 -13.695  15.457  1.00  0.00    -0.550 OA
ATOM     11  O   UNL     1     -31.233 -15.059  15.291  1.00  0.00    -0.550 OA
ENDBRANCH   8   9
ENDBRANCH   7   8
ENDBRANCH   6   7
ENDBRANCH   5   6
ENDBRANCH   4   5
ENDBRANCH   3   4
ENDBRANCH   2   3
ENDBRANCH   1   2
BRANCH   1  12
ATOM     12  C   UNL     1     -26.389 -14.064  17.994  1.00  0.00     0.000 C 
BRANCH  12  13
ATOM     13  C   UNL     1     -26.306 -15.505  17.447  1.00  0.00    -0.000 C 
BRANCH  13  14
ATOM     14  C   UNL     1     -27.678 -16.178  17.277  1.00  0.00    -0.000 C 
BRANCH  14  15
ATOM     15  C   UNL     1     -27.655 -17.339  16.270  1.00  0.00    -0.000 C 
BRANCH  15  16
ATOM     16  C   UNL     1     -28.979 -18.132  16.262  1.00  0.00    -0.000 C 
BRANCH  16  17
ATOM     17  C   UNL     1     -29.345 -18.714  14.882  1.00  0.00    -0.000 C 
BRANCH  17  18
ATOM     18  C   UNL     1     -29.327 -17.697  13.729  1.00  0.00    -0.000 C 
BRANCH  18  19
ATOM     19  C   UNL     1     -28.300 -18.050  12.643  1.00  0.00    -0.003 C 
ATOM     20  C   UNL     1     -28.415 -17.102  11.453  1.00  0.00     0.004 C 
ENDBRANCH  18  19
ENDBRANCH  17  18
ENDBRANCH  16  17
ENDBRANCH  15  16
ENDBRANCH  14  15
ENDBRANCH  13  14
ENDBRANCH  12  13
ENDBRANCH   1  12
TORSDOF 16
ENDMDL
MODEL 5
REMARK VINA RESULT:    -4.303      2.321      4.560
REMARK INTER + INTRA:         -10.415
REMARK INTER:                  -7.887
REMARK INTRA:                  -2.528
REMARK UNBOUND:                -2.088
REMARK SMILES CCCCCCCCCCCCCCCCCC(=O)[O-]
REMARK SMILES IDX 10 1 11 2 12 3 13 4 14 5 15 6 16 7 17 8 18 9 19 10 20 11
REMARK SMILES IDX 9 12 8 13 7 14 6 15 5 16 4 17 3 18 2 19 1 20
REMARK H PARENT
REMARK Flexibility Score: inf
ROOT
ATOM      1  C   UNL     1     -25.981 -13.113  16.974  1.00  0.00     0.000 C 
ENDROOT
BRANCH   1   2
ATOM      2  C   UNL     1     -26.479 -14.002  18.125  1.00  0.00     0.000 C 
BRANCH   2   3
ATOM      3  C   UNL     1     -26.683 -15.465  17.698  1.00  0.00     0.000 C 
BRANCH   3   4
ATOM      4  C   UNL     1     -27.953 -15.666  16.853  1.00  0.00     0.000 C 
BRANCH   4   5
ATOM      5  C   UNL     1     -28.872 -16.791  17.374  1.00  0.00     0.000 C 
BRANCH   5   6
ATOM      6  C   UNL     1     -29.834 -17.303  16.288  1.00  0.00     0.000 C 
BRANCH   6   7
ATOM      7  C   UNL     1     -29.964 -16.335  15.100  1.00  0.00     0.006 C 
BRANCH   7   8
ATOM      8  C   UNL     1     -30.302 -17.017  13.763  1.00  0.00     0.053 C 
BRANCH   8   9
ATOM      9  C   UNL     1     -29.084 -17.588  13.104  1.00  0.00     0.041 C 
ATOM     10  O   UNL     1     -28.556 -16.998  12.126  1.00  0.00    -0.550 OA
ATOM     11  O   UNL     1     -28.550 -18.789  13.553  1.00  0.00    -0.550 OA
ENDBRANCH   8   9
ENDBRANCH   7   8
ENDBRANCH   6   7
ENDBRANCH   5   6
ENDBRANCH   4   5
ENDBRANCH   3   4
ENDBRANCH   2   3
ENDBRANCH   1   2
BRANCH   1  12
ATOM     12  C   UNL     1     -26.685 -11.744  16.930  1.00  0.00     0.000 C 
BRANCH  12  13
ATOM     13  C   UNL     1     -27.976 -11.725  17.777  1.00  0.00    -0.000 C 
BRANCH  13  14
ATOM     14  C   UNL     1     -29.245 -11.445  16.955  1.00  0.00    -0.000 C 
BRANCH  14  15
ATOM     15  C   UNL     1     -29.989 -12.727  16.546  1.00  0.00    -0.000 C 
BRANCH  15  16
ATOM     16  C   UNL     1     -30.607 -13.457  17.758  1.00  0.00    -0.000 C 
BRANCH  16  17
ATOM     17  C   UNL     1     -31.968 -14.113  17.459  1.00  0.00    -0.000 C 
BRANCH  17  18
ATOM     18  C   UNL     1     -32.531 -13.820  16.058  1.00  0.00    -0.000 C 
BRANCH  18  19
ATOM     19  C   UNL     1     -33.277 -15.019  15.455  1.00  0.00    -0.003 C 
ATOM     20  C   UNL     1     -33.658 -16.027  16.535  1.00  0.00     0.004 C 
ENDBRANCH  18  19
ENDBRANCH  17  18
ENDBRANCH  16  17
ENDBRANCH  15  16
ENDBRANCH  14  15
ENDBRANCH  13  14
ENDBRANCH  12  13
ENDBRANCH   1  12
TORSDOF 16
ENDMDL
MODEL 6
REMARK VINA RESULT:    -4.287      1.686      2.657
REMARK INTER + INTRA:         -10.385
REMARK INTER:                  -8.268
REMARK INTRA:                  -2.117
REMARK UNBOUND:                -2.088
REMARK SMILES CCCCCCCCCCCCCCCCCC(=O)[O-]
REMARK SMILES IDX 10 1 11 2 12 3 13 4 14 5 15 6 16 7 17 8 18 9 19 10 20 11
REMARK SMILES IDX 9 12 8 13 7 14 6 15 5 16 4 17 3 18 2 19 1 20
REMARK H PARENT
REMARK Flexibility Score: inf
ROOT
ATOM      1  C   UNL     1     -27.551 -10.571  17.389  1.00  0.00     0.000 C 
ENDROOT
BRANCH   1   2
ATOM      2  C   UNL     1     -29.054 -10.838  17.568  1.00  0.00     0.000 C 
BRANCH   2   3
ATOM      3  C   UNL     1     -29.545 -12.040  16.745  1.00  0.00     0.000 C 
BRANCH   3   4
ATOM      4  C   UNL     1     -30.433 -12.997  17.559  1.00  0.00     0.000 C 
BRANCH   4   5
ATOM      5  C   UNL     1     -30.600 -14.388  16.913  1.00  0.00     0.000 C 
BRANCH   5   6
ATOM      6  C   UNL     1     -29.766 -14.534  15.628  1.00  0.00     0.000 C 
BRANCH   6   7
ATOM      7  C   UNL     1     -30.399 -15.500  14.611  1.00  0.00     0.006 C 
BRANCH   7   8
ATOM      8  C   UNL     1     -29.945 -16.961  14.760  1.00  0.00     0.053 C 
BRANCH   8   9
ATOM      9  C   UNL     1     -31.036 -17.833  15.302  1.00  0.00     0.041 C 
ATOM     10  O   UNL     1     -30.925 -18.353  16.443  1.00  0.00    -0.550 OA
ATOM     11  O   UNL     1     -32.163 -18.094  14.533  1.00  0.00    -0.550 OA
ENDBRANCH   8   9
ENDBRANCH   7   8
ENDBRANCH   6   7
ENDBRANCH   5   6
ENDBRANCH   4   5
ENDBRANCH   3   4
ENDBRANCH   2   3
ENDBRANCH   1   2
BRANCH   1  12
ATOM     12  C   UNL     1     -26.837 -11.681  16.596  1.00  0.00     0.000 C 
BRANCH  12  13
ATOM     13  C   UNL     1     -25.494 -12.085  17.241  1.00  0.00    -0.000 C 
BRANCH  13  14
ATOM     14  C   UNL     1     -25.588 -13.343  18.120  1.00  0.00    -0.000 C 
BRANCH  14  15
ATOM     15  C   UNL     1     -26.993 -13.966  18.125  1.00  0.00    -0.000 C 
BRANCH  15  16
ATOM     16  C   UNL     1     -26.949 -15.509  18.081  1.00  0.00    -0.000 C 
BRANCH  16  17
ATOM     17  C   UNL     1     -25.963 -16.072  17.040  1.00  0.00    -0.000 C 
BRANCH  17  18
ATOM     18  C   UNL     1     -26.003 -17.600  16.876  1.00  0.00    -0.000 C 
BRANCH  18  19
ATOM     19  C   UNL     1     -27.405 -18.185  17.103  1.00  0.00    -0.003 C 
ATOM     20  C   UNL     1     -27.522 -19.580  16.495  1.00  0.00     0.004 C 
ENDBRANCH  18  19
ENDBRANCH  17  18
ENDBRANCH  16  17
ENDBRANCH  15  16
ENDBRANCH  14  15
ENDBRANCH  13  14
ENDBRANCH  12  13
ENDBRANCH   1  12
TORSDOF 16
ENDMDL
MODEL 7
REMARK VINA RESULT:    -4.259      3.202      6.618
REMARK INTER + INTRA:         -10.331
REMARK INTER:                  -8.615
REMARK INTRA:                  -1.716
REMARK UNBOUND:                -2.088
REMARK SMILES CCCCCCCCCCCCCCCCCC(=O)[O-]
REMARK SMILES IDX 10 1 11 2 12 3 13 4 14 5 15 6 16 7 17 8 18 9 19 10 20 11
REMARK SMILES IDX 9 12 8 13 7 14 6 15 5 16 4 17 3 18 2 19 1 20
REMARK H PARENT
REMARK Flexibility Score: inf
ROOT
ATOM      1  C   UNL     1     -32.650 -16.018  16.952  1.00  0.00     0.000 C 
ENDROOT
BRANCH   1   2
ATOM      2  C   UNL     1     -31.790 -17.259  17.245  1.00  0.00     0.000 C 
BRANCH   2   3
ATOM      3  C   UNL     1     -31.712 -18.221  16.049  1.00  0.00     0.000 C 
BRANCH   3   4
ATOM      4  C   UNL     1     -32.225 -17.591  14.743  1.00  0.00     0.000 C 
BRANCH   4   5
ATOM      5  C   UNL     1     -31.175 -17.569  13.612  1.00  0.00     0.000 C 
BRANCH   5   6
ATOM      6  C   UNL     1     -29.794 -17.112  14.112  1.00  0.00     0.000 C 
BRANCH   6   7
ATOM      7  C   UNL     1     -28.637 -17.901  13.476  1.00  0.00     0.006 C 
BRANCH   7   8
ATOM      8  C   UNL     1     -28.465 -17.663  11.966  1.00  0.00     0.053 C 
BRANCH   8   9
ATOM      9  C   UNL     1     -27.380 -18.518  11.386  1.00  0.00     0.041 C 
ATOM     10  O   UNL     1     -26.450 -18.946  12.116  1.00  0.00    -0.550 OA
ATOM     11  O   UNL     1     -27.383 -18.817  10.029  1.00  0.00    -0.550 OA
ENDBRANCH   8   9
ENDBRANCH   7   8
ENDBRANCH   6   7
ENDBRANCH   5   6
ENDBRANCH   4   5
ENDBRANCH   3   4
ENDBRANCH   2   3
ENDBRANCH   1   2
BRANCH   1  12
ATOM     12  C   UNL     1     -31.878 -14.699  17.135  1.00  0.00     0.000 C 
BRANCH  12  13
ATOM     13  C   UNL     1     -30.448 -14.930  17.668  1.00  0.00    -0.000 C 
BRANCH  13  14
ATOM     14  C   UNL     1     -29.361 -14.224  16.840  1.00  0.00    -0.000 C 
BRANCH  14  15
ATOM     15  C   UNL     1     -29.824 -12.873  16.272  1.00  0.00    -0.000 C 
BRANCH  15  16
ATOM     16  C   UNL     1     -29.352 -11.683  17.134  1.00  0.00    -0.000 C 
BRANCH  16  17
ATOM     17  C   UNL     1     -27.976 -11.902  17.793  1.00  0.00    -0.000 C 
BRANCH  17  18
ATOM     18  C   UNL     1     -26.779 -11.407  16.965  1.00  0.00    -0.000 C 
BRANCH  18  19
ATOM     19  C   UNL     1     -25.519 -12.260  17.173  1.00  0.00    -0.003 C 
ATOM     20  C   UNL     1     -25.864 -13.596  17.825  1.00  0.00     0.004 C 
ENDBRANCH  18  19
ENDBRANCH  17  18
ENDBRANCH  16  17
ENDBRANCH  15  16
ENDBRANCH  14  15
ENDBRANCH  13  14
ENDBRANCH  12  13
ENDBRANCH   1  12
TORSDOF 16
ENDMDL
MODEL 8
REMARK VINA RESULT:    -4.249      2.898      5.527
REMARK INTER + INTRA:         -10.312
REMARK INTER:                  -8.134
REMARK INTRA:                  -2.178
REMARK UNBOUND:                -2.088
REMARK SMILES CCCCCCCCCCCCCCCCCC(=O)[O-]
REMARK SMILES IDX 10 1 11 2 12 3 13 4 14 5 15 6 16 7 17 8 18 9 19 10 20 11
REMARK SMILES IDX 9 12 8 13 7 14 6 15 5 16 4 17 3 18 2 19 1 20
REMARK H PARENT
REMARK Flexibility Score: inf
ROOT
ATOM      1  C   UNL     1     -26.153 -15.304  17.403  1.00  0.00     0.000 C 
ENDROOT
BRANCH   1   2
ATOM      2  C   UNL     1     -26.891 -16.442  18.125  1.00  0.00     0.000 C 
BRANCH   2   3
ATOM      3  C   UNL     1     -26.769 -17.787  17.392  1.00  0.00     0.000 C 
BRANCH   3   4
ATOM      4  C   UNL     1     -27.404 -17.762  15.990  1.00  0.00     0.000 C 
BRANCH   4   5
ATOM      5  C   UNL     1     -28.528 -18.802  15.801  1.00  0.00     0.000 C 
BRANCH   5   6
ATOM      6  C   UNL     1     -29.455 -18.446  14.626  1.00  0.00     0.000 C 
BRANCH   6   7
ATOM      7  C   UNL     1     -28.874 -17.347  13.719  1.00  0.00     0.006 C 
BRANCH   7   8
ATOM      8  C   UNL     1     -28.832 -17.717  12.227  1.00  0.00     0.053 C 
BRANCH   8   9
ATOM      9  C   UNL     1     -27.568 -18.435  11.864  1.00  0.00     0.041 C 
ATOM     10  O   UNL     1     -26.613 -18.490  12.682  1.00  0.00    -0.550 OA
ATOM     11  O   UNL     1     -27.435 -19.018  10.611  1.00  0.00    -0.550 OA
ENDBRANCH   8   9
ENDBRANCH   7   8
ENDBRANCH   6   7
ENDBRANCH   5   6
ENDBRANCH   4   5
ENDBRANCH   3   4
ENDBRANCH   2   3
ENDBRANCH   1   2
BRANCH   1  12
ATOM     12  C   UNL     1     -26.338 -13.939  18.092  1.00  0.00     0.000 C 
BRANCH  12  13
ATOM     13  C   UNL     1     -25.605 -12.805  17.345  1.00  0.00    -0.000 C 
BRANCH  13  14
ATOM     14  C   UNL     1     -26.536 -11.671  16.884  1.00  0.00    -0.000 C 
BRANCH  14  15
ATOM     15  C   UNL     1     -27.751 -11.481  17.807  1.00  0.00    -0.000 C 
BRANCH  15  16
ATOM     16  C   UNL     1     -29.087 -11.568  17.040  1.00  0.00    -0.000 C 
BRANCH  16  17
ATOM     17  C   UNL     1     -29.956 -12.775  17.443  1.00  0.00    -0.000 C 
BRANCH  17  18
ATOM     18  C   UNL     1     -30.433 -13.646  16.268  1.00  0.00    -0.000 C 
BRANCH  18  19
ATOM     19  C   UNL     1     -29.917 -15.090  16.352  1.00  0.00    -0.003 C 
ATOM     20  C   UNL     1     -30.459 -15.794  17.593  1.00  0.00     0.004 C 
ENDBRANCH  18  19
ENDBRANCH  17  18
ENDBRANCH  16  17
ENDBRANCH  15  16
ENDBRANCH  14  15
ENDBRANCH  13  14
ENDBRANCH  12  13
ENDBRANCH   1  12
TORSDOF 16
ENDMDL
MODEL 9
REMARK VINA RESULT:    -4.215      1.455      3.791
REMARK INTER + INTRA:         -10.245
REMARK INTER:                  -8.311
REMARK INTRA:                  -1.934
REMARK UNBOUND:                -2.088
REMARK SMILES CCCCCCCCCCCCCCCCCC(=O)[O-]
REMARK SMILES IDX 10 1 11 2 12 3 13 4 14 5 15 6 16 7 17 8 18 9 19 10 20 11
REMARK SMILES IDX 9 12 8 13 7 14 6 15 5 16 4 17 3 18 2 19 1 20
REMARK H PARENT
REMARK Flexibility Score: inf
ROOT
ATOM      1  C   UNL     1     -26.706 -16.313  17.767  1.00  0.00     0.000 C 
ENDROOT
BRANCH   1   2
ATOM      2  C   UNL     1     -25.853 -15.090  17.396  1.00  0.00     0.000 C 
BRANCH   2   3
ATOM      3  C   UNL     1     -26.338 -13.800  18.077  1.00  0.00     0.000 C 
BRANCH   3   4
ATOM      4  C   UNL     1     -25.837 -12.529  17.371  1.00  0.00     0.000 C 
BRANCH   4   5
ATOM      5  C   UNL     1     -26.956 -11.724  16.677  1.00  0.00     0.000 C 
BRANCH   5   6
ATOM      6  C   UNL     1     -28.255 -11.709  17.500  1.00  0.00     0.000 C 
BRANCH   6   7
ATOM      7  C   UNL     1     -29.446 -12.328  16.749  1.00  0.00     0.006 C 
BRANCH   7   8
ATOM      8  C   UNL     1     -30.485 -13.004  17.659  1.00  0.00     0.053 C 
BRANCH   8   9
ATOM      9  C   UNL     1     -31.538 -13.720  16.869  1.00  0.00     0.041 C 
ATOM     10  O   UNL     1     -31.309 -14.081  15.686  1.00  0.00    -0.550 OA
ATOM     11  O   UNL     1     -32.784 -13.962  17.434  1.00  0.00    -0.550 OA
ENDBRANCH   8   9
ENDBRANCH   7   8
ENDBRANCH   6   7
ENDBRANCH   5   6
ENDBRANCH   4   5
ENDBRANCH   3   4
ENDBRANCH   2   3
ENDBRANCH   1   2
BRANCH   1  12
ATOM     12  C   UNL     1     -28.218 -16.042  17.665  1.00  0.00     0.000 C 
BRANCH  12  13
ATOM     13  C   UNL     1     -28.759 -16.290  16.241  1.00  0.00    -0.000 C 
BRANCH  13  14
ATOM     14  C   UNL     1     -29.143 -17.756  15.976  1.00  0.00    -0.000 C 
BRANCH  14  15
ATOM     15  C   UNL     1     -29.952 -17.939  14.682  1.00  0.00    -0.000 C 
BRANCH  15  16
ATOM     16  C   UNL     1     -29.629 -16.855  13.632  1.00  0.00    -0.000 C 
BRANCH  16  17
ATOM     17  C   UNL     1     -28.859 -17.386  12.407  1.00  0.00    -0.000 C 
BRANCH  17  18
ATOM     18  C   UNL     1     -28.172 -18.745  12.619  1.00  0.00    -0.000 C 
BRANCH  18  19
ATOM     19  C   UNL     1     -26.715 -18.608  13.084  1.00  0.00    -0.003 C 
ATOM     20  C   UNL     1     -26.385 -19.636  14.162  1.00  0.00     0.004 C 
ENDBRANCH  18  19
ENDBRANCH  17  18
ENDBRANCH  16  17
ENDBRANCH  15  16
ENDBRANCH  14  15
ENDBRANCH  13  14
ENDBRANCH  12  13
ENDBRANCH   1  12
TORSDOF 16
ENDMDL
