MODEL 1
REMARK VINA RESULT:    -3.779      0.000      0.000
REMARK INTER + INTRA:          -4.815
REMARK INTER:                  -4.552
REMARK INTRA:                  -0.263
REMARK UNBOUND:                -0.263
REMARK SMILES O=c1c(O)c(-c2ccc(O)c(O)c2)oc2cc(O)cc(O)c12
REMARK SMILES IDX 5 1 3 2 2 3 1 4 22 5 20 6 19 7 17 8 16 9 15 10 14 11 6 12
REMARK SMILES IDX 7 13 8 14 9 15 13 16 11 17 10 18 12 20 4 22 21 24 18 26
REMARK H PARENT 10 19 12 21 4 23 21 25 18 27
REMARK Flexibility Score: inf
ROOT
ATOM      1  C   UNL     1      22.058  53.151  51.922  1.00  0.00     0.180 A 
ATOM      2  C   UNL     1      22.797  54.266  52.352  1.00  0.00     0.208 A 
ATOM      3  C   UNL     1      22.381  54.959  53.500  1.00  0.00     0.238 A 
ATOM      4  O   UNL     1      23.016  55.988  53.848  1.00  0.00    -0.285 OA
ATOM      5  C   UNL     1      21.240  54.518  54.214  1.00  0.00     0.111 A 
ATOM      6  C   UNL     1      20.752  55.121  55.412  1.00  0.00     0.134 A 
ATOM      7  C   UNL     1      19.540  54.683  55.960  1.00  0.00     0.093 A 
ATOM      8  C   UNL     1      18.833  53.622  55.390  1.00  0.00     0.123 A 
ATOM      9  C   UNL     1      19.332  52.990  54.254  1.00  0.00     0.094 A 
ATOM     10  C   UNL     1      20.519  53.427  53.663  1.00  0.00     0.146 A 
ATOM     11  O   UNL     1      20.954  52.803  52.575  1.00  0.00    -0.452 OA
ENDROOT
BRANCH   1  12
ATOM     12  C   UNL     1      22.448  52.355  50.736  1.00  0.00     0.025 A 
ATOM     13  C   UNL     1      22.235  52.835  49.431  1.00  0.00     0.016 A 
ATOM     14  C   UNL     1      22.632  52.077  48.327  1.00  0.00     0.051 A 
ATOM     15  C   UNL     1      23.259  50.838  48.509  1.00  0.00     0.157 A 
ATOM     16  C   UNL     1      23.095  51.122  50.913  1.00  0.00     0.062 A 
ATOM     17  C   UNL     1      23.493  50.361  49.804  1.00  0.00     0.158 A 
BRANCH  15  18
ATOM     18  O   UNL     1      23.655  50.078  47.410  1.00  0.00    -0.504 OA
ATOM     19  H   UNL     1      23.487  50.391  46.461  1.00  0.00     0.293 HD
ENDBRANCH  15  18
BRANCH  17  20
ATOM     20  O   UNL     1      24.125  49.130  49.983  1.00  0.00    -0.504 OA
ATOM     21  H   UNL     1      24.022  48.602  50.842  1.00  0.00     0.293 HD
ENDBRANCH  17  20
ENDBRANCH   1  12
BRANCH   2  22
ATOM     22  O   UNL     1      23.908  54.697  51.620  1.00  0.00    -0.502 OA
ATOM     23  H   UNL     1      24.315  55.616  51.742  1.00  0.00     0.293 HD
ENDBRANCH   2  22
BRANCH   6  24
ATOM     24  O   UNL     1      21.427  56.124  56.113  1.00  0.00    -0.507 OA
ATOM     25  H   UNL     1      21.207  57.108  56.063  1.00  0.00     0.293 HD
ENDBRANCH   6  24
BRANCH   8  26
ATOM     26  O   UNL     1      17.635  53.183  55.950  1.00  0.00    -0.508 OA
ATOM     27  H   UNL     1      16.924  53.835  56.260  1.00  0.00     0.293 HD
ENDBRANCH   8  26
TORSDOF 6
ENDMDL
MODEL 2
REMARK VINA RESULT:    -1.186      0.639      1.408
REMARK INTER + INTRA:          -1.692
REMARK INTER:                  -1.363
REMARK INTRA:                  -0.330
REMARK UNBOUND:                -0.263
REMARK SMILES O=c1c(O)c(-c2ccc(O)c(O)c2)oc2cc(O)cc(O)c12
REMARK SMILES IDX 5 1 3 2 2 3 1 4 22 5 20 6 19 7 17 8 16 9 15 10 14 11 6 12
REMARK SMILES IDX 7 13 8 14 9 15 13 16 11 17 10 18 12 20 4 22 21 24 18 26
REMARK H PARENT 10 19 12 21 4 23 21 25 18 27
REMARK Flexibility Score: inf
ROOT
ATOM      1  C   UNL     1      22.256  52.943  52.184  1.00  0.00     0.180 A 
ATOM      2  C   UNL     1      22.891  54.134  52.572  1.00  0.00     0.208 A 
ATOM      3  C   UNL     1      22.364  54.867  53.648  1.00  0.00     0.238 A 
ATOM      4  O   UNL     1      22.905  55.961  53.956  1.00  0.00    -0.285 OA
ATOM      5  C   UNL     1      21.220  54.390  54.333  1.00  0.00     0.111 A 
ATOM      6  C   UNL     1      20.626  55.031  55.462  1.00  0.00     0.134 A 
ATOM      7  C   UNL     1      19.420  54.540  55.977  1.00  0.00     0.093 A 
ATOM      8  C   UNL     1      18.822  53.396  55.447  1.00  0.00     0.123 A 
ATOM      9  C   UNL     1      19.426  52.730  54.383  1.00  0.00     0.094 A 
ATOM     10  C   UNL     1      20.610  53.215  53.823  1.00  0.00     0.146 A 
ATOM     11  O   UNL     1      21.146  52.556  52.803  1.00  0.00    -0.452 OA
ENDROOT
BRANCH   1  12
ATOM     12  C   UNL     1      22.766  52.103  51.075  1.00  0.00     0.025 A 
ATOM     13  C   UNL     1      23.676  51.057  51.309  1.00  0.00     0.016 A 
ATOM     14  C   UNL     1      24.125  50.262  50.251  1.00  0.00     0.051 A 
ATOM     15  C   UNL     1      23.662  50.491  48.949  1.00  0.00     0.157 A 
ATOM     16  C   UNL     1      22.289  52.315  49.771  1.00  0.00     0.062 A 
ATOM     17  C   UNL     1      22.740  51.517  48.710  1.00  0.00     0.158 A 
BRANCH  15  18
ATOM     18  O   UNL     1      24.109  49.702  47.891  1.00  0.00    -0.504 OA
ATOM     19  H   UNL     1      25.084  49.440  47.800  1.00  0.00     0.293 HD
ENDBRANCH  15  18
BRANCH  17  20
ATOM     20  O   UNL     1      22.274  51.738  47.414  1.00  0.00    -0.504 OA
ATOM     21  H   UNL     1      22.708  51.298  46.612  1.00  0.00     0.293 HD
ENDBRANCH  17  20
ENDBRANCH   1  12
BRANCH   2  22
ATOM     22  O   UNL     1      24.006  54.599  51.869  1.00  0.00    -0.502 OA
ATOM     23  H   UNL     1      24.435  54.072  51.119  1.00  0.00     0.293 HD
ENDBRANCH   2  22
BRANCH   6  24
ATOM     24  O   UNL     1      21.190  56.125  56.125  1.00  0.00    -0.507 OA
ATOM     25  H   UNL     1      21.635  56.907  55.668  1.00  0.00     0.293 HD
ENDBRANCH   6  24
BRANCH   8  26
ATOM     26  O   UNL     1      17.630  52.906  55.976  1.00  0.00    -0.508 OA
ATOM     27  H   UNL     1      16.934  53.524  56.376  1.00  0.00     0.293 HD
ENDBRANCH   8  26
TORSDOF 6
ENDMDL
MODEL 3
REMARK VINA RESULT:    -0.831      2.823      3.720
REMARK INTER + INTRA:          -1.264
REMARK INTER:                  -1.008
REMARK INTRA:                  -0.256
REMARK UNBOUND:                -0.263
REMARK SMILES O=c1c(O)c(-c2ccc(O)c(O)c2)oc2cc(O)cc(O)c12
REMARK SMILES IDX 5 1 3 2 2 3 1 4 22 5 20 6 19 7 17 8 16 9 15 10 14 11 6 12
REMARK SMILES IDX 7 13 8 14 9 15 13 16 11 17 10 18 12 20 4 22 21 24 18 26
REMARK H PARENT 10 19 12 21 4 23 21 25 18 27
REMARK Flexibility Score: inf
ROOT
ATOM      1  C   UNL     1      22.221  53.945  51.356  1.00  0.00     0.180 A 
ATOM      2  C   UNL     1      21.289  54.687  52.100  1.00  0.00     0.208 A 
ATOM      3  C   UNL     1      20.889  54.211  53.359  1.00  0.00     0.238 A 
ATOM      4  O   UNL     1      20.013  54.851  53.997  1.00  0.00    -0.285 OA
ATOM      5  C   UNL     1      21.440  53.009  53.866  1.00  0.00     0.111 A 
ATOM      6  C   UNL     1      21.137  52.455  55.146  1.00  0.00     0.134 A 
ATOM      7  C   UNL     1      21.640  51.194  55.489  1.00  0.00     0.093 A 
ATOM      8  C   UNL     1      22.486  50.497  54.624  1.00  0.00     0.123 A 
ATOM      9  C   UNL     1      22.835  51.056  53.398  1.00  0.00     0.094 A 
ATOM     10  C   UNL     1      22.321  52.295  53.012  1.00  0.00     0.146 A 
ATOM     11  O   UNL     1      22.670  52.787  51.829  1.00  0.00    -0.452 OA
ENDROOT
BRANCH   1  12
ATOM     12  C   UNL     1      22.710  54.394  50.031  1.00  0.00     0.025 A 
ATOM     13  C   UNL     1      23.590  55.483  49.907  1.00  0.00     0.016 A 
ATOM     14  C   UNL     1      24.056  55.874  48.649  1.00  0.00     0.051 A 
ATOM     15  C   UNL     1      23.663  55.175  47.501  1.00  0.00     0.157 A 
ATOM     16  C   UNL     1      22.335  53.684  48.879  1.00  0.00     0.062 A 
ATOM     17  C   UNL     1      22.803  54.077  47.617  1.00  0.00     0.158 A 
BRANCH  15  18
ATOM     18  O   UNL     1      24.125  55.564  46.245  1.00  0.00    -0.504 OA
ATOM     19  H   UNL     1      23.597  55.368  45.402  1.00  0.00     0.293 HD
ENDBRANCH  15  18
BRANCH  17  20
ATOM     20  O   UNL     1      22.419  53.377  46.473  1.00  0.00    -0.504 OA
ATOM     21  H   UNL     1      22.318  53.840  45.577  1.00  0.00     0.293 HD
ENDBRANCH  17  20
ENDBRANCH   1  12
BRANCH   2  22
ATOM     22  O   UNL     1      20.741  55.860  51.572  1.00  0.00    -0.502 OA
ATOM     23  H   UNL     1      20.493  55.952  50.595  1.00  0.00     0.293 HD
ENDBRANCH   2  22
BRANCH   6  24
ATOM     24  O   UNL     1      20.377  53.110  56.120  1.00  0.00    -0.507 OA
ATOM     25  H   UNL     1      20.721  53.845  56.719  1.00  0.00     0.293 HD
ENDBRANCH   6  24
BRANCH   8  26
ATOM     26  O   UNL     1      22.994  49.249  54.980  1.00  0.00    -0.508 OA
ATOM     27  H   UNL     1      22.701  48.403  54.507  1.00  0.00     0.293 HD
ENDBRANCH   8  26
TORSDOF 6
ENDMDL
