MODEL 1
REMARK VINA RESULT:    -5.765      0.000      0.000
REMARK INTER + INTRA:         -16.324
REMARK INTER:                 -14.528
REMARK INTRA:                  -1.796
REMARK UNBOUND:                -1.796
REMARK SMILES CCCCCCCCCCCCCCCCCCCCCCCCCCCC(=O)[O-]
REMARK SMILES IDX 15 1 16 2 17 3 18 4 19 5 20 6 21 7 22 8 23 9 24 10 25 11
REMARK SMILES IDX 26 12 27 13 28 14 29 15 30 16 14 17 13 18 12 19 11 20 10 21
REMARK SMILES IDX 9 22 8 23 7 24 6 25 5 26 4 27 3 28 2 29 1 30
REMARK H PARENT
REMARK Flexibility Score: inf
ROOT
ATOM      1  C   UNL     1     -18.846  25.412   0.764  1.00  0.00     0.000 C 
ENDROOT
BRANCH   1   2
ATOM      2  C   UNL     1     -19.679  24.150   0.491  1.00  0.00     0.000 C 
BRANCH   2   3
ATOM      3  C   UNL     1     -18.880  23.070  -0.258  1.00  0.00     0.000 C 
BRANCH   3   4
ATOM      4  C   UNL     1     -19.309  22.934  -1.729  1.00  0.00     0.000 C 
BRANCH   4   5
ATOM      5  C   UNL     1     -20.732  22.365  -1.837  1.00  0.00     0.000 C 
BRANCH   5   6
ATOM      6  C   UNL     1     -21.089  21.422  -0.673  1.00  0.00     0.000 C 
BRANCH   6   7
ATOM      7  C   UNL     1     -22.429  21.729   0.029  1.00  0.00     0.000 C 
BRANCH   7   8
ATOM      8  C   UNL     1     -23.032  23.109  -0.298  1.00  0.00     0.000 C 
BRANCH   8   9
ATOM      9  C   UNL     1     -24.573  23.161  -0.314  1.00  0.00     0.000 C 
BRANCH   9  10
ATOM     10  C   UNL     1     -25.266  21.859  -0.756  1.00  0.00     0.000 C 
BRANCH  10  11
ATOM     11  C   UNL     1     -26.354  22.092  -1.819  1.00  0.00     0.000 C 
BRANCH  11  12
ATOM     12  C   UNL     1     -26.504  23.575  -2.209  1.00  0.00     0.006 C 
BRANCH  12  13
ATOM     13  C   UNL     1     -26.686  23.810  -3.719  1.00  0.00     0.053 C 
BRANCH  13  14
ATOM     14  C   UNL     1     -25.484  24.442  -4.353  1.00  0.00     0.041 C 
ATOM     15  O   UNL     1     -24.782  23.792  -5.170  1.00  0.00    -0.550 OA
ATOM     16  O   UNL     1     -25.146  25.754  -4.048  1.00  0.00    -0.550 OA
ENDBRANCH  13  14
ENDBRANCH  12  13
ENDBRANCH  11  12
ENDBRANCH  10  11
ENDBRANCH   9  10
ENDBRANCH   8   9
ENDBRANCH   7   8
ENDBRANCH   6   7
ENDBRANCH   5   6
ENDBRANCH   4   5
ENDBRANCH   3   4
ENDBRANCH   2   3
ENDBRANCH   1   2
BRANCH   1  17
ATOM     17  C   UNL     1     -17.350  25.218   0.455  1.00  0.00     0.000 C 
BRANCH  17  18
ATOM     18  C   UNL     1     -16.421  26.309   1.013  1.00  0.00     0.000 C 
BRANCH  18  19
ATOM     19  C   UNL     1     -16.121  27.422  -0.008  1.00  0.00     0.000 C 
BRANCH  19  20
ATOM     20  C   UNL     1     -17.404  28.053  -0.574  1.00  0.00     0.000 C 
BRANCH  20  21
ATOM     21  C   UNL     1     -17.262  29.572  -0.757  1.00  0.00     0.000 C 
BRANCH  21  22
ATOM     22  C   UNL     1     -18.527  30.184  -1.379  1.00  0.00    -0.000 C 
BRANCH  22  23
ATOM     23  C   UNL     1     -18.291  31.604  -1.926  1.00  0.00    -0.000 C 
BRANCH  23  24
ATOM     24  C   UNL     1     -18.186  32.712  -0.856  1.00  0.00    -0.000 C 
BRANCH  24  25
ATOM     25  C   UNL     1     -16.770  33.278  -0.649  1.00  0.00    -0.000 C 
BRANCH  25  26
ATOM     26  C   UNL     1     -16.323  33.227   0.822  1.00  0.00    -0.000 C 
BRANCH  26  27
ATOM     27  C   UNL     1     -16.696  31.895   1.498  1.00  0.00    -0.000 C 
BRANCH  27  28
ATOM     28  C   UNL     1     -15.546  30.866   1.534  1.00  0.00    -0.000 C 
BRANCH  28  29
ATOM     29  C   UNL     1     -15.240  30.290   2.931  1.00  0.00    -0.003 C 
ATOM     30  C   UNL     1     -16.220  29.194   3.355  1.00  0.00     0.004 C 
ENDBRANCH  28  29
ENDBRANCH  27  28
ENDBRANCH  26  27
ENDBRANCH  25  26
ENDBRANCH  24  25
ENDBRANCH  23  24
ENDBRANCH  22  23
ENDBRANCH  21  22
ENDBRANCH  20  21
ENDBRANCH  19  20
ENDBRANCH  18  19
ENDBRANCH  17  18
ENDBRANCH   1  17
TORSDOF 26
ENDMDL
MODEL 2
REMARK VINA RESULT:    -5.685      3.529     10.996
REMARK INTER + INTRA:         -16.122
REMARK INTER:                 -13.915
REMARK INTRA:                  -2.207
REMARK UNBOUND:                -1.796
REMARK SMILES CCCCCCCCCCCCCCCCCCCCCCCCCCCC(=O)[O-]
REMARK SMILES IDX 15 1 16 2 17 3 18 4 19 5 20 6 21 7 22 8 23 9 24 10 25 11
REMARK SMILES IDX 26 12 27 13 28 14 29 15 30 16 14 17 13 18 12 19 11 20 10 21
REMARK SMILES IDX 9 22 8 23 7 24 6 25 5 26 4 27 3 28 2 29 1 30
REMARK H PARENT
REMARK Flexibility Score: inf
ROOT
ATOM      1  C   UNL     1     -16.625  26.688   0.209  1.00  0.00     0.000 C 
ENDROOT
BRANCH   1   2
ATOM      2  C   UNL     1     -17.090  28.067  -0.285  1.00  0.00     0.000 C 
BRANCH   2   3
ATOM      3  C   UNL     1     -18.509  28.030  -0.878  1.00  0.00     0.000 C 
BRANCH   3   4
ATOM      4  C   UNL     1     -18.846  29.299  -1.679  1.00  0.00     0.000 C 
BRANCH   4   5
ATOM      5  C   UNL     1     -17.827  30.414  -1.398  1.00  0.00     0.000 C 
BRANCH   5   6
ATOM      6  C   UNL     1     -18.328  31.805  -1.827  1.00  0.00     0.000 C 
BRANCH   6   7
ATOM      7  C   UNL     1     -18.164  32.914  -0.767  1.00  0.00     0.000 C 
BRANCH   7   8
ATOM      8  C   UNL     1     -16.731  33.463  -0.617  1.00  0.00     0.000 C 
BRANCH   8   9
ATOM      9  C   UNL     1     -16.163  33.421   0.817  1.00  0.00     0.000 C 
BRANCH   9  10
ATOM     10  C   UNL     1     -16.594  32.204   1.655  1.00  0.00     0.000 C 
BRANCH  10  11
ATOM     11  C   UNL     1     -15.869  30.909   1.246  1.00  0.00     0.000 C 
BRANCH  11  12
ATOM     12  C   UNL     1     -15.194  30.198   2.433  1.00  0.00     0.006 C 
BRANCH  12  13
ATOM     13  C   UNL     1     -16.145  29.310   3.254  1.00  0.00     0.053 C 
BRANCH  13  14
ATOM     14  C   UNL     1     -16.477  29.901   4.591  1.00  0.00     0.041 C 
ATOM     15  O   UNL     1     -15.565  30.366   5.323  1.00  0.00    -0.550 OA
ATOM     16  O   UNL     1     -17.796  29.945   5.024  1.00  0.00    -0.550 OA
ENDBRANCH  13  14
ENDBRANCH  12  13
ENDBRANCH  11  12
ENDBRANCH  10  11
ENDBRANCH   9  10
ENDBRANCH   8   9
ENDBRANCH   7   8
ENDBRANCH   6   7
ENDBRANCH   5   6
ENDBRANCH   4   5
ENDBRANCH   3   4
ENDBRANCH   2   3
ENDBRANCH   1   2
BRANCH   1  17
ATOM     17  C   UNL     1     -17.553  26.096   1.286  1.00  0.00     0.000 C 
BRANCH  17  18
ATOM     18  C   UNL     1     -18.477  24.965   0.802  1.00  0.00     0.000 C 
BRANCH  18  19
ATOM     19  C   UNL     1     -18.031  24.359  -0.541  1.00  0.00     0.000 C 
BRANCH  19  20
ATOM     20  C   UNL     1     -19.116  23.462  -1.163  1.00  0.00     0.000 C 
BRANCH  20  21
ATOM     21  C   UNL     1     -19.923  22.715  -0.092  1.00  0.00     0.000 C 
BRANCH  21  22
ATOM     22  C   UNL     1     -21.326  22.345  -0.601  1.00  0.00    -0.000 C 
BRANCH  22  23
ATOM     23  C   UNL     1     -22.373  23.433  -0.296  1.00  0.00    -0.000 C 
BRANCH  23  24
ATOM     24  C   UNL     1     -23.839  22.951  -0.289  1.00  0.00    -0.000 C 
BRANCH  24  25
ATOM     25  C   UNL     1     -24.801  23.796  -1.143  1.00  0.00    -0.000 C 
BRANCH  25  26
ATOM     26  C   UNL     1     -26.043  23.005  -1.591  1.00  0.00    -0.000 C 
BRANCH  26  27
ATOM     27  C   UNL     1     -26.910  23.796  -2.587  1.00  0.00    -0.000 C 
BRANCH  27  28
ATOM     28  C   UNL     1     -26.881  23.237  -4.026  1.00  0.00    -0.000 C 
BRANCH  28  29
ATOM     29  C   UNL     1     -25.700  23.731  -4.885  1.00  0.00    -0.003 C 
ATOM     30  C   UNL     1     -25.293  25.172  -4.572  1.00  0.00     0.004 C 
ENDBRANCH  28  29
ENDBRANCH  27  28
ENDBRANCH  26  27
ENDBRANCH  25  26
ENDBRANCH  24  25
ENDBRANCH  23  24
ENDBRANCH  22  23
ENDBRANCH  21  22
ENDBRANCH  20  21
ENDBRANCH  19  20
ENDBRANCH  18  19
ENDBRANCH  17  18
ENDBRANCH   1  17
TORSDOF 26
ENDMDL
MODEL 3
REMARK VINA RESULT:    -5.627      1.088      2.774
REMARK INTER + INTRA:         -15.976
REMARK INTER:                 -13.594
REMARK INTRA:                  -2.382
REMARK UNBOUND:                -1.796
REMARK SMILES CCCCCCCCCCCCCCCCCCCCCCCCCCCC(=O)[O-]
REMARK SMILES IDX 15 1 16 2 17 3 18 4 19 5 20 6 21 7 22 8 23 9 24 10 25 11
REMARK SMILES IDX 26 12 27 13 28 14 29 15 30 16 14 17 13 18 12 19 11 20 10 21
REMARK SMILES IDX 9 22 8 23 7 24 6 25 5 26 4 27 3 28 2 29 1 30
REMARK H PARENT
REMARK Flexibility Score: inf
ROOT
ATOM      1  C   UNL     1     -17.122  27.230  -0.441  1.00  0.00     0.000 C 
ENDROOT
BRANCH   1   2
ATOM      2  C   UNL     1     -17.528  26.573   0.888  1.00  0.00     0.000 C 
BRANCH   2   3
ATOM      3  C   UNL     1     -17.936  25.100   0.714  1.00  0.00     0.000 C 
BRANCH   3   4
ATOM      4  C   UNL     1     -18.461  24.798  -0.700  1.00  0.00     0.000 C 
BRANCH   4   5
ATOM      5  C   UNL     1     -18.483  23.285  -0.967  1.00  0.00     0.000 C 
BRANCH   5   6
ATOM      6  C   UNL     1     -19.855  22.782  -1.454  1.00  0.00     0.000 C 
BRANCH   6   7
ATOM      7  C   UNL     1     -20.613  21.882  -0.456  1.00  0.00     0.000 C 
BRANCH   7   8
ATOM      8  C   UNL     1     -21.760  22.577   0.303  1.00  0.00     0.000 C 
BRANCH   8   9
ATOM      9  C   UNL     1     -22.691  23.442  -0.571  1.00  0.00     0.000 C 
BRANCH   9  10
ATOM     10  C   UNL     1     -24.195  23.272  -0.290  1.00  0.00     0.000 C 
BRANCH  10  11
ATOM     11  C   UNL     1     -25.080  24.031  -1.295  1.00  0.00     0.000 C 
BRANCH  11  12
ATOM     12  C   UNL     1     -25.963  23.096  -2.143  1.00  0.00     0.006 C 
BRANCH  12  13
ATOM     13  C   UNL     1     -26.623  23.784  -3.351  1.00  0.00     0.053 C 
BRANCH  13  14
ATOM     14  C   UNL     1     -25.621  24.363  -4.304  1.00  0.00     0.041 C 
ATOM     15  O   UNL     1     -24.935  23.607  -5.040  1.00  0.00    -0.550 OA
ATOM     16  O   UNL     1     -25.452  25.739  -4.385  1.00  0.00    -0.550 OA
ENDBRANCH  13  14
ENDBRANCH  12  13
ENDBRANCH  11  12
ENDBRANCH  10  11
ENDBRANCH   9  10
ENDBRANCH   8   9
ENDBRANCH   7   8
ENDBRANCH   6   7
ENDBRANCH   5   6
ENDBRANCH   4   5
ENDBRANCH   3   4
ENDBRANCH   2   3
ENDBRANCH   1   2
BRANCH   1  17
ATOM     17  C   UNL     1     -17.722  28.638  -0.618  1.00  0.00     0.000 C 
BRANCH  17  18
ATOM     18  C   UNL     1     -19.018  28.695  -1.446  1.00  0.00     0.000 C 
BRANCH  18  19
ATOM     19  C   UNL     1     -19.303  30.096  -2.017  1.00  0.00     0.000 C 
BRANCH  19  20
ATOM     20  C   UNL     1     -18.067  31.012  -1.956  1.00  0.00     0.000 C 
BRANCH  20  21
ATOM     21  C   UNL     1     -18.200  32.078  -0.858  1.00  0.00     0.000 C 
BRANCH  21  22
ATOM     22  C   UNL     1     -16.915  32.910  -0.724  1.00  0.00    -0.000 C 
BRANCH  22  23
ATOM     23  C   UNL     1     -16.526  33.167   0.744  1.00  0.00    -0.000 C 
BRANCH  23  24
ATOM     24  C   UNL     1     -16.593  31.932   1.668  1.00  0.00    -0.000 C 
BRANCH  24  25
ATOM     25  C   UNL     1     -15.629  30.792   1.294  1.00  0.00    -0.000 C 
BRANCH  25  26
ATOM     26  C   UNL     1     -15.154  29.994   2.521  1.00  0.00    -0.000 C 
BRANCH  26  27
ATOM     27  C   UNL     1     -16.329  29.444   3.350  1.00  0.00    -0.000 C 
BRANCH  27  28
ATOM     28  C   UNL     1     -16.095  29.486   4.875  1.00  0.00    -0.000 C 
BRANCH  28  29
ATOM     29  C   UNL     1     -15.278  30.697   5.368  1.00  0.00    -0.003 C 
ATOM     30  C   UNL     1     -16.115  31.971   5.498  1.00  0.00     0.004 C 
ENDBRANCH  28  29
ENDBRANCH  27  28
ENDBRANCH  26  27
ENDBRANCH  25  26
ENDBRANCH  24  25
ENDBRANCH  23  24
ENDBRANCH  22  23
ENDBRANCH  21  22
ENDBRANCH  20  21
ENDBRANCH  19  20
ENDBRANCH  18  19
ENDBRANCH  17  18
ENDBRANCH   1  17
TORSDOF 26
ENDMDL
MODEL 4
REMARK VINA RESULT:    -5.541      3.539     11.149
REMARK INTER + INTRA:         -15.760
REMARK INTER:                 -13.639
REMARK INTRA:                  -2.121
REMARK UNBOUND:                -1.796
REMARK SMILES CCCCCCCCCCCCCCCCCCCCCCCCCCCC(=O)[O-]
REMARK SMILES IDX 15 1 16 2 17 3 18 4 19 5 20 6 21 7 22 8 23 9 24 10 25 11
REMARK SMILES IDX 26 12 27 13 28 14 29 15 30 16 14 17 13 18 12 19 11 20 10 21
REMARK SMILES IDX 9 22 8 23 7 24 6 25 5 26 4 27 3 28 2 29 1 30
REMARK H PARENT
REMARK Flexibility Score: inf
ROOT
ATOM      1  C   UNL     1     -17.149  25.629   0.646  1.00  0.00     0.000 C 
ENDROOT
BRANCH   1   2
ATOM      2  C   UNL     1     -17.016  27.159   0.592  1.00  0.00     0.000 C 
BRANCH   2   3
ATOM      3  C   UNL     1     -17.729  27.767  -0.628  1.00  0.00     0.000 C 
BRANCH   3   4
ATOM      4  C   UNL     1     -17.669  29.304  -0.640  1.00  0.00     0.000 C 
BRANCH   4   5
ATOM      5  C   UNL     1     -18.521  29.879  -1.781  1.00  0.00     0.000 C 
BRANCH   5   6
ATOM      6  C   UNL     1     -18.241  31.371  -2.045  1.00  0.00     0.000 C 
BRANCH   6   7
ATOM      7  C   UNL     1     -18.197  32.260  -0.784  1.00  0.00     0.000 C 
BRANCH   7   8
ATOM      8  C   UNL     1     -17.013  33.244  -0.725  1.00  0.00     0.000 C 
BRANCH   8   9
ATOM      9  C   UNL     1     -16.213  33.226   0.594  1.00  0.00     0.000 C 
BRANCH   9  10
ATOM     10  C   UNL     1     -16.588  32.095   1.569  1.00  0.00     0.000 C 
BRANCH  10  11
ATOM     11  C   UNL     1     -15.599  30.917   1.526  1.00  0.00     0.000 C 
BRANCH  11  12
ATOM     12  C   UNL     1     -15.803  29.919   2.681  1.00  0.00     0.006 C 
BRANCH  12  13
ATOM     13  C   UNL     1     -15.504  30.502   4.073  1.00  0.00     0.053 C 
BRANCH  13  14
ATOM     14  C   UNL     1     -16.730  30.604   4.931  1.00  0.00     0.041 C 
ATOM     15  O   UNL     1     -17.589  29.684   4.922  1.00  0.00    -0.550 OA
ATOM     16  O   UNL     1     -16.917  31.712   5.747  1.00  0.00    -0.550 OA
ENDBRANCH  13  14
ENDBRANCH  12  13
ENDBRANCH  11  12
ENDBRANCH  10  11
ENDBRANCH   9  10
ENDBRANCH   8   9
ENDBRANCH   7   8
ENDBRANCH   6   7
ENDBRANCH   5   6
ENDBRANCH   4   5
ENDBRANCH   3   4
ENDBRANCH   2   3
ENDBRANCH   1   2
BRANCH   1  17
ATOM     17  C   UNL     1     -18.383  25.110  -0.117  1.00  0.00     0.000 C 
BRANCH  17  18
ATOM     18  C   UNL     1     -18.134  23.870  -0.993  1.00  0.00     0.000 C 
BRANCH  18  19
ATOM     19  C   UNL     1     -19.436  23.196  -1.463  1.00  0.00     0.000 C 
BRANCH  19  20
ATOM     20  C   UNL     1     -19.673  21.843  -0.770  1.00  0.00     0.000 C 
BRANCH  20  21
ATOM     21  C   UNL     1     -20.291  22.016   0.626  1.00  0.00     0.000 C 
BRANCH  21  22
ATOM     22  C   UNL     1     -21.574  22.860   0.571  1.00  0.00    -0.000 C 
BRANCH  22  23
ATOM     23  C   UNL     1     -22.817  22.026   0.208  1.00  0.00    -0.000 C 
BRANCH  23  24
ATOM     24  C   UNL     1     -24.051  22.843  -0.231  1.00  0.00    -0.000 C 
BRANCH  24  25
ATOM     25  C   UNL     1     -25.403  22.144  -0.003  1.00  0.00    -0.000 C 
BRANCH  25  26
ATOM     26  C   UNL     1     -26.141  21.841  -1.319  1.00  0.00    -0.000 C 
BRANCH  26  27
ATOM     27  C   UNL     1     -26.900  23.068  -1.857  1.00  0.00    -0.000 C 
BRANCH  27  28
ATOM     28  C   UNL     1     -26.568  23.416  -3.324  1.00  0.00    -0.000 C 
BRANCH  28  29
ATOM     29  C   UNL     1     -25.384  24.386  -3.504  1.00  0.00    -0.003 C 
ATOM     30  C   UNL     1     -25.476  25.212  -4.790  1.00  0.00     0.004 C 
ENDBRANCH  28  29
ENDBRANCH  27  28
ENDBRANCH  26  27
ENDBRANCH  25  26
ENDBRANCH  24  25
ENDBRANCH  23  24
ENDBRANCH  22  23
ENDBRANCH  21  22
ENDBRANCH  20  21
ENDBRANCH  19  20
ENDBRANCH  18  19
ENDBRANCH  17  18
ENDBRANCH   1  17
TORSDOF 26
ENDMDL
MODEL 5
REMARK VINA RESULT:    -5.393      0.816      2.575
REMARK INTER + INTRA:         -15.386
REMARK INTER:                 -13.582
REMARK INTRA:                  -1.804
REMARK UNBOUND:                -1.796
REMARK SMILES CCCCCCCCCCCCCCCCCCCCCCCCCCCC(=O)[O-]
REMARK SMILES IDX 15 1 16 2 17 3 18 4 19 5 20 6 21 7 22 8 23 9 24 10 25 11
REMARK SMILES IDX 26 12 27 13 28 14 29 15 30 16 14 17 13 18 12 19 11 20 10 21
REMARK SMILES IDX 9 22 8 23 7 24 6 25 5 26 4 27 3 28 2 29 1 30
REMARK H PARENT
REMARK Flexibility Score: inf
ROOT
ATOM      1  C   UNL     1     -18.127  24.804  -0.353  1.00  0.00     0.000 C 
ENDROOT
BRANCH   1   2
ATOM      2  C   UNL     1     -19.352  24.765   0.575  1.00  0.00     0.000 C 
BRANCH   2   3
ATOM      3  C   UNL     1     -19.810  23.329   0.881  1.00  0.00     0.000 C 
BRANCH   3   4
ATOM      4  C   UNL     1     -19.465  22.346  -0.250  1.00  0.00     0.000 C 
BRANCH   4   5
ATOM      5  C   UNL     1     -20.718  21.978  -1.060  1.00  0.00     0.000 C 
BRANCH   5   6
ATOM      6  C   UNL     1     -21.715  21.118  -0.262  1.00  0.00     0.000 C 
BRANCH   6   7
ATOM      7  C   UNL     1     -22.947  21.876   0.277  1.00  0.00     0.000 C 
BRANCH   7   8
ATOM      8  C   UNL     1     -23.182  23.262  -0.353  1.00  0.00     0.000 C 
BRANCH   8   9
ATOM      9  C   UNL     1     -24.639  23.550  -0.772  1.00  0.00     0.000 C 
BRANCH   9  10
ATOM     10  C   UNL     1     -25.585  22.337  -0.720  1.00  0.00     0.000 C 
BRANCH  10  11
ATOM     11  C   UNL     1     -26.710  22.412  -1.768  1.00  0.00     0.000 C 
BRANCH  11  12
ATOM     12  C   UNL     1     -26.757  23.764  -2.503  1.00  0.00     0.006 C 
BRANCH  12  13
ATOM     13  C   UNL     1     -26.603  23.653  -4.029  1.00  0.00     0.053 C 
BRANCH  13  14
ATOM     14  C   UNL     1     -25.477  24.491  -4.558  1.00  0.00     0.041 C 
ATOM     15  O   UNL     1     -25.494  25.740  -4.412  1.00  0.00    -0.550 OA
ATOM     16  O   UNL     1     -24.406  23.888  -5.206  1.00  0.00    -0.550 OA
ENDBRANCH  13  14
ENDBRANCH  12  13
ENDBRANCH  11  12
ENDBRANCH  10  11
ENDBRANCH   9  10
ENDBRANCH   8   9
ENDBRANCH   7   8
ENDBRANCH   6   7
ENDBRANCH   5   6
ENDBRANCH   4   5
ENDBRANCH   3   4
ENDBRANCH   2   3
ENDBRANCH   1   2
BRANCH   1  17
ATOM     17  C   UNL     1     -16.798  24.903   0.417  1.00  0.00     0.000 C 
BRANCH  17  18
ATOM     18  C   UNL     1     -16.372  26.330   0.803  1.00  0.00     0.000 C 
BRANCH  18  19
ATOM     19  C   UNL     1     -16.843  27.391  -0.209  1.00  0.00     0.000 C 
BRANCH  19  20
ATOM     20  C   UNL     1     -16.284  28.789   0.111  1.00  0.00     0.000 C 
BRANCH  20  21
ATOM     21  C   UNL     1     -16.277  29.069   1.621  1.00  0.00     0.000 C 
BRANCH  21  22
ATOM     22  C   UNL     1     -15.238  30.140   1.988  1.00  0.00    -0.000 C 
BRANCH  22  23
ATOM     23  C   UNL     1     -15.882  31.426   2.541  1.00  0.00    -0.000 C 
BRANCH  23  24
ATOM     24  C   UNL     1     -16.857  32.139   1.580  1.00  0.00    -0.000 C 
BRANCH  24  25
ATOM     25  C   UNL     1     -16.295  33.407   0.913  1.00  0.00    -0.000 C 
BRANCH  25  26
ATOM     26  C   UNL     1     -16.547  33.436  -0.605  1.00  0.00    -0.000 C 
BRANCH  26  27
ATOM     27  C   UNL     1     -17.989  33.036  -0.964  1.00  0.00    -0.000 C 
BRANCH  27  28
ATOM     28  C   UNL     1     -18.215  31.511  -1.048  1.00  0.00    -0.000 C 
BRANCH  28  29
ATOM     29  C   UNL     1     -18.664  31.002  -2.432  1.00  0.00    -0.003 C 
ATOM     30  C   UNL     1     -19.386  29.654  -2.368  1.00  0.00     0.004 C 
ENDBRANCH  28  29
ENDBRANCH  27  28
ENDBRANCH  26  27
ENDBRANCH  25  26
ENDBRANCH  24  25
ENDBRANCH  23  24
ENDBRANCH  22  23
ENDBRANCH  21  22
ENDBRANCH  20  21
ENDBRANCH  19  20
ENDBRANCH  18  19
ENDBRANCH  17  18
ENDBRANCH   1  17
TORSDOF 26
ENDMDL
MODEL 6
REMARK VINA RESULT:    -5.199      2.489     10.667
REMARK INTER + INTRA:         -14.898
REMARK INTER:                 -13.060
REMARK INTRA:                  -1.839
REMARK UNBOUND:                -1.796
REMARK SMILES CCCCCCCCCCCCCCCCCCCCCCCCCCCC(=O)[O-]
REMARK SMILES IDX 15 1 16 2 17 3 18 4 19 5 20 6 21 7 22 8 23 9 24 10 25 11
REMARK SMILES IDX 26 12 27 13 28 14 29 15 30 16 14 17 13 18 12 19 11 20 10 21
REMARK SMILES IDX 9 22 8 23 7 24 6 25 5 26 4 27 3 28 2 29 1 30
REMARK H PARENT
REMARK Flexibility Score: inf
ROOT
ATOM      1  C   UNL     1     -18.404  23.340  -0.726  1.00  0.00     0.000 C 
ENDROOT
BRANCH   1   2
ATOM      2  C   UNL     1     -19.063  24.627  -0.206  1.00  0.00     0.000 C 
BRANCH   2   3
ATOM      3  C   UNL     1     -18.304  25.235   0.986  1.00  0.00     0.000 C 
BRANCH   3   4
ATOM      4  C   UNL     1     -16.870  25.653   0.620  1.00  0.00     0.000 C 
BRANCH   4   5
ATOM      5  C   UNL     1     -16.685  27.171   0.769  1.00  0.00     0.000 C 
BRANCH   5   6
ATOM      6  C   UNL     1     -16.241  27.585   2.184  1.00  0.00     0.000 C 
BRANCH   6   7
ATOM      7  C   UNL     1     -16.087  29.104   2.403  1.00  0.00     0.000 C 
BRANCH   7   8
ATOM      8  C   UNL     1     -15.876  29.927   1.117  1.00  0.00     0.000 C 
BRANCH   8   9
ATOM      9  C   UNL     1     -15.479  31.401   1.343  1.00  0.00     0.000 C 
BRANCH   9  10
ATOM     10  C   UNL     1     -16.653  32.398   1.366  1.00  0.00     0.000 C 
BRANCH  10  11
ATOM     11  C   UNL     1     -16.529  33.490   0.288  1.00  0.00     0.000 C 
BRANCH  11  12
ATOM     12  C   UNL     1     -17.138  33.071  -1.063  1.00  0.00     0.006 C 
BRANCH  12  13
ATOM     13  C   UNL     1     -18.390  32.186  -0.939  1.00  0.00     0.053 C 
BRANCH  13  14
ATOM     14  C   UNL     1     -18.343  30.990  -1.842  1.00  0.00     0.041 C 
ATOM     15  O   UNL     1     -18.067  31.127  -3.063  1.00  0.00    -0.550 OA
ATOM     16  O   UNL     1     -18.596  29.723  -1.333  1.00  0.00    -0.550 OA
ENDBRANCH  13  14
ENDBRANCH  12  13
ENDBRANCH  11  12
ENDBRANCH  10  11
ENDBRANCH   9  10
ENDBRANCH   8   9
ENDBRANCH   7   8
ENDBRANCH   6   7
ENDBRANCH   5   6
ENDBRANCH   4   5
ENDBRANCH   3   4
ENDBRANCH   2   3
ENDBRANCH   1   2
BRANCH   1  17
ATOM     17  C   UNL     1     -19.119  22.759  -1.960  1.00  0.00     0.000 C 
BRANCH  17  18
ATOM     18  C   UNL     1     -19.396  21.247  -1.901  1.00  0.00     0.000 C 
BRANCH  18  19
ATOM     19  C   UNL     1     -20.749  20.909  -1.247  1.00  0.00     0.000 C 
BRANCH  19  20
ATOM     20  C   UNL     1     -21.625  22.158  -1.045  1.00  0.00     0.000 C 
BRANCH  20  21
ATOM     21  C   UNL     1     -22.061  22.320   0.419  1.00  0.00     0.000 C 
BRANCH  21  22
ATOM     22  C   UNL     1     -22.837  21.089   0.913  1.00  0.00    -0.000 C 
BRANCH  22  23
ATOM     23  C   UNL     1     -24.158  20.875   0.150  1.00  0.00    -0.000 C 
BRANCH  23  24
ATOM     24  C   UNL     1     -25.324  21.787   0.587  1.00  0.00    -0.000 C 
BRANCH  24  25
ATOM     25  C   UNL     1     -26.639  21.567  -0.183  1.00  0.00    -0.000 C 
BRANCH  25  26
ATOM     26  C   UNL     1     -26.814  22.559  -1.347  1.00  0.00    -0.000 C 
BRANCH  26  27
ATOM     27  C   UNL     1     -25.515  23.321  -1.664  1.00  0.00    -0.000 C 
BRANCH  27  28
ATOM     28  C   UNL     1     -25.632  24.291  -2.859  1.00  0.00    -0.000 C 
BRANCH  28  29
ATOM     29  C   UNL     1     -26.756  23.951  -3.857  1.00  0.00    -0.003 C 
ATOM     30  C   UNL     1     -26.679  24.769  -5.148  1.00  0.00     0.004 C 
ENDBRANCH  28  29
ENDBRANCH  27  28
ENDBRANCH  26  27
ENDBRANCH  25  26
ENDBRANCH  24  25
ENDBRANCH  23  24
ENDBRANCH  22  23
ENDBRANCH  21  22
ENDBRANCH  20  21
ENDBRANCH  19  20
ENDBRANCH  18  19
ENDBRANCH  17  18
ENDBRANCH   1  17
TORSDOF 26
ENDMDL
MODEL 7
REMARK VINA RESULT:    -5.086      2.161     10.369
REMARK INTER + INTRA:         -14.613
REMARK INTER:                 -13.455
REMARK INTRA:                  -1.158
REMARK UNBOUND:                -1.796
REMARK SMILES CCCCCCCCCCCCCCCCCCCCCCCCCCCC(=O)[O-]
REMARK SMILES IDX 15 1 16 2 17 3 18 4 19 5 20 6 21 7 22 8 23 9 24 10 25 11
REMARK SMILES IDX 26 12 27 13 28 14 29 15 30 16 14 17 13 18 12 19 11 20 10 21
REMARK SMILES IDX 9 22 8 23 7 24 6 25 5 26 4 27 3 28 2 29 1 30
REMARK H PARENT
REMARK Flexibility Score: inf
ROOT
ATOM      1  C   UNL     1     -16.935  25.384   0.513  1.00  0.00     0.000 C 
ENDROOT
BRANCH   1   2
ATOM      2  C   UNL     1     -16.600  26.650   1.317  1.00  0.00     0.000 C 
BRANCH   2   3
ATOM      3  C   UNL     1     -15.936  27.735   0.452  1.00  0.00     0.000 C 
BRANCH   3   4
ATOM      4  C   UNL     1     -16.218  29.155   0.969  1.00  0.00     0.000 C 
BRANCH   4   5
ATOM      5  C   UNL     1     -15.358  29.473   2.202  1.00  0.00     0.000 C 
BRANCH   5   6
ATOM      6  C   UNL     1     -16.180  29.549   3.502  1.00  0.00     0.000 C 
BRANCH   6   7
ATOM      7  C   UNL     1     -16.717  30.953   3.855  1.00  0.00     0.000 C 
BRANCH   7   8
ATOM      8  C   UNL     1     -16.195  32.092   2.957  1.00  0.00     0.000 C 
BRANCH   8   9
ATOM      9  C   UNL     1     -17.018  32.342   1.676  1.00  0.00     0.000 C 
BRANCH   9  10
ATOM     10  C   UNL     1     -16.206  32.839   0.466  1.00  0.00     0.000 C 
BRANCH  10  11
ATOM     11  C   UNL     1     -17.096  33.254  -0.719  1.00  0.00     0.000 C 
BRANCH  11  12
ATOM     12  C   UNL     1     -18.308  32.325  -0.915  1.00  0.00     0.006 C 
BRANCH  12  13
ATOM     13  C   UNL     1     -18.164  31.347  -2.094  1.00  0.00     0.053 C 
BRANCH  13  14
ATOM     14  C   UNL     1     -18.772  30.007  -1.809  1.00  0.00     0.041 C 
ATOM     15  O   UNL     1     -18.047  29.047  -1.438  1.00  0.00    -0.550 OA
ATOM     16  O   UNL     1     -20.142  29.821  -1.946  1.00  0.00    -0.550 OA
ENDBRANCH  13  14
ENDBRANCH  12  13
ENDBRANCH  11  12
ENDBRANCH  10  11
ENDBRANCH   9  10
ENDBRANCH   8   9
ENDBRANCH   7   8
ENDBRANCH   6   7
ENDBRANCH   5   6
ENDBRANCH   4   5
ENDBRANCH   3   4
ENDBRANCH   2   3
ENDBRANCH   1   2
BRANCH   1  17
ATOM     17  C   UNL     1     -18.450  25.128   0.407  1.00  0.00     0.000 C 
BRANCH  17  18
ATOM     18  C   UNL     1     -18.883  24.252  -0.781  1.00  0.00     0.000 C 
BRANCH  18  19
ATOM     19  C   UNL     1     -18.172  22.886  -0.810  1.00  0.00     0.000 C 
BRANCH  19  20
ATOM     20  C   UNL     1     -19.100  21.757  -1.291  1.00  0.00     0.000 C 
BRANCH  20  21
ATOM     21  C   UNL     1     -20.484  22.288  -1.694  1.00  0.00     0.000 C 
BRANCH  21  22
ATOM     22  C   UNL     1     -21.537  21.987  -0.616  1.00  0.00    -0.000 C 
BRANCH  22  23
ATOM     23  C   UNL     1     -22.402  23.216  -0.273  1.00  0.00    -0.000 C 
BRANCH  23  24
ATOM     24  C   UNL     1     -23.911  22.934  -0.115  1.00  0.00    -0.000 C 
BRANCH  24  25
ATOM     25  C   UNL     1     -24.823  23.770  -1.029  1.00  0.00    -0.000 C 
BRANCH  25  26
ATOM     26  C   UNL     1     -25.974  22.944  -1.631  1.00  0.00    -0.000 C 
BRANCH  26  27
ATOM     27  C   UNL     1     -26.718  23.704  -2.743  1.00  0.00    -0.000 C 
BRANCH  27  28
ATOM     28  C   UNL     1     -26.613  23.043  -4.134  1.00  0.00    -0.000 C 
BRANCH  28  29
ATOM     29  C   UNL     1     -26.025  23.948  -5.235  1.00  0.00    -0.003 C 
ATOM     30  C   UNL     1     -25.291  25.170  -4.677  1.00  0.00     0.004 C 
ENDBRANCH  28  29
ENDBRANCH  27  28
ENDBRANCH  26  27
ENDBRANCH  25  26
ENDBRANCH  24  25
ENDBRANCH  23  24
ENDBRANCH  22  23
ENDBRANCH  21  22
ENDBRANCH  20  21
ENDBRANCH  19  20
ENDBRANCH  18  19
ENDBRANCH  17  18
ENDBRANCH   1  17
TORSDOF 26
ENDMDL
MODEL 8
REMARK VINA RESULT:    -4.845      2.399      4.272
REMARK INTER + INTRA:         -14.005
REMARK INTER:                 -11.754
REMARK INTRA:                  -2.252
REMARK UNBOUND:                -1.796
REMARK SMILES CCCCCCCCCCCCCCCCCCCCCCCCCCCC(=O)[O-]
REMARK SMILES IDX 15 1 16 2 17 3 18 4 19 5 20 6 21 7 22 8 23 9 24 10 25 11
REMARK SMILES IDX 26 12 27 13 28 14 29 15 30 16 14 17 13 18 12 19 11 20 10 21
REMARK SMILES IDX 9 22 8 23 7 24 6 25 5 26 4 27 3 28 2 29 1 30
REMARK H PARENT
REMARK Flexibility Score: inf
ROOT
ATOM      1  C   UNL     1     -21.070  21.917  -1.091  1.00  0.00     0.000 C 
ENDROOT
BRANCH   1   2
ATOM      2  C   UNL     1     -21.511  21.045   0.095  1.00  0.00     0.000 C 
BRANCH   2   3
ATOM      3  C   UNL     1     -21.683  21.859   1.389  1.00  0.00     0.000 C 
BRANCH   3   4
ATOM      4  C   UNL     1     -21.913  20.967   2.621  1.00  0.00     0.000 C 
BRANCH   4   5
ATOM      5  C   UNL     1     -21.262  21.577   3.872  1.00  0.00     0.000 C 
BRANCH   5   6
ATOM      6  C   UNL     1     -22.287  21.941   4.962  1.00  0.00     0.000 C 
BRANCH   6   7
ATOM      7  C   UNL     1     -23.605  21.139   4.914  1.00  0.00     0.000 C 
BRANCH   7   8
ATOM      8  C   UNL     1     -24.843  21.949   4.484  1.00  0.00     0.000 C 
BRANCH   8   9
ATOM      9  C   UNL     1     -25.992  21.114   3.882  1.00  0.00     0.000 C 
BRANCH   9  10
ATOM     10  C   UNL     1     -26.332  21.433   2.414  1.00  0.00     0.000 C 
BRANCH  10  11
ATOM     11  C   UNL     1     -25.173  22.116   1.668  1.00  0.00     0.000 C 
BRANCH  11  12
ATOM     12  C   UNL     1     -25.469  22.337   0.173  1.00  0.00     0.006 C 
BRANCH  12  13
ATOM     13  C   UNL     1     -24.511  23.324  -0.516  1.00  0.00     0.053 C 
BRANCH  13  14
ATOM     14  C   UNL     1     -25.152  24.045  -1.664  1.00  0.00     0.041 C 
ATOM     15  O   UNL     1     -25.407  25.274  -1.578  1.00  0.00    -0.550 OA
ATOM     16  O   UNL     1     -25.461  23.359  -2.831  1.00  0.00    -0.550 OA
ENDBRANCH  13  14
ENDBRANCH  12  13
ENDBRANCH  11  12
ENDBRANCH  10  11
ENDBRANCH   9  10
ENDBRANCH   8   9
ENDBRANCH   7   8
ENDBRANCH   6   7
ENDBRANCH   5   6
ENDBRANCH   4   5
ENDBRANCH   3   4
ENDBRANCH   2   3
ENDBRANCH   1   2
BRANCH   1  17
ATOM     17  C   UNL     1     -20.176  23.096  -0.665  1.00  0.00     0.000 C 
BRANCH  17  18
ATOM     18  C   UNL     1     -18.774  23.113  -1.297  1.00  0.00     0.000 C 
BRANCH  18  19
ATOM     19  C   UNL     1     -18.045  24.456  -1.106  1.00  0.00     0.000 C 
BRANCH  19  20
ATOM     20  C   UNL     1     -18.578  25.239   0.107  1.00  0.00     0.000 C 
BRANCH  20  21
ATOM     21  C   UNL     1     -17.993  26.658   0.173  1.00  0.00     0.000 C 
BRANCH  21  22
ATOM     22  C   UNL     1     -16.556  26.649   0.717  1.00  0.00    -0.000 C 
BRANCH  22  23
ATOM     23  C   UNL     1     -16.466  27.170   2.164  1.00  0.00    -0.000 C 
BRANCH  23  24
ATOM     24  C   UNL     1     -16.136  28.671   2.303  1.00  0.00    -0.000 C 
BRANCH  24  25
ATOM     25  C   UNL     1     -15.948  29.417   0.970  1.00  0.00    -0.000 C 
BRANCH  25  26
ATOM     26  C   UNL     1     -15.466  30.865   1.166  1.00  0.00    -0.000 C 
BRANCH  26  27
ATOM     27  C   UNL     1     -16.627  31.831   1.466  1.00  0.00    -0.000 C 
BRANCH  27  28
ATOM     28  C   UNL     1     -16.458  33.230   0.836  1.00  0.00    -0.000 C 
BRANCH  28  29
ATOM     29  C   UNL     1     -16.822  33.310  -0.660  1.00  0.00    -0.003 C 
ATOM     30  C   UNL     1     -18.131  32.591  -0.997  1.00  0.00     0.004 C 
ENDBRANCH  28  29
ENDBRANCH  27  28
ENDBRANCH  26  27
ENDBRANCH  25  26
ENDBRANCH  24  25
ENDBRANCH  23  24
ENDBRANCH  22  23
ENDBRANCH  21  22
ENDBRANCH  20  21
ENDBRANCH  19  20
ENDBRANCH  18  19
ENDBRANCH  17  18
ENDBRANCH   1  17
TORSDOF 26
ENDMDL
MODEL 9
REMARK VINA RESULT:    -4.752      3.782     11.081
REMARK INTER + INTRA:         -13.772
REMARK INTER:                 -11.890
REMARK INTRA:                  -1.882
REMARK UNBOUND:                -1.796
REMARK SMILES CCCCCCCCCCCCCCCCCCCCCCCCCCCC(=O)[O-]
REMARK SMILES IDX 15 1 16 2 17 3 18 4 19 5 20 6 21 7 22 8 23 9 24 10 25 11
REMARK SMILES IDX 26 12 27 13 28 14 29 15 30 16 14 17 13 18 12 19 11 20 10 21
REMARK SMILES IDX 9 22 8 23 7 24 6 25 5 26 4 27 3 28 2 29 1 30
REMARK H PARENT
REMARK Flexibility Score: inf
ROOT
ATOM      1  C   UNL     1     -17.221  28.313  -0.049  1.00  0.00     0.000 C 
ENDROOT
BRANCH   1   2
ATOM      2  C   UNL     1     -18.232  28.368  -1.205  1.00  0.00     0.000 C 
BRANCH   2   3
ATOM      3  C   UNL     1     -18.876  29.757  -1.356  1.00  0.00     0.000 C 
BRANCH   3   4
ATOM      4  C   UNL     1     -17.836  30.867  -1.581  1.00  0.00     0.000 C 
BRANCH   4   5
ATOM      5  C   UNL     1     -18.218  32.143  -0.816  1.00  0.00     0.000 C 
BRANCH   5   6
ATOM      6  C   UNL     1     -17.088  33.189  -0.793  1.00  0.00     0.000 C 
BRANCH   6   7
ATOM      7  C   UNL     1     -16.320  33.292   0.541  1.00  0.00     0.000 C 
BRANCH   7   8
ATOM      8  C   UNL     1     -16.559  32.126   1.520  1.00  0.00     0.000 C 
BRANCH   8   9
ATOM      9  C   UNL     1     -15.645  30.901   1.311  1.00  0.00     0.000 C 
BRANCH   9  10
ATOM     10  C   UNL     1     -15.104  30.262   2.603  1.00  0.00     0.000 C 
BRANCH  10  11
ATOM     11  C   UNL     1     -16.211  29.962   3.629  1.00  0.00     0.000 C 
BRANCH  11  12
ATOM     12  C   UNL     1     -15.660  29.666   5.037  1.00  0.00     0.006 C 
BRANCH  12  13
ATOM     13  C   UNL     1     -16.745  29.347   6.079  1.00  0.00     0.053 C 
BRANCH  13  14
ATOM     14  C   UNL     1     -17.904  30.295   6.015  1.00  0.00     0.041 C 
ATOM     15  O   UNL     1     -17.717  31.535   6.125  1.00  0.00    -0.550 OA
ATOM     16  O   UNL     1     -19.191  29.809   5.823  1.00  0.00    -0.550 OA
ENDBRANCH  13  14
ENDBRANCH  12  13
ENDBRANCH  11  12
ENDBRANCH  10  11
ENDBRANCH   9  10
ENDBRANCH   8   9
ENDBRANCH   7   8
ENDBRANCH   6   7
ENDBRANCH   5   6
ENDBRANCH   4   5
ENDBRANCH   3   4
ENDBRANCH   2   3
ENDBRANCH   1   2
BRANCH   1  17
ATOM     17  C   UNL     1     -17.275  26.985   0.729  1.00  0.00     0.000 C 
BRANCH  17  18
ATOM     18  C   UNL     1     -17.317  25.719  -0.144  1.00  0.00     0.000 C 
BRANCH  18  19
ATOM     19  C   UNL     1     -18.503  24.797   0.192  1.00  0.00     0.000 C 
BRANCH  19  20
ATOM     20  C   UNL     1     -18.853  23.851  -0.970  1.00  0.00     0.000 C 
BRANCH  20  21
ATOM     21  C   UNL     1     -19.161  22.429  -0.478  1.00  0.00     0.000 C 
BRANCH  21  22
ATOM     22  C   UNL     1     -20.435  21.872  -1.133  1.00  0.00    -0.000 C 
BRANCH  22  23
ATOM     23  C   UNL     1     -21.659  21.937  -0.200  1.00  0.00    -0.000 C 
BRANCH  23  24
ATOM     24  C   UNL     1     -22.517  23.214  -0.329  1.00  0.00    -0.000 C 
BRANCH  24  25
ATOM     25  C   UNL     1     -24.033  22.990  -0.185  1.00  0.00    -0.000 C 
BRANCH  25  26
ATOM     26  C   UNL     1     -24.405  21.499  -0.101  1.00  0.00    -0.000 C 
BRANCH  26  27
ATOM     27  C   UNL     1     -25.449  21.219   0.994  1.00  0.00    -0.000 C 
BRANCH  27  28
ATOM     28  C   UNL     1     -25.264  22.069   2.269  1.00  0.00    -0.000 C 
BRANCH  28  29
ATOM     29  C   UNL     1     -26.490  22.105   3.203  1.00  0.00    -0.003 C 
ATOM     30  C   UNL     1     -26.375  23.163   4.302  1.00  0.00     0.004 C 
ENDBRANCH  28  29
ENDBRANCH  27  28
ENDBRANCH  26  27
ENDBRANCH  25  26
ENDBRANCH  24  25
ENDBRANCH  23  24
ENDBRANCH  22  23
ENDBRANCH  21  22
ENDBRANCH  20  21
ENDBRANCH  19  20
ENDBRANCH  18  19
ENDBRANCH  17  18
ENDBRANCH   1  17
TORSDOF 26
ENDMDL
