MODEL 1
REMARK VINA RESULT:    25.576      0.000      0.000
REMARK INTER + INTRA:          30.004
REMARK INTER:                  30.061
REMARK INTRA:                  -0.058
REMARK UNBOUND:                -0.058
REMARK SMILES O=c1c(O)c(-c2ccc(O)cc2)oc2cc(O)cc(O)c12
REMARK SMILES IDX 5 1 3 2 2 3 1 4 21 5 19 6 18 7 16 8 15 9 14 10 13 11 6 12
REMARK SMILES IDX 7 13 8 14 9 15 12 16 11 17 10 18 4 20 20 22 17 24
REMARK H PARENT 10 19 4 21 20 23 17 25
REMARK Flexibility Score: inf
ROOT
ATOM      1  C   UNL     1      -2.131  -0.469   2.654  1.00  0.00     0.180 A 
ATOM      2  C   UNL     1      -3.037   0.147   3.534  1.00  0.00     0.208 A 
ATOM      3  C   UNL     1      -4.415   0.034   3.283  1.00  0.00     0.238 A 
ATOM      4  O   UNL     1      -5.223   0.541   4.104  1.00  0.00    -0.285 OA
ATOM      5  C   UNL     1      -4.867  -0.679   2.146  1.00  0.00     0.111 A 
ATOM      6  C   UNL     1      -6.237  -0.822   1.772  1.00  0.00     0.134 A 
ATOM      7  C   UNL     1      -6.577  -1.658   0.700  1.00  0.00     0.093 A 
ATOM      8  C   UNL     1      -5.591  -2.303  -0.050  1.00  0.00     0.123 A 
ATOM      9  C   UNL     1      -4.248  -2.121   0.271  1.00  0.00     0.094 A 
ATOM     10  C   UNL     1      -3.880  -1.323   1.356  1.00  0.00     0.146 A 
ATOM     11  O   UNL     1      -2.589  -1.185   1.633  1.00  0.00    -0.452 OA
ENDROOT
BRANCH   1  12
ATOM     12  C   UNL     1      -0.665  -0.374   2.838  1.00  0.00     0.021 A 
ATOM     13  C   UNL     1       0.166   0.161   1.836  1.00  0.00     0.016 A 
ATOM     14  C   UNL     1       1.551   0.217   2.024  1.00  0.00     0.047 A 
ATOM     15  C   UNL     1       2.122  -0.270   3.206  1.00  0.00     0.115 A 
ATOM     16  C   UNL     1      -0.081  -0.880   4.012  1.00  0.00     0.016 A 
ATOM     17  C   UNL     1       1.304  -0.821   4.196  1.00  0.00     0.047 A 
BRANCH  15  18
ATOM     18  O   UNL     1       3.501  -0.217   3.403  1.00  0.00    -0.508 OA
ATOM     19  H   UNL     1       4.092  -1.020   3.223  1.00  0.00     0.293 HD
ENDBRANCH  15  18
ENDBRANCH   1  12
BRANCH   2  20
ATOM     20  O   UNL     1      -2.571   0.826   4.662  1.00  0.00    -0.502 OA
ATOM     21  H   UNL     1      -2.088   0.357   5.419  1.00  0.00     0.293 HD
ENDBRANCH   2  20
BRANCH   6  22
ATOM     22  O   UNL     1      -7.291  -0.149   2.397  1.00  0.00    -0.507 OA
ATOM     23  H   UNL     1      -7.956  -0.577   3.022  1.00  0.00     0.293 HD
ENDBRANCH   6  22
BRANCH   8  24
ATOM     24  O   UNL     1      -5.937  -3.120  -1.124  1.00  0.00    -0.508 OA
ATOM     25  H   UNL     1      -5.269  -3.754  -1.546  1.00  0.00     0.293 HD
ENDBRANCH   8  24
TORSDOF 5
ENDMDL
