MODEL 1
REMARK VINA RESULT:    -3.383      0.000      0.000
REMARK INTER + INTRA:          -7.250
REMARK INTER:                  -5.756
REMARK INTRA:                  -1.494
REMARK UNBOUND:                -1.494
REMARK SMILES CCCCCCCCCCCCCC(=O)[O-]
REMARK SMILES IDX 8 1 9 2 10 3 11 4 12 5 13 6 14 7 15 8 16 9 7 10 6 11 5 12
REMARK SMILES IDX 4 13 3 14 2 15 1 16
REMARK H PARENT
REMARK Flexibility Score: inf
ROOT
ATOM      1  C   UNL     1      56.756  29.432  52.302  1.00  0.00     0.000 C 
ENDROOT
BRANCH   1   2
ATOM      2  C   UNL     1      56.955  27.915  52.160  1.00  0.00     0.000 C 
BRANCH   2   3
ATOM      3  C   UNL     1      57.135  27.479  50.696  1.00  0.00     0.000 C 
BRANCH   3   4
ATOM      4  C   UNL     1      57.813  26.106  50.568  1.00  0.00     0.000 C 
BRANCH   4   5
ATOM      5  C   UNL     1      59.333  26.216  50.348  1.00  0.00     0.006 C 
BRANCH   5   6
ATOM      6  C   UNL     1      59.727  27.542  49.686  1.00  0.00     0.053 C 
BRANCH   6   7
ATOM      7  C   UNL     1      60.909  28.168  50.362  1.00  0.00     0.041 C 
ATOM      8  O   UNL     1      60.743  29.086  51.207  1.00  0.00    -0.550 OA
ATOM      9  O   UNL     1      62.195  27.758  50.033  1.00  0.00    -0.550 OA
ENDBRANCH   6   7
ENDBRANCH   5   6
ENDBRANCH   4   5
ENDBRANCH   3   4
ENDBRANCH   2   3
ENDBRANCH   1   2
BRANCH   1  10
ATOM     10  C   UNL     1      56.353  30.100  50.975  1.00  0.00     0.000 C 
BRANCH  10  11
ATOM     11  C   UNL     1      55.078  30.949  51.102  1.00  0.00    -0.000 C 
BRANCH  11  12
ATOM     12  C   UNL     1      53.830  30.098  51.395  1.00  0.00    -0.000 C 
BRANCH  12  13
ATOM     13  C   UNL     1      53.566  29.045  50.306  1.00  0.00    -0.000 C 
BRANCH  13  14
ATOM     14  C   UNL     1      53.460  27.618  50.873  1.00  0.00    -0.000 C 
BRANCH  14  15
ATOM     15  C   UNL     1      53.136  26.577  49.790  1.00  0.00    -0.003 C 
ATOM     16  C   UNL     1      54.269  25.573  49.580  1.00  0.00     0.004 C 
ENDBRANCH  14  15
ENDBRANCH  13  14
ENDBRANCH  12  13
ENDBRANCH  11  12
ENDBRANCH  10  11
ENDBRANCH   1  10
TORSDOF 12
ENDMDL
MODEL 2
REMARK VINA RESULT:    -3.366      2.758      4.767
REMARK INTER + INTRA:          -7.221
REMARK INTER:                  -5.626
REMARK INTRA:                  -1.595
REMARK UNBOUND:                -1.494
REMARK SMILES CCCCCCCCCCCCCC(=O)[O-]
REMARK SMILES IDX 8 1 9 2 10 3 11 4 12 5 13 6 14 7 15 8 16 9 7 10 6 11 5 12
REMARK SMILES IDX 4 13 3 14 2 15 1 16
REMARK H PARENT
REMARK Flexibility Score: inf
ROOT
ATOM      1  C   UNL     1      59.638  26.758  50.871  1.00  0.00     0.000 C 
ENDROOT
BRANCH   1   2
ATOM      2  C   UNL     1      59.931  27.642  49.649  1.00  0.00     0.000 C 
BRANCH   2   3
ATOM      3  C   UNL     1      59.111  28.944  49.654  1.00  0.00     0.000 C 
BRANCH   3   4
ATOM      4  C   UNL     1      58.402  29.190  50.996  1.00  0.00     0.000 C 
BRANCH   4   5
ATOM      5  C   UNL     1      56.904  29.498  50.825  1.00  0.00     0.006 C 
BRANCH   5   6
ATOM      6  C   UNL     1      56.185  29.641  52.172  1.00  0.00     0.053 C 
BRANCH   6   7
ATOM      7  C   UNL     1      55.264  30.823  52.185  1.00  0.00     0.041 C 
ATOM      8  O   UNL     1      54.489  31.012  53.160  1.00  0.00    -0.550 OA
ATOM      9  O   UNL     1      55.239  31.697  51.106  1.00  0.00    -0.550 OA
ENDBRANCH   6   7
ENDBRANCH   5   6
ENDBRANCH   4   5
ENDBRANCH   3   4
ENDBRANCH   2   3
ENDBRANCH   1   2
BRANCH   1  10
ATOM     10  C   UNL     1      58.761  25.541  50.521  1.00  0.00     0.000 C 
BRANCH  10  11
ATOM     11  C   UNL     1      57.781  25.174  51.646  1.00  0.00    -0.000 C 
BRANCH  11  12
ATOM     12  C   UNL     1      56.464  25.967  51.562  1.00  0.00    -0.000 C 
BRANCH  12  13
ATOM     13  C   UNL     1      55.876  25.983  50.142  1.00  0.00    -0.000 C 
BRANCH  13  14
ATOM     14  C   UNL     1      54.434  25.447  50.091  1.00  0.00    -0.000 C 
BRANCH  14  15
ATOM     15  C   UNL     1      53.420  26.428  50.702  1.00  0.00    -0.003 C 
ATOM     16  C   UNL     1      53.570  27.847  50.156  1.00  0.00     0.004 C 
ENDBRANCH  14  15
ENDBRANCH  13  14
ENDBRANCH  12  13
ENDBRANCH  11  12
ENDBRANCH  10  11
ENDBRANCH   1  10
TORSDOF 12
ENDMDL
MODEL 3
REMARK VINA RESULT:    -3.364      1.707      3.722
REMARK INTER + INTRA:          -7.217
REMARK INTER:                  -5.365
REMARK INTRA:                  -1.853
REMARK UNBOUND:                -1.494
REMARK SMILES CCCCCCCCCCCCCC(=O)[O-]
REMARK SMILES IDX 8 1 9 2 10 3 11 4 12 5 13 6 14 7 15 8 16 9 7 10 6 11 5 12
REMARK SMILES IDX 4 13 3 14 2 15 1 16
REMARK H PARENT
REMARK Flexibility Score: inf
ROOT
ATOM      1  C   UNL     1      54.566  28.844  50.544  1.00  0.00     0.000 C 
ENDROOT
BRANCH   1   2
ATOM      2  C   UNL     1      54.796  29.525  51.902  1.00  0.00     0.000 C 
BRANCH   2   3
ATOM      3  C   UNL     1      56.248  30.000  52.085  1.00  0.00     0.000 C 
BRANCH   3   4
ATOM      4  C   UNL     1      57.084  29.847  50.804  1.00  0.00     0.000 C 
BRANCH   4   5
ATOM      5  C   UNL     1      58.317  28.947  51.008  1.00  0.00     0.006 C 
BRANCH   5   6
ATOM      6  C   UNL     1      59.088  28.719  49.702  1.00  0.00     0.053 C 
BRANCH   6   7
ATOM      7  C   UNL     1      59.924  27.477  49.763  1.00  0.00     0.041 C 
ATOM      8  O   UNL     1      59.376  26.350  49.896  1.00  0.00    -0.550 OA
ATOM      9  O   UNL     1      61.309  27.566  49.706  1.00  0.00    -0.550 OA
ENDBRANCH   6   7
ENDBRANCH   5   6
ENDBRANCH   4   5
ENDBRANCH   3   4
ENDBRANCH   2   3
ENDBRANCH   1   2
BRANCH   1  10
ATOM     10  C   UNL     1      53.739  27.550  50.665  1.00  0.00     0.000 C 
BRANCH  10  11
ATOM     11  C   UNL     1      54.402  26.355  49.963  1.00  0.00    -0.000 C 
BRANCH  11  12
ATOM     12  C   UNL     1      55.878  26.180  50.363  1.00  0.00    -0.000 C 
BRANCH  12  13
ATOM     13  C   UNL     1      56.042  25.437  51.698  1.00  0.00    -0.000 C 
BRANCH  13  14
ATOM     14  C   UNL     1      56.601  26.338  52.814  1.00  0.00    -0.000 C 
BRANCH  14  15
ATOM     15  C   UNL     1      58.022  25.933  53.240  1.00  0.00    -0.003 C 
ATOM     16  C   UNL     1      58.379  24.508  52.820  1.00  0.00     0.004 C 
ENDBRANCH  14  15
ENDBRANCH  13  14
ENDBRANCH  12  13
ENDBRANCH  11  12
ENDBRANCH  10  11
ENDBRANCH   1  10
TORSDOF 12
ENDMDL
MODEL 4
REMARK VINA RESULT:    -3.329      2.431      4.827
REMARK INTER + INTRA:          -7.157
REMARK INTER:                  -5.864
REMARK INTRA:                  -1.293
REMARK UNBOUND:                -1.494
REMARK SMILES CCCCCCCCCCCCCC(=O)[O-]
REMARK SMILES IDX 8 1 9 2 10 3 11 4 12 5 13 6 14 7 15 8 16 9 7 10 6 11 5 12
REMARK SMILES IDX 4 13 3 14 2 15 1 16
REMARK H PARENT
REMARK Flexibility Score: inf
ROOT
ATOM      1  C   UNL     1      53.927  29.960  51.390  1.00  0.00     0.000 C 
ENDROOT
BRANCH   1   2
ATOM      2  C   UNL     1      53.147  28.919  50.572  1.00  0.00     0.000 C 
BRANCH   2   3
ATOM      3  C   UNL     1      54.053  27.805  50.019  1.00  0.00     0.000 C 
BRANCH   3   4
ATOM      4  C   UNL     1      53.321  26.459  49.890  1.00  0.00     0.000 C 
BRANCH   4   5
ATOM      5  C   UNL     1      54.176  25.273  50.372  1.00  0.00     0.006 C 
BRANCH   5   6
ATOM      6  C   UNL     1      55.639  25.671  50.603  1.00  0.00     0.053 C 
BRANCH   6   7
ATOM      7  C   UNL     1      56.056  25.443  52.024  1.00  0.00     0.041 C 
ATOM      8  O   UNL     1      57.129  24.836  52.281  1.00  0.00    -0.550 OA
ATOM      9  O   UNL     1      55.243  25.873  53.065  1.00  0.00    -0.550 OA
ENDBRANCH   6   7
ENDBRANCH   5   6
ENDBRANCH   4   5
ENDBRANCH   3   4
ENDBRANCH   2   3
ENDBRANCH   1   2
BRANCH   1  10
ATOM     10  C   UNL     1      55.293  30.298  50.765  1.00  0.00     0.000 C 
BRANCH  10  11
ATOM     11  C   UNL     1      56.365  30.613  51.820  1.00  0.00    -0.000 C 
BRANCH  11  12
ATOM     12  C   UNL     1      57.363  29.458  52.012  1.00  0.00    -0.000 C 
BRANCH  12  13
ATOM     13  C   UNL     1      57.616  28.677  50.712  1.00  0.00    -0.000 C 
BRANCH  13  14
ATOM     14  C   UNL     1      58.888  29.140  49.979  1.00  0.00    -0.000 C 
BRANCH  14  15
ATOM     15  C   UNL     1      59.824  27.972  49.630  1.00  0.00    -0.003 C 
ATOM     16  C   UNL     1      59.277  26.621  50.090  1.00  0.00     0.004 C 
ENDBRANCH  14  15
ENDBRANCH  13  14
ENDBRANCH  12  13
ENDBRANCH  11  12
ENDBRANCH  10  11
ENDBRANCH   1  10
TORSDOF 12
ENDMDL
MODEL 5
REMARK VINA RESULT:    -3.275      3.136      6.086
REMARK INTER + INTRA:          -7.067
REMARK INTER:                  -5.390
REMARK INTRA:                  -1.677
REMARK UNBOUND:                -1.494
REMARK SMILES CCCCCCCCCCCCCC(=O)[O-]
REMARK SMILES IDX 8 1 9 2 10 3 11 4 12 5 13 6 14 7 15 8 16 9 7 10 6 11 5 12
REMARK SMILES IDX 4 13 3 14 2 15 1 16
REMARK H PARENT
REMARK Flexibility Score: inf
ROOT
ATOM      1  C   UNL     1      56.309  26.008  50.387  1.00  0.00     0.000 C 
ENDROOT
BRANCH   1   2
ATOM      2  C   UNL     1      54.969  26.758  50.367  1.00  0.00     0.000 C 
BRANCH   2   3
ATOM      3  C   UNL     1      54.962  27.977  51.307  1.00  0.00     0.000 C 
BRANCH   3   4
ATOM      4  C   UNL     1      54.414  29.243  50.628  1.00  0.00     0.000 C 
BRANCH   4   5
ATOM      5  C   UNL     1      55.288  30.481  50.894  1.00  0.00     0.006 C 
BRANCH   5   6
ATOM      6  C   UNL     1      55.492  30.734  52.393  1.00  0.00     0.053 C 
BRANCH   6   7
ATOM      7  C   UNL     1      54.837  32.008  52.833  1.00  0.00     0.041 C 
ATOM      8  O   UNL     1      53.714  31.979  53.402  1.00  0.00    -0.550 OA
ATOM      9  O   UNL     1      55.452  33.228  52.585  1.00  0.00    -0.550 OA
ENDBRANCH   6   7
ENDBRANCH   5   6
ENDBRANCH   4   5
ENDBRANCH   3   4
ENDBRANCH   2   3
ENDBRANCH   1   2
BRANCH   1  10
ATOM     10  C   UNL     1      56.815  25.743  51.817  1.00  0.00     0.000 C 
BRANCH  10  11
ATOM     11  C   UNL     1      58.303  25.360  51.857  1.00  0.00    -0.000 C 
BRANCH  11  12
ATOM     12  C   UNL     1      59.008  25.591  50.509  1.00  0.00    -0.000 C 
BRANCH  12  13
ATOM     13  C   UNL     1      60.032  26.736  50.568  1.00  0.00    -0.000 C 
BRANCH  13  14
ATOM     14  C   UNL     1      59.673  27.903  49.631  1.00  0.00    -0.000 C 
BRANCH  14  15
ATOM     15  C   UNL     1      58.562  28.796  50.204  1.00  0.00    -0.003 C 
ATOM     16  C   UNL     1      58.775  29.129  51.680  1.00  0.00     0.004 C 
ENDBRANCH  14  15
ENDBRANCH  13  14
ENDBRANCH  12  13
ENDBRANCH  11  12
ENDBRANCH  10  11
ENDBRANCH   1  10
TORSDOF 12
ENDMDL
MODEL 6
REMARK VINA RESULT:    -3.275      2.139      2.937
REMARK INTER + INTRA:          -7.066
REMARK INTER:                  -5.297
REMARK INTRA:                  -1.768
REMARK UNBOUND:                -1.494
REMARK SMILES CCCCCCCCCCCCCC(=O)[O-]
REMARK SMILES IDX 8 1 9 2 10 3 11 4 12 5 13 6 14 7 15 8 16 9 7 10 6 11 5 12
REMARK SMILES IDX 4 13 3 14 2 15 1 16
REMARK H PARENT
REMARK Flexibility Score: inf
ROOT
ATOM      1  C   UNL     1      58.571  29.387  51.032  1.00  0.00     0.000 C 
ENDROOT
BRANCH   1   2
ATOM      2  C   UNL     1      58.932  28.561  49.788  1.00  0.00     0.000 C 
BRANCH   2   3
ATOM      3  C   UNL     1      59.897  27.405  50.108  1.00  0.00     0.000 C 
BRANCH   3   4
ATOM      4  C   UNL     1      59.206  26.033  50.073  1.00  0.00     0.000 C 
BRANCH   4   5
ATOM      5  C   UNL     1      59.120  25.380  51.465  1.00  0.00     0.006 C 
BRANCH   5   6
ATOM      6  C   UNL     1      60.126  25.985  52.451  1.00  0.00     0.053 C 
BRANCH   6   7
ATOM      7  C   UNL     1      61.263  25.049  52.726  1.00  0.00     0.041 C 
ATOM      8  O   UNL     1      61.540  24.717  53.909  1.00  0.00    -0.550 OA
ATOM      9  O   UNL     1      62.038  24.570  51.677  1.00  0.00    -0.550 OA
ENDBRANCH   6   7
ENDBRANCH   5   6
ENDBRANCH   4   5
ENDBRANCH   3   4
ENDBRANCH   2   3
ENDBRANCH   1   2
BRANCH   1  10
ATOM     10  C   UNL     1      57.076  29.757  51.079  1.00  0.00     0.000 C 
BRANCH  10  11
ATOM     11  C   UNL     1      56.159  28.548  50.840  1.00  0.00    -0.000 C 
BRANCH  11  12
ATOM     12  C   UNL     1      56.131  27.582  52.038  1.00  0.00    -0.000 C 
BRANCH  12  13
ATOM     13  C   UNL     1      55.490  26.229  51.690  1.00  0.00    -0.000 C 
BRANCH  13  14
ATOM     14  C   UNL     1      55.509  25.935  50.179  1.00  0.00    -0.000 C 
BRANCH  14  15
ATOM     15  C   UNL     1      54.144  25.461  49.655  1.00  0.00    -0.003 C 
ATOM     16  C   UNL     1      53.079  26.555  49.710  1.00  0.00     0.004 C 
ENDBRANCH  14  15
ENDBRANCH  13  14
ENDBRANCH  12  13
ENDBRANCH  11  12
ENDBRANCH  10  11
ENDBRANCH   1  10
TORSDOF 12
ENDMDL
MODEL 7
REMARK VINA RESULT:    -3.241      2.659      5.603
REMARK INTER + INTRA:          -7.008
REMARK INTER:                  -5.479
REMARK INTRA:                  -1.529
REMARK UNBOUND:                -1.494
REMARK SMILES CCCCCCCCCCCCCC(=O)[O-]
REMARK SMILES IDX 8 1 9 2 10 3 11 4 12 5 13 6 14 7 15 8 16 9 7 10 6 11 5 12
REMARK SMILES IDX 4 13 3 14 2 15 1 16
REMARK H PARENT
REMARK Flexibility Score: inf
ROOT
ATOM      1  C   UNL     1      56.518  27.299  51.672  1.00  0.00     0.000 C 
ENDROOT
BRANCH   1   2
ATOM      2  C   UNL     1      55.654  26.200  51.034  1.00  0.00     0.000 C 
BRANCH   2   3
ATOM      3  C   UNL     1      54.592  26.767  50.076  1.00  0.00     0.000 C 
BRANCH   3   4
ATOM      4  C   UNL     1      53.530  27.607  50.804  1.00  0.00     0.000 C 
BRANCH   4   5
ATOM      5  C   UNL     1      53.573  29.092  50.401  1.00  0.00     0.006 C 
BRANCH   5   6
ATOM      6  C   UNL     1      53.559  30.022  51.620  1.00  0.00     0.053 C 
BRANCH   6   7
ATOM      7  C   UNL     1      54.737  30.949  51.622  1.00  0.00     0.041 C 
ATOM      8  O   UNL     1      55.135  31.467  52.699  1.00  0.00    -0.550 OA
ATOM      9  O   UNL     1      55.375  31.265  50.430  1.00  0.00    -0.550 OA
ENDBRANCH   6   7
ENDBRANCH   5   6
ENDBRANCH   4   5
ENDBRANCH   3   4
ENDBRANCH   2   3
ENDBRANCH   1   2
BRANCH   1  10
ATOM     10  C   UNL     1      57.106  28.267  50.629  1.00  0.00     0.000 C 
BRANCH  10  11
ATOM     11  C   UNL     1      58.235  29.138  51.200  1.00  0.00    -0.000 C 
BRANCH  11  12
ATOM     12  C   UNL     1      59.496  29.122  50.318  1.00  0.00    -0.000 C 
BRANCH  12  13
ATOM     13  C   UNL     1      59.779  27.735  49.719  1.00  0.00    -0.000 C 
BRANCH  13  14
ATOM     14  C   UNL     1      60.850  26.956  50.504  1.00  0.00    -0.000 C 
BRANCH  14  15
ATOM     15  C   UNL     1      60.240  25.998  51.539  1.00  0.00    -0.003 C 
ATOM     16  C   UNL     1      59.256  25.007  50.917  1.00  0.00     0.004 C 
ENDBRANCH  14  15
ENDBRANCH  13  14
ENDBRANCH  12  13
ENDBRANCH  11  12
ENDBRANCH  10  11
ENDBRANCH   1  10
TORSDOF 12
ENDMDL
MODEL 8
REMARK VINA RESULT:    -3.231      3.043      5.785
REMARK INTER + INTRA:          -6.991
REMARK INTER:                  -5.066
REMARK INTRA:                  -1.925
REMARK UNBOUND:                -1.494
REMARK SMILES CCCCCCCCCCCCCC(=O)[O-]
REMARK SMILES IDX 8 1 9 2 10 3 11 4 12 5 13 6 14 7 15 8 16 9 7 10 6 11 5 12
REMARK SMILES IDX 4 13 3 14 2 15 1 16
REMARK H PARENT
REMARK Flexibility Score: inf
ROOT
ATOM      1  C   UNL     1      59.617  29.017  50.713  1.00  0.00     0.000 C 
ENDROOT
BRANCH   1   2
ATOM      2  C   UNL     1      58.228  29.221  50.089  1.00  0.00     0.000 C 
BRANCH   2   3
ATOM      3  C   UNL     1      57.281  30.015  51.006  1.00  0.00     0.000 C 
BRANCH   3   4
ATOM      4  C   UNL     1      55.847  29.461  50.997  1.00  0.00     0.000 C 
BRANCH   4   5
ATOM      5  C   UNL     1      55.808  27.927  50.870  1.00  0.00     0.006 C 
BRANCH   5   6
ATOM      6  C   UNL     1      54.503  27.433  50.234  1.00  0.00     0.053 C 
BRANCH   6   7
ATOM      7  C   UNL     1      54.496  25.943  50.072  1.00  0.00     0.041 C 
ATOM      8  O   UNL     1      53.755  25.403  49.209  1.00  0.00    -0.550 OA
ATOM      9  O   UNL     1      55.285  25.150  50.896  1.00  0.00    -0.550 OA
ENDBRANCH   6   7
ENDBRANCH   5   6
ENDBRANCH   4   5
ENDBRANCH   3   4
ENDBRANCH   2   3
ENDBRANCH   1   2
BRANCH   1  10
ATOM     10  C   UNL     1      60.294  27.720  50.232  1.00  0.00     0.000 C 
BRANCH  10  11
ATOM     11  C   UNL     1      59.283  26.664  49.760  1.00  0.00    -0.000 C 
BRANCH  11  12
ATOM     12  C   UNL     1      58.856  25.709  50.889  1.00  0.00    -0.000 C 
BRANCH  12  13
ATOM     13  C   UNL     1      59.970  25.484  51.923  1.00  0.00    -0.000 C 
BRANCH  13  14
ATOM     14  C   UNL     1      59.577  25.962  53.333  1.00  0.00    -0.000 C 
BRANCH  14  15
ATOM     15  C   UNL     1      58.143  26.513  53.388  1.00  0.00    -0.003 C 
ATOM     16  C   UNL     1      58.077  27.929  53.957  1.00  0.00     0.004 C 
ENDBRANCH  14  15
ENDBRANCH  13  14
ENDBRANCH  12  13
ENDBRANCH  11  12
ENDBRANCH  10  11
ENDBRANCH   1  10
TORSDOF 12
ENDMDL
MODEL 9
REMARK VINA RESULT:    -3.154      2.777      5.301
REMARK INTER + INTRA:          -6.860
REMARK INTER:                  -4.912
REMARK INTRA:                  -1.948
REMARK UNBOUND:                -1.494
REMARK SMILES CCCCCCCCCCCCCC(=O)[O-]
REMARK SMILES IDX 8 1 9 2 10 3 11 4 12 5 13 6 14 7 15 8 16 9 7 10 6 11 5 12
REMARK SMILES IDX 4 13 3 14 2 15 1 16
REMARK H PARENT
REMARK Flexibility Score: inf
ROOT
ATOM      1  C   UNL     1      57.782  26.348  52.875  1.00  0.00     0.000 C 
ENDROOT
BRANCH   1   2
ATOM      2  C   UNL     1      56.273  26.181  52.641  1.00  0.00     0.000 C 
BRANCH   2   3
ATOM      3  C   UNL     1      55.941  25.803  51.186  1.00  0.00     0.000 C 
BRANCH   3   4
ATOM      4  C   UNL     1      55.417  26.997  50.372  1.00  0.00     0.000 C 
BRANCH   4   5
ATOM      5  C   UNL     1      54.077  27.534  50.906  1.00  0.00     0.006 C 
BRANCH   5   6
ATOM      6  C   UNL     1      53.760  28.935  50.369  1.00  0.00     0.053 C 
BRANCH   6   7
ATOM      7  C   UNL     1      54.343  30.006  51.240  1.00  0.00     0.041 C 
ATOM      8  O   UNL     1      55.070  30.905  50.739  1.00  0.00    -0.550 OA
ATOM      9  O   UNL     1      54.111  29.992  52.610  1.00  0.00    -0.550 OA
ENDBRANCH   6   7
ENDBRANCH   5   6
ENDBRANCH   4   5
ENDBRANCH   3   4
ENDBRANCH   2   3
ENDBRANCH   1   2
BRANCH   1  10
ATOM     10  C   UNL     1      58.128  27.682  53.563  1.00  0.00     0.000 C 
BRANCH  10  11
ATOM     11  C   UNL     1      57.508  28.894  52.851  1.00  0.00    -0.000 C 
BRANCH  11  12
ATOM     12  C   UNL     1      58.479  29.554  51.856  1.00  0.00    -0.000 C 
BRANCH  12  13
ATOM     13  C   UNL     1      58.128  29.238  50.393  1.00  0.00    -0.000 C 
BRANCH  13  14
ATOM     14  C   UNL     1      59.315  28.644  49.613  1.00  0.00    -0.000 C 
BRANCH  14  15
ATOM     15  C   UNL     1      59.536  27.155  49.924  1.00  0.00    -0.003 C 
ATOM     16  C   UNL     1      60.859  26.893  50.643  1.00  0.00     0.004 C 
ENDBRANCH  14  15
ENDBRANCH  13  14
ENDBRANCH  12  13
ENDBRANCH  11  12
ENDBRANCH  10  11
ENDBRANCH   1  10
TORSDOF 12
ENDMDL
