MODEL 1
REMARK VINA RESULT:    -4.737      0.000      0.000
REMARK INTER + INTRA:         -13.848
REMARK INTER:                 -10.275
REMARK INTRA:                  -3.573
REMARK UNBOUND:                -3.573
REMARK SMILES CCCCCCCCCCCCCCCCCCCCCC(=O)[O-]
REMARK SMILES IDX 12 1 11 2 10 3 9 4 8 5 7 6 6 7 5 8 4 9 3 10 2 11 1 12 13 13
REMARK SMILES IDX 14 14 15 15 16 16 17 17 18 18 19 19 20 20 21 21 22 22 23 23
REMARK SMILES IDX 24 24
REMARK H PARENT
REMARK Flexibility Score: inf
ROOT
ATOM      1  C   UNL     1     208.640 206.690 158.773  1.00  0.00     0.000 C 
ENDROOT
BRANCH   1   2
ATOM      2  C   UNL     1     208.083 205.260 158.679  1.00  0.00     0.000 C 
BRANCH   2   3
ATOM      3  C   UNL     1     206.986 204.985 159.723  1.00  0.00     0.000 C 
BRANCH   3   4
ATOM      4  C   UNL     1     206.076 203.806 159.317  1.00  0.00    -0.000 C 
BRANCH   4   5
ATOM      5  C   UNL     1     206.198 203.409 157.834  1.00  0.00    -0.000 C 
BRANCH   5   6
ATOM      6  C   UNL     1     206.358 201.901 157.576  1.00  0.00    -0.000 C 
BRANCH   6   7
ATOM      7  C   UNL     1     206.959 201.598 156.192  1.00  0.00    -0.000 C 
BRANCH   7   8
ATOM      8  C   UNL     1     207.802 202.762 155.639  1.00  0.00    -0.000 C 
BRANCH   8   9
ATOM      9  C   UNL     1     209.323 202.634 155.858  1.00  0.00    -0.000 C 
BRANCH   9  10
ATOM     10  C   UNL     1     210.092 201.929 154.723  1.00  0.00    -0.000 C 
BRANCH  10  11
ATOM     11  C   UNL     1     211.625 201.996 154.844  1.00  0.00    -0.003 C 
ATOM     12  C   UNL     1     212.244 203.088 153.973  1.00  0.00     0.004 C 
ENDBRANCH  10  11
ENDBRANCH   9  10
ENDBRANCH   8   9
ENDBRANCH   7   8
ENDBRANCH   6   7
ENDBRANCH   5   6
ENDBRANCH   4   5
ENDBRANCH   3   4
ENDBRANCH   2   3
ENDBRANCH   1   2
BRANCH   1  13
ATOM     13  C   UNL     1     208.820 207.344 157.393  1.00  0.00     0.000 C 
BRANCH  13  14
ATOM     14  C   UNL     1     208.493 206.388 156.233  1.00  0.00     0.000 C 
BRANCH  14  15
ATOM     15  C   UNL     1     208.229 207.114 154.896  1.00  0.00     0.000 C 
BRANCH  15  16
ATOM     16  C   UNL     1     206.946 206.621 154.211  1.00  0.00     0.000 C 
BRANCH  16  17
ATOM     17  C   UNL     1     206.017 205.930 155.218  1.00  0.00     0.000 C 
BRANCH  17  18
ATOM     18  C   UNL     1     204.917 206.884 155.700  1.00  0.00     0.000 C 
BRANCH  18  19
ATOM     19  C   UNL     1     204.548 206.598 157.163  1.00  0.00     0.000 C 
BRANCH  19  20
ATOM     20  C   UNL     1     205.055 207.682 158.127  1.00  0.00     0.006 C 
BRANCH  20  21
ATOM     21  C   UNL     1     205.756 208.837 157.399  1.00  0.00     0.053 C 
BRANCH  21  22
ATOM     22  C   UNL     1     205.905 210.016 158.309  1.00  0.00     0.041 C 
ATOM     23  O   UNL     1     206.974 210.679 158.317  1.00  0.00    -0.550 OA
ATOM     24  O   UNL     1     204.871 210.368 159.167  1.00  0.00    -0.550 OA
ENDBRANCH  21  22
ENDBRANCH  20  21
ENDBRANCH  19  20
ENDBRANCH  18  19
ENDBRANCH  17  18
ENDBRANCH  16  17
ENDBRANCH  15  16
ENDBRANCH  14  15
ENDBRANCH  13  14
ENDBRANCH   1  13
TORSDOF 20
ENDMDL
MODEL 2
REMARK VINA RESULT:    -4.668      3.370      6.789
REMARK INTER + INTRA:         -13.699
REMARK INTER:                  -9.744
REMARK INTRA:                  -3.955
REMARK UNBOUND:                -3.573
REMARK SMILES CCCCCCCCCCCCCCCCCCCCCC(=O)[O-]
REMARK SMILES IDX 12 1 11 2 10 3 9 4 8 5 7 6 6 7 5 8 4 9 3 10 2 11 1 12 13 13
REMARK SMILES IDX 14 14 15 15 16 16 17 17 18 18 19 19 20 20 21 21 22 22 23 23
REMARK SMILES IDX 24 24
REMARK H PARENT
REMARK Flexibility Score: inf
ROOT
ATOM      1  C   UNL     1     208.600 206.349 158.528  1.00  0.00     0.000 C 
ENDROOT
BRANCH   1   2
ATOM      2  C   UNL     1     208.404 205.773 157.116  1.00  0.00     0.000 C 
BRANCH   2   3
ATOM      3  C   UNL     1     208.987 206.684 156.021  1.00  0.00     0.000 C 
BRANCH   3   4
ATOM      4  C   UNL     1     207.942 207.046 154.944  1.00  0.00    -0.000 C 
BRANCH   4   5
ATOM      5  C   UNL     1     206.631 206.245 155.058  1.00  0.00    -0.000 C 
BRANCH   5   6
ATOM      6  C   UNL     1     205.348 207.065 154.838  1.00  0.00    -0.000 C 
BRANCH   6   7
ATOM      7  C   UNL     1     204.237 206.704 155.839  1.00  0.00    -0.000 C 
BRANCH   7   8
ATOM      8  C   UNL     1     204.754 206.569 157.283  1.00  0.00    -0.000 C 
BRANCH   8   9
ATOM      9  C   UNL     1     204.407 207.747 158.217  1.00  0.00    -0.000 C 
BRANCH   9  10
ATOM     10  C   UNL     1     205.613 208.570 158.711  1.00  0.00    -0.000 C 
BRANCH  10  11
ATOM     11  C   UNL     1     206.444 209.230 157.596  1.00  0.00    -0.003 C 
ATOM     12  C   UNL     1     207.157 210.500 158.057  1.00  0.00     0.004 C 
ENDBRANCH  10  11
ENDBRANCH   9  10
ENDBRANCH   8   9
ENDBRANCH   7   8
ENDBRANCH   6   7
ENDBRANCH   5   6
ENDBRANCH   4   5
ENDBRANCH   3   4
ENDBRANCH   2   3
ENDBRANCH   1   2
BRANCH   1  13
ATOM     13  C   UNL     1     208.261 205.334 159.631  1.00  0.00     0.000 C 
BRANCH  13  14
ATOM     14  C   UNL     1     206.748 205.108 159.789  1.00  0.00     0.000 C 
BRANCH  14  15
ATOM     15  C   UNL     1     206.329 203.629 159.645  1.00  0.00     0.000 C 
BRANCH  15  16
ATOM     16  C   UNL     1     205.572 203.365 158.335  1.00  0.00     0.000 C 
BRANCH  16  17
ATOM     17  C   UNL     1     206.362 202.412 157.427  1.00  0.00     0.000 C 
BRANCH  17  18
ATOM     18  C   UNL     1     206.145 202.752 155.948  1.00  0.00     0.000 C 
BRANCH  18  19
ATOM     19  C   UNL     1     207.475 202.727 155.180  1.00  0.00     0.000 C 
BRANCH  19  20
ATOM     20  C   UNL     1     208.637 202.180 156.023  1.00  0.00     0.006 C 
BRANCH  20  21
ATOM     21  C   UNL     1     209.977 202.845 155.681  1.00  0.00     0.053 C 
BRANCH  21  22
ATOM     22  C   UNL     1     210.788 201.959 154.789  1.00  0.00     0.041 C 
ATOM     23  O   UNL     1     212.043 201.939 154.885  1.00  0.00    -0.550 OA
ATOM     24  O   UNL     1     210.160 201.171 153.832  1.00  0.00    -0.550 OA
ENDBRANCH  21  22
ENDBRANCH  20  21
ENDBRANCH  19  20
ENDBRANCH  18  19
ENDBRANCH  17  18
ENDBRANCH  16  17
ENDBRANCH  15  16
ENDBRANCH  14  15
ENDBRANCH  13  14
ENDBRANCH   1  13
TORSDOF 20
ENDMDL
MODEL 3
REMARK VINA RESULT:    -4.646      3.239      6.976
REMARK INTER + INTRA:         -13.652
REMARK INTER:                  -9.746
REMARK INTRA:                  -3.906
REMARK UNBOUND:                -3.573
REMARK SMILES CCCCCCCCCCCCCCCCCCCCCC(=O)[O-]
REMARK SMILES IDX 12 1 11 2 10 3 9 4 8 5 7 6 6 7 5 8 4 9 3 10 2 11 1 12 13 13
REMARK SMILES IDX 14 14 15 15 16 16 17 17 18 18 19 19 20 20 21 21 22 22 23 23
REMARK SMILES IDX 24 24
REMARK H PARENT
REMARK Flexibility Score: inf
ROOT
ATOM      1  C   UNL     1     207.904 205.245 158.553  1.00  0.00     0.000 C 
ENDROOT
BRANCH   1   2
ATOM      2  C   UNL     1     208.535 206.638 158.707  1.00  0.00     0.000 C 
BRANCH   2   3
ATOM      3  C   UNL     1     208.996 207.230 157.363  1.00  0.00     0.000 C 
BRANCH   3   4
ATOM      4  C   UNL     1     208.603 206.337 156.167  1.00  0.00    -0.000 C 
BRANCH   4   5
ATOM      5  C   UNL     1     208.018 207.118 154.975  1.00  0.00    -0.000 C 
BRANCH   5   6
ATOM      6  C   UNL     1     206.712 206.544 154.399  1.00  0.00    -0.000 C 
BRANCH   6   7
ATOM      7  C   UNL     1     205.833 205.883 155.474  1.00  0.00    -0.000 C 
BRANCH   7   8
ATOM      8  C   UNL     1     204.764 206.836 156.042  1.00  0.00    -0.000 C 
BRANCH   8   9
ATOM      9  C   UNL     1     204.474 206.674 157.548  1.00  0.00    -0.000 C 
BRANCH   9  10
ATOM     10  C   UNL     1     204.947 207.841 158.437  1.00  0.00    -0.000 C 
BRANCH  10  11
ATOM     11  C   UNL     1     205.836 208.876 157.724  1.00  0.00    -0.003 C 
ATOM     12  C   UNL     1     205.897 210.214 158.459  1.00  0.00     0.004 C 
ENDBRANCH  10  11
ENDBRANCH   9  10
ENDBRANCH   8   9
ENDBRANCH   7   8
ENDBRANCH   6   7
ENDBRANCH   5   6
ENDBRANCH   4   5
ENDBRANCH   3   4
ENDBRANCH   2   3
ENDBRANCH   1   2
BRANCH   1  13
ATOM     13  C   UNL     1     206.923 204.913 159.688  1.00  0.00     0.000 C 
BRANCH  13  14
ATOM     14  C   UNL     1     206.281 203.524 159.535  1.00  0.00     0.000 C 
BRANCH  14  15
ATOM     15  C   UNL     1     205.648 203.290 158.147  1.00  0.00     0.000 C 
BRANCH  15  16
ATOM     16  C   UNL     1     206.316 202.133 157.391  1.00  0.00     0.000 C 
BRANCH  16  17
ATOM     17  C   UNL     1     206.189 202.323 155.873  1.00  0.00     0.000 C 
BRANCH  17  18
ATOM     18  C   UNL     1     207.537 202.702 155.248  1.00  0.00     0.000 C 
BRANCH  18  19
ATOM     19  C   UNL     1     208.694 202.378 156.205  1.00  0.00     0.000 C 
BRANCH  19  20
ATOM     20  C   UNL     1     210.061 202.813 155.653  1.00  0.00     0.006 C 
BRANCH  20  21
ATOM     21  C   UNL     1     210.616 201.833 154.612  1.00  0.00     0.053 C 
BRANCH  21  22
ATOM     22  C   UNL     1     212.067 202.100 154.362  1.00  0.00     0.041 C 
ATOM     23  O   UNL     1     212.433 203.194 153.859  1.00  0.00    -0.550 OA
ATOM     24  O   UNL     1     213.015 201.131 154.662  1.00  0.00    -0.550 OA
ENDBRANCH  21  22
ENDBRANCH  20  21
ENDBRANCH  19  20
ENDBRANCH  18  19
ENDBRANCH  17  18
ENDBRANCH  16  17
ENDBRANCH  15  16
ENDBRANCH  14  15
ENDBRANCH  13  14
ENDBRANCH   1  13
TORSDOF 20
ENDMDL
MODEL 4
REMARK VINA RESULT:    -4.622      2.568      4.389
REMARK INTER + INTRA:         -13.600
REMARK INTER:                 -10.015
REMARK INTRA:                  -3.585
REMARK UNBOUND:                -3.573
REMARK SMILES CCCCCCCCCCCCCCCCCCCCCC(=O)[O-]
REMARK SMILES IDX 12 1 11 2 10 3 9 4 8 5 7 6 6 7 5 8 4 9 3 10 2 11 1 12 13 13
REMARK SMILES IDX 14 14 15 15 16 16 17 17 18 18 19 19 20 20 21 21 22 22 23 23
REMARK SMILES IDX 24 24
REMARK H PARENT
REMARK Flexibility Score: inf
ROOT
ATOM      1  C   UNL     1     206.838 205.537 159.450  1.00  0.00     0.000 C 
ENDROOT
BRANCH   1   2
ATOM      2  C   UNL     1     206.482 204.061 159.687  1.00  0.00     0.000 C 
BRANCH   2   3
ATOM      3  C   UNL     1     205.708 203.444 158.509  1.00  0.00     0.000 C 
BRANCH   3   4
ATOM      4  C   UNL     1     206.255 202.056 158.113  1.00  0.00    -0.000 C 
BRANCH   4   5
ATOM      5  C   UNL     1     206.530 201.904 156.605  1.00  0.00    -0.000 C 
BRANCH   5   6
ATOM      6  C   UNL     1     205.783 202.902 155.704  1.00  0.00    -0.000 C 
BRANCH   6   7
ATOM      7  C   UNL     1     206.736 203.756 154.850  1.00  0.00    -0.000 C 
BRANCH   7   8
ATOM      8  C   UNL     1     206.830 205.214 155.336  1.00  0.00    -0.000 C 
BRANCH   8   9
ATOM      9  C   UNL     1     205.976 206.226 154.546  1.00  0.00    -0.000 C 
BRANCH   9  10
ATOM     10  C   UNL     1     204.769 206.806 155.311  1.00  0.00    -0.000 C 
BRANCH  10  11
ATOM     11  C   UNL     1     204.606 206.284 156.750  1.00  0.00    -0.003 C 
ATOM     12  C   UNL     1     203.165 205.907 157.087  1.00  0.00     0.004 C 
ENDBRANCH  10  11
ENDBRANCH   9  10
ENDBRANCH   8   9
ENDBRANCH   7   8
ENDBRANCH   6   7
ENDBRANCH   5   6
ENDBRANCH   4   5
ENDBRANCH   3   4
ENDBRANCH   2   3
ENDBRANCH   1   2
BRANCH   1  13
ATOM     13  C   UNL     1     208.160 205.709 158.686  1.00  0.00     0.000 C 
BRANCH  13  14
ATOM     14  C   UNL     1     208.617 207.175 158.606  1.00  0.00     0.000 C 
BRANCH  14  15
ATOM     15  C   UNL     1     208.771 207.693 157.160  1.00  0.00     0.000 C 
BRANCH  15  16
ATOM     16  C   UNL     1     207.601 208.593 156.737  1.00  0.00     0.000 C 
BRANCH  16  17
ATOM     17  C   UNL     1     207.227 209.570 157.860  1.00  0.00     0.000 C 
BRANCH  17  18
ATOM     18  C   UNL     1     205.705 209.691 158.003  1.00  0.00     0.000 C 
BRANCH  18  19
ATOM     19  C   UNL     1     205.210 208.929 159.242  1.00  0.00     0.000 C 
BRANCH  19  20
ATOM     20  C   UNL     1     203.684 208.994 159.408  1.00  0.00     0.006 C 
BRANCH  20  21
ATOM     21  C   UNL     1     203.180 210.417 159.681  1.00  0.00     0.053 C 
BRANCH  21  22
ATOM     22  C   UNL     1     201.818 210.381 160.300  1.00  0.00     0.041 C 
ATOM     23  O   UNL     1     201.045 209.414 160.075  1.00  0.00    -0.550 OA
ATOM     24  O   UNL     1     201.392 211.428 161.108  1.00  0.00    -0.550 OA
ENDBRANCH  21  22
ENDBRANCH  20  21
ENDBRANCH  19  20
ENDBRANCH  18  19
ENDBRANCH  17  18
ENDBRANCH  16  17
ENDBRANCH  15  16
ENDBRANCH  14  15
ENDBRANCH  13  14
ENDBRANCH   1  13
TORSDOF 20
ENDMDL
MODEL 5
REMARK VINA RESULT:    -4.417      3.239      6.630
REMARK INTER + INTRA:         -13.154
REMARK INTER:                  -9.446
REMARK INTRA:                  -3.709
REMARK UNBOUND:                -3.573
REMARK SMILES CCCCCCCCCCCCCCCCCCCCCC(=O)[O-]
REMARK SMILES IDX 12 1 11 2 10 3 9 4 8 5 7 6 6 7 5 8 4 9 3 10 2 11 1 12 13 13
REMARK SMILES IDX 14 14 15 15 16 16 17 17 18 18 19 19 20 20 21 21 22 22 23 23
REMARK SMILES IDX 24 24
REMARK H PARENT
REMARK Flexibility Score: inf
ROOT
ATOM      1  C   UNL     1     208.443 206.288 157.159  1.00  0.00     0.000 C 
ENDROOT
BRANCH   1   2
ATOM      2  C   UNL     1     208.625 207.702 156.585  1.00  0.00     0.000 C 
BRANCH   2   3
ATOM      3  C   UNL     1     208.326 208.802 157.619  1.00  0.00     0.000 C 
BRANCH   3   4
ATOM      4  C   UNL     1     207.130 209.685 157.203  1.00  0.00    -0.000 C 
BRANCH   4   5
ATOM      5  C   UNL     1     206.141 209.971 158.349  1.00  0.00    -0.000 C 
BRANCH   5   6
ATOM      6  C   UNL     1     204.818 209.189 158.277  1.00  0.00    -0.000 C 
BRANCH   6   7
ATOM      7  C   UNL     1     204.989 207.703 158.635  1.00  0.00    -0.000 C 
BRANCH   7   8
ATOM      8  C   UNL     1     204.050 206.783 157.833  1.00  0.00    -0.000 C 
BRANCH   8   9
ATOM      9  C   UNL     1     204.624 206.260 156.501  1.00  0.00    -0.000 C 
BRANCH   9  10
ATOM     10  C   UNL     1     204.768 207.316 155.387  1.00  0.00    -0.000 C 
BRANCH  10  11
ATOM     11  C   UNL     1     205.810 206.976 154.307  1.00  0.00    -0.003 C 
ATOM     12  C   UNL     1     206.342 205.549 154.421  1.00  0.00     0.004 C 
ENDBRANCH  10  11
ENDBRANCH   9  10
ENDBRANCH   8   9
ENDBRANCH   7   8
ENDBRANCH   6   7
ENDBRANCH   5   6
ENDBRANCH   4   5
ENDBRANCH   3   4
ENDBRANCH   2   3
ENDBRANCH   1   2
BRANCH   1  13
ATOM     13  C   UNL     1     208.198 206.295 158.677  1.00  0.00     0.000 C 
BRANCH  13  14
ATOM     14  C   UNL     1     207.990 204.884 159.254  1.00  0.00     0.000 C 
BRANCH  14  15
ATOM     15  C   UNL     1     206.545 204.623 159.728  1.00  0.00     0.000 C 
BRANCH  15  16
ATOM     16  C   UNL     1     205.930 203.383 159.062  1.00  0.00     0.000 C 
BRANCH  16  17
ATOM     17  C   UNL     1     206.256 203.346 157.562  1.00  0.00     0.000 C 
BRANCH  17  18
ATOM     18  C   UNL     1     206.539 201.915 157.092  1.00  0.00     0.000 C 
BRANCH  18  19
ATOM     19  C   UNL     1     207.198 201.915 155.705  1.00  0.00     0.000 C 
BRANCH  19  20
ATOM     20  C   UNL     1     208.381 202.892 155.610  1.00  0.00     0.006 C 
BRANCH  20  21
ATOM     21  C   UNL     1     209.720 202.234 155.967  1.00  0.00     0.053 C 
BRANCH  21  22
ATOM     22  C   UNL     1     210.509 201.946 154.728  1.00  0.00     0.041 C 
ATOM     23  O   UNL     1     210.079 201.124 153.878  1.00  0.00    -0.550 OA
ATOM     24  O   UNL     1     211.734 202.569 154.523  1.00  0.00    -0.550 OA
ENDBRANCH  21  22
ENDBRANCH  20  21
ENDBRANCH  19  20
ENDBRANCH  18  19
ENDBRANCH  17  18
ENDBRANCH  16  17
ENDBRANCH  15  16
ENDBRANCH  14  15
ENDBRANCH  13  14
ENDBRANCH   1  13
TORSDOF 20
ENDMDL
MODEL 6
REMARK VINA RESULT:    -4.387      1.275      2.791
REMARK INTER + INTRA:         -13.091
REMARK INTER:                  -9.670
REMARK INTRA:                  -3.420
REMARK UNBOUND:                -3.573
REMARK SMILES CCCCCCCCCCCCCCCCCCCCCC(=O)[O-]
REMARK SMILES IDX 12 1 11 2 10 3 9 4 8 5 7 6 6 7 5 8 4 9 3 10 2 11 1 12 13 13
REMARK SMILES IDX 14 14 15 15 16 16 17 17 18 18 19 19 20 20 21 21 22 22 23 23
REMARK SMILES IDX 24 24
REMARK H PARENT
REMARK Flexibility Score: inf
ROOT
ATOM      1  C   UNL     1     204.277 206.869 155.014  1.00  0.00     0.000 C 
ENDROOT
BRANCH   1   2
ATOM      2  C   UNL     1     204.402 206.802 156.545  1.00  0.00     0.000 C 
BRANCH   2   3
ATOM      3  C   UNL     1     203.428 205.789 157.172  1.00  0.00     0.000 C 
BRANCH   3   4
ATOM      4  C   UNL     1     204.000 204.355 157.178  1.00  0.00    -0.000 C 
BRANCH   4   5
ATOM      5  C   UNL     1     205.407 204.250 157.799  1.00  0.00    -0.000 C 
BRANCH   5   6
ATOM      6  C   UNL     1     206.197 202.989 157.408  1.00  0.00    -0.000 C 
BRANCH   6   7
ATOM      7  C   UNL     1     206.105 202.676 155.905  1.00  0.00    -0.000 C 
BRANCH   7   8
ATOM      8  C   UNL     1     207.479 202.679 155.210  1.00  0.00    -0.000 C 
BRANCH   8   9
ATOM      9  C   UNL     1     208.673 202.310 156.113  1.00  0.00    -0.000 C 
BRANCH   9  10
ATOM     10  C   UNL     1     210.019 202.950 155.718  1.00  0.00    -0.000 C 
BRANCH  10  11
ATOM     11  C   UNL     1     210.856 202.129 154.721  1.00  0.00    -0.003 C 
ATOM     12  C   UNL     1     212.066 202.894 154.188  1.00  0.00     0.004 C 
ENDBRANCH  10  11
ENDBRANCH   9  10
ENDBRANCH   8   9
ENDBRANCH   7   8
ENDBRANCH   6   7
ENDBRANCH   5   6
ENDBRANCH   4   5
ENDBRANCH   3   4
ENDBRANCH   2   3
ENDBRANCH   1   2
BRANCH   1  13
ATOM     13  C   UNL     1     205.631 207.090 154.321  1.00  0.00     0.000 C 
BRANCH  13  14
ATOM     14  C   UNL     1     206.746 206.199 154.893  1.00  0.00     0.000 C 
BRANCH  14  15
ATOM     15  C   UNL     1     208.166 206.730 154.601  1.00  0.00     0.000 C 
BRANCH  15  16
ATOM     16  C   UNL     1     209.039 206.777 155.864  1.00  0.00     0.000 C 
BRANCH  16  17
ATOM     17  C   UNL     1     208.341 206.082 157.041  1.00  0.00     0.000 C 
BRANCH  17  18
ATOM     18  C   UNL     1     208.043 207.074 158.171  1.00  0.00     0.000 C 
BRANCH  18  19
ATOM     19  C   UNL     1     208.186 208.522 157.680  1.00  0.00     0.000 C 
BRANCH  19  20
ATOM     20  C   UNL     1     206.836 209.160 157.313  1.00  0.00     0.006 C 
BRANCH  20  21
ATOM     21  C   UNL     1     206.385 210.213 158.333  1.00  0.00     0.053 C 
BRANCH  21  22
ATOM     22  C   UNL     1     205.075 209.823 158.943  1.00  0.00     0.041 C 
ATOM     23  O   UNL     1     204.149 210.668 159.049  1.00  0.00    -0.550 OA
ATOM     24  O   UNL     1     204.885 208.531 159.417  1.00  0.00    -0.550 OA
ENDBRANCH  21  22
ENDBRANCH  20  21
ENDBRANCH  19  20
ENDBRANCH  18  19
ENDBRANCH  17  18
ENDBRANCH  16  17
ENDBRANCH  15  16
ENDBRANCH  14  15
ENDBRANCH  13  14
ENDBRANCH   1  13
TORSDOF 20
ENDMDL
MODEL 7
REMARK VINA RESULT:    -4.345      3.536      7.878
REMARK INTER + INTRA:         -12.999
REMARK INTER:                 -10.139
REMARK INTRA:                  -2.860
REMARK UNBOUND:                -3.573
REMARK SMILES CCCCCCCCCCCCCCCCCCCCCC(=O)[O-]
REMARK SMILES IDX 12 1 11 2 10 3 9 4 8 5 7 6 6 7 5 8 4 9 3 10 2 11 1 12 13 13
REMARK SMILES IDX 14 14 15 15 16 16 17 17 18 18 19 19 20 20 21 21 22 22 23 23
REMARK SMILES IDX 24 24
REMARK H PARENT
REMARK Flexibility Score: inf
ROOT
ATOM      1  C   UNL     1     207.455 207.059 154.367  1.00  0.00     0.000 C 
ENDROOT
BRANCH   1   2
ATOM      2  C   UNL     1     208.889 207.167 154.908  1.00  0.00     0.000 C 
BRANCH   2   3
ATOM      3  C   UNL     1     209.018 206.638 156.348  1.00  0.00     0.000 C 
BRANCH   3   4
ATOM      4  C   UNL     1     209.057 207.778 157.388  1.00  0.00    -0.000 C 
BRANCH   4   5
ATOM      5  C   UNL     1     207.667 208.183 157.916  1.00  0.00    -0.000 C 
BRANCH   5   6
ATOM      6  C   UNL     1     207.065 209.439 157.263  1.00  0.00    -0.000 C 
BRANCH   6   7
ATOM      7  C   UNL     1     205.645 209.746 157.769  1.00  0.00    -0.000 C 
BRANCH   7   8
ATOM      8  C   UNL     1     205.014 208.565 158.531  1.00  0.00    -0.000 C 
BRANCH   8   9
ATOM      9  C   UNL     1     204.178 208.953 159.767  1.00  0.00    -0.000 C 
BRANCH   9  10
ATOM     10  C   UNL     1     203.355 210.249 159.623  1.00  0.00    -0.000 C 
BRANCH  10  11
ATOM     11  C   UNL     1     201.914 210.160 160.155  1.00  0.00    -0.003 C 
ATOM     12  C   UNL     1     201.477 211.418 160.903  1.00  0.00     0.004 C 
ENDBRANCH  10  11
ENDBRANCH   9  10
ENDBRANCH   8   9
ENDBRANCH   7   8
ENDBRANCH   6   7
ENDBRANCH   5   6
ENDBRANCH   4   5
ENDBRANCH   3   4
ENDBRANCH   2   3
ENDBRANCH   1   2
BRANCH   1  13
ATOM     13  C   UNL     1     206.680 205.883 154.983  1.00  0.00     0.000 C 
BRANCH  13  14
ATOM     14  C   UNL     1     205.369 206.321 155.659  1.00  0.00     0.000 C 
BRANCH  14  15
ATOM     15  C   UNL     1     204.842 205.302 156.692  1.00  0.00     0.000 C 
BRANCH  15  16
ATOM     16  C   UNL     1     205.776 205.166 157.903  1.00  0.00     0.000 C 
BRANCH  16  17
ATOM     17  C   UNL     1     206.464 203.794 157.915  1.00  0.00     0.000 C 
BRANCH  17  18
ATOM     18  C   UNL     1     205.992 202.929 156.740  1.00  0.00     0.000 C 
BRANCH  18  19
ATOM     19  C   UNL     1     207.024 201.838 156.416  1.00  0.00     0.000 C 
BRANCH  19  20
ATOM     20  C   UNL     1     207.982 202.243 155.285  1.00  0.00     0.006 C 
BRANCH  20  21
ATOM     21  C   UNL     1     209.395 202.557 155.794  1.00  0.00     0.053 C 
BRANCH  21  22
ATOM     22  C   UNL     1     210.424 202.002 154.859  1.00  0.00     0.041 C 
ATOM     23  O   UNL     1     211.625 202.365 154.950  1.00  0.00    -0.550 OA
ATOM     24  O   UNL     1     210.051 201.101 153.870  1.00  0.00    -0.550 OA
ENDBRANCH  21  22
ENDBRANCH  20  21
ENDBRANCH  19  20
ENDBRANCH  18  19
ENDBRANCH  17  18
ENDBRANCH  16  17
ENDBRANCH  15  16
ENDBRANCH  14  15
ENDBRANCH  13  14
ENDBRANCH   1  13
TORSDOF 20
ENDMDL
MODEL 8
REMARK VINA RESULT:    -4.344      1.479      2.557
REMARK INTER + INTRA:         -12.996
REMARK INTER:                  -9.472
REMARK INTRA:                  -3.524
REMARK UNBOUND:                -3.573
REMARK SMILES CCCCCCCCCCCCCCCCCCCCCC(=O)[O-]
REMARK SMILES IDX 12 1 11 2 10 3 9 4 8 5 7 6 6 7 5 8 4 9 3 10 2 11 1 12 13 13
REMARK SMILES IDX 14 14 15 15 16 16 17 17 18 18 19 19 20 20 21 21 22 22 23 23
REMARK SMILES IDX 24 24
REMARK H PARENT
REMARK Flexibility Score: inf
ROOT
ATOM      1  C   UNL     1     209.391 207.503 156.679  1.00  0.00     0.000 C 
ENDROOT
BRANCH   1   2
ATOM      2  C   UNL     1     208.395 207.357 157.841  1.00  0.00     0.000 C 
BRANCH   2   3
ATOM      3  C   UNL     1     209.073 206.904 159.146  1.00  0.00     0.000 C 
BRANCH   3   4
ATOM      4  C   UNL     1     208.626 205.491 159.577  1.00  0.00    -0.000 C 
BRANCH   4   5
ATOM      5  C   UNL     1     207.559 204.869 158.655  1.00  0.00    -0.000 C 
BRANCH   5   6
ATOM      6  C   UNL     1     206.377 204.206 159.383  1.00  0.00    -0.000 C 
BRANCH   6   7
ATOM      7  C   UNL     1     205.540 203.308 158.456  1.00  0.00    -0.000 C 
BRANCH   7   8
ATOM      8  C   UNL     1     206.367 202.181 157.810  1.00  0.00    -0.000 C 
BRANCH   8   9
ATOM      9  C   UNL     1     206.318 202.131 156.269  1.00  0.00    -0.000 C 
BRANCH   9  10
ATOM     10  C   UNL     1     207.446 202.898 155.551  1.00  0.00    -0.000 C 
BRANCH  10  11
ATOM     11  C   UNL     1     208.862 202.355 155.811  1.00  0.00    -0.003 C 
ATOM     12  C   UNL     1     209.901 203.461 155.987  1.00  0.00     0.004 C 
ENDBRANCH  10  11
ENDBRANCH   9  10
ENDBRANCH   8   9
ENDBRANCH   7   8
ENDBRANCH   6   7
ENDBRANCH   5   6
ENDBRANCH   4   5
ENDBRANCH   3   4
ENDBRANCH   2   3
ENDBRANCH   1   2
BRANCH   1  13
ATOM     13  C   UNL     1     208.704 207.468 155.305  1.00  0.00     0.000 C 
BRANCH  13  14
ATOM     14  C   UNL     1     207.688 206.321 155.176  1.00  0.00     0.000 C 
BRANCH  14  15
ATOM     15  C   UNL     1     206.455 206.687 154.321  1.00  0.00     0.000 C 
BRANCH  15  16
ATOM     16  C   UNL     1     205.256 207.109 155.182  1.00  0.00     0.000 C 
BRANCH  16  17
ATOM     17  C   UNL     1     204.982 206.079 156.286  1.00  0.00     0.000 C 
BRANCH  17  18
ATOM     18  C   UNL     1     204.139 206.686 157.413  1.00  0.00     0.000 C 
BRANCH  18  19
ATOM     19  C   UNL     1     205.025 207.458 158.403  1.00  0.00     0.000 C 
BRANCH  19  20
ATOM     20  C   UNL     1     205.055 208.968 158.120  1.00  0.00     0.006 C 
BRANCH  20  21
ATOM     21  C   UNL     1     204.883 209.810 159.392  1.00  0.00     0.053 C 
BRANCH  21  22
ATOM     22  C   UNL     1     203.448 210.194 159.574  1.00  0.00     0.041 C 
ATOM     23  O   UNL     1     203.083 211.386 159.397  1.00  0.00    -0.550 OA
ATOM     24  O   UNL     1     202.516 209.241 159.964  1.00  0.00    -0.550 OA
ENDBRANCH  21  22
ENDBRANCH  20  21
ENDBRANCH  19  20
ENDBRANCH  18  19
ENDBRANCH  17  18
ENDBRANCH  16  17
ENDBRANCH  15  16
ENDBRANCH  14  15
ENDBRANCH  13  14
ENDBRANCH   1  13
TORSDOF 20
ENDMDL
MODEL 9
REMARK VINA RESULT:    -4.330      1.202      3.451
REMARK INTER + INTRA:         -12.965
REMARK INTER:                  -9.120
REMARK INTRA:                  -3.845
REMARK UNBOUND:                -3.573
REMARK SMILES CCCCCCCCCCCCCCCCCCCCCC(=O)[O-]
REMARK SMILES IDX 12 1 11 2 10 3 9 4 8 5 7 6 6 7 5 8 4 9 3 10 2 11 1 12 13 13
REMARK SMILES IDX 14 14 15 15 16 16 17 17 18 18 19 19 20 20 21 21 22 22 23 23
REMARK SMILES IDX 24 24
REMARK H PARENT
REMARK Flexibility Score: inf
ROOT
ATOM      1  C   UNL     1     206.340 203.384 159.354  1.00  0.00     0.000 C 
ENDROOT
BRANCH   1   2
ATOM      2  C   UNL     1     206.596 204.852 159.732  1.00  0.00     0.000 C 
BRANCH   2   3
ATOM      3  C   UNL     1     208.059 205.272 159.507  1.00  0.00     0.000 C 
BRANCH   3   4
ATOM      4  C   UNL     1     208.236 206.103 158.218  1.00  0.00    -0.000 C 
BRANCH   4   5
ATOM      5  C   UNL     1     208.960 207.445 158.440  1.00  0.00    -0.000 C 
BRANCH   5   6
ATOM      6  C   UNL     1     209.701 207.995 157.208  1.00  0.00    -0.000 C 
BRANCH   6   7
ATOM      7  C   UNL     1     208.897 207.820 155.908  1.00  0.00    -0.000 C 
BRANCH   7   8
ATOM      8  C   UNL     1     209.712 207.146 154.788  1.00  0.00    -0.000 C 
BRANCH   8   9
ATOM      9  C   UNL     1     211.060 206.542 155.230  1.00  0.00    -0.000 C 
BRANCH   9  10
ATOM     10  C   UNL     1     211.264 205.057 154.870  1.00  0.00    -0.000 C 
BRANCH  10  11
ATOM     11  C   UNL     1     210.450 204.068 155.724  1.00  0.00    -0.003 C 
ATOM     12  C   UNL     1     210.710 202.609 155.355  1.00  0.00     0.004 C 
ENDBRANCH  10  11
ENDBRANCH   9  10
ENDBRANCH   8   9
ENDBRANCH   7   8
ENDBRANCH   6   7
ENDBRANCH   5   6
ENDBRANCH   4   5
ENDBRANCH   3   4
ENDBRANCH   2   3
ENDBRANCH   1   2
BRANCH   1  13
ATOM     13  C   UNL     1     205.606 203.241 158.011  1.00  0.00     0.000 C 
BRANCH  13  14
ATOM     14  C   UNL     1     206.465 202.562 156.931  1.00  0.00     0.000 C 
BRANCH  14  15
ATOM     15  C   UNL     1     206.425 203.288 155.569  1.00  0.00     0.000 C 
BRANCH  15  16
ATOM     16  C   UNL     1     206.887 204.748 155.675  1.00  0.00     0.000 C 
BRANCH  16  17
ATOM     17  C   UNL     1     206.243 205.609 154.579  1.00  0.00     0.000 C 
BRANCH  17  18
ATOM     18  C   UNL     1     205.380 206.722 155.186  1.00  0.00     0.000 C 
BRANCH  18  19
ATOM     19  C   UNL     1     204.972 206.374 156.626  1.00  0.00     0.000 C 
BRANCH  19  20
ATOM     20  C   UNL     1     205.001 207.592 157.562  1.00  0.00     0.006 C 
BRANCH  20  21
ATOM     21  C   UNL     1     205.608 208.834 156.896  1.00  0.00     0.053 C 
BRANCH  21  22
ATOM     22  C   UNL     1     206.032 209.829 157.930  1.00  0.00     0.041 C 
ATOM     23  O   UNL     1     207.157 210.387 157.850  1.00  0.00    -0.550 OA
ATOM     24  O   UNL     1     205.193 210.123 158.998  1.00  0.00    -0.550 OA
ENDBRANCH  21  22
ENDBRANCH  20  21
ENDBRANCH  19  20
ENDBRANCH  18  19
ENDBRANCH  17  18
ENDBRANCH  16  17
ENDBRANCH  15  16
ENDBRANCH  14  15
ENDBRANCH  13  14
ENDBRANCH   1  13
TORSDOF 20
ENDMDL
