MODEL 1
REMARK VINA RESULT:    -4.649      0.000      0.000
REMARK INTER + INTRA:          -8.346
REMARK INTER:                  -6.687
REMARK INTRA:                  -1.659
REMARK UNBOUND:                -1.659
REMARK SMILES O=c1c(O[C@H]2O[C@@H](CO)[C@@H](O)[C@H](O)[C@@H]2O)c(-c2ccc(O)cc2)oc2cc(O)cc(O)c12
REMARK SMILES IDX 4 1 3 2 16 3 24 4 2 5 25 6 1 7 32 8 26 9 30 10 27 11 29 12
REMARK SMILES IDX 17 13 18 14 19 15 20 16 23 17 22 18 21 19 31 21 28 23 5 25
REMARK SMILES IDX 14 26 6 27 12 28 7 29 10 30 15 31 13 33 8 35 9 36 11 38
REMARK H PARENT 21 20 31 22 28 24 15 32 13 34 9 37 11 39
REMARK Flexibility Score: inf
ROOT
ATOM      1  O   UNL     1      19.123 -12.135  20.604  1.00  0.00    -0.454 OA
ENDROOT
BRANCH   1   2
ATOM      2  C   UNL     1      18.125 -13.111  20.492  1.00  0.00     0.214 A 
ATOM      3  C   UNL     1      16.932 -12.878  19.774  1.00  0.00     0.180 A 
ATOM      4  O   UNL     1      16.051 -13.863  19.625  1.00  0.00    -0.452 OA
ATOM      5  C   UNL     1      18.314 -14.355  21.103  1.00  0.00     0.239 A 
ATOM      6  C   UNL     1      16.208 -15.069  20.159  1.00  0.00     0.146 A 
ATOM      7  O   UNL     1      19.359 -14.553  21.781  1.00  0.00    -0.285 OA
ATOM      8  C   UNL     1      17.349 -15.369  20.939  1.00  0.00     0.111 A 
ATOM      9  C   UNL     1      15.225 -16.041  19.947  1.00  0.00     0.094 A 
ATOM     10  C   UNL     1      17.478 -16.659  21.506  1.00  0.00     0.134 A 
ATOM     11  C   UNL     1      15.357 -17.312  20.507  1.00  0.00     0.123 A 
ATOM     12  C   UNL     1      16.480 -17.619  21.284  1.00  0.00     0.093 A 
BRANCH   3  13
ATOM     13  C   UNL     1      16.610 -11.561  19.181  1.00  0.00     0.021 A 
ATOM     14  C   UNL     1      17.336 -11.055  18.087  1.00  0.00     0.016 A 
ATOM     15  C   UNL     1      17.021  -9.805  17.546  1.00  0.00     0.047 A 
ATOM     16  C   UNL     1      15.990  -9.039  18.100  1.00  0.00     0.115 A 
ATOM     17  C   UNL     1      15.590 -10.777  19.746  1.00  0.00     0.016 A 
ATOM     18  C   UNL     1      15.278  -9.526  19.203  1.00  0.00     0.047 A 
BRANCH  16  19
ATOM     19  O   UNL     1      15.686  -7.795  17.551  1.00  0.00    -0.508 OA
ATOM     20  H   UNL     1      15.166  -7.099  18.072  1.00  0.00     0.293 HD
ENDBRANCH  16  19
ENDBRANCH   3  13
BRANCH  10  21
ATOM     21  O   UNL     1      18.588 -16.994  22.283  1.00  0.00    -0.507 OA
ATOM     22  H   UNL     1      18.582 -16.896  23.291  1.00  0.00     0.293 HD
ENDBRANCH  10  21
BRANCH  11  23
ATOM     23  O   UNL     1      14.366 -18.266  20.285  1.00  0.00    -0.508 OA
ATOM     24  H   UNL     1      13.496 -18.257  20.804  1.00  0.00     0.293 HD
ENDBRANCH  11  23
ENDBRANCH   1   2
BRANCH   1  25
ATOM     25  C   UNL     1      19.170 -11.190  21.677  1.00  0.00     0.339 C 
ATOM     26  C   UNL     1      18.822  -9.767  21.186  1.00  0.00     0.214 C 
ATOM     27  O   UNL     1      20.425 -11.247  22.341  1.00  0.00    -0.332 OA
ATOM     28  C   UNL     1      19.951  -9.193  20.320  1.00  0.00     0.180 C 
ATOM     29  C   UNL     1      21.519 -10.776  21.559  1.00  0.00     0.179 C 
ATOM     30  C   UNL     1      21.301  -9.331  21.037  1.00  0.00     0.177 C 
BRANCH  26  31
ATOM     31  O   UNL     1      18.516  -8.915  22.265  1.00  0.00    -0.384 OA
ATOM     32  H   UNL     1      18.167  -8.062  21.901  1.00  0.00     0.211 HD
ENDBRANCH  26  31
BRANCH  28  33
ATOM     33  O   UNL     1      19.683  -7.842  20.042  1.00  0.00    -0.387 OA
ATOM     34  H   UNL     1      18.825  -7.618  20.489  1.00  0.00     0.211 HD
ENDBRANCH  28  33
BRANCH  29  35
ATOM     35  C   UNL     1      21.942 -11.792  20.474  1.00  0.00     0.191 C 
BRANCH  35  36
ATOM     36  O   UNL     1      21.890 -13.096  20.987  1.00  0.00    -0.394 OA
ATOM     37  H   UNL     1      21.733 -13.002  21.962  1.00  0.00     0.210 HD
ENDBRANCH  35  36
ENDBRANCH  29  35
BRANCH  30  38
ATOM     38  O   UNL     1      22.336  -8.952  20.165  1.00  0.00    -0.387 OA
ATOM     39  H   UNL     1      22.843  -9.777  19.945  1.00  0.00     0.211 HD
ENDBRANCH  30  38
ENDBRANCH   1  25
TORSDOF 11
ENDMDL
MODEL 2
REMARK VINA RESULT:    -4.639      9.770     14.798
REMARK INTER + INTRA:          -8.332
REMARK INTER:                  -6.620
REMARK INTRA:                  -1.712
REMARK UNBOUND:                -1.659
REMARK SMILES O=c1c(O[C@H]2O[C@@H](CO)[C@@H](O)[C@H](O)[C@@H]2O)c(-c2ccc(O)cc2)oc2cc(O)cc(O)c12
REMARK SMILES IDX 4 1 3 2 16 3 24 4 2 5 25 6 1 7 32 8 26 9 30 10 27 11 29 12
REMARK SMILES IDX 17 13 18 14 19 15 20 16 23 17 22 18 21 19 31 21 28 23 5 25
REMARK SMILES IDX 14 26 6 27 12 28 7 29 10 30 15 31 13 33 8 35 9 36 11 38
REMARK H PARENT 21 20 31 22 28 24 15 32 13 34 9 37 11 39
REMARK Flexibility Score: inf
ROOT
ATOM      1  O   UNL     1      13.068  -7.672   9.041  1.00  0.00    -0.454 OA
ENDROOT
BRANCH   1   2
ATOM      2  C   UNL     1      14.278  -7.200   8.518  1.00  0.00     0.214 A 
ATOM      3  C   UNL     1      15.442  -7.098   9.310  1.00  0.00     0.180 A 
ATOM      4  O   UNL     1      16.588  -6.722   8.749  1.00  0.00    -0.452 OA
ATOM      5  C   UNL     1      14.340  -6.823   7.172  1.00  0.00     0.239 A 
ATOM      6  C   UNL     1      16.699  -6.390   7.468  1.00  0.00     0.146 A 
ATOM      7  O   UNL     1      13.292  -6.872   6.472  1.00  0.00    -0.285 OA
ATOM      8  C   UNL     1      15.569  -6.413   6.617  1.00  0.00     0.111 A 
ATOM      9  C   UNL     1      17.948  -6.007   6.969  1.00  0.00     0.094 A 
ATOM     10  C   UNL     1      15.719  -6.038   5.262  1.00  0.00     0.134 A 
ATOM     11  C   UNL     1      18.092  -5.640   5.630  1.00  0.00     0.123 A 
ATOM     12  C   UNL     1      16.979  -5.655   4.781  1.00  0.00     0.093 A 
BRANCH   3  13
ATOM     13  C   UNL     1      15.439  -7.382  10.762  1.00  0.00     0.021 A 
ATOM     14  C   UNL     1      15.251  -8.688  11.251  1.00  0.00     0.016 A 
ATOM     15  C   UNL     1      15.243  -8.935  12.626  1.00  0.00     0.047 A 
ATOM     16  C   UNL     1      15.406  -7.881  13.531  1.00  0.00     0.115 A 
ATOM     17  C   UNL     1      15.580  -6.325  11.677  1.00  0.00     0.016 A 
ATOM     18  C   UNL     1      15.571  -6.575  13.052  1.00  0.00     0.047 A 
BRANCH  16  19
ATOM     19  O   UNL     1      15.398  -8.141  14.899  1.00  0.00    -0.508 OA
ATOM     20  H   UNL     1      16.255  -8.168  15.439  1.00  0.00     0.293 HD
ENDBRANCH  16  19
ENDBRANCH   3  13
BRANCH  10  21
ATOM     21  O   UNL     1      14.628  -6.045   4.390  1.00  0.00    -0.507 OA
ATOM     22  H   UNL     1      14.381  -5.232   3.839  1.00  0.00     0.293 HD
ENDBRANCH  10  21
BRANCH  11  23
ATOM     23  O   UNL     1      19.344  -5.262   5.153  1.00  0.00    -0.508 OA
ATOM     24  H   UNL     1      19.659  -5.521   4.225  1.00  0.00     0.293 HD
ENDBRANCH  11  23
ENDBRANCH   1   2
BRANCH   1  25
ATOM     25  C   UNL     1      12.076  -6.810   9.605  1.00  0.00     0.339 C 
ATOM     26  C   UNL     1      11.878  -7.094  11.111  1.00  0.00     0.214 C 
ATOM     27  O   UNL     1      10.862  -6.893   8.870  1.00  0.00    -0.332 OA
ATOM     28  C   UNL     1      11.172  -8.439  11.330  1.00  0.00     0.180 C 
ATOM     29  C   UNL     1      10.191  -8.144   8.994  1.00  0.00     0.179 C 
ATOM     30  C   UNL     1       9.901  -8.523  10.471  1.00  0.00     0.177 C 
BRANCH  26  31
ATOM     31  O   UNL     1      11.189  -6.041  11.744  1.00  0.00    -0.384 OA
ATOM     32  H   UNL     1      11.042  -5.320  11.080  1.00  0.00     0.211 HD
ENDBRANCH  26  31
BRANCH  28  33
ATOM     33  O   UNL     1      10.849  -8.580  12.690  1.00  0.00    -0.387 OA
ATOM     34  H   UNL     1      11.361  -7.887  13.183  1.00  0.00     0.211 HD
ENDBRANCH  28  33
BRANCH  29  35
ATOM     35  C   UNL     1      10.876  -9.258   8.170  1.00  0.00     0.191 C 
BRANCH  35  36
ATOM     36  O   UNL     1      11.209  -8.780   6.895  1.00  0.00    -0.394 OA
ATOM     37  H   UNL     1      12.086  -9.187   6.668  1.00  0.00     0.210 HD
ENDBRANCH  35  36
ENDBRANCH  29  35
BRANCH  30  38
ATOM     38  O   UNL     1       9.361  -9.817  10.559  1.00  0.00    -0.387 OA
ATOM     39  H   UNL     1       9.626 -10.296   9.731  1.00  0.00     0.211 HD
ENDBRANCH  30  38
ENDBRANCH   1  25
TORSDOF 11
ENDMDL
MODEL 3
REMARK VINA RESULT:    -4.602      2.965      7.714
REMARK INTER + INTRA:          -8.279
REMARK INTER:                  -6.843
REMARK INTRA:                  -1.436
REMARK UNBOUND:                -1.659
REMARK SMILES O=c1c(O[C@H]2O[C@@H](CO)[C@@H](O)[C@H](O)[C@@H]2O)c(-c2ccc(O)cc2)oc2cc(O)cc(O)c12
REMARK SMILES IDX 4 1 3 2 16 3 24 4 2 5 25 6 1 7 32 8 26 9 30 10 27 11 29 12
REMARK SMILES IDX 17 13 18 14 19 15 20 16 23 17 22 18 21 19 31 21 28 23 5 25
REMARK SMILES IDX 14 26 6 27 12 28 7 29 10 30 15 31 13 33 8 35 9 36 11 38
REMARK H PARENT 21 20 31 22 28 24 15 32 13 34 9 37 11 39
REMARK Flexibility Score: inf
ROOT
ATOM      1  O   UNL     1      15.624 -14.902  20.333  1.00  0.00    -0.454 OA
ENDROOT
BRANCH   1   2
ATOM      2  C   UNL     1      15.441 -13.550  20.020  1.00  0.00     0.214 A 
ATOM      3  C   UNL     1      14.279 -12.847  20.406  1.00  0.00     0.180 A 
ATOM      4  O   UNL     1      14.186 -11.543  20.159  1.00  0.00    -0.452 OA
ATOM      5  C   UNL     1      16.436 -12.872  19.309  1.00  0.00     0.239 A 
ATOM      6  C   UNL     1      15.123 -10.854  19.518  1.00  0.00     0.146 A 
ATOM      7  O   UNL     1      17.456 -13.506  18.924  1.00  0.00    -0.285 OA
ATOM      8  C   UNL     1      16.294 -11.494  19.049  1.00  0.00     0.111 A 
ATOM      9  C   UNL     1      14.935  -9.485  19.304  1.00  0.00     0.094 A 
ATOM     10  C   UNL     1      17.266 -10.733  18.357  1.00  0.00     0.134 A 
ATOM     11  C   UNL     1      15.897  -8.738  18.622  1.00  0.00     0.123 A 
ATOM     12  C   UNL     1      17.058  -9.362  18.150  1.00  0.00     0.093 A 
BRANCH   3  13
ATOM     13  C   UNL     1      13.137 -13.511  21.074  1.00  0.00     0.021 A 
ATOM     14  C   UNL     1      13.221 -13.937  22.413  1.00  0.00     0.016 A 
ATOM     15  C   UNL     1      12.134 -14.569  23.023  1.00  0.00     0.047 A 
ATOM     16  C   UNL     1      10.958 -14.799  22.301  1.00  0.00     0.115 A 
ATOM     17  C   UNL     1      11.962 -13.765  20.348  1.00  0.00     0.016 A 
ATOM     18  C   UNL     1      10.876 -14.399  20.961  1.00  0.00     0.047 A 
BRANCH  16  19
ATOM     19  O   UNL     1       9.883 -15.430  22.922  1.00  0.00    -0.508 OA
ATOM     20  H   UNL     1       9.459 -15.051  23.761  1.00  0.00     0.293 HD
ENDBRANCH  16  19
ENDBRANCH   3  13
BRANCH  10  21
ATOM     21  O   UNL     1      18.434 -11.327  17.876  1.00  0.00    -0.507 OA
ATOM     22  H   UNL     1      19.330 -11.183  18.327  1.00  0.00     0.293 HD
ENDBRANCH  10  21
BRANCH  11  23
ATOM     23  O   UNL     1      15.691  -7.376  18.418  1.00  0.00    -0.508 OA
ATOM     24  H   UNL     1      16.423  -6.697  18.591  1.00  0.00     0.293 HD
ENDBRANCH  11  23
ENDBRANCH   1   2
BRANCH   1  25
ATOM     25  C   UNL     1      15.377 -15.957  19.399  1.00  0.00     0.339 C 
ATOM     26  C   UNL     1      13.949 -16.525  19.561  1.00  0.00     0.214 C 
ATOM     27  O   UNL     1      16.378 -16.961  19.500  1.00  0.00    -0.332 OA
ATOM     28  C   UNL     1      13.820 -17.329  20.861  1.00  0.00     0.180 C 
ATOM     29  C   UNL     1      16.339 -17.703  20.715  1.00  0.00     0.179 C 
ATOM     30  C   UNL     1      14.955 -18.358  20.971  1.00  0.00     0.177 C 
BRANCH  26  31
ATOM     31  O   UNL     1      13.575 -17.293  18.441  1.00  0.00    -0.384 OA
ATOM     32  H   UNL     1      13.213 -18.158  18.762  1.00  0.00     0.211 HD
ENDBRANCH  26  31
BRANCH  28  33
ATOM     33  O   UNL     1      12.573 -17.976  20.888  1.00  0.00    -0.387 OA
ATOM     34  H   UNL     1      12.741 -18.937  20.703  1.00  0.00     0.211 HD
ENDBRANCH  28  33
BRANCH  29  35
ATOM     35  C   UNL     1      16.895 -16.897  21.910  1.00  0.00     0.191 C 
BRANCH  35  36
ATOM     36  O   UNL     1      18.060 -16.214  21.531  1.00  0.00    -0.394 OA
ATOM     37  H   UNL     1      17.999 -15.313  21.945  1.00  0.00     0.210 HD
ENDBRANCH  35  36
ENDBRANCH  29  35
BRANCH  30  38
ATOM     38  O   UNL     1      14.915 -18.967  22.237  1.00  0.00    -0.387 OA
ATOM     39  H   UNL     1      14.126 -18.594  22.710  1.00  0.00     0.211 HD
ENDBRANCH  30  38
ENDBRANCH   1  25
TORSDOF 11
ENDMDL
MODEL 4
REMARK VINA RESULT:    -4.470      3.131      7.842
REMARK INTER + INTRA:          -8.089
REMARK INTER:                  -6.706
REMARK INTRA:                  -1.383
REMARK UNBOUND:                -1.659
REMARK SMILES O=c1c(O[C@H]2O[C@@H](CO)[C@@H](O)[C@H](O)[C@@H]2O)c(-c2ccc(O)cc2)oc2cc(O)cc(O)c12
REMARK SMILES IDX 4 1 3 2 16 3 24 4 2 5 25 6 1 7 32 8 26 9 30 10 27 11 29 12
REMARK SMILES IDX 17 13 18 14 19 15 20 16 23 17 22 18 21 19 31 21 28 23 5 25
REMARK SMILES IDX 14 26 6 27 12 28 7 29 10 30 15 31 13 33 8 35 9 36 11 38
REMARK H PARENT 21 20 31 22 28 24 15 32 13 34 9 37 11 39
REMARK Flexibility Score: inf
ROOT
ATOM      1  O   UNL     1      14.791 -15.464  20.479  1.00  0.00    -0.454 OA
ENDROOT
BRANCH   1   2
ATOM      2  C   UNL     1      15.317 -14.224  20.096  1.00  0.00     0.214 A 
ATOM      3  C   UNL     1      14.508 -13.072  19.990  1.00  0.00     0.180 A 
ATOM      4  O   UNL     1      15.067 -11.900  19.703  1.00  0.00    -0.452 OA
ATOM      5  C   UNL     1      16.684 -14.118  19.814  1.00  0.00     0.239 A 
ATOM      6  C   UNL     1      16.364 -11.749  19.463  1.00  0.00     0.146 A 
ATOM      7  O   UNL     1      17.402 -15.154  19.866  1.00  0.00    -0.285 OA
ATOM      8  C   UNL     1      17.237 -12.862  19.496  1.00  0.00     0.111 A 
ATOM      9  C   UNL     1      16.859 -10.475  19.170  1.00  0.00     0.094 A 
ATOM     10  C   UNL     1      18.611 -12.670  19.221  1.00  0.00     0.134 A 
ATOM     11  C   UNL     1      18.216 -10.289  18.901  1.00  0.00     0.123 A 
ATOM     12  C   UNL     1      19.088 -11.384  18.926  1.00  0.00     0.093 A 
BRANCH   3  13
ATOM     13  C   UNL     1      13.040 -13.117  20.174  1.00  0.00     0.021 A 
ATOM     14  C   UNL     1      12.161 -12.922  19.093  1.00  0.00     0.016 A 
ATOM     15  C   UNL     1      10.778 -12.961  19.290  1.00  0.00     0.047 A 
ATOM     16  C   UNL     1      10.255 -13.177  20.569  1.00  0.00     0.115 A 
ATOM     17  C   UNL     1      12.509 -13.311  21.460  1.00  0.00     0.016 A 
ATOM     18  C   UNL     1      11.124 -13.348  21.654  1.00  0.00     0.047 A 
BRANCH  16  19
ATOM     19  O   UNL     1       8.875 -13.214  20.750  1.00  0.00    -0.508 OA
ATOM     20  H   UNL     1       8.361 -14.087  20.733  1.00  0.00     0.293 HD
ENDBRANCH  16  19
ENDBRANCH   3  13
BRANCH  10  21
ATOM     21  O   UNL     1      19.505 -13.742  19.241  1.00  0.00    -0.507 OA
ATOM     22  H   UNL     1      20.293 -13.767  19.877  1.00  0.00     0.293 HD
ENDBRANCH  10  21
BRANCH  11  23
ATOM     23  O   UNL     1      18.689  -9.012  18.610  1.00  0.00    -0.508 OA
ATOM     24  H   UNL     1      18.445  -8.212  19.182  1.00  0.00     0.293 HD
ENDBRANCH  11  23
ENDBRANCH   1   2
BRANCH   1  25
ATOM     25  C   UNL     1      14.525 -16.517  19.548  1.00  0.00     0.339 C 
ATOM     26  C   UNL     1      13.129 -16.356  18.906  1.00  0.00     0.214 C 
ATOM     27  O   UNL     1      14.700 -17.786  20.162  1.00  0.00    -0.332 OA
ATOM     28  C   UNL     1      12.018 -16.655  19.921  1.00  0.00     0.180 C 
ATOM     29  C   UNL     1      13.726 -18.092  21.155  1.00  0.00     0.179 C 
ATOM     30  C   UNL     1      12.273 -18.001  20.615  1.00  0.00     0.177 C 
BRANCH  26  31
ATOM     31  O   UNL     1      13.002 -17.155  17.752  1.00  0.00    -0.384 OA
ATOM     32  H   UNL     1      12.997 -18.106  18.030  1.00  0.00     0.211 HD
ENDBRANCH  26  31
BRANCH  28  33
ATOM     33  O   UNL     1      10.778 -16.676  19.262  1.00  0.00    -0.387 OA
ATOM     34  H   UNL     1      10.769 -17.483  18.684  1.00  0.00     0.211 HD
ENDBRANCH  28  33
BRANCH  29  35
ATOM     35  C   UNL     1      13.968 -17.318  22.471  1.00  0.00     0.191 C 
BRANCH  35  36
ATOM     36  O   UNL     1      13.356 -17.983  23.542  1.00  0.00    -0.394 OA
ATOM     37  H   UNL     1      12.393 -18.047  23.313  1.00  0.00     0.210 HD
ENDBRANCH  35  36
ENDBRANCH  29  35
BRANCH  30  38
ATOM     38  O   UNL     1      11.341 -18.179  21.651  1.00  0.00    -0.387 OA
ATOM     39  H   UNL     1      11.862 -18.326  22.484  1.00  0.00     0.211 HD
ENDBRANCH  30  38
ENDBRANCH   1  25
TORSDOF 11
ENDMDL
MODEL 5
REMARK VINA RESULT:    -4.446      9.081     13.359
REMARK INTER + INTRA:          -8.055
REMARK INTER:                  -6.308
REMARK INTRA:                  -1.747
REMARK UNBOUND:                -1.659
REMARK SMILES O=c1c(O[C@H]2O[C@@H](CO)[C@@H](O)[C@H](O)[C@@H]2O)c(-c2ccc(O)cc2)oc2cc(O)cc(O)c12
REMARK SMILES IDX 4 1 3 2 16 3 24 4 2 5 25 6 1 7 32 8 26 9 30 10 27 11 29 12
REMARK SMILES IDX 17 13 18 14 19 15 20 16 23 17 22 18 21 19 31 21 28 23 5 25
REMARK SMILES IDX 14 26 6 27 12 28 7 29 10 30 15 31 13 33 8 35 9 36 11 38
REMARK H PARENT 21 20 31 22 28 24 15 32 13 34 9 37 11 39
REMARK Flexibility Score: inf
ROOT
ATOM      1  O   UNL     1      14.185 -11.180   8.934  1.00  0.00    -0.454 OA
ENDROOT
BRANCH   1   2
ATOM      2  C   UNL     1      14.399 -10.361  10.049  1.00  0.00     0.214 A 
ATOM      3  C   UNL     1      14.383 -10.874  11.364  1.00  0.00     0.180 A 
ATOM      4  O   UNL     1      14.673 -10.073  12.386  1.00  0.00    -0.452 OA
ATOM      5  C   UNL     1      14.639  -8.996   9.859  1.00  0.00     0.239 A 
ATOM      6  C   UNL     1      14.941  -8.780  12.247  1.00  0.00     0.146 A 
ATOM      7  O   UNL     1      14.611  -8.525   8.689  1.00  0.00    -0.285 OA
ATOM      8  C   UNL     1      14.924  -8.174  10.968  1.00  0.00     0.111 A 
ATOM      9  C   UNL     1      15.234  -8.019  13.382  1.00  0.00     0.094 A 
ATOM     10  C   UNL     1      15.200  -6.792  10.856  1.00  0.00     0.134 A 
ATOM     11  C   UNL     1      15.507  -6.655  13.267  1.00  0.00     0.123 A 
ATOM     12  C   UNL     1      15.489  -6.045  12.007  1.00  0.00     0.093 A 
BRANCH   3  13
ATOM     13  C   UNL     1      14.041 -12.283  11.660  1.00  0.00     0.021 A 
ATOM     14  C   UNL     1      14.996 -13.309  11.534  1.00  0.00     0.016 A 
ATOM     15  C   UNL     1      14.650 -14.635  11.810  1.00  0.00     0.047 A 
ATOM     16  C   UNL     1      13.346 -14.955  12.199  1.00  0.00     0.115 A 
ATOM     17  C   UNL     1      12.727 -12.615  12.030  1.00  0.00     0.016 A 
ATOM     18  C   UNL     1      12.384 -13.942  12.305  1.00  0.00     0.047 A 
BRANCH  16  19
ATOM     19  O   UNL     1      13.016 -16.280  12.472  1.00  0.00    -0.508 OA
ATOM     20  H   UNL     1      12.703 -16.570  13.392  1.00  0.00     0.293 HD
ENDBRANCH  16  19
ENDBRANCH   3  13
BRANCH  10  21
ATOM     21  O   UNL     1      15.191  -6.156   9.613  1.00  0.00    -0.507 OA
ATOM     22  H   UNL     1      14.942  -6.649   8.764  1.00  0.00     0.293 HD
ENDBRANCH  10  21
BRANCH  11  23
ATOM     23  O   UNL     1      15.796  -5.914  14.410  1.00  0.00    -0.508 OA
ATOM     24  H   UNL     1      15.952  -4.913  14.368  1.00  0.00     0.293 HD
ENDBRANCH  11  23
ENDBRANCH   1   2
BRANCH   1  25
ATOM     25  C   UNL     1      12.887 -11.425   8.386  1.00  0.00     0.339 C 
ATOM     26  C   UNL     1      12.526 -12.926   8.451  1.00  0.00     0.214 C 
ATOM     27  O   UNL     1      12.790 -10.897   7.069  1.00  0.00    -0.332 OA
ATOM     28  C   UNL     1      13.359 -13.737   7.450  1.00  0.00     0.180 C 
ATOM     29  C   UNL     1      13.589 -11.580   6.108  1.00  0.00     0.179 C 
ATOM     30  C   UNL     1      13.288 -13.102   6.053  1.00  0.00     0.177 C 
BRANCH  26  31
ATOM     31  O   UNL     1      11.145 -13.128   8.256  1.00  0.00    -0.384 OA
ATOM     32  H   UNL     1      11.025 -13.736   7.482  1.00  0.00     0.211 HD
ENDBRANCH  26  31
BRANCH  28  33
ATOM     33  O   UNL     1      12.882 -15.057   7.408  1.00  0.00    -0.387 OA
ATOM     34  H   UNL     1      13.230 -15.517   8.217  1.00  0.00     0.211 HD
ENDBRANCH  28  33
BRANCH  29  35
ATOM     35  C   UNL     1      15.089 -11.229   6.239  1.00  0.00     0.191 C 
BRANCH  35  36
ATOM     36  O   UNL     1      15.251  -9.843   6.367  1.00  0.00    -0.394 OA
ATOM     37  H   UNL     1      15.795  -9.703   7.185  1.00  0.00     0.210 HD
ENDBRANCH  35  36
ENDBRANCH  29  35
BRANCH  30  38
ATOM     38  O   UNL     1      14.183 -13.759   5.193  1.00  0.00    -0.387 OA
ATOM     39  H   UNL     1      14.828 -13.076   4.873  1.00  0.00     0.211 HD
ENDBRANCH  30  38
ENDBRANCH   1  25
TORSDOF 11
ENDMDL
MODEL 6
REMARK VINA RESULT:    -4.390      8.766     12.582
REMARK INTER + INTRA:          -7.974
REMARK INTER:                  -6.532
REMARK INTRA:                  -1.442
REMARK UNBOUND:                -1.659
REMARK SMILES O=c1c(O[C@H]2O[C@@H](CO)[C@@H](O)[C@H](O)[C@@H]2O)c(-c2ccc(O)cc2)oc2cc(O)cc(O)c12
REMARK SMILES IDX 4 1 3 2 16 3 24 4 2 5 25 6 1 7 32 8 26 9 30 10 27 11 29 12
REMARK SMILES IDX 17 13 18 14 19 15 20 16 23 17 22 18 21 19 31 21 28 23 5 25
REMARK SMILES IDX 14 26 6 27 12 28 7 29 10 30 15 31 13 33 8 35 9 36 11 38
REMARK H PARENT 21 20 31 22 28 24 15 32 13 34 9 37 11 39
REMARK Flexibility Score: inf
ROOT
ATOM      1  O   UNL     1      14.061  -7.497  10.473  1.00  0.00    -0.454 OA
ENDROOT
BRANCH   1   2
ATOM      2  C   UNL     1      14.074  -7.234  11.848  1.00  0.00     0.214 A 
ATOM      3  C   UNL     1      13.987  -8.268  12.805  1.00  0.00     0.180 A 
ATOM      4  O   UNL     1      14.087  -7.977  14.099  1.00  0.00    -0.452 OA
ATOM      5  C   UNL     1      14.180  -5.911  12.290  1.00  0.00     0.239 A 
ATOM      6  C   UNL     1      14.224  -6.739  14.560  1.00  0.00     0.146 A 
ATOM      7  O   UNL     1      14.215  -4.981  11.439  1.00  0.00    -0.285 OA
ATOM      8  C   UNL     1      14.264  -5.639  13.671  1.00  0.00     0.111 A 
ATOM      9  C   UNL     1      14.320  -6.532  15.940  1.00  0.00     0.094 A 
ATOM     10  C   UNL     1      14.396  -4.332  14.195  1.00  0.00     0.134 A 
ATOM     11  C   UNL     1      14.451  -5.241  16.453  1.00  0.00     0.123 A 
ATOM     12  C   UNL     1      14.488  -4.146  15.582  1.00  0.00     0.093 A 
BRANCH   3  13
ATOM     13  C   UNL     1      13.775  -9.683  12.425  1.00  0.00     0.021 A 
ATOM     14  C   UNL     1      12.485 -10.244  12.391  1.00  0.00     0.016 A 
ATOM     15  C   UNL     1      12.307 -11.584  12.037  1.00  0.00     0.047 A 
ATOM     16  C   UNL     1      13.412 -12.384  11.727  1.00  0.00     0.115 A 
ATOM     17  C   UNL     1      14.883 -10.496  12.135  1.00  0.00     0.016 A 
ATOM     18  C   UNL     1      14.701 -11.837  11.781  1.00  0.00     0.047 A 
BRANCH  16  19
ATOM     19  O   UNL     1      13.220 -13.717  11.375  1.00  0.00    -0.508 OA
ATOM     20  H   UNL     1      13.985 -14.382  11.378  1.00  0.00     0.293 HD
ENDBRANCH  16  19
ENDBRANCH   3  13
BRANCH  10  21
ATOM     21  O   UNL     1      14.438  -3.221  13.352  1.00  0.00    -0.507 OA
ATOM     22  H   UNL     1      13.884  -2.392  13.534  1.00  0.00     0.293 HD
ENDBRANCH  10  21
BRANCH  11  23
ATOM     23  O   UNL     1      14.544  -5.056  17.830  1.00  0.00    -0.508 OA
ATOM     24  H   UNL     1      14.449  -4.138  18.250  1.00  0.00     0.293 HD
ENDBRANCH  11  23
ENDBRANCH   1   2
BRANCH   1  25
ATOM     25  C   UNL     1      15.213  -7.952   9.757  1.00  0.00     0.339 C 
ATOM     26  C   UNL     1      15.910  -6.787   9.021  1.00  0.00     0.214 C 
ATOM     27  O   UNL     1      14.872  -9.023   8.887  1.00  0.00    -0.332 OA
ATOM     28  C   UNL     1      15.070  -6.307   7.830  1.00  0.00     0.180 C 
ATOM     29  C   UNL     1      14.045  -8.642   7.792  1.00  0.00     0.179 C 
ATOM     30  C   UNL     1      14.662  -7.496   6.947  1.00  0.00     0.177 C 
BRANCH  26  31
ATOM     31  O   UNL     1      17.214  -7.143   8.621  1.00  0.00    -0.384 OA
ATOM     32  H   UNL     1      17.415  -6.684   7.766  1.00  0.00     0.211 HD
ENDBRANCH  26  31
BRANCH  28  33
ATOM     33  O   UNL     1      15.811  -5.377   7.082  1.00  0.00    -0.387 OA
ATOM     34  H   UNL     1      15.759  -4.510   7.563  1.00  0.00     0.211 HD
ENDBRANCH  28  33
BRANCH  29  35
ATOM     35  C   UNL     1      12.580  -8.402   8.222  1.00  0.00     0.191 C 
BRANCH  35  36
ATOM     36  O   UNL     1      12.146  -9.441   9.057  1.00  0.00    -0.394 OA
ATOM     37  H   UNL     1      12.066  -9.050   9.965  1.00  0.00     0.210 HD
ENDBRANCH  35  36
ENDBRANCH  29  35
BRANCH  30  38
ATOM     38  O   UNL     1      13.762  -7.059   5.960  1.00  0.00    -0.387 OA
ATOM     39  H   UNL     1      13.275  -6.281   6.339  1.00  0.00     0.211 HD
ENDBRANCH  30  38
ENDBRANCH   1  25
TORSDOF 11
ENDMDL
MODEL 7
REMARK VINA RESULT:    -4.359      1.444      2.894
REMARK INTER + INTRA:          -7.930
REMARK INTER:                  -6.401
REMARK INTRA:                  -1.529
REMARK UNBOUND:                -1.659
REMARK SMILES O=c1c(O[C@H]2O[C@@H](CO)[C@@H](O)[C@H](O)[C@@H]2O)c(-c2ccc(O)cc2)oc2cc(O)cc(O)c12
REMARK SMILES IDX 4 1 3 2 16 3 24 4 2 5 25 6 1 7 32 8 26 9 30 10 27 11 29 12
REMARK SMILES IDX 17 13 18 14 19 15 20 16 23 17 22 18 21 19 31 21 28 23 5 25
REMARK SMILES IDX 14 26 6 27 12 28 7 29 10 30 15 31 13 33 8 35 9 36 11 38
REMARK H PARENT 21 20 31 22 28 24 15 32 13 34 9 37 11 39
REMARK Flexibility Score: inf
ROOT
ATOM      1  O   UNL     1      18.350 -13.527  20.833  1.00  0.00    -0.454 OA
ENDROOT
BRANCH   1   2
ATOM      2  C   UNL     1      17.121 -14.143  20.569  1.00  0.00     0.214 A 
ATOM      3  C   UNL     1      16.059 -13.451  19.946  1.00  0.00     0.180 A 
ATOM      4  O   UNL     1      14.940 -14.102  19.641  1.00  0.00    -0.452 OA
ATOM      5  C   UNL     1      16.937 -15.483  20.927  1.00  0.00     0.239 A 
ATOM      6  C   UNL     1      14.737 -15.382  19.931  1.00  0.00     0.146 A 
ATOM      7  O   UNL     1      17.867 -16.092  21.523  1.00  0.00    -0.285 OA
ATOM      8  C   UNL     1      15.729 -16.134  20.604  1.00  0.00     0.111 A 
ATOM      9  C   UNL     1      13.525 -15.978  19.570  1.00  0.00     0.094 A 
ATOM     10  C   UNL     1      15.475 -17.491  20.912  1.00  0.00     0.134 A 
ATOM     11  C   UNL     1      13.280 -17.318  19.874  1.00  0.00     0.123 A 
ATOM     12  C   UNL     1      14.253 -18.071  20.543  1.00  0.00     0.093 A 
BRANCH   3  13
ATOM     13  C   UNL     1      16.136 -12.009  19.624  1.00  0.00     0.021 A 
ATOM     14  C   UNL     1      16.774 -11.554  18.455  1.00  0.00     0.016 A 
ATOM     15  C   UNL     1      16.843 -10.187  18.173  1.00  0.00     0.047 A 
ATOM     16  C   UNL     1      16.291  -9.257  19.060  1.00  0.00     0.115 A 
ATOM     17  C   UNL     1      15.603 -11.069  20.521  1.00  0.00     0.016 A 
ATOM     18  C   UNL     1      15.674  -9.702  20.237  1.00  0.00     0.047 A 
BRANCH  16  19
ATOM     19  O   UNL     1      16.365  -7.898  18.766  1.00  0.00    -0.508 OA
ATOM     20  H   UNL     1      17.124  -7.322  19.111  1.00  0.00     0.293 HD
ENDBRANCH  16  19
ENDBRANCH   3  13
BRANCH  10  21
ATOM     21  O   UNL     1      16.427 -18.267  21.576  1.00  0.00    -0.507 OA
ATOM     22  H   UNL     1      16.927 -19.013  21.108  1.00  0.00     0.293 HD
ENDBRANCH  10  21
BRANCH  11  23
ATOM     23  O   UNL     1      12.066 -17.894  19.507  1.00  0.00    -0.508 OA
ATOM     24  H   UNL     1      11.180 -17.485  19.781  1.00  0.00     0.293 HD
ENDBRANCH  11  23
ENDBRANCH   1   2
BRANCH   1  25
ATOM     25  C   UNL     1      19.452 -13.568  19.922  1.00  0.00     0.339 C 
ATOM     26  C   UNL     1      20.686 -14.239  20.567  1.00  0.00     0.214 C 
ATOM     27  O   UNL     1      19.737 -12.270  19.419  1.00  0.00    -0.332 OA
ATOM     28  C   UNL     1      21.304 -13.335  21.642  1.00  0.00     0.180 C 
ATOM     29  C   UNL     1      20.263 -11.371  20.391  1.00  0.00     0.179 C 
ATOM     30  C   UNL     1      21.537 -11.922  21.086  1.00  0.00     0.177 C 
BRANCH  26  31
ATOM     31  O   UNL     1      21.635 -14.606  19.593  1.00  0.00    -0.384 OA
ATOM     32  H   UNL     1      22.080 -13.783  19.264  1.00  0.00     0.211 HD
ENDBRANCH  26  31
BRANCH  28  33
ATOM     33  O   UNL     1      22.519 -13.892  22.076  1.00  0.00    -0.387 OA
ATOM     34  H   UNL     1      22.402 -14.878  22.075  1.00  0.00     0.211 HD
ENDBRANCH  28  33
BRANCH  29  35
ATOM     35  C   UNL     1      19.175 -10.858  21.362  1.00  0.00     0.191 C 
BRANCH  35  36
ATOM     36  O   UNL     1      19.349  -9.488  21.601  1.00  0.00    -0.394 OA
ATOM     37  H   UNL     1      19.547  -9.400  22.569  1.00  0.00     0.210 HD
ENDBRANCH  35  36
ENDBRANCH  29  35
BRANCH  30  38
ATOM     38  O   UNL     1      21.948 -11.071  22.126  1.00  0.00    -0.387 OA
ATOM     39  H   UNL     1      21.139 -10.861  22.662  1.00  0.00     0.211 HD
ENDBRANCH  30  38
ENDBRANCH   1  25
TORSDOF 11
ENDMDL
MODEL 8
REMARK VINA RESULT:    -4.332      9.251     12.633
REMARK INTER + INTRA:          -7.891
REMARK INTER:                  -6.141
REMARK INTRA:                  -1.750
REMARK UNBOUND:                -1.659
REMARK SMILES O=c1c(O[C@H]2O[C@@H](CO)[C@@H](O)[C@H](O)[C@@H]2O)c(-c2ccc(O)cc2)oc2cc(O)cc(O)c12
REMARK SMILES IDX 4 1 3 2 16 3 24 4 2 5 25 6 1 7 32 8 26 9 30 10 27 11 29 12
REMARK SMILES IDX 17 13 18 14 19 15 20 16 23 17 22 18 21 19 31 21 28 23 5 25
REMARK SMILES IDX 14 26 6 27 12 28 7 29 10 30 15 31 13 33 8 35 9 36 11 38
REMARK H PARENT 21 20 31 22 28 24 15 32 13 34 9 37 11 39
REMARK Flexibility Score: inf
ROOT
ATOM      1  O   UNL     1      13.602  -8.818   8.874  1.00  0.00    -0.454 OA
ENDROOT
BRANCH   1   2
ATOM      2  C   UNL     1      14.068  -9.883   9.654  1.00  0.00     0.214 A 
ATOM      3  C   UNL     1      14.429  -9.712  11.008  1.00  0.00     0.180 A 
ATOM      4  O   UNL     1      14.788 -10.769  11.732  1.00  0.00    -0.452 OA
ATOM      5  C   UNL     1      14.176 -11.155   9.081  1.00  0.00     0.239 A 
ATOM      6  C   UNL     1      14.869 -11.999  11.237  1.00  0.00     0.146 A 
ATOM      7  O   UNL     1      13.896 -11.303   7.860  1.00  0.00    -0.285 OA
ATOM      8  C   UNL     1      14.578 -12.248   9.875  1.00  0.00     0.111 A 
ATOM      9  C   UNL     1      15.256 -13.047  12.077  1.00  0.00     0.094 A 
ATOM     10  C   UNL     1      14.689 -13.567   9.376  1.00  0.00     0.134 A 
ATOM     11  C   UNL     1      15.363 -14.347  11.581  1.00  0.00     0.123 A 
ATOM     12  C   UNL     1      15.081 -14.604  10.234  1.00  0.00     0.093 A 
BRANCH   3  13
ATOM     13  C   UNL     1      14.438  -8.385  11.663  1.00  0.00     0.021 A 
ATOM     14  C   UNL     1      15.637  -7.674  11.858  1.00  0.00     0.016 A 
ATOM     15  C   UNL     1      15.624  -6.425  12.486  1.00  0.00     0.047 A 
ATOM     16  C   UNL     1      14.420  -5.878  12.940  1.00  0.00     0.115 A 
ATOM     17  C   UNL     1      13.235  -7.840  12.142  1.00  0.00     0.016 A 
ATOM     18  C   UNL     1      13.226  -6.591  12.770  1.00  0.00     0.047 A 
BRANCH  16  19
ATOM     19  O   UNL     1      14.422  -4.633  13.563  1.00  0.00    -0.508 OA
ATOM     20  H   UNL     1      15.200  -3.991  13.463  1.00  0.00     0.293 HD
ENDBRANCH  16  19
ENDBRANCH   3  13
BRANCH  10  21
ATOM     21  O   UNL     1      14.412 -13.854   8.038  1.00  0.00    -0.507 OA
ATOM     22  H   UNL     1      13.653 -14.470   7.772  1.00  0.00     0.293 HD
ENDBRANCH  10  21
BRANCH  11  23
ATOM     23  O   UNL     1      15.751 -15.377  12.434  1.00  0.00    -0.508 OA
ATOM     24  H   UNL     1      15.089 -16.070  12.765  1.00  0.00     0.293 HD
ENDBRANCH  11  23
ENDBRANCH   1   2
BRANCH   1  25
ATOM     25  C   UNL     1      14.454  -8.049   8.019  1.00  0.00     0.339 C 
ATOM     26  C   UNL     1      14.508  -6.571   8.467  1.00  0.00     0.214 C 
ATOM     27  O   UNL     1      14.064  -8.193   6.660  1.00  0.00    -0.332 OA
ATOM     28  C   UNL     1      13.180  -5.859   8.176  1.00  0.00     0.180 C 
ATOM     29  C   UNL     1      12.809  -7.597   6.348  1.00  0.00     0.179 C 
ATOM     30  C   UNL     1      12.754  -6.091   6.719  1.00  0.00     0.177 C 
BRANCH  26  31
ATOM     31  O   UNL     1      15.595  -5.897   7.875  1.00  0.00    -0.384 OA
ATOM     32  H   UNL     1      15.459  -5.888   6.893  1.00  0.00     0.211 HD
ENDBRANCH  26  31
BRANCH  28  33
ATOM     33  O   UNL     1      13.324  -4.484   8.428  1.00  0.00    -0.387 OA
ATOM     34  H   UNL     1      12.582  -4.023   7.955  1.00  0.00     0.211 HD
ENDBRANCH  28  33
BRANCH  29  35
ATOM     35  C   UNL     1      11.619  -8.430   6.875  1.00  0.00     0.191 C 
BRANCH  35  36
ATOM     36  O   UNL     1      11.815  -9.788   6.587  1.00  0.00    -0.394 OA
ATOM     37  H   UNL     1      10.909 -10.187   6.509  1.00  0.00     0.210 HD
ENDBRANCH  35  36
ENDBRANCH  29  35
BRANCH  30  38
ATOM     38  O   UNL     1      11.463  -5.572   6.520  1.00  0.00    -0.387 OA
ATOM     39  H   UNL     1      11.376  -5.385   5.549  1.00  0.00     0.211 HD
ENDBRANCH  30  38
ENDBRANCH   1  25
TORSDOF 11
ENDMDL
MODEL 9
REMARK VINA RESULT:    -4.319      1.920      3.036
REMARK INTER + INTRA:          -7.872
REMARK INTER:                  -6.259
REMARK INTRA:                  -1.613
REMARK UNBOUND:                -1.659
REMARK SMILES O=c1c(O[C@H]2O[C@@H](CO)[C@@H](O)[C@H](O)[C@@H]2O)c(-c2ccc(O)cc2)oc2cc(O)cc(O)c12
REMARK SMILES IDX 4 1 3 2 16 3 24 4 2 5 25 6 1 7 32 8 26 9 30 10 27 11 29 12
REMARK SMILES IDX 17 13 18 14 19 15 20 16 23 17 22 18 21 19 31 21 28 23 5 25
REMARK SMILES IDX 14 26 6 27 12 28 7 29 10 30 15 31 13 33 8 35 9 36 11 38
REMARK H PARENT 21 20 31 22 28 24 15 32 13 34 9 37 11 39
REMARK Flexibility Score: inf
ROOT
ATOM      1  O   UNL     1      17.852 -14.426  21.599  1.00  0.00    -0.454 OA
ENDROOT
BRANCH   1   2
ATOM      2  C   UNL     1      16.705 -14.909  20.956  1.00  0.00     0.214 A 
ATOM      3  C   UNL     1      16.094 -14.205  19.896  1.00  0.00     0.180 A 
ATOM      4  O   UNL     1      15.055 -14.743  19.262  1.00  0.00    -0.452 OA
ATOM      5  C   UNL     1      16.150 -16.125  21.369  1.00  0.00     0.239 A 
ATOM      6  C   UNL     1      14.519 -15.910  19.599  1.00  0.00     0.146 A 
ATOM      7  O   UNL     1      16.668 -16.736  22.344  1.00  0.00    -0.285 OA
ATOM      8  C   UNL     1      15.038 -16.654  20.685  1.00  0.00     0.111 A 
ATOM      9  C   UNL     1      13.427 -16.394  18.872  1.00  0.00     0.094 A 
ATOM     10  C   UNL     1      14.434 -17.887  21.028  1.00  0.00     0.134 A 
ATOM     11  C   UNL     1      12.836 -17.611  19.212  1.00  0.00     0.123 A 
ATOM     12  C   UNL     1      13.338 -18.354  20.287  1.00  0.00     0.093 A 
BRANCH   3  13
ATOM     13  C   UNL     1      16.558 -12.868  19.462  1.00  0.00     0.021 A 
ATOM     14  C   UNL     1      17.842 -12.682  18.917  1.00  0.00     0.016 A 
ATOM     15  C   UNL     1      18.264 -11.410  18.520  1.00  0.00     0.047 A 
ATOM     16  C   UNL     1      17.418 -10.307  18.677  1.00  0.00     0.115 A 
ATOM     17  C   UNL     1      15.721 -11.753  19.637  1.00  0.00     0.016 A 
ATOM     18  C   UNL     1      16.147 -10.482  19.240  1.00  0.00     0.047 A 
BRANCH  16  19
ATOM     19  O   UNL     1      17.851  -9.046  18.277  1.00  0.00    -0.508 OA
ATOM     20  H   UNL     1      18.556  -8.538  18.799  1.00  0.00     0.293 HD
ENDBRANCH  16  19
ENDBRANCH   3  13
BRANCH  10  21
ATOM     21  O   UNL     1      14.914 -18.651  22.093  1.00  0.00    -0.507 OA
ATOM     22  H   UNL     1      14.348 -18.839  22.911  1.00  0.00     0.293 HD
ENDBRANCH  10  21
BRANCH  11  23
ATOM     23  O   UNL     1      11.748 -18.075  18.476  1.00  0.00    -0.508 OA
ATOM     24  H   UNL     1      11.195 -17.453  17.897  1.00  0.00     0.293 HD
ENDBRANCH  11  23
ENDBRANCH   1   2
BRANCH   1  25
ATOM     25  C   UNL     1      17.802 -13.639  22.791  1.00  0.00     0.339 C 
ATOM     26  C   UNL     1      18.209 -12.175  22.512  1.00  0.00     0.214 C 
ATOM     27  O   UNL     1      18.580 -14.235  23.820  1.00  0.00    -0.332 OA
ATOM     28  C   UNL     1      19.713 -12.067  22.224  1.00  0.00     0.180 C 
ATOM     29  C   UNL     1      19.983 -14.212  23.577  1.00  0.00     0.179 C 
ATOM     30  C   UNL     1      20.521 -12.779  23.319  1.00  0.00     0.177 C 
BRANCH  26  31
ATOM     31  O   UNL     1      17.825 -11.327  23.570  1.00  0.00    -0.384 OA
ATOM     32  H   UNL     1      18.256 -11.650  24.402  1.00  0.00     0.211 HD
ENDBRANCH  26  31
BRANCH  28  33
ATOM     33  O   UNL     1      20.078 -10.712  22.154  1.00  0.00    -0.387 OA
ATOM     34  H   UNL     1      19.627 -10.251  22.909  1.00  0.00     0.211 HD
ENDBRANCH  28  33
BRANCH  29  35
ATOM     35  C   UNL     1      20.410 -15.256  22.520  1.00  0.00     0.191 C 
BRANCH  35  36
ATOM     36  O   UNL     1      19.676 -16.439  22.686  1.00  0.00    -0.394 OA
ATOM     37  H   UNL     1      19.951 -16.814  23.563  1.00  0.00     0.210 HD
ENDBRANCH  35  36
ENDBRANCH  29  35
BRANCH  30  38
ATOM     38  O   UNL     1      21.878 -12.812  22.953  1.00  0.00    -0.387 OA
ATOM     39  H   UNL     1      22.332 -13.422  23.591  1.00  0.00     0.211 HD
ENDBRANCH  30  38
ENDBRANCH   1  25
TORSDOF 11
ENDMDL
