MODEL 1
REMARK VINA RESULT:    -5.366      0.000      0.000
REMARK INTER + INTRA:         -11.169
REMARK INTER:                 -10.385
REMARK INTRA:                  -0.784
REMARK UNBOUND:                -0.784
REMARK SMILES CCCCCCCCCCCCCCCCCC(=O)[O-]
REMARK SMILES IDX 10 1 11 2 12 3 13 4 14 5 15 6 16 7 17 8 18 9 19 10 20 11
REMARK SMILES IDX 9 12 8 13 7 14 6 15 5 16 4 17 3 18 2 19 1 20
REMARK H PARENT
REMARK Flexibility Score: inf
ROOT
ATOM      1  C   UNL     1      20.642  10.317  49.346  1.00  0.00     0.000 C 
ENDROOT
BRANCH   1   2
ATOM      2  C   UNL     1      21.456  11.579  49.683  1.00  0.00     0.000 C 
BRANCH   2   3
ATOM      3  C   UNL     1      22.352  12.102  48.542  1.00  0.00     0.000 C 
BRANCH   3   4
ATOM      4  C   UNL     1      22.846  13.553  48.708  1.00  0.00     0.000 C 
BRANCH   4   5
ATOM      5  C   UNL     1      22.898  14.064  50.160  1.00  0.00     0.000 C 
BRANCH   5   6
ATOM      6  C   UNL     1      24.335  14.229  50.683  1.00  0.00     0.000 C 
BRANCH   6   7
ATOM      7  C   UNL     1      24.468  13.885  52.179  1.00  0.00     0.006 C 
BRANCH   7   8
ATOM      8  C   UNL     1      25.873  14.116  52.761  1.00  0.00     0.053 C 
BRANCH   8   9
ATOM      9  C   UNL     1      25.860  14.165  54.258  1.00  0.00     0.041 C 
ATOM     10  O   UNL     1      26.458  15.091  54.867  1.00  0.00    -0.550 OA
ATOM     11  O   UNL     1      25.160  13.207  54.980  1.00  0.00    -0.550 OA
ENDBRANCH   8   9
ENDBRANCH   7   8
ENDBRANCH   6   7
ENDBRANCH   5   6
ENDBRANCH   4   5
ENDBRANCH   3   4
ENDBRANCH   2   3
ENDBRANCH   1   2
BRANCH   1  12
ATOM     12  C   UNL     1      19.214  10.357  49.920  1.00  0.00     0.000 C 
BRANCH  12  13
ATOM     13  C   UNL     1      19.006   9.344  51.056  1.00  0.00    -0.000 C 
BRANCH  13  14
ATOM     14  C   UNL     1      17.690   8.558  50.914  1.00  0.00    -0.000 C 
BRANCH  14  15
ATOM     15  C   UNL     1      17.631   7.739  49.615  1.00  0.00    -0.000 C 
BRANCH  15  16
ATOM     16  C   UNL     1      16.499   6.696  49.621  1.00  0.00    -0.000 C 
BRANCH  16  17
ATOM     17  C   UNL     1      15.112   7.318  49.385  1.00  0.00    -0.000 C 
BRANCH  17  18
ATOM     18  C   UNL     1      14.450   6.938  48.048  1.00  0.00    -0.000 C 
BRANCH  18  19
ATOM     19  C   UNL     1      14.499   8.071  47.012  1.00  0.00    -0.003 C 
ATOM     20  C   UNL     1      15.851   8.112  46.306  1.00  0.00     0.004 C 
ENDBRANCH  18  19
ENDBRANCH  17  18
ENDBRANCH  16  17
ENDBRANCH  15  16
ENDBRANCH  14  15
ENDBRANCH  13  14
ENDBRANCH  12  13
ENDBRANCH   1  12
TORSDOF 16
ENDMDL
MODEL 2
REMARK VINA RESULT:    -5.217      3.937      4.841
REMARK INTER + INTRA:         -10.881
REMARK INTER:                 -10.060
REMARK INTRA:                  -0.821
REMARK UNBOUND:                -0.784
REMARK SMILES CCCCCCCCCCCCCCCCCC(=O)[O-]
REMARK SMILES IDX 10 1 11 2 12 3 13 4 14 5 15 6 16 7 17 8 18 9 19 10 20 11
REMARK SMILES IDX 9 12 8 13 7 14 6 15 5 16 4 17 3 18 2 19 1 20
REMARK H PARENT
REMARK Flexibility Score: inf
ROOT
ATOM      1  C   UNL     1      20.615  10.253  49.792  1.00  0.00     0.000 C 
ENDROOT
BRANCH   1   2
ATOM      2  C   UNL     1      21.275  11.379  48.975  1.00  0.00     0.000 C 
BRANCH   2   3
ATOM      3  C   UNL     1      22.282  12.247  49.757  1.00  0.00     0.000 C 
BRANCH   3   4
ATOM      4  C   UNL     1      23.656  12.427  49.082  1.00  0.00     0.000 C 
BRANCH   4   5
ATOM      5  C   UNL     1      23.827  13.731  48.281  1.00  0.00     0.000 C 
BRANCH   5   6
ATOM      6  C   UNL     1      24.873  13.611  47.161  1.00  0.00     0.000 C 
BRANCH   6   7
ATOM      7  C   UNL     1      25.147  12.151  46.756  1.00  0.00     0.006 C 
BRANCH   7   8
ATOM      8  C   UNL     1      25.517  11.962  45.275  1.00  0.00     0.053 C 
BRANCH   8   9
ATOM      9  C   UNL     1      25.725  10.520  44.927  1.00  0.00     0.041 C 
ATOM     10  O   UNL     1      26.422   9.782  45.673  1.00  0.00    -0.550 OA
ATOM     11  O   UNL     1      25.122   9.982  43.798  1.00  0.00    -0.550 OA
ENDBRANCH   8   9
ENDBRANCH   7   8
ENDBRANCH   6   7
ENDBRANCH   5   6
ENDBRANCH   4   5
ENDBRANCH   3   4
ENDBRANCH   2   3
ENDBRANCH   1   2
BRANCH   1  12
ATOM     12  C   UNL     1      19.078  10.339  49.791  1.00  0.00     0.000 C 
BRANCH  12  13
ATOM     13  C   UNL     1      18.477  10.157  51.193  1.00  0.00    -0.000 C 
BRANCH  13  14
ATOM     14  C   UNL     1      17.534   8.942  51.279  1.00  0.00    -0.000 C 
BRANCH  14  15
ATOM     15  C   UNL     1      17.089   8.444  49.895  1.00  0.00    -0.000 C 
BRANCH  15  16
ATOM     16  C   UNL     1      16.212   7.181  49.971  1.00  0.00    -0.000 C 
BRANCH  16  17
ATOM     17  C   UNL     1      15.882   6.598  48.586  1.00  0.00    -0.000 C 
BRANCH  17  18
ATOM     18  C   UNL     1      14.541   7.064  47.990  1.00  0.00    -0.000 C 
BRANCH  18  19
ATOM     19  C   UNL     1      14.704   8.187  46.955  1.00  0.00    -0.003 C 
ATOM     20  C   UNL     1      15.965   7.986  46.120  1.00  0.00     0.004 C 
ENDBRANCH  18  19
ENDBRANCH  17  18
ENDBRANCH  16  17
ENDBRANCH  15  16
ENDBRANCH  14  15
ENDBRANCH  13  14
ENDBRANCH  12  13
ENDBRANCH   1  12
TORSDOF 16
ENDMDL
MODEL 3
REMARK VINA RESULT:    -5.177      4.443     10.653
REMARK INTER + INTRA:         -10.803
REMARK INTER:                  -9.821
REMARK INTRA:                  -0.982
REMARK UNBOUND:                -0.784
REMARK SMILES CCCCCCCCCCCCCCCCCC(=O)[O-]
REMARK SMILES IDX 10 1 11 2 12 3 13 4 14 5 15 6 16 7 17 8 18 9 19 10 20 11
REMARK SMILES IDX 9 12 8 13 7 14 6 15 5 16 4 17 3 18 2 19 1 20
REMARK H PARENT
REMARK Flexibility Score: inf
ROOT
ATOM      1  C   UNL     1      22.392  12.260  48.587  1.00  0.00     0.000 C 
ENDROOT
BRANCH   1   2
ATOM      2  C   UNL     1      21.562  11.636  49.724  1.00  0.00     0.000 C 
BRANCH   2   3
ATOM      3  C   UNL     1      20.584  10.528  49.285  1.00  0.00     0.000 C 
BRANCH   3   4
ATOM      4  C   UNL     1      19.430  10.245  50.269  1.00  0.00     0.000 C 
BRANCH   4   5
ATOM      5  C   UNL     1      18.212   9.526  49.659  1.00  0.00     0.000 C 
BRANCH   5   6
ATOM      6  C   UNL     1      17.574   8.511  50.622  1.00  0.00     0.000 C 
BRANCH   6   7
ATOM      7  C   UNL     1      16.801   7.399  49.889  1.00  0.00     0.006 C 
BRANCH   7   8
ATOM      8  C   UNL     1      15.571   7.889  49.106  1.00  0.00     0.053 C 
BRANCH   8   9
ATOM      9  C   UNL     1      15.695   7.621  47.638  1.00  0.00     0.041 C 
ATOM     10  O   UNL     1      14.713   7.817  46.874  1.00  0.00    -0.550 OA
ATOM     11  O   UNL     1      16.904   7.190  47.109  1.00  0.00    -0.550 OA
ENDBRANCH   8   9
ENDBRANCH   7   8
ENDBRANCH   6   7
ENDBRANCH   5   6
ENDBRANCH   4   5
ENDBRANCH   3   4
ENDBRANCH   2   3
ENDBRANCH   1   2
BRANCH   1  12
ATOM     12  C   UNL     1      22.873  13.685  48.913  1.00  0.00     0.000 C 
BRANCH  12  13
ATOM     13  C   UNL     1      22.824  13.995  50.417  1.00  0.00    -0.000 C 
BRANCH  13  14
ATOM     14  C   UNL     1      24.174  13.748  51.116  1.00  0.00    -0.000 C 
BRANCH  14  15
ATOM     15  C   UNL     1      25.133  14.940  50.980  1.00  0.00    -0.000 C 
BRANCH  15  16
ATOM     16  C   UNL     1      26.582  14.583  51.357  1.00  0.00    -0.000 C 
BRANCH  16  17
ATOM     17  C   UNL     1      26.850  14.689  52.868  1.00  0.00    -0.000 C 
BRANCH  17  18
ATOM     18  C   UNL     1      27.045  13.341  53.587  1.00  0.00    -0.000 C 
BRANCH  18  19
ATOM     19  C   UNL     1      25.805  12.900  54.379  1.00  0.00    -0.003 C 
ATOM     20  C   UNL     1      24.874  14.079  54.644  1.00  0.00     0.004 C 
ENDBRANCH  18  19
ENDBRANCH  17  18
ENDBRANCH  16  17
ENDBRANCH  15  16
ENDBRANCH  14  15
ENDBRANCH  13  14
ENDBRANCH  12  13
ENDBRANCH   1  12
TORSDOF 16
ENDMDL
MODEL 4
REMARK VINA RESULT:    -5.132     12.276     15.465
REMARK INTER + INTRA:         -10.717
REMARK INTER:                  -9.759
REMARK INTRA:                  -0.958
REMARK UNBOUND:                -0.784
REMARK SMILES CCCCCCCCCCCCCCCCCC(=O)[O-]
REMARK SMILES IDX 10 1 11 2 12 3 13 4 14 5 15 6 16 7 17 8 18 9 19 10 20 11
REMARK SMILES IDX 9 12 8 13 7 14 6 15 5 16 4 17 3 18 2 19 1 20
REMARK H PARENT
REMARK Flexibility Score: inf
ROOT
ATOM      1  C   UNL     1      17.978  -0.667  46.360  1.00  0.00     0.000 C 
ENDROOT
BRANCH   1   2
ATOM      2  C   UNL     1      17.016  -0.275  47.496  1.00  0.00     0.000 C 
BRANCH   2   3
ATOM      3  C   UNL     1      16.041   0.872  47.158  1.00  0.00     0.000 C 
BRANCH   3   4
ATOM      4  C   UNL     1      15.323   1.501  48.369  1.00  0.00     0.000 C 
BRANCH   4   5
ATOM      5  C   UNL     1      13.839   1.844  48.145  1.00  0.00     0.000 C 
BRANCH   5   6
ATOM      6  C   UNL     1      13.182   0.973  47.061  1.00  0.00     0.000 C 
BRANCH   6   7
ATOM      7  C   UNL     1      12.796   1.775  45.805  1.00  0.00     0.006 C 
BRANCH   7   8
ATOM      8  C   UNL     1      12.437   0.910  44.584  1.00  0.00     0.053 C 
BRANCH   8   9
ATOM      9  C   UNL     1      10.976   0.975  44.259  1.00  0.00     0.041 C 
ATOM     10  O   UNL     1      10.385  -0.038  43.798  1.00  0.00    -0.550 OA
ATOM     11  O   UNL     1      10.261   2.140  44.497  1.00  0.00    -0.550 OA
ENDBRANCH   8   9
ENDBRANCH   7   8
ENDBRANCH   6   7
ENDBRANCH   5   6
ENDBRANCH   4   5
ENDBRANCH   3   4
ENDBRANCH   2   3
ENDBRANCH   1   2
BRANCH   1  12
ATOM     12  C   UNL     1      19.440  -0.777  46.829  1.00  0.00     0.000 C 
BRANCH  12  13
ATOM     13  C   UNL     1      19.815   0.307  47.851  1.00  0.00    -0.000 C 
BRANCH  13  14
ATOM     14  C   UNL     1      21.333   0.555  47.919  1.00  0.00    -0.000 C 
BRANCH  14  15
ATOM     15  C   UNL     1      22.129  -0.419  47.037  1.00  0.00    -0.000 C 
BRANCH  15  16
ATOM     16  C   UNL     1      23.605  -0.531  47.456  1.00  0.00    -0.000 C 
BRANCH  16  17
ATOM     17  C   UNL     1      23.913   0.215  48.767  1.00  0.00    -0.000 C 
BRANCH  17  18
ATOM     18  C   UNL     1      24.805  -0.557  49.757  1.00  0.00    -0.000 C 
BRANCH  18  19
ATOM     19  C   UNL     1      25.059  -2.009  49.327  1.00  0.00    -0.003 C 
ATOM     20  C   UNL     1      26.554  -2.305  49.246  1.00  0.00     0.004 C 
ENDBRANCH  18  19
ENDBRANCH  17  18
ENDBRANCH  16  17
ENDBRANCH  15  16
ENDBRANCH  14  15
ENDBRANCH  13  14
ENDBRANCH  12  13
ENDBRANCH   1  12
TORSDOF 16
ENDMDL
MODEL 5
REMARK VINA RESULT:    -5.058     10.678     14.184
REMARK INTER + INTRA:         -10.574
REMARK INTER:                  -8.870
REMARK INTRA:                  -1.704
REMARK UNBOUND:                -0.784
REMARK SMILES CCCCCCCCCCCCCCCCCC(=O)[O-]
REMARK SMILES IDX 10 1 11 2 12 3 13 4 14 5 15 6 16 7 17 8 18 9 19 10 20 11
REMARK SMILES IDX 9 12 8 13 7 14 6 15 5 16 4 17 3 18 2 19 1 20
REMARK H PARENT
REMARK Flexibility Score: inf
ROOT
ATOM      1  C   UNL     1      21.474   1.024  47.833  1.00  0.00     0.000 C 
ENDROOT
BRANCH   1   2
ATOM      2  C   UNL     1      20.098   0.485  48.264  1.00  0.00     0.000 C 
BRANCH   2   3
ATOM      3  C   UNL     1      19.348  -0.324  47.188  1.00  0.00     0.000 C 
BRANCH   3   4
ATOM      4  C   UNL     1      18.305  -1.324  47.726  1.00  0.00     0.000 C 
BRANCH   4   5
ATOM      5  C   UNL     1      16.844  -0.842  47.666  1.00  0.00     0.000 C 
BRANCH   5   6
ATOM      6  C   UNL     1      16.716   0.621  47.212  1.00  0.00     0.000 C 
BRANCH   6   7
ATOM      7  C   UNL     1      15.588   1.375  47.940  1.00  0.00     0.006 C 
BRANCH   7   8
ATOM      8  C   UNL     1      14.321   0.539  48.187  1.00  0.00     0.053 C 
BRANCH   8   9
ATOM      9  C   UNL     1      13.362   0.619  47.038  1.00  0.00     0.041 C 
ATOM     10  O   UNL     1      13.148   1.722  46.469  1.00  0.00    -0.550 OA
ATOM     11  O   UNL     1      12.733  -0.528  46.576  1.00  0.00    -0.550 OA
ENDBRANCH   8   9
ENDBRANCH   7   8
ENDBRANCH   6   7
ENDBRANCH   5   6
ENDBRANCH   4   5
ENDBRANCH   3   4
ENDBRANCH   2   3
ENDBRANCH   1   2
BRANCH   1  12
ATOM     12  C   UNL     1      22.228   0.058  46.903  1.00  0.00     0.000 C 
BRANCH  12  13
ATOM     13  C   UNL     1      23.306  -0.752  47.641  1.00  0.00    -0.000 C 
BRANCH  13  14
ATOM     14  C   UNL     1      23.989   0.056  48.759  1.00  0.00    -0.000 C 
BRANCH  14  15
ATOM     15  C   UNL     1      25.505   0.192  48.546  1.00  0.00    -0.000 C 
BRANCH  15  16
ATOM     16  C   UNL     1      25.898   1.539  47.916  1.00  0.00    -0.000 C 
BRANCH  16  17
ATOM     17  C   UNL     1      24.830   2.629  48.118  1.00  0.00    -0.000 C 
BRANCH  17  18
ATOM     18  C   UNL     1      24.668   3.603  46.936  1.00  0.00    -0.000 C 
BRANCH  18  19
ATOM     19  C   UNL     1      24.518   2.887  45.586  1.00  0.00    -0.003 C 
ATOM     20  C   UNL     1      23.109   3.057  45.026  1.00  0.00     0.004 C 
ENDBRANCH  18  19
ENDBRANCH  17  18
ENDBRANCH  16  17
ENDBRANCH  15  16
ENDBRANCH  14  15
ENDBRANCH  13  14
ENDBRANCH  12  13
ENDBRANCH   1  12
TORSDOF 16
ENDMDL
MODEL 6
REMARK VINA RESULT:    -5.043      5.062     10.022
REMARK INTER + INTRA:         -10.545
REMARK INTER:                  -9.322
REMARK INTRA:                  -1.223
REMARK UNBOUND:                -0.784
REMARK SMILES CCCCCCCCCCCCCCCCCC(=O)[O-]
REMARK SMILES IDX 10 1 11 2 12 3 13 4 14 5 15 6 16 7 17 8 18 9 19 10 20 11
REMARK SMILES IDX 9 12 8 13 7 14 6 15 5 16 4 17 3 18 2 19 1 20
REMARK H PARENT
REMARK Flexibility Score: inf
ROOT
ATOM      1  C   UNL     1      22.147  12.815  49.884  1.00  0.00     0.000 C 
ENDROOT
BRANCH   1   2
ATOM      2  C   UNL     1      21.859  11.396  49.361  1.00  0.00     0.000 C 
BRANCH   2   3
ATOM      3  C   UNL     1      20.427  10.883  49.619  1.00  0.00     0.000 C 
BRANCH   3   4
ATOM      4  C   UNL     1      20.231   9.366  49.433  1.00  0.00     0.000 C 
BRANCH   4   5
ATOM      5  C   UNL     1      19.742   8.611  50.684  1.00  0.00     0.000 C 
BRANCH   5   6
ATOM      6  C   UNL     1      18.302   8.980  51.078  1.00  0.00     0.000 C 
BRANCH   6   7
ATOM      7  C   UNL     1      17.307   8.821  49.914  1.00  0.00     0.006 C 
BRANCH   7   8
ATOM      8  C   UNL     1      16.563   7.475  49.892  1.00  0.00     0.053 C 
BRANCH   8   9
ATOM      9  C   UNL     1      15.386   7.497  48.966  1.00  0.00     0.041 C 
ATOM     10  O   UNL     1      14.352   6.833  49.241  1.00  0.00    -0.550 OA
ATOM     11  O   UNL     1      15.418   8.278  47.819  1.00  0.00    -0.550 OA
ENDBRANCH   8   9
ENDBRANCH   7   8
ENDBRANCH   6   7
ENDBRANCH   5   6
ENDBRANCH   4   5
ENDBRANCH   3   4
ENDBRANCH   2   3
ENDBRANCH   1   2
BRANCH   1  12
ATOM     12  C   UNL     1      22.895  13.687  48.861  1.00  0.00     0.000 C 
BRANCH  12  13
ATOM     13  C   UNL     1      23.727  12.855  47.873  1.00  0.00    -0.000 C 
BRANCH  13  14
ATOM     14  C   UNL     1      25.215  12.787  48.265  1.00  0.00    -0.000 C 
BRANCH  14  15
ATOM     15  C   UNL     1      25.982  14.063  47.888  1.00  0.00    -0.000 C 
BRANCH  15  16
ATOM     16  C   UNL     1      26.038  14.296  46.367  1.00  0.00    -0.000 C 
BRANCH  16  17
ATOM     17  C   UNL     1      26.927  13.273  45.638  1.00  0.00    -0.000 C 
BRANCH  17  18
ATOM     18  C   UNL     1      26.263  12.581  44.434  1.00  0.00    -0.000 C 
BRANCH  18  19
ATOM     19  C   UNL     1      25.377  11.393  44.839  1.00  0.00    -0.003 C 
ATOM     20  C   UNL     1      26.216  10.252  45.409  1.00  0.00     0.004 C 
ENDBRANCH  18  19
ENDBRANCH  17  18
ENDBRANCH  16  17
ENDBRANCH  15  16
ENDBRANCH  14  15
ENDBRANCH  13  14
ENDBRANCH  12  13
ENDBRANCH   1  12
TORSDOF 16
ENDMDL
MODEL 7
REMARK VINA RESULT:    -5.020     12.299     15.733
REMARK INTER + INTRA:         -10.499
REMARK INTER:                  -9.724
REMARK INTRA:                  -0.775
REMARK UNBOUND:                -0.784
REMARK SMILES CCCCCCCCCCCCCCCCCC(=O)[O-]
REMARK SMILES IDX 10 1 11 2 12 3 13 4 14 5 15 6 16 7 17 8 18 9 19 10 20 11
REMARK SMILES IDX 9 12 8 13 7 14 6 15 5 16 4 17 3 18 2 19 1 20
REMARK H PARENT
REMARK Flexibility Score: inf
ROOT
ATOM      1  C   UNL     1      16.544  -1.918  46.984  1.00  0.00     0.000 C 
ENDROOT
BRANCH   1   2
ATOM      2  C   UNL     1      15.512  -1.319  47.957  1.00  0.00     0.000 C 
BRANCH   2   3
ATOM      3  C   UNL     1      15.368   0.215  47.892  1.00  0.00     0.000 C 
BRANCH   3   4
ATOM      4  C   UNL     1      14.055   0.775  48.475  1.00  0.00     0.000 C 
BRANCH   4   5
ATOM      5  C   UNL     1      13.013   1.220  47.432  1.00  0.00     0.000 C 
BRANCH   5   6
ATOM      6  C   UNL     1      13.388   0.805  45.999  1.00  0.00     0.000 C 
BRANCH   6   7
ATOM      7  C   UNL     1      12.758   1.717  44.930  1.00  0.00     0.006 C 
BRANCH   7   8
ATOM      8  C   UNL     1      12.279   0.979  43.668  1.00  0.00     0.053 C 
BRANCH   8   9
ATOM      9  C   UNL     1      10.873   0.482  43.806  1.00  0.00     0.041 C 
ATOM     10  O   UNL     1      10.001   1.196  44.369  1.00  0.00    -0.550 OA
ATOM     11  O   UNL     1      10.518  -0.754  43.282  1.00  0.00    -0.550 OA
ENDBRANCH   8   9
ENDBRANCH   7   8
ENDBRANCH   6   7
ENDBRANCH   5   6
ENDBRANCH   4   5
ENDBRANCH   3   4
ENDBRANCH   2   3
ENDBRANCH   1   2
BRANCH   1  12
ATOM     12  C   UNL     1      17.667  -0.930  46.625  1.00  0.00     0.000 C 
BRANCH  12  13
ATOM     13  C   UNL     1      18.824  -0.957  47.636  1.00  0.00    -0.000 C 
BRANCH  13  14
ATOM     14  C   UNL     1      20.103  -0.297  47.090  1.00  0.00    -0.000 C 
BRANCH  14  15
ATOM     15  C   UNL     1      20.717   0.704  48.079  1.00  0.00    -0.000 C 
BRANCH  15  16
ATOM     16  C   UNL     1      22.074   1.254  47.604  1.00  0.00    -0.000 C 
BRANCH  16  17
ATOM     17  C   UNL     1      23.223   0.932  48.577  1.00  0.00    -0.000 C 
BRANCH  17  18
ATOM     18  C   UNL     1      23.792  -0.494  48.458  1.00  0.00    -0.000 C 
BRANCH  18  19
ATOM     19  C   UNL     1      24.873  -0.796  49.505  1.00  0.00    -0.003 C 
ATOM     20  C   UNL     1      25.187  -2.289  49.556  1.00  0.00     0.004 C 
ENDBRANCH  18  19
ENDBRANCH  17  18
ENDBRANCH  16  17
ENDBRANCH  15  16
ENDBRANCH  14  15
ENDBRANCH  13  14
ENDBRANCH  12  13
ENDBRANCH   1  12
TORSDOF 16
ENDMDL
MODEL 8
REMARK VINA RESULT:    -5.005     11.796     14.971
REMARK INTER + INTRA:         -10.470
REMARK INTER:                  -9.021
REMARK INTRA:                  -1.449
REMARK UNBOUND:                -0.784
REMARK SMILES CCCCCCCCCCCCCCCCCC(=O)[O-]
REMARK SMILES IDX 10 1 11 2 12 3 13 4 14 5 15 6 16 7 17 8 18 9 19 10 20 11
REMARK SMILES IDX 9 12 8 13 7 14 6 15 5 16 4 17 3 18 2 19 1 20
REMARK H PARENT
REMARK Flexibility Score: inf
ROOT
ATOM      1  C   UNL     1      16.963  -1.927  47.803  1.00  0.00     0.000 C 
ENDROOT
BRANCH   1   2
ATOM      2  C   UNL     1      15.856  -0.865  47.670  1.00  0.00     0.000 C 
BRANCH   2   3
ATOM      3  C   UNL     1      16.327   0.593  47.843  1.00  0.00     0.000 C 
BRANCH   3   4
ATOM      4  C   UNL     1      15.207   1.616  48.122  1.00  0.00     0.000 C 
BRANCH   4   5
ATOM      5  C   UNL     1      13.859   1.008  48.552  1.00  0.00     0.000 C 
BRANCH   5   6
ATOM      6  C   UNL     1      12.784   1.106  47.457  1.00  0.00     0.000 C 
BRANCH   6   7
ATOM      7  C   UNL     1      13.372   1.433  46.072  1.00  0.00     0.006 C 
BRANCH   7   8
ATOM      8  C   UNL     1      12.715   0.674  44.907  1.00  0.00     0.053 C 
BRANCH   8   9
ATOM      9  C   UNL     1      12.222   1.600  43.838  1.00  0.00     0.041 C 
ATOM     10  O   UNL     1      12.670   1.510  42.665  1.00  0.00    -0.550 OA
ATOM     11  O   UNL     1      11.242   2.540  44.130  1.00  0.00    -0.550 OA
ENDBRANCH   8   9
ENDBRANCH   7   8
ENDBRANCH   6   7
ENDBRANCH   5   6
ENDBRANCH   4   5
ENDBRANCH   3   4
ENDBRANCH   2   3
ENDBRANCH   1   2
BRANCH   1  12
ATOM     12  C   UNL     1      17.337  -2.569  46.455  1.00  0.00     0.000 C 
BRANCH  12  13
ATOM     13  C   UNL     1      18.844  -2.495  46.165  1.00  0.00    -0.000 C 
BRANCH  13  14
ATOM     14  C   UNL     1      19.264  -1.144  45.558  1.00  0.00    -0.000 C 
BRANCH  14  15
ATOM     15  C   UNL     1      20.414  -0.482  46.333  1.00  0.00    -0.000 C 
BRANCH  15  16
ATOM     16  C   UNL     1      19.939   0.218  47.618  1.00  0.00    -0.000 C 
BRANCH  16  17
ATOM     17  C   UNL     1      21.074   0.951  48.354  1.00  0.00    -0.000 C 
BRANCH  17  18
ATOM     18  C   UNL     1      22.240   1.405  47.457  1.00  0.00    -0.000 C 
BRANCH  18  19
ATOM     19  C   UNL     1      23.614   1.203  48.111  1.00  0.00    -0.003 C 
ATOM     20  C   UNL     1      23.756  -0.212  48.665  1.00  0.00     0.004 C 
ENDBRANCH  18  19
ENDBRANCH  17  18
ENDBRANCH  16  17
ENDBRANCH  15  16
ENDBRANCH  14  15
ENDBRANCH  13  14
ENDBRANCH  12  13
ENDBRANCH   1  12
TORSDOF 16
ENDMDL
MODEL 9
REMARK VINA RESULT:    -4.997      5.932      7.520
REMARK INTER + INTRA:         -10.456
REMARK INTER:                  -8.141
REMARK INTRA:                  -2.314
REMARK UNBOUND:                -0.784
REMARK SMILES CCCCCCCCCCCCCCCCCC(=O)[O-]
REMARK SMILES IDX 10 1 11 2 12 3 13 4 14 5 15 6 16 7 17 8 18 9 19 10 20 11
REMARK SMILES IDX 9 12 8 13 7 14 6 15 5 16 4 17 3 18 2 19 1 20
REMARK H PARENT
REMARK Flexibility Score: inf
ROOT
ATOM      1  C   UNL     1      23.399  12.737  49.992  1.00  0.00     0.000 C 
ENDROOT
BRANCH   1   2
ATOM      2  C   UNL     1      23.981  13.493  51.199  1.00  0.00     0.000 C 
BRANCH   2   3
ATOM      3  C   UNL     1      24.695  14.817  50.858  1.00  0.00     0.000 C 
BRANCH   3   4
ATOM      4  C   UNL     1      26.210  14.698  50.600  1.00  0.00     0.000 C 
BRANCH   4   5
ATOM      5  C   UNL     1      27.108  15.375  51.651  1.00  0.00     0.000 C 
BRANCH   5   6
ATOM      6  C   UNL     1      28.042  14.384  52.366  1.00  0.00     0.000 C 
BRANCH   6   7
ATOM      7  C   UNL     1      27.787  14.315  53.884  1.00  0.00     0.006 C 
BRANCH   7   8
ATOM      8  C   UNL     1      26.384  14.774  54.314  1.00  0.00     0.053 C 
BRANCH   8   9
ATOM      9  C   UNL     1      25.471  13.617  54.583  1.00  0.00     0.041 C 
ATOM     10  O   UNL     1      24.303  13.818  55.009  1.00  0.00    -0.550 OA
ATOM     11  O   UNL     1      25.898  12.321  54.331  1.00  0.00    -0.550 OA
ENDBRANCH   8   9
ENDBRANCH   7   8
ENDBRANCH   6   7
ENDBRANCH   5   6
ENDBRANCH   4   5
ENDBRANCH   3   4
ENDBRANCH   2   3
ENDBRANCH   1   2
BRANCH   1  12
ATOM     12  C   UNL     1      23.373  13.589  48.711  1.00  0.00     0.000 C 
BRANCH  12  13
ATOM     13  C   UNL     1      24.144  12.936  47.552  1.00  0.00    -0.000 C 
BRANCH  13  14
ATOM     14  C   UNL     1      25.195  13.879  46.936  1.00  0.00    -0.000 C 
BRANCH  14  15
ATOM     15  C   UNL     1      26.633  13.412  47.205  1.00  0.00    -0.000 C 
BRANCH  15  16
ATOM     16  C   UNL     1      26.695  12.146  48.078  1.00  0.00    -0.000 C 
BRANCH  16  17
ATOM     17  C   UNL     1      27.342  10.952  47.356  1.00  0.00    -0.000 C 
BRANCH  17  18
ATOM     18  C   UNL     1      26.352  10.008  46.650  1.00  0.00    -0.000 C 
BRANCH  18  19
ATOM     19  C   UNL     1      26.435  10.088  45.119  1.00  0.00    -0.003 C 
ATOM     20  C   UNL     1      25.289  10.918  44.549  1.00  0.00     0.004 C 
ENDBRANCH  18  19
ENDBRANCH  17  18
ENDBRANCH  16  17
ENDBRANCH  15  16
ENDBRANCH  14  15
ENDBRANCH  13  14
ENDBRANCH  12  13
ENDBRANCH   1  12
TORSDOF 16
ENDMDL
