MODEL 1
REMARK VINA RESULT:    -2.678      0.000      0.000
REMARK INTER + INTRA:          -7.471
REMARK INTER:                  -4.870
REMARK INTRA:                  -2.600
REMARK UNBOUND:                -2.600
REMARK SMILES CCCCCCCCCCCCCCCC(=O)[O-]
REMARK SMILES IDX 9 1 10 2 11 3 12 4 13 5 14 6 15 7 16 8 17 9 18 10 8 11 7 12
REMARK SMILES IDX 6 13 5 14 4 15 3 16 2 17 1 18
REMARK H PARENT
REMARK Flexibility Score: inf
ROOT
ATOM      1  C   UNL     1     146.916 165.407 150.874  1.00  0.00     0.000 C 
ENDROOT
BRANCH   1   2
ATOM      2  C   UNL     1     147.208 163.972 150.412  1.00  0.00     0.000 C 
BRANCH   2   3
ATOM      3  C   UNL     1     146.541 162.913 151.307  1.00  0.00     0.000 C 
BRANCH   3   4
ATOM      4  C   UNL     1     147.558 161.939 151.925  1.00  0.00     0.000 C 
BRANCH   4   5
ATOM      5  C   UNL     1     149.013 162.321 151.608  1.00  0.00     0.000 C 
BRANCH   5   6
ATOM      6  C   UNL     1     150.018 161.717 152.600  1.00  0.00     0.006 C 
BRANCH   6   7
ATOM      7  C   UNL     1     149.631 160.281 152.965  1.00  0.00     0.053 C 
BRANCH   7   8
ATOM      8  C   UNL     1     149.965 159.993 154.394  1.00  0.00     0.041 C 
ATOM      9  O   UNL     1     151.167 159.881 154.753  1.00  0.00    -0.550 OA
ATOM     10  O   UNL     1     148.952 159.900 155.340  1.00  0.00    -0.550 OA
ENDBRANCH   7   8
ENDBRANCH   6   7
ENDBRANCH   5   6
ENDBRANCH   4   5
ENDBRANCH   3   4
ENDBRANCH   2   3
ENDBRANCH   1   2
BRANCH   1  11
ATOM     11  C   UNL     1     146.213 165.412 152.237  1.00  0.00     0.000 C 
BRANCH  11  12
ATOM     12  C   UNL     1     147.030 166.190 153.275  1.00  0.00    -0.000 C 
BRANCH  12  13
ATOM     13  C   UNL     1     148.526 166.149 152.944  1.00  0.00    -0.000 C 
BRANCH  13  14
ATOM     14  C   UNL     1     149.269 165.179 153.875  1.00  0.00    -0.000 C 
BRANCH  14  15
ATOM     15  C   UNL     1     148.512 164.918 155.188  1.00  0.00    -0.000 C 
BRANCH  15  16
ATOM     16  C   UNL     1     148.261 163.420 155.438  1.00  0.00    -0.000 C 
BRANCH  16  17
ATOM     17  C   UNL     1     146.785 163.033 155.255  1.00  0.00    -0.003 C 
ATOM     18  C   UNL     1     145.878 163.629 156.331  1.00  0.00     0.004 C 
ENDBRANCH  16  17
ENDBRANCH  15  16
ENDBRANCH  14  15
ENDBRANCH  13  14
ENDBRANCH  12  13
ENDBRANCH  11  12
ENDBRANCH   1  11
TORSDOF 14
ENDMDL
MODEL 2
REMARK VINA RESULT:    -2.611      1.712      4.817
REMARK INTER + INTRA:          -7.349
REMARK INTER:                  -4.669
REMARK INTRA:                  -2.680
REMARK UNBOUND:                -2.600
REMARK SMILES CCCCCCCCCCCCCCCC(=O)[O-]
REMARK SMILES IDX 9 1 10 2 11 3 12 4 13 5 14 6 15 7 16 8 17 9 18 10 8 11 7 12
REMARK SMILES IDX 6 13 5 14 4 15 3 16 2 17 1 18
REMARK H PARENT
REMARK Flexibility Score: inf
ROOT
ATOM      1  C   UNL     1     149.835 164.445 152.654  1.00  0.00     0.000 C 
ENDROOT
BRANCH   1   2
ATOM      2  C   UNL     1     149.227 165.480 153.612  1.00  0.00     0.000 C 
BRANCH   2   3
ATOM      3  C   UNL     1     148.406 164.835 154.740  1.00  0.00     0.000 C 
BRANCH   3   4
ATOM      4  C   UNL     1     147.197 165.691 155.153  1.00  0.00     0.000 C 
BRANCH   4   5
ATOM      5  C   UNL     1     146.000 164.842 155.614  1.00  0.00     0.000 C 
BRANCH   5   6
ATOM      6  C   UNL     1     146.196 163.342 155.348  1.00  0.00     0.006 C 
BRANCH   6   7
ATOM      7  C   UNL     1     145.875 162.518 156.597  1.00  0.00     0.053 C 
BRANCH   7   8
ATOM      8  C   UNL     1     146.852 161.396 156.752  1.00  0.00     0.041 C 
ATOM      9  O   UNL     1     147.866 161.331 156.009  1.00  0.00    -0.550 OA
ATOM     10  O   UNL     1     146.669 160.449 157.752  1.00  0.00    -0.550 OA
ENDBRANCH   7   8
ENDBRANCH   6   7
ENDBRANCH   5   6
ENDBRANCH   4   5
ENDBRANCH   3   4
ENDBRANCH   2   3
ENDBRANCH   1   2
BRANCH   1  11
ATOM     11  C   UNL     1     149.314 163.036 152.967  1.00  0.00     0.000 C 
BRANCH  11  12
ATOM     12  C   UNL     1     148.661 162.404 151.732  1.00  0.00    -0.000 C 
BRANCH  12  13
ATOM     13  C   UNL     1     147.182 162.091 151.988  1.00  0.00    -0.000 C 
BRANCH  13  14
ATOM     14  C   UNL     1     146.274 163.023 151.170  1.00  0.00    -0.000 C 
BRANCH  14  15
ATOM     15  C   UNL     1     146.013 164.365 151.873  1.00  0.00    -0.000 C 
BRANCH  15  16
ATOM     16  C   UNL     1     146.531 165.566 151.062  1.00  0.00    -0.000 C 
BRANCH  16  17
ATOM     17  C   UNL     1     147.164 165.145 149.726  1.00  0.00    -0.003 C 
ATOM     18  C   UNL     1     148.534 165.781 149.493  1.00  0.00     0.004 C 
ENDBRANCH  16  17
ENDBRANCH  15  16
ENDBRANCH  14  15
ENDBRANCH  13  14
ENDBRANCH  12  13
ENDBRANCH  11  12
ENDBRANCH   1  11
TORSDOF 14
ENDMDL
MODEL 3
REMARK VINA RESULT:    -2.605      1.477      4.276
REMARK INTER + INTRA:          -7.338
REMARK INTER:                  -4.891
REMARK INTRA:                  -2.447
REMARK UNBOUND:                -2.600
REMARK SMILES CCCCCCCCCCCCCCCC(=O)[O-]
REMARK SMILES IDX 9 1 10 2 11 3 12 4 13 5 14 6 15 7 16 8 17 9 18 10 8 11 7 12
REMARK SMILES IDX 6 13 5 14 4 15 3 16 2 17 1 18
REMARK H PARENT
REMARK Flexibility Score: inf
ROOT
ATOM      1  C   UNL     1     147.322 165.078 151.248  1.00  0.00     0.000 C 
ENDROOT
BRANCH   1   2
ATOM      2  C   UNL     1     146.805 165.896 152.441  1.00  0.00     0.000 C 
BRANCH   2   3
ATOM      3  C   UNL     1     147.773 165.877 153.637  1.00  0.00     0.000 C 
BRANCH   3   4
ATOM      4  C   UNL     1     147.042 165.963 154.988  1.00  0.00     0.000 C 
BRANCH   4   5
ATOM      5  C   UNL     1     146.356 164.642 155.375  1.00  0.00     0.000 C 
BRANCH   5   6
ATOM      6  C   UNL     1     147.357 163.511 155.653  1.00  0.00     0.006 C 
BRANCH   6   7
ATOM      7  C   UNL     1     146.630 162.211 156.006  1.00  0.00     0.053 C 
BRANCH   7   8
ATOM      8  C   UNL     1     147.612 161.122 156.300  1.00  0.00     0.041 C 
ATOM      9  O   UNL     1     147.231 160.057 156.853  1.00  0.00    -0.550 OA
ATOM     10  O   UNL     1     148.940 161.263 155.918  1.00  0.00    -0.550 OA
ENDBRANCH   7   8
ENDBRANCH   6   7
ENDBRANCH   5   6
ENDBRANCH   4   5
ENDBRANCH   3   4
ENDBRANCH   2   3
ENDBRANCH   1   2
BRANCH   1  11
ATOM     11  C   UNL     1     146.299 164.014 150.830  1.00  0.00     0.000 C 
BRANCH  11  12
ATOM     12  C   UNL     1     146.057 163.008 151.961  1.00  0.00    -0.000 C 
BRANCH  12  13
ATOM     13  C   UNL     1     146.724 161.661 151.654  1.00  0.00    -0.000 C 
BRANCH  13  14
ATOM     14  C   UNL     1     147.883 161.387 152.625  1.00  0.00    -0.000 C 
BRANCH  14  15
ATOM     15  C   UNL     1     149.260 161.657 151.997  1.00  0.00    -0.000 C 
BRANCH  15  16
ATOM     16  C   UNL     1     150.003 162.819 152.680  1.00  0.00    -0.000 C 
BRANCH  16  17
ATOM     17  C   UNL     1     150.615 163.801 151.668  1.00  0.00    -0.003 C 
ATOM     18  C   UNL     1     150.430 163.352 150.219  1.00  0.00     0.004 C 
ENDBRANCH  16  17
ENDBRANCH  15  16
ENDBRANCH  14  15
ENDBRANCH  13  14
ENDBRANCH  12  13
ENDBRANCH  11  12
ENDBRANCH   1  11
TORSDOF 14
ENDMDL
MODEL 4
REMARK VINA RESULT:    -2.604      1.979      2.505
REMARK INTER + INTRA:          -7.335
REMARK INTER:                  -5.004
REMARK INTRA:                  -2.331
REMARK UNBOUND:                -2.600
REMARK SMILES CCCCCCCCCCCCCCCC(=O)[O-]
REMARK SMILES IDX 9 1 10 2 11 3 12 4 13 5 14 6 15 7 16 8 17 9 18 10 8 11 7 12
REMARK SMILES IDX 6 13 5 14 4 15 3 16 2 17 1 18
REMARK H PARENT
REMARK Flexibility Score: inf
ROOT
ATOM      1  C   UNL     1     146.999 166.251 152.183  1.00  0.00     0.000 C 
ENDROOT
BRANCH   1   2
ATOM      2  C   UNL     1     146.197 165.147 151.480  1.00  0.00     0.000 C 
BRANCH   2   3
ATOM      3  C   UNL     1     146.998 163.844 151.315  1.00  0.00     0.000 C 
BRANCH   3   4
ATOM      4  C   UNL     1     146.139 162.590 151.552  1.00  0.00     0.000 C 
BRANCH   4   5
ATOM      5  C   UNL     1     146.985 161.346 151.870  1.00  0.00     0.000 C 
BRANCH   5   6
ATOM      6  C   UNL     1     148.281 161.683 152.621  1.00  0.00     0.006 C 
BRANCH   6   7
ATOM      7  C   UNL     1     149.352 160.617 152.372  1.00  0.00     0.053 C 
BRANCH   7   8
ATOM      8  C   UNL     1     150.020 160.841 151.053  1.00  0.00     0.041 C 
ATOM      9  O   UNL     1     150.057 161.995 150.550  1.00  0.00    -0.550 OA
ATOM     10  O   UNL     1     150.648 159.786 150.404  1.00  0.00    -0.550 OA
ENDBRANCH   7   8
ENDBRANCH   6   7
ENDBRANCH   5   6
ENDBRANCH   4   5
ENDBRANCH   3   4
ENDBRANCH   2   3
ENDBRANCH   1   2
BRANCH   1  11
ATOM     11  C   UNL     1     148.244 166.628 151.369  1.00  0.00     0.000 C 
BRANCH  11  12
ATOM     12  C   UNL     1     149.501 166.615 152.247  1.00  0.00    -0.000 C 
BRANCH  12  13
ATOM     13  C   UNL     1     150.341 165.359 151.989  1.00  0.00    -0.000 C 
BRANCH  13  14
ATOM     14  C   UNL     1     150.340 164.435 153.218  1.00  0.00    -0.000 C 
BRANCH  14  15
ATOM     15  C   UNL     1     149.746 165.108 154.466  1.00  0.00    -0.000 C 
BRANCH  15  16
ATOM     16  C   UNL     1     148.956 164.124 155.347  1.00  0.00    -0.000 C 
BRANCH  16  17
ATOM     17  C   UNL     1     147.437 164.340 155.253  1.00  0.00    -0.003 C 
ATOM     18  C   UNL     1     147.012 165.751 155.657  1.00  0.00     0.004 C 
ENDBRANCH  16  17
ENDBRANCH  15  16
ENDBRANCH  14  15
ENDBRANCH  13  14
ENDBRANCH  12  13
ENDBRANCH  11  12
ENDBRANCH   1  11
TORSDOF 14
ENDMDL
MODEL 5
REMARK VINA RESULT:    -2.601      1.562      2.668
REMARK INTER + INTRA:          -7.330
REMARK INTER:                  -5.255
REMARK INTRA:                  -2.075
REMARK UNBOUND:                -2.600
REMARK SMILES CCCCCCCCCCCCCCCC(=O)[O-]
REMARK SMILES IDX 9 1 10 2 11 3 12 4 13 5 14 6 15 7 16 8 17 9 18 10 8 11 7 12
REMARK SMILES IDX 6 13 5 14 4 15 3 16 2 17 1 18
REMARK H PARENT
REMARK Flexibility Score: inf
ROOT
ATOM      1  C   UNL     1     147.441 165.251 151.846  1.00  0.00     0.000 C 
ENDROOT
BRANCH   1   2
ATOM      2  C   UNL     1     146.251 164.492 151.241  1.00  0.00     0.000 C 
BRANCH   2   3
ATOM      3  C   UNL     1     146.535 162.991 151.059  1.00  0.00     0.000 C 
BRANCH   3   4
ATOM      4  C   UNL     1     146.193 162.170 152.314  1.00  0.00     0.000 C 
BRANCH   4   5
ATOM      5  C   UNL     1     147.434 161.536 152.962  1.00  0.00     0.000 C 
BRANCH   5   6
ATOM      6  C   UNL     1     148.472 161.069 151.931  1.00  0.00     0.006 C 
BRANCH   6   7
ATOM      7  C   UNL     1     149.879 161.062 152.535  1.00  0.00     0.053 C 
BRANCH   7   8
ATOM      8  C   UNL     1     150.561 159.759 152.263  1.00  0.00     0.041 C 
ATOM      9  O   UNL     1     151.022 159.512 151.118  1.00  0.00    -0.550 OA
ATOM     10  O   UNL     1     150.733 158.838 153.289  1.00  0.00    -0.550 OA
ENDBRANCH   7   8
ENDBRANCH   6   7
ENDBRANCH   5   6
ENDBRANCH   4   5
ENDBRANCH   3   4
ENDBRANCH   2   3
ENDBRANCH   1   2
BRANCH   1  11
ATOM     11  C   UNL     1     146.992 166.128 153.022  1.00  0.00     0.000 C 
BRANCH  11  12
ATOM     12  C   UNL     1     145.925 165.417 153.863  1.00  0.00    -0.000 C 
BRANCH  12  13
ATOM     13  C   UNL     1     146.406 165.210 155.304  1.00  0.00    -0.000 C 
BRANCH  13  14
ATOM     14  C   UNL     1     147.936 165.323 155.395  1.00  0.00    -0.000 C 
BRANCH  14  15
ATOM     15  C   UNL     1     148.624 163.957 155.557  1.00  0.00    -0.000 C 
BRANCH  15  16
ATOM     16  C   UNL     1     150.028 163.924 154.927  1.00  0.00    -0.000 C 
BRANCH  16  17
ATOM     17  C   UNL     1     150.343 165.197 154.126  1.00  0.00    -0.003 C 
ATOM     18  C   UNL     1     151.748 165.188 153.526  1.00  0.00     0.004 C 
ENDBRANCH  16  17
ENDBRANCH  15  16
ENDBRANCH  14  15
ENDBRANCH  13  14
ENDBRANCH  12  13
ENDBRANCH  11  12
ENDBRANCH   1  11
TORSDOF 14
ENDMDL
MODEL 6
REMARK VINA RESULT:    -2.592      6.142      9.396
REMARK INTER + INTRA:          -7.315
REMARK INTER:                  -4.803
REMARK INTRA:                  -2.512
REMARK UNBOUND:                -2.600
REMARK SMILES CCCCCCCCCCCCCCCC(=O)[O-]
REMARK SMILES IDX 9 1 10 2 11 3 12 4 13 5 14 6 15 7 16 8 17 9 18 10 8 11 7 12
REMARK SMILES IDX 6 13 5 14 4 15 3 16 2 17 1 18
REMARK H PARENT
REMARK Flexibility Score: inf
ROOT
ATOM      1  C   UNL     1     146.388 158.806 162.491  1.00  0.00     0.000 C 
ENDROOT
BRANCH   1   2
ATOM      2  C   UNL     1     147.262 159.919 161.895  1.00  0.00     0.000 C 
BRANCH   2   3
ATOM      3  C   UNL     1     146.805 160.344 160.490  1.00  0.00     0.000 C 
BRANCH   3   4
ATOM      4  C   UNL     1     145.876 159.309 159.834  1.00  0.00     0.000 C 
BRANCH   4   5
ATOM      5  C   UNL     1     146.347 158.896 158.430  1.00  0.00     0.000 C 
BRANCH   5   6
ATOM      6  C   UNL     1     147.020 160.046 157.666  1.00  0.00     0.006 C 
BRANCH   6   7
ATOM      7  C   UNL     1     148.004 159.508 156.623  1.00  0.00     0.053 C 
BRANCH   7   8
ATOM      8  C   UNL     1     148.472 160.608 155.725  1.00  0.00     0.041 C 
ATOM      9  O   UNL     1     147.722 161.042 154.811  1.00  0.00    -0.550 OA
ATOM     10  O   UNL     1     149.717 161.190 155.929  1.00  0.00    -0.550 OA
ENDBRANCH   7   8
ENDBRANCH   6   7
ENDBRANCH   5   6
ENDBRANCH   4   5
ENDBRANCH   3   4
ENDBRANCH   2   3
ENDBRANCH   1   2
BRANCH   1  11
ATOM     11  C   UNL     1     147.245 157.779 163.243  1.00  0.00     0.000 C 
BRANCH  11  12
ATOM     12  C   UNL     1     147.718 156.664 162.302  1.00  0.00    -0.000 C 
BRANCH  12  13
ATOM     13  C   UNL     1     146.532 155.997 161.596  1.00  0.00    -0.000 C 
BRANCH  13  14
ATOM     14  C   UNL     1     146.893 155.625 160.149  1.00  0.00    -0.000 C 
BRANCH  14  15
ATOM     15  C   UNL     1     148.410 155.521 159.922  1.00  0.00    -0.000 C 
BRANCH  15  16
ATOM     16  C   UNL     1     148.867 156.240 158.641  1.00  0.00    -0.000 C 
BRANCH  16  17
ATOM     17  C   UNL     1     150.116 157.106 158.866  1.00  0.00    -0.003 C 
ATOM     18  C   UNL     1     149.846 158.316 159.760  1.00  0.00     0.004 C 
ENDBRANCH  16  17
ENDBRANCH  15  16
ENDBRANCH  14  15
ENDBRANCH  13  14
ENDBRANCH  12  13
ENDBRANCH  11  12
ENDBRANCH   1  11
TORSDOF 14
ENDMDL
MODEL 7
REMARK VINA RESULT:    -2.579      3.542      5.999
REMARK INTER + INTRA:          -7.290
REMARK INTER:                  -4.624
REMARK INTRA:                  -2.666
REMARK UNBOUND:                -2.600
REMARK SMILES CCCCCCCCCCCCCCCC(=O)[O-]
REMARK SMILES IDX 9 1 10 2 11 3 12 4 13 5 14 6 15 7 16 8 17 9 18 10 8 11 7 12
REMARK SMILES IDX 6 13 5 14 4 15 3 16 2 17 1 18
REMARK H PARENT
REMARK Flexibility Score: inf
ROOT
ATOM      1  C   UNL     1     148.438 164.058 155.471  1.00  0.00     0.000 C 
ENDROOT
BRANCH   1   2
ATOM      2  C   UNL     1     147.666 165.351 155.173  1.00  0.00     0.000 C 
BRANCH   2   3
ATOM      3  C   UNL     1     146.182 165.098 154.856  1.00  0.00     0.000 C 
BRANCH   3   4
ATOM      4  C   UNL     1     145.877 165.187 153.351  1.00  0.00     0.000 C 
BRANCH   4   5
ATOM      5  C   UNL     1     146.968 165.938 152.570  1.00  0.00     0.000 C 
BRANCH   5   6
ATOM      6  C   UNL     1     146.626 166.106 151.082  1.00  0.00     0.006 C 
BRANCH   6   7
ATOM      7  C   UNL     1     147.821 166.666 150.305  1.00  0.00     0.053 C 
BRANCH   7   8
ATOM      8  C   UNL     1     147.605 166.522 148.832  1.00  0.00     0.041 C 
ATOM      9  O   UNL     1     147.377 167.536 148.123  1.00  0.00    -0.550 OA
ATOM     10  O   UNL     1     147.707 165.272 148.235  1.00  0.00    -0.550 OA
ENDBRANCH   7   8
ENDBRANCH   6   7
ENDBRANCH   5   6
ENDBRANCH   4   5
ENDBRANCH   3   4
ENDBRANCH   2   3
ENDBRANCH   1   2
BRANCH   1  11
ATOM     11  C   UNL     1     147.475 162.885 155.697  1.00  0.00     0.000 C 
BRANCH  11  12
ATOM     12  C   UNL     1     147.820 161.706 154.778  1.00  0.00    -0.000 C 
BRANCH  12  13
ATOM     13  C   UNL     1     146.936 161.707 153.525  1.00  0.00    -0.000 C 
BRANCH  13  14
ATOM     14  C   UNL     1     147.769 161.432 152.263  1.00  0.00    -0.000 C 
BRANCH  14  15
ATOM     15  C   UNL     1     147.621 162.534 151.202  1.00  0.00    -0.000 C 
BRANCH  15  16
ATOM     16  C   UNL     1     148.959 163.217 150.868  1.00  0.00    -0.000 C 
BRANCH  16  17
ATOM     17  C   UNL     1     149.912 163.264 152.074  1.00  0.00    -0.003 C 
ATOM     18  C   UNL     1     150.423 164.673 152.371  1.00  0.00     0.004 C 
ENDBRANCH  16  17
ENDBRANCH  15  16
ENDBRANCH  14  15
ENDBRANCH  13  14
ENDBRANCH  12  13
ENDBRANCH  11  12
ENDBRANCH   1  11
TORSDOF 14
ENDMDL
MODEL 8
REMARK VINA RESULT:    -2.572      6.198      9.432
REMARK INTER + INTRA:          -7.278
REMARK INTER:                  -5.053
REMARK INTRA:                  -2.225
REMARK UNBOUND:                -2.600
REMARK SMILES CCCCCCCCCCCCCCCC(=O)[O-]
REMARK SMILES IDX 9 1 10 2 11 3 12 4 13 5 14 6 15 7 16 8 17 9 18 10 8 11 7 12
REMARK SMILES IDX 6 13 5 14 4 15 3 16 2 17 1 18
REMARK H PARENT
REMARK Flexibility Score: inf
ROOT
ATOM      1  C   UNL     1     149.586 159.688 161.024  1.00  0.00     0.000 C 
ENDROOT
BRANCH   1   2
ATOM      2  C   UNL     1     148.279 160.169 161.671  1.00  0.00     0.000 C 
BRANCH   2   3
ATOM      3  C   UNL     1     147.193 159.081 161.697  1.00  0.00     0.000 C 
BRANCH   3   4
ATOM      4  C   UNL     1     145.986 159.431 160.810  1.00  0.00     0.000 C 
BRANCH   4   5
ATOM      5  C   UNL     1     146.130 158.895 159.376  1.00  0.00     0.000 C 
BRANCH   5   6
ATOM      6  C   UNL     1     146.649 159.955 158.394  1.00  0.00     0.006 C 
BRANCH   6   7
ATOM      7  C   UNL     1     147.195 159.302 157.121  1.00  0.00     0.053 C 
BRANCH   7   8
ATOM      8  C   UNL     1     147.646 160.344 156.147  1.00  0.00     0.041 C 
ATOM      9  O   UNL     1     147.156 161.503 156.187  1.00  0.00    -0.550 OA
ATOM     10  O   UNL     1     148.645 160.049 155.228  1.00  0.00    -0.550 OA
ENDBRANCH   7   8
ENDBRANCH   6   7
ENDBRANCH   5   6
ENDBRANCH   4   5
ENDBRANCH   3   4
ENDBRANCH   2   3
ENDBRANCH   1   2
BRANCH   1  11
ATOM     11  C   UNL     1     150.077 158.391 161.682  1.00  0.00     0.000 C 
BRANCH  11  12
ATOM     12  C   UNL     1     150.466 157.351 160.624  1.00  0.00    -0.000 C 
BRANCH  12  13
ATOM     13  C   UNL     1     149.827 157.676 159.269  1.00  0.00    -0.000 C 
BRANCH  13  14
ATOM     14  C   UNL     1     148.928 156.523 158.794  1.00  0.00    -0.000 C 
BRANCH  14  15
ATOM     15  C   UNL     1     148.681 155.473 159.889  1.00  0.00    -0.000 C 
BRANCH  15  16
ATOM     16  C   UNL     1     147.247 155.527 160.446  1.00  0.00    -0.000 C 
BRANCH  16  17
ATOM     17  C   UNL     1     146.341 154.441 159.843  1.00  0.00    -0.003 C 
ATOM     18  C   UNL     1     147.125 153.240 159.316  1.00  0.00     0.004 C 
ENDBRANCH  16  17
ENDBRANCH  15  16
ENDBRANCH  14  15
ENDBRANCH  13  14
ENDBRANCH  12  13
ENDBRANCH  11  12
ENDBRANCH   1  11
TORSDOF 14
ENDMDL
MODEL 9
REMARK VINA RESULT:    -2.564      1.798      3.811
REMARK INTER + INTRA:          -7.264
REMARK INTER:                  -5.046
REMARK INTRA:                  -2.218
REMARK UNBOUND:                -2.600
REMARK SMILES CCCCCCCCCCCCCCCC(=O)[O-]
REMARK SMILES IDX 9 1 10 2 11 3 12 4 13 5 14 6 15 7 16 8 17 9 18 10 8 11 7 12
REMARK SMILES IDX 6 13 5 14 4 15 3 16 2 17 1 18
REMARK H PARENT
REMARK Flexibility Score: inf
ROOT
ATOM      1  C   UNL     1     146.992 165.750 155.664  1.00  0.00     0.000 C 
ENDROOT
BRANCH   1   2
ATOM      2  C   UNL     1     145.911 164.713 156.003  1.00  0.00     0.000 C 
BRANCH   2   3
ATOM      3  C   UNL     1     146.086 163.398 155.224  1.00  0.00     0.000 C 
BRANCH   3   4
ATOM      4  C   UNL     1     146.669 162.271 156.092  1.00  0.00     0.000 C 
BRANCH   4   5
ATOM      5  C   UNL     1     147.970 161.691 155.514  1.00  0.00     0.000 C 
BRANCH   5   6
ATOM      6  C   UNL     1     148.970 162.777 155.091  1.00  0.00     0.006 C 
BRANCH   6   7
ATOM      7  C   UNL     1     150.354 162.176 154.831  1.00  0.00     0.053 C 
BRANCH   7   8
ATOM      8  C   UNL     1     151.289 162.503 155.952  1.00  0.00     0.041 C 
ATOM      9  O   UNL     1     151.484 163.702 156.284  1.00  0.00    -0.550 OA
ATOM     10  O   UNL     1     151.905 161.481 156.663  1.00  0.00    -0.550 OA
ENDBRANCH   7   8
ENDBRANCH   6   7
ENDBRANCH   5   6
ENDBRANCH   4   5
ENDBRANCH   3   4
ENDBRANCH   2   3
ENDBRANCH   1   2
BRANCH   1  11
ATOM     11  C   UNL     1     146.799 166.300 154.245  1.00  0.00     0.000 C 
BRANCH  11  12
ATOM     12  C   UNL     1     147.979 165.919 153.342  1.00  0.00    -0.000 C 
BRANCH  12  13
ATOM     13  C   UNL     1     147.720 166.337 151.890  1.00  0.00    -0.000 C 
BRANCH  13  14
ATOM     14  C   UNL     1     147.727 165.115 150.957  1.00  0.00    -0.000 C 
BRANCH  14  15
ATOM     15  C   UNL     1     147.872 163.787 151.718  1.00  0.00    -0.000 C 
BRANCH  15  16
ATOM     16  C   UNL     1     146.635 162.884 151.570  1.00  0.00    -0.000 C 
BRANCH  16  17
ATOM     17  C   UNL     1     146.927 161.422 151.942  1.00  0.00    -0.003 C 
ATOM     18  C   UNL     1     148.405 161.058 151.805  1.00  0.00     0.004 C 
ENDBRANCH  16  17
ENDBRANCH  15  16
ENDBRANCH  14  15
ENDBRANCH  13  14
ENDBRANCH  12  13
ENDBRANCH  11  12
ENDBRANCH   1  11
TORSDOF 14
ENDMDL
