MODEL 1
REMARK VINA RESULT:    -6.286      0.000      0.000
REMARK INTER + INTRA:         -15.177
REMARK INTER:                 -13.636
REMARK INTRA:                  -1.541
REMARK UNBOUND:                -1.541
REMARK SMILES CCCCCCCCCCCCCCCCCCCCCC(=O)[O-]
REMARK SMILES IDX 12 1 11 2 10 3 9 4 8 5 7 6 6 7 5 8 4 9 3 10 2 11 1 12 13 13
REMARK SMILES IDX 14 14 15 15 16 16 17 17 18 18 19 19 20 20 21 21 22 22 23 23
REMARK SMILES IDX 24 24
REMARK H PARENT
REMARK Flexibility Score: inf
ROOT
ATOM      1  C   UNL     1      89.728 326.493 200.421  1.00  0.00     0.000 C 
ENDROOT
BRANCH   1   2
ATOM      2  C   UNL     1      89.141 325.808 199.172  1.00  0.00     0.000 C 
BRANCH   2   3
ATOM      3  C   UNL     1      88.873 326.745 197.977  1.00  0.00     0.000 C 
BRANCH   3   4
ATOM      4  C   UNL     1      88.419 326.044 196.681  1.00  0.00    -0.000 C 
BRANCH   4   5
ATOM      5  C   UNL     1      86.957 326.311 196.280  1.00  0.00    -0.000 C 
BRANCH   5   6
ATOM      6  C   UNL     1      86.820 326.802 194.828  1.00  0.00    -0.000 C 
BRANCH   6   7
ATOM      7  C   UNL     1      88.123 326.650 194.027  1.00  0.00    -0.000 C 
BRANCH   7   8
ATOM      8  C   UNL     1      88.032 325.548 192.956  1.00  0.00    -0.000 C 
BRANCH   8   9
ATOM      9  C   UNL     1      88.241 324.141 193.539  1.00  0.00    -0.000 C 
BRANCH   9  10
ATOM     10  C   UNL     1      88.242 323.048 192.457  1.00  0.00    -0.000 C 
BRANCH  10  11
ATOM     11  C   UNL     1      87.627 323.528 191.133  1.00  0.00    -0.003 C 
ATOM     12  C   UNL     1      88.596 323.417 189.955  1.00  0.00     0.004 C 
ENDBRANCH  10  11
ENDBRANCH   9  10
ENDBRANCH   8   9
ENDBRANCH   7   8
ENDBRANCH   6   7
ENDBRANCH   5   6
ENDBRANCH   4   5
ENDBRANCH   3   4
ENDBRANCH   2   3
ENDBRANCH   1   2
BRANCH   1  13
ATOM     13  C   UNL     1      88.821 326.359 201.656  1.00  0.00     0.000 C 
BRANCH  13  14
ATOM     14  C   UNL     1      88.181 324.966 201.770  1.00  0.00     0.000 C 
BRANCH  14  15
ATOM     15  C   UNL     1      88.442 324.302 203.134  1.00  0.00     0.000 C 
BRANCH  15  16
ATOM     16  C   UNL     1      87.334 323.311 203.528  1.00  0.00     0.000 C 
BRANCH  16  17
ATOM     17  C   UNL     1      86.693 323.650 204.885  1.00  0.00     0.000 C 
BRANCH  17  18
ATOM     18  C   UNL     1      87.727 324.106 205.927  1.00  0.00     0.000 C 
BRANCH  18  19
ATOM     19  C   UNL     1      87.497 325.555 206.390  1.00  0.00     0.000 C 
BRANCH  19  20
ATOM     20  C   UNL     1      88.807 326.326 206.633  1.00  0.00     0.006 C 
BRANCH  20  21
ATOM     21  C   UNL     1      89.250 327.195 205.443  1.00  0.00     0.053 C 
BRANCH  21  22
ATOM     22  C   UNL     1      90.730 327.138 205.207  1.00  0.00     0.041 C 
ATOM     23  O   UNL     1      91.489 327.983 205.750  1.00  0.00    -0.550 OA
ATOM     24  O   UNL     1      91.267 326.175 204.363  1.00  0.00    -0.550 OA
ENDBRANCH  21  22
ENDBRANCH  20  21
ENDBRANCH  19  20
ENDBRANCH  18  19
ENDBRANCH  17  18
ENDBRANCH  16  17
ENDBRANCH  15  16
ENDBRANCH  14  15
ENDBRANCH  13  14
ENDBRANCH   1  13
TORSDOF 20
ENDMDL
MODEL 2
REMARK VINA RESULT:    -6.067      4.222     11.013
REMARK INTER + INTRA:         -14.701
REMARK INTER:                 -12.869
REMARK INTRA:                  -1.832
REMARK UNBOUND:                -1.541
REMARK SMILES CCCCCCCCCCCCCCCCCCCCCC(=O)[O-]
REMARK SMILES IDX 12 1 11 2 10 3 9 4 8 5 7 6 6 7 5 8 4 9 3 10 2 11 1 12 13 13
REMARK SMILES IDX 14 14 15 15 16 16 17 17 18 18 19 19 20 20 21 21 22 22 23 23
REMARK SMILES IDX 24 24
REMARK H PARENT
REMARK Flexibility Score: inf
ROOT
ATOM      1  C   UNL     1      89.169 324.765 200.065  1.00  0.00     0.000 C 
ENDROOT
BRANCH   1   2
ATOM      2  C   UNL     1      89.521 326.133 200.680  1.00  0.00     0.000 C 
BRANCH   2   3
ATOM      3  C   UNL     1      88.792 326.466 201.996  1.00  0.00     0.000 C 
BRANCH   3   4
ATOM      4  C   UNL     1      89.664 326.403 203.266  1.00  0.00    -0.000 C 
BRANCH   4   5
ATOM      5  C   UNL     1      89.316 327.446 204.343  1.00  0.00    -0.000 C 
BRANCH   5   6
ATOM      6  C   UNL     1      88.980 326.808 205.702  1.00  0.00    -0.000 C 
BRANCH   6   7
ATOM      7  C   UNL     1      89.569 325.396 205.853  1.00  0.00    -0.000 C 
BRANCH   7   8
ATOM      8  C   UNL     1      88.538 324.381 206.382  1.00  0.00    -0.000 C 
BRANCH   8   9
ATOM      9  C   UNL     1      87.124 324.640 205.839  1.00  0.00    -0.000 C 
BRANCH   9  10
ATOM     10  C   UNL     1      86.612 323.491 204.953  1.00  0.00    -0.000 C 
BRANCH  10  11
ATOM     11  C   UNL     1      87.258 323.489 203.558  1.00  0.00    -0.003 C 
ATOM     12  C   UNL     1      86.229 323.513 202.428  1.00  0.00     0.004 C 
ENDBRANCH  10  11
ENDBRANCH   9  10
ENDBRANCH   8   9
ENDBRANCH   7   8
ENDBRANCH   6   7
ENDBRANCH   5   6
ENDBRANCH   4   5
ENDBRANCH   3   4
ENDBRANCH   2   3
ENDBRANCH   1   2
BRANCH   1  13
ATOM     13  C   UNL     1      89.092 324.804 198.529  1.00  0.00     0.000 C 
BRANCH  13  14
ATOM     14  C   UNL     1      88.679 326.185 197.994  1.00  0.00     0.000 C 
BRANCH  14  15
ATOM     15  C   UNL     1      87.953 326.105 196.639  1.00  0.00     0.000 C 
BRANCH  15  16
ATOM     16  C   UNL     1      88.822 326.611 195.475  1.00  0.00     0.000 C 
BRANCH  16  17
ATOM     17  C   UNL     1      88.020 326.796 194.176  1.00  0.00     0.000 C 
BRANCH  17  18
ATOM     18  C   UNL     1      86.688 326.027 194.192  1.00  0.00     0.000 C 
BRANCH  18  19
ATOM     19  C   UNL     1      86.708 324.795 193.270  1.00  0.00     0.000 C 
BRANCH  19  20
ATOM     20  C   UNL     1      88.044 324.619 192.527  1.00  0.00     0.006 C 
BRANCH  20  21
ATOM     21  C   UNL     1      87.911 323.920 191.162  1.00  0.00     0.053 C 
BRANCH  21  22
ATOM     22  C   UNL     1      88.182 322.447 191.241  1.00  0.00     0.041 C 
ATOM     23  O   UNL     1      88.709 321.956 192.274  1.00  0.00    -0.550 OA
ATOM     24  O   UNL     1      87.887 321.623 190.162  1.00  0.00    -0.550 OA
ENDBRANCH  21  22
ENDBRANCH  20  21
ENDBRANCH  19  20
ENDBRANCH  18  19
ENDBRANCH  17  18
ENDBRANCH  16  17
ENDBRANCH  15  16
ENDBRANCH  14  15
ENDBRANCH  13  14
ENDBRANCH   1  13
TORSDOF 20
ENDMDL
MODEL 3
REMARK VINA RESULT:    -6.054      1.523      2.612
REMARK INTER + INTRA:         -14.672
REMARK INTER:                 -12.982
REMARK INTRA:                  -1.690
REMARK UNBOUND:                -1.541
REMARK SMILES CCCCCCCCCCCCCCCCCCCCCC(=O)[O-]
REMARK SMILES IDX 12 1 11 2 10 3 9 4 8 5 7 6 6 7 5 8 4 9 3 10 2 11 1 12 13 13
REMARK SMILES IDX 14 14 15 15 16 16 17 17 18 18 19 19 20 20 21 21 22 22 23 23
REMARK SMILES IDX 24 24
REMARK H PARENT
REMARK Flexibility Score: inf
ROOT
ATOM      1  C   UNL     1      89.266 325.668 200.351  1.00  0.00     0.000 C 
ENDROOT
BRANCH   1   2
ATOM      2  C   UNL     1      89.081 326.444 199.034  1.00  0.00     0.000 C 
BRANCH   2   3
ATOM      3  C   UNL     1      88.755 325.576 197.802  1.00  0.00     0.000 C 
BRANCH   3   4
ATOM      4  C   UNL     1      88.412 326.358 196.518  1.00  0.00    -0.000 C 
BRANCH   4   5
ATOM      5  C   UNL     1      86.915 326.399 196.167  1.00  0.00    -0.000 C 
BRANCH   5   6
ATOM      6  C   UNL     1      86.655 326.248 194.657  1.00  0.00    -0.000 C 
BRANCH   6   7
ATOM      7  C   UNL     1      87.953 326.114 193.844  1.00  0.00    -0.000 C 
BRANCH   7   8
ATOM      8  C   UNL     1      88.144 324.698 193.269  1.00  0.00    -0.000 C 
BRANCH   8   9
ATOM      9  C   UNL     1      86.824 324.077 192.784  1.00  0.00    -0.000 C 
BRANCH   9  10
ATOM     10  C   UNL     1      86.934 323.491 191.365  1.00  0.00    -0.000 C 
BRANCH  10  11
ATOM     11  C   UNL     1      88.226 323.916 190.650  1.00  0.00    -0.003 C 
ATOM     12  C   UNL     1      88.691 322.896 189.610  1.00  0.00     0.004 C 
ENDBRANCH  10  11
ENDBRANCH   9  10
ENDBRANCH   8   9
ENDBRANCH   7   8
ENDBRANCH   6   7
ENDBRANCH   5   6
ENDBRANCH   4   5
ENDBRANCH   3   4
ENDBRANCH   2   3
ENDBRANCH   1   2
BRANCH   1  13
ATOM     13  C   UNL     1      90.104 326.440 201.385  1.00  0.00     0.000 C 
BRANCH  13  14
ATOM     14  C   UNL     1      89.300 326.800 202.645  1.00  0.00     0.000 C 
BRANCH  14  15
ATOM     15  C   UNL     1      90.195 327.264 203.809  1.00  0.00     0.000 C 
BRANCH  15  16
ATOM     16  C   UNL     1      89.394 327.548 205.090  1.00  0.00     0.000 C 
BRANCH  16  17
ATOM     17  C   UNL     1      90.020 326.897 206.335  1.00  0.00     0.000 C 
BRANCH  17  18
ATOM     18  C   UNL     1      89.014 326.043 207.123  1.00  0.00     0.000 C 
BRANCH  18  19
ATOM     19  C   UNL     1      87.785 325.656 206.283  1.00  0.00     0.000 C 
BRANCH  19  20
ATOM     20  C   UNL     1      87.685 324.142 206.023  1.00  0.00     0.006 C 
BRANCH  20  21
ATOM     21  C   UNL     1      87.935 323.743 204.558  1.00  0.00     0.053 C 
BRANCH  21  22
ATOM     22  C   UNL     1      89.385 323.492 204.269  1.00  0.00     0.041 C 
ATOM     23  O   UNL     1      89.786 323.405 203.078  1.00  0.00    -0.550 OA
ATOM     24  O   UNL     1      90.286 323.320 205.312  1.00  0.00    -0.550 OA
ENDBRANCH  21  22
ENDBRANCH  20  21
ENDBRANCH  19  20
ENDBRANCH  18  19
ENDBRANCH  17  18
ENDBRANCH  16  17
ENDBRANCH  15  16
ENDBRANCH  14  15
ENDBRANCH  13  14
ENDBRANCH   1  13
TORSDOF 20
ENDMDL
MODEL 4
REMARK VINA RESULT:    -5.972      1.872      2.912
REMARK INTER + INTRA:         -14.496
REMARK INTER:                 -12.576
REMARK INTRA:                  -1.919
REMARK UNBOUND:                -1.541
REMARK SMILES CCCCCCCCCCCCCCCCCCCCCC(=O)[O-]
REMARK SMILES IDX 12 1 11 2 10 3 9 4 8 5 7 6 6 7 5 8 4 9 3 10 2 11 1 12 13 13
REMARK SMILES IDX 14 14 15 15 16 16 17 17 18 18 19 19 20 20 21 21 22 22 23 23
REMARK SMILES IDX 24 24
REMARK H PARENT
REMARK Flexibility Score: inf
ROOT
ATOM      1  C   UNL     1      89.098 324.629 199.058  1.00  0.00     0.000 C 
ENDROOT
BRANCH   1   2
ATOM      2  C   UNL     1      88.529 324.646 197.628  1.00  0.00     0.000 C 
BRANCH   2   3
ATOM      3  C   UNL     1      88.122 326.036 197.101  1.00  0.00     0.000 C 
BRANCH   3   4
ATOM      4  C   UNL     1      88.906 326.527 195.867  1.00  0.00    -0.000 C 
BRANCH   4   5
ATOM      5  C   UNL     1      88.045 326.796 194.619  1.00  0.00    -0.000 C 
BRANCH   5   6
ATOM      6  C   UNL     1      86.598 326.295 194.777  1.00  0.00    -0.000 C 
BRANCH   6   7
ATOM      7  C   UNL     1      86.261 325.149 193.810  1.00  0.00    -0.000 C 
BRANCH   7   8
ATOM      8  C   UNL     1      87.016 323.850 194.149  1.00  0.00    -0.000 C 
BRANCH   8   9
ATOM      9  C   UNL     1      88.143 323.546 193.148  1.00  0.00    -0.000 C 
BRANCH   9  10
ATOM     10  C   UNL     1      88.070 324.429 191.890  1.00  0.00    -0.000 C 
BRANCH  10  11
ATOM     11  C   UNL     1      87.947 323.606 190.599  1.00  0.00    -0.003 C 
ATOM     12  C   UNL     1      88.741 322.301 190.649  1.00  0.00     0.004 C 
ENDBRANCH  10  11
ENDBRANCH   9  10
ENDBRANCH   8   9
ENDBRANCH   7   8
ENDBRANCH   6   7
ENDBRANCH   5   6
ENDBRANCH   4   5
ENDBRANCH   3   4
ENDBRANCH   2   3
ENDBRANCH   1   2
BRANCH   1  13
ATOM     13  C   UNL     1      89.253 326.039 199.654  1.00  0.00     0.000 C 
BRANCH  13  14
ATOM     14  C   UNL     1      88.584 326.174 201.032  1.00  0.00     0.000 C 
BRANCH  14  15
ATOM     15  C   UNL     1      89.237 325.278 202.100  1.00  0.00     0.000 C 
BRANCH  15  16
ATOM     16  C   UNL     1      90.067 326.081 203.115  1.00  0.00     0.000 C 
BRANCH  16  17
ATOM     17  C   UNL     1      89.273 327.239 203.743  1.00  0.00     0.000 C 
BRANCH  17  18
ATOM     18  C   UNL     1      89.263 327.181 205.279  1.00  0.00     0.000 C 
BRANCH  18  19
ATOM     19  C   UNL     1      89.039 325.756 205.815  1.00  0.00     0.000 C 
BRANCH  19  20
ATOM     20  C   UNL     1      87.556 325.437 206.075  1.00  0.00     0.006 C 
BRANCH  20  21
ATOM     21  C   UNL     1      87.063 324.155 205.382  1.00  0.00     0.053 C 
BRANCH  21  22
ATOM     22  C   UNL     1      88.013 323.007 205.550  1.00  0.00     0.041 C 
ATOM     23  O   UNL     1      88.622 322.539 204.552  1.00  0.00    -0.550 OA
ATOM     24  O   UNL     1      88.201 322.433 206.801  1.00  0.00    -0.550 OA
ENDBRANCH  21  22
ENDBRANCH  20  21
ENDBRANCH  19  20
ENDBRANCH  18  19
ENDBRANCH  17  18
ENDBRANCH  16  17
ENDBRANCH  15  16
ENDBRANCH  14  15
ENDBRANCH  13  14
ENDBRANCH   1  13
TORSDOF 20
ENDMDL
MODEL 5
REMARK VINA RESULT:    -5.966      5.022     12.020
REMARK INTER + INTRA:         -14.483
REMARK INTER:                 -12.964
REMARK INTRA:                  -1.519
REMARK UNBOUND:                -1.541
REMARK SMILES CCCCCCCCCCCCCCCCCCCCCC(=O)[O-]
REMARK SMILES IDX 12 1 11 2 10 3 9 4 8 5 7 6 6 7 5 8 4 9 3 10 2 11 1 12 13 13
REMARK SMILES IDX 14 14 15 15 16 16 17 17 18 18 19 19 20 20 21 21 22 22 23 23
REMARK SMILES IDX 24 24
REMARK H PARENT
REMARK Flexibility Score: inf
ROOT
ATOM      1  C   UNL     1      88.699 325.072 197.862  1.00  0.00     0.000 C 
ENDROOT
BRANCH   1   2
ATOM      2  C   UNL     1      88.881 326.475 198.469  1.00  0.00     0.000 C 
BRANCH   2   3
ATOM      3  C   UNL     1      89.373 326.498 199.930  1.00  0.00     0.000 C 
BRANCH   3   4
ATOM      4  C   UNL     1      88.890 325.324 200.805  1.00  0.00    -0.000 C 
BRANCH   4   5
ATOM      5  C   UNL     1      88.846 325.619 202.315  1.00  0.00    -0.000 C 
BRANCH   5   6
ATOM      6  C   UNL     1      89.796 326.757 202.726  1.00  0.00    -0.000 C 
BRANCH   6   7
ATOM      7  C   UNL     1      90.801 326.327 203.808  1.00  0.00    -0.000 C 
BRANCH   7   8
ATOM      8  C   UNL     1      90.697 327.185 205.082  1.00  0.00    -0.000 C 
BRANCH   8   9
ATOM      9  C   UNL     1      89.257 327.282 205.612  1.00  0.00    -0.000 C 
BRANCH   9  10
ATOM     10  C   UNL     1      88.894 326.120 206.552  1.00  0.00    -0.000 C 
BRANCH  10  11
ATOM     11  C   UNL     1      87.606 325.397 206.125  1.00  0.00    -0.003 C 
ATOM     12  C   UNL     1      87.865 323.988 205.593  1.00  0.00     0.004 C 
ENDBRANCH  10  11
ENDBRANCH   9  10
ENDBRANCH   8   9
ENDBRANCH   7   8
ENDBRANCH   6   7
ENDBRANCH   5   6
ENDBRANCH   4   5
ENDBRANCH   3   4
ENDBRANCH   2   3
ENDBRANCH   1   2
BRANCH   1  13
ATOM     13  C   UNL     1      88.667 325.087 196.324  1.00  0.00     0.000 C 
BRANCH  13  14
ATOM     14  C   UNL     1      88.844 326.500 195.745  1.00  0.00     0.000 C 
BRANCH  14  15
ATOM     15  C   UNL     1      88.133 326.681 194.391  1.00  0.00     0.000 C 
BRANCH  15  16
ATOM     16  C   UNL     1      86.675 326.194 194.422  1.00  0.00     0.000 C 
BRANCH  16  17
ATOM     17  C   UNL     1      86.410 325.060 193.416  1.00  0.00     0.000 C 
BRANCH  17  18
ATOM     18  C   UNL     1      87.678 324.641 192.654  1.00  0.00     0.000 C 
BRANCH  18  19
ATOM     19  C   UNL     1      87.375 323.685 191.487  1.00  0.00     0.000 C 
BRANCH  19  20
ATOM     20  C   UNL     1      88.467 323.692 190.403  1.00  0.00     0.006 C 
BRANCH  20  21
ATOM     21  C   UNL     1      89.092 322.311 190.138  1.00  0.00     0.053 C 
BRANCH  21  22
ATOM     22  C   UNL     1      89.802 322.244 188.818  1.00  0.00     0.041 C 
ATOM     23  O   UNL     1      89.510 321.342 187.989  1.00  0.00    -0.550 OA
ATOM     24  O   UNL     1      90.808 323.153 188.519  1.00  0.00    -0.550 OA
ENDBRANCH  21  22
ENDBRANCH  20  21
ENDBRANCH  19  20
ENDBRANCH  18  19
ENDBRANCH  17  18
ENDBRANCH  16  17
ENDBRANCH  15  16
ENDBRANCH  14  15
ENDBRANCH  13  14
ENDBRANCH   1  13
TORSDOF 20
ENDMDL
MODEL 6
REMARK VINA RESULT:    -5.902     19.514     23.288
REMARK INTER + INTRA:         -14.344
REMARK INTER:                 -13.029
REMARK INTRA:                  -1.315
REMARK UNBOUND:                -1.541
REMARK SMILES CCCCCCCCCCCCCCCCCCCCCC(=O)[O-]
REMARK SMILES IDX 12 1 11 2 10 3 9 4 8 5 7 6 6 7 5 8 4 9 3 10 2 11 1 12 13 13
REMARK SMILES IDX 14 14 15 15 16 16 17 17 18 18 19 19 20 20 21 21 22 22 23 23
REMARK SMILES IDX 24 24
REMARK H PARENT
REMARK Flexibility Score: inf
ROOT
ATOM      1  C   UNL     1     103.690 313.278 196.699  1.00  0.00     0.000 C 
ENDROOT
BRANCH   1   2
ATOM      2  C   UNL     1     103.846 313.308 198.231  1.00  0.00     0.000 C 
BRANCH   2   3
ATOM      3  C   UNL     1     103.516 311.983 198.948  1.00  0.00     0.000 C 
BRANCH   3   4
ATOM      4  C   UNL     1     104.394 311.662 200.174  1.00  0.00    -0.000 C 
BRANCH   4   5
ATOM      5  C   UNL     1     104.016 312.423 201.457  1.00  0.00    -0.000 C 
BRANCH   5   6
ATOM      6  C   UNL     1     103.250 311.547 202.463  1.00  0.00    -0.000 C 
BRANCH   6   7
ATOM      7  C   UNL     1     104.182 310.658 203.303  1.00  0.00    -0.000 C 
BRANCH   7   8
ATOM      8  C   UNL     1     103.864 310.728 204.808  1.00  0.00    -0.000 C 
BRANCH   8   9
ATOM      9  C   UNL     1     104.921 311.515 205.598  1.00  0.00    -0.000 C 
BRANCH   9  10
ATOM     10  C   UNL     1     104.378 312.845 206.149  1.00  0.00    -0.000 C 
BRANCH  10  11
ATOM     11  C   UNL     1     105.092 314.067 205.551  1.00  0.00    -0.003 C 
ATOM     12  C   UNL     1     106.098 313.691 204.463  1.00  0.00     0.004 C 
ENDBRANCH  10  11
ENDBRANCH   9  10
ENDBRANCH   8   9
ENDBRANCH   7   8
ENDBRANCH   6   7
ENDBRANCH   5   6
ENDBRANCH   4   5
ENDBRANCH   3   4
ENDBRANCH   2   3
ENDBRANCH   1   2
BRANCH   1  13
ATOM     13  C   UNL     1     104.452 312.113 196.045  1.00  0.00     0.000 C 
BRANCH  13  14
ATOM     14  C   UNL     1     103.691 311.504 194.856  1.00  0.00     0.000 C 
BRANCH  14  15
ATOM     15  C   UNL     1     104.558 311.395 193.588  1.00  0.00     0.000 C 
BRANCH  15  16
ATOM     16  C   UNL     1     104.279 312.527 192.586  1.00  0.00     0.000 C 
BRANCH  16  17
ATOM     17  C   UNL     1     105.550 313.304 192.202  1.00  0.00     0.000 C 
BRANCH  17  18
ATOM     18  C   UNL     1     105.383 314.100 190.899  1.00  0.00     0.000 C 
BRANCH  18  19
ATOM     19  C   UNL     1     103.921 314.153 190.423  1.00  0.00     0.000 C 
BRANCH  19  20
ATOM     20  C   UNL     1     103.761 314.803 189.037  1.00  0.00     0.006 C 
BRANCH  20  21
ATOM     21  C   UNL     1     102.440 314.449 188.330  1.00  0.00     0.053 C 
BRANCH  21  22
ATOM     22  C   UNL     1     101.438 315.563 188.392  1.00  0.00     0.041 C 
ATOM     23  O   UNL     1     100.446 315.563 187.616  1.00  0.00    -0.550 OA
ATOM     24  O   UNL     1     101.616 316.616 189.279  1.00  0.00    -0.550 OA
ENDBRANCH  21  22
ENDBRANCH  20  21
ENDBRANCH  19  20
ENDBRANCH  18  19
ENDBRANCH  17  18
ENDBRANCH  16  17
ENDBRANCH  15  16
ENDBRANCH  14  15
ENDBRANCH  13  14
ENDBRANCH   1  13
TORSDOF 20
ENDMDL
MODEL 7
REMARK VINA RESULT:    -5.893      1.137      2.881
REMARK INTER + INTRA:         -14.324
REMARK INTER:                 -12.597
REMARK INTRA:                  -1.727
REMARK UNBOUND:                -1.541
REMARK SMILES CCCCCCCCCCCCCCCCCCCCCC(=O)[O-]
REMARK SMILES IDX 12 1 11 2 10 3 9 4 8 5 7 6 6 7 5 8 4 9 3 10 2 11 1 12 13 13
REMARK SMILES IDX 14 14 15 15 16 16 17 17 18 18 19 19 20 20 21 21 22 22 23 23
REMARK SMILES IDX 24 24
REMARK H PARENT
REMARK Flexibility Score: inf
ROOT
ATOM      1  C   UNL     1      87.724 323.678 201.746  1.00  0.00     0.000 C 
ENDROOT
BRANCH   1   2
ATOM      2  C   UNL     1      88.635 324.857 202.136  1.00  0.00     0.000 C 
BRANCH   2   3
ATOM      3  C   UNL     1      88.577 326.071 201.188  1.00  0.00     0.000 C 
BRANCH   3   4
ATOM      4  C   UNL     1      89.677 326.114 200.108  1.00  0.00    -0.000 C 
BRANCH   4   5
ATOM      5  C   UNL     1      89.280 325.492 198.757  1.00  0.00    -0.000 C 
BRANCH   5   6
ATOM      6  C   UNL     1      88.572 326.493 197.827  1.00  0.00    -0.000 C 
BRANCH   6   7
ATOM      7  C   UNL     1      88.859 326.225 196.341  1.00  0.00    -0.000 C 
BRANCH   7   8
ATOM      8  C   UNL     1      87.576 326.171 195.492  1.00  0.00    -0.000 C 
BRANCH   8   9
ATOM      9  C   UNL     1      87.867 326.101 193.985  1.00  0.00    -0.000 C 
BRANCH   9  10
ATOM     10  C   UNL     1      88.088 324.660 193.492  1.00  0.00    -0.000 C 
BRANCH  10  11
ATOM     11  C   UNL     1      88.061 324.551 191.959  1.00  0.00    -0.003 C 
ATOM     12  C   UNL     1      87.020 323.552 191.455  1.00  0.00     0.004 C 
ENDBRANCH  10  11
ENDBRANCH   9  10
ENDBRANCH   8   9
ENDBRANCH   7   8
ENDBRANCH   6   7
ENDBRANCH   5   6
ENDBRANCH   4   5
ENDBRANCH   3   4
ENDBRANCH   2   3
ENDBRANCH   1   2
BRANCH   1  13
ATOM     13  C   UNL     1      86.490 323.552 202.657  1.00  0.00     0.000 C 
BRANCH  13  14
ATOM     14  C   UNL     1      86.814 322.877 203.999  1.00  0.00     0.000 C 
BRANCH  14  15
ATOM     15  C   UNL     1      86.705 323.844 205.192  1.00  0.00     0.000 C 
BRANCH  15  16
ATOM     16  C   UNL     1      88.064 324.444 205.589  1.00  0.00     0.000 C 
BRANCH  16  17
ATOM     17  C   UNL     1      87.932 325.846 206.210  1.00  0.00     0.000 C 
BRANCH  17  18
ATOM     18  C   UNL     1      89.194 326.699 206.012  1.00  0.00     0.000 C 
BRANCH  18  19
ATOM     19  C   UNL     1      89.202 327.436 204.661  1.00  0.00     0.000 C 
BRANCH  19  20
ATOM     20  C   UNL     1      90.582 327.431 203.979  1.00  0.00     0.006 C 
BRANCH  20  21
ATOM     21  C   UNL     1      91.530 326.334 204.497  1.00  0.00     0.053 C 
BRANCH  21  22
ATOM     22  C   UNL     1      92.891 326.864 204.839  1.00  0.00     0.041 C 
ATOM     23  O   UNL     1      93.121 327.318 205.991  1.00  0.00    -0.550 OA
ATOM     24  O   UNL     1      93.893 326.889 203.878  1.00  0.00    -0.550 OA
ENDBRANCH  21  22
ENDBRANCH  20  21
ENDBRANCH  19  20
ENDBRANCH  18  19
ENDBRANCH  17  18
ENDBRANCH  16  17
ENDBRANCH  15  16
ENDBRANCH  14  15
ENDBRANCH  13  14
ENDBRANCH   1  13
TORSDOF 20
ENDMDL
MODEL 8
REMARK VINA RESULT:    -5.860      4.664     11.269
REMARK INTER + INTRA:         -14.251
REMARK INTER:                 -12.608
REMARK INTRA:                  -1.644
REMARK UNBOUND:                -1.541
REMARK SMILES CCCCCCCCCCCCCCCCCCCCCC(=O)[O-]
REMARK SMILES IDX 12 1 11 2 10 3 9 4 8 5 7 6 6 7 5 8 4 9 3 10 2 11 1 12 13 13
REMARK SMILES IDX 14 14 15 15 16 16 17 17 18 18 19 19 20 20 21 21 22 22 23 23
REMARK SMILES IDX 24 24
REMARK H PARENT
REMARK Flexibility Score: inf
ROOT
ATOM      1  C   UNL     1      89.106 325.770 199.169  1.00  0.00     0.000 C 
ENDROOT
BRANCH   1   2
ATOM      2  C   UNL     1      89.649 326.496 200.415  1.00  0.00     0.000 C 
BRANCH   2   3
ATOM      3  C   UNL     1      88.907 326.183 201.730  1.00  0.00     0.000 C 
BRANCH   3   4
ATOM      4  C   UNL     1      88.868 324.693 202.125  1.00  0.00    -0.000 C 
BRANCH   4   5
ATOM      5  C   UNL     1      87.458 324.080 202.195  1.00  0.00    -0.000 C 
BRANCH   5   6
ATOM      6  C   UNL     1      87.462 322.642 202.742  1.00  0.00    -0.000 C 
BRANCH   6   7
ATOM      7  C   UNL     1      86.847 322.542 204.148  1.00  0.00    -0.000 C 
BRANCH   7   8
ATOM      8  C   UNL     1      86.426 323.914 204.706  1.00  0.00    -0.000 C 
BRANCH   8   9
ATOM      9  C   UNL     1      87.137 324.257 206.025  1.00  0.00    -0.000 C 
BRANCH   9  10
ATOM     10  C   UNL     1      88.534 324.864 205.802  1.00  0.00    -0.000 C 
BRANCH  10  11
ATOM     11  C   UNL     1      88.611 326.338 206.233  1.00  0.00    -0.003 C 
ATOM     12  C   UNL     1      89.356 327.211 205.223  1.00  0.00     0.004 C 
ENDBRANCH  10  11
ENDBRANCH   9  10
ENDBRANCH   8   9
ENDBRANCH   7   8
ENDBRANCH   6   7
ENDBRANCH   5   6
ENDBRANCH   4   5
ENDBRANCH   3   4
ENDBRANCH   2   3
ENDBRANCH   1   2
BRANCH   1  13
ATOM     13  C   UNL     1      88.868 326.720 197.983  1.00  0.00     0.000 C 
BRANCH  13  14
ATOM     14  C   UNL     1      88.130 326.038 196.820  1.00  0.00     0.000 C 
BRANCH  14  15
ATOM     15  C   UNL     1      88.638 326.499 195.441  1.00  0.00     0.000 C 
BRANCH  15  16
ATOM     16  C   UNL     1      87.492 326.880 194.490  1.00  0.00     0.000 C 
BRANCH  16  17
ATOM     17  C   UNL     1      86.233 326.022 194.707  1.00  0.00     0.000 C 
BRANCH  17  18
ATOM     18  C   UNL     1      85.961 325.068 193.533  1.00  0.00     0.000 C 
BRANCH  18  19
ATOM     19  C   UNL     1      86.717 323.734 193.671  1.00  0.00     0.000 C 
BRANCH  19  20
ATOM     20  C   UNL     1      88.088 323.743 192.971  1.00  0.00     0.006 C 
BRANCH  20  21
ATOM     21  C   UNL     1      88.038 324.215 191.507  1.00  0.00     0.053 C 
BRANCH  21  22
ATOM     22  C   UNL     1      87.485 323.169 190.584  1.00  0.00     0.041 C 
ATOM     23  O   UNL     1      86.277 322.822 190.674  1.00  0.00    -0.550 OA
ATOM     24  O   UNL     1      88.309 322.555 189.650  1.00  0.00    -0.550 OA
ENDBRANCH  21  22
ENDBRANCH  20  21
ENDBRANCH  19  20
ENDBRANCH  18  19
ENDBRANCH  17  18
ENDBRANCH  16  17
ENDBRANCH  15  16
ENDBRANCH  14  15
ENDBRANCH  13  14
ENDBRANCH   1  13
TORSDOF 20
ENDMDL
MODEL 9
REMARK VINA RESULT:    -5.829      2.175      3.541
REMARK INTER + INTRA:         -14.185
REMARK INTER:                 -12.122
REMARK INTRA:                  -2.063
REMARK UNBOUND:                -1.541
REMARK SMILES CCCCCCCCCCCCCCCCCCCCCC(=O)[O-]
REMARK SMILES IDX 12 1 11 2 10 3 9 4 8 5 7 6 6 7 5 8 4 9 3 10 2 11 1 12 13 13
REMARK SMILES IDX 14 14 15 15 16 16 17 17 18 18 19 19 20 20 21 21 22 22 23 23
REMARK SMILES IDX 24 24
REMARK H PARENT
REMARK Flexibility Score: inf
ROOT
ATOM      1  C   UNL     1      88.881 325.299 200.544  1.00  0.00     0.000 C 
ENDROOT
BRANCH   1   2
ATOM      2  C   UNL     1      89.093 326.124 199.261  1.00  0.00     0.000 C 
BRANCH   2   3
ATOM      3  C   UNL     1      88.869 325.355 197.943  1.00  0.00     0.000 C 
BRANCH   3   4
ATOM      4  C   UNL     1      88.118 326.136 196.846  1.00  0.00    -0.000 C 
BRANCH   4   5
ATOM      5  C   UNL     1      88.922 326.372 195.555  1.00  0.00    -0.000 C 
BRANCH   5   6
ATOM      6  C   UNL     1      88.049 326.893 194.399  1.00  0.00    -0.000 C 
BRANCH   6   7
ATOM      7  C   UNL     1      87.068 325.832 193.875  1.00  0.00    -0.000 C 
BRANCH   7   8
ATOM      8  C   UNL     1      87.773 324.724 193.070  1.00  0.00    -0.000 C 
BRANCH   8   9
ATOM      9  C   UNL     1      87.413 323.315 193.565  1.00  0.00    -0.000 C 
BRANCH   9  10
ATOM     10  C   UNL     1      88.652 322.494 193.963  1.00  0.00    -0.000 C 
BRANCH  10  11
ATOM     11  C   UNL     1      88.999 322.634 195.453  1.00  0.00    -0.003 C 
ATOM     12  C   UNL     1      87.897 322.103 196.370  1.00  0.00     0.004 C 
ENDBRANCH  10  11
ENDBRANCH   9  10
ENDBRANCH   8   9
ENDBRANCH   7   8
ENDBRANCH   6   7
ENDBRANCH   5   6
ENDBRANCH   4   5
ENDBRANCH   3   4
ENDBRANCH   2   3
ENDBRANCH   1   2
BRANCH   1  13
ATOM     13  C   UNL     1      88.974 326.150 201.822  1.00  0.00     0.000 C 
BRANCH  13  14
ATOM     14  C   UNL     1      90.353 326.806 201.996  1.00  0.00     0.000 C 
BRANCH  14  15
ATOM     15  C   UNL     1      90.609 327.279 203.438  1.00  0.00     0.000 C 
BRANCH  15  16
ATOM     16  C   UNL     1      89.309 327.444 204.243  1.00  0.00     0.000 C 
BRANCH  16  17
ATOM     17  C   UNL     1      89.500 327.147 205.740  1.00  0.00     0.000 C 
BRANCH  17  18
ATOM     18  C   UNL     1      88.432 326.189 206.291  1.00  0.00     0.000 C 
BRANCH  18  19
ATOM     19  C   UNL     1      88.206 324.970 205.379  1.00  0.00     0.000 C 
BRANCH  19  20
ATOM     20  C   UNL     1      86.847 324.286 205.611  1.00  0.00     0.006 C 
BRANCH  20  21
ATOM     21  C   UNL     1      86.658 322.987 204.808  1.00  0.00     0.053 C 
BRANCH  21  22
ATOM     22  C   UNL     1      86.971 323.159 203.352  1.00  0.00     0.041 C 
ATOM     23  O   UNL     1      86.180 323.795 202.606  1.00  0.00    -0.550 OA
ATOM     24  O   UNL     1      88.116 322.589 202.811  1.00  0.00    -0.550 OA
ENDBRANCH  21  22
ENDBRANCH  20  21
ENDBRANCH  19  20
ENDBRANCH  18  19
ENDBRANCH  17  18
ENDBRANCH  16  17
ENDBRANCH  15  16
ENDBRANCH  14  15
ENDBRANCH  13  14
ENDBRANCH   1  13
TORSDOF 20
ENDMDL
