MODEL 1
REMARK VINA RESULT:    -4.122      0.000      0.000
REMARK INTER + INTRA:         -12.662
REMARK INTER:                  -9.422
REMARK INTRA:                  -3.239
REMARK UNBOUND:                -3.239
REMARK SMILES CCCCCCCCCCCCCCCCCCCCCCCC(=O)[O-]
REMARK SMILES IDX 13 1 14 2 15 3 16 4 17 5 18 6 19 7 20 8 21 9 22 10 23 11
REMARK SMILES IDX 24 12 25 13 26 14 12 15 11 16 10 17 9 18 8 19 7 20 6 21 5 22
REMARK SMILES IDX 4 23 3 24 2 25 1 26
REMARK H PARENT
REMARK Flexibility Score: inf
ROOT
ATOM      1  C   UNL     1      20.575  43.845  20.639  1.00  0.00     0.000 C 
ENDROOT
BRANCH   1   2
ATOM      2  C   UNL     1      20.382  45.202  19.937  1.00  0.00     0.000 C 
BRANCH   2   3
ATOM      3  C   UNL     1      19.666  46.229  20.834  1.00  0.00     0.000 C 
BRANCH   3   4
ATOM      4  C   UNL     1      18.293  46.669  20.293  1.00  0.00     0.000 C 
BRANCH   4   5
ATOM      5  C   UNL     1      17.131  45.965  21.017  1.00  0.00     0.000 C 
BRANCH   5   6
ATOM      6  C   UNL     1      16.880  44.536  20.503  1.00  0.00     0.000 C 
BRANCH   6   7
ATOM      7  C   UNL     1      15.912  44.438  19.310  1.00  0.00     0.000 C 
BRANCH   7   8
ATOM      8  C   UNL     1      14.547  43.842  19.695  1.00  0.00     0.000 C 
BRANCH   8   9
ATOM      9  C   UNL     1      13.577  43.773  18.505  1.00  0.00     0.000 C 
BRANCH   9  10
ATOM     10  C   UNL     1      12.794  45.083  18.303  1.00  0.00     0.006 C 
BRANCH  10  11
ATOM     11  C   UNL     1      12.927  45.623  16.873  1.00  0.00     0.053 C 
BRANCH  11  12
ATOM     12  C   UNL     1      13.631  46.946  16.842  1.00  0.00     0.041 C 
ATOM     13  O   UNL     1      13.027  47.976  16.440  1.00  0.00    -0.550 OA
ATOM     14  O   UNL     1      14.965  47.033  17.217  1.00  0.00    -0.550 OA
ENDBRANCH  11  12
ENDBRANCH  10  11
ENDBRANCH   9  10
ENDBRANCH   8   9
ENDBRANCH   7   8
ENDBRANCH   6   7
ENDBRANCH   5   6
ENDBRANCH   4   5
ENDBRANCH   3   4
ENDBRANCH   2   3
ENDBRANCH   1   2
BRANCH   1  15
ATOM     15  C   UNL     1      21.245  43.992  22.022  1.00  0.00     0.000 C 
BRANCH  15  16
ATOM     16  C   UNL     1      20.576  43.161  23.131  1.00  0.00     0.000 C 
BRANCH  16  17
ATOM     17  C   UNL     1      19.093  42.874  22.849  1.00  0.00     0.000 C 
BRANCH  17  18
ATOM     18  C   UNL     1      18.779  41.372  22.708  1.00  0.00    -0.000 C 
BRANCH  18  19
ATOM     19  C   UNL     1      17.351  41.036  22.237  1.00  0.00    -0.000 C 
BRANCH  19  20
ATOM     20  C   UNL     1      17.317  40.126  20.996  1.00  0.00    -0.000 C 
BRANCH  20  21
ATOM     21  C   UNL     1      16.983  40.910  19.707  1.00  0.00    -0.000 C 
BRANCH  21  22
ATOM     22  C   UNL     1      18.224  41.484  18.998  1.00  0.00    -0.000 C 
BRANCH  22  23
ATOM     23  C   UNL     1      19.459  40.580  19.136  1.00  0.00    -0.000 C 
BRANCH  23  24
ATOM     24  C   UNL     1      19.595  39.583  17.976  1.00  0.00    -0.000 C 
BRANCH  24  25
ATOM     25  C   UNL     1      19.272  38.142  18.398  1.00  0.00    -0.003 C 
ATOM     26  C   UNL     1      18.546  37.391  17.285  1.00  0.00     0.004 C 
ENDBRANCH  24  25
ENDBRANCH  23  24
ENDBRANCH  22  23
ENDBRANCH  21  22
ENDBRANCH  20  21
ENDBRANCH  19  20
ENDBRANCH  18  19
ENDBRANCH  17  18
ENDBRANCH  16  17
ENDBRANCH  15  16
ENDBRANCH   1  15
TORSDOF 22
ENDMDL
MODEL 2
REMARK VINA RESULT:    -4.052      3.122      7.465
REMARK INTER + INTRA:         -12.504
REMARK INTER:                 -10.371
REMARK INTRA:                  -2.133
REMARK UNBOUND:                -3.239
REMARK SMILES CCCCCCCCCCCCCCCCCCCCCCCC(=O)[O-]
REMARK SMILES IDX 13 1 14 2 15 3 16 4 17 5 18 6 19 7 20 8 21 9 22 10 23 11
REMARK SMILES IDX 24 12 25 13 26 14 12 15 11 16 10 17 9 18 8 19 7 20 6 21 5 22
REMARK SMILES IDX 4 23 3 24 2 25 1 26
REMARK H PARENT
REMARK Flexibility Score: inf
ROOT
ATOM      1  C   UNL     1      17.113  42.873  19.344  1.00  0.00     0.000 C 
ENDROOT
BRANCH   1   2
ATOM      2  C   UNL     1      17.537  41.423  19.643  1.00  0.00     0.000 C 
BRANCH   2   3
ATOM      3  C   UNL     1      18.567  41.339  20.786  1.00  0.00     0.000 C 
BRANCH   3   4
ATOM      4  C   UNL     1      19.948  41.911  20.413  1.00  0.00     0.000 C 
BRANCH   4   5
ATOM      5  C   UNL     1      20.759  42.324  21.655  1.00  0.00     0.000 C 
BRANCH   5   6
ATOM      6  C   UNL     1      20.896  43.851  21.802  1.00  0.00     0.000 C 
BRANCH   6   7
ATOM      7  C   UNL     1      20.629  44.651  20.515  1.00  0.00     0.000 C 
BRANCH   7   8
ATOM      8  C   UNL     1      19.491  45.674  20.672  1.00  0.00     0.000 C 
BRANCH   8   9
ATOM      9  C   UNL     1      19.893  47.080  20.199  1.00  0.00     0.000 C 
BRANCH   9  10
ATOM     10  C   UNL     1      18.712  48.068  20.208  1.00  0.00     0.006 C 
BRANCH  10  11
ATOM     11  C   UNL     1      19.169  49.519  20.010  1.00  0.00     0.053 C 
BRANCH  11  12
ATOM     12  C   UNL     1      20.037  49.987  21.138  1.00  0.00     0.041 C 
ATOM     13  O   UNL     1      21.069  50.670  20.903  1.00  0.00    -0.550 OA
ATOM     14  O   UNL     1      19.729  49.634  22.445  1.00  0.00    -0.550 OA
ENDBRANCH  11  12
ENDBRANCH  10  11
ENDBRANCH   9  10
ENDBRANCH   8   9
ENDBRANCH   7   8
ENDBRANCH   6   7
ENDBRANCH   5   6
ENDBRANCH   4   5
ENDBRANCH   3   4
ENDBRANCH   2   3
ENDBRANCH   1   2
BRANCH   1  15
ATOM     15  C   UNL     1      16.554  43.588  20.592  1.00  0.00     0.000 C 
BRANCH  15  16
ATOM     16  C   UNL     1      15.619  44.768  20.270  1.00  0.00     0.000 C 
BRANCH  16  17
ATOM     17  C   UNL     1      14.412  44.355  19.412  1.00  0.00     0.000 C 
BRANCH  17  18
ATOM     18  C   UNL     1      14.451  44.937  17.986  1.00  0.00    -0.000 C 
BRANCH  18  19
ATOM     19  C   UNL     1      13.643  46.233  17.779  1.00  0.00    -0.000 C 
BRANCH  19  20
ATOM     20  C   UNL     1      12.122  46.002  17.732  1.00  0.00    -0.000 C 
BRANCH  20  21
ATOM     21  C   UNL     1      11.389  46.709  18.893  1.00  0.00    -0.000 C 
BRANCH  21  22
ATOM     22  C   UNL     1      10.232  45.882  19.485  1.00  0.00    -0.000 C 
BRANCH  22  23
ATOM     23  C   UNL     1      10.720  44.756  20.411  1.00  0.00    -0.000 C 
BRANCH  23  24
ATOM     24  C   UNL     1      10.426  43.358  19.846  1.00  0.00    -0.000 C 
BRANCH  24  25
ATOM     25  C   UNL     1       8.921  43.079  19.719  1.00  0.00    -0.003 C 
ATOM     26  C   UNL     1       8.665  41.680  19.166  1.00  0.00     0.004 C 
ENDBRANCH  24  25
ENDBRANCH  23  24
ENDBRANCH  22  23
ENDBRANCH  21  22
ENDBRANCH  20  21
ENDBRANCH  19  20
ENDBRANCH  18  19
ENDBRANCH  17  18
ENDBRANCH  16  17
ENDBRANCH  15  16
ENDBRANCH   1  15
TORSDOF 22
ENDMDL
MODEL 3
REMARK VINA RESULT:    -4.010      2.382      6.433
REMARK INTER + INTRA:         -12.407
REMARK INTER:                  -9.466
REMARK INTRA:                  -2.940
REMARK UNBOUND:                -3.239
REMARK SMILES CCCCCCCCCCCCCCCCCCCCCCCC(=O)[O-]
REMARK SMILES IDX 13 1 14 2 15 3 16 4 17 5 18 6 19 7 20 8 21 9 22 10 23 11
REMARK SMILES IDX 24 12 25 13 26 14 12 15 11 16 10 17 9 18 8 19 7 20 6 21 5 22
REMARK SMILES IDX 4 23 3 24 2 25 1 26
REMARK H PARENT
REMARK Flexibility Score: inf
ROOT
ATOM      1  C   UNL     1      20.240  39.974  21.534  1.00  0.00     0.000 C 
ENDROOT
BRANCH   1   2
ATOM      2  C   UNL     1      19.291  39.605  22.690  1.00  0.00     0.000 C 
BRANCH   2   3
ATOM      3  C   UNL     1      18.719  40.848  23.396  1.00  0.00     0.000 C 
BRANCH   3   4
ATOM      4  C   UNL     1      19.760  41.960  23.626  1.00  0.00     0.000 C 
BRANCH   4   5
ATOM      5  C   UNL     1      19.401  43.256  22.876  1.00  0.00     0.000 C 
BRANCH   5   6
ATOM      6  C   UNL     1      20.491  43.694  21.880  1.00  0.00     0.000 C 
BRANCH   6   7
ATOM      7  C   UNL     1      19.962  44.261  20.551  1.00  0.00     0.000 C 
BRANCH   7   8
ATOM      8  C   UNL     1      19.783  45.789  20.581  1.00  0.00     0.000 C 
BRANCH   8   9
ATOM      9  C   UNL     1      18.333  46.207  20.871  1.00  0.00     0.000 C 
BRANCH   9  10
ATOM     10  C   UNL     1      18.129  47.731  20.787  1.00  0.00     0.006 C 
BRANCH  10  11
ATOM     11  C   UNL     1      19.357  48.507  21.279  1.00  0.00     0.053 C 
BRANCH  11  12
ATOM     12  C   UNL     1      19.831  49.500  20.262  1.00  0.00     0.041 C 
ATOM     13  O   UNL     1      19.473  49.396  19.059  1.00  0.00    -0.550 OA
ATOM     14  O   UNL     1      20.701  50.517  20.634  1.00  0.00    -0.550 OA
ENDBRANCH  11  12
ENDBRANCH  10  11
ENDBRANCH   9  10
ENDBRANCH   8   9
ENDBRANCH   7   8
ENDBRANCH   6   7
ENDBRANCH   5   6
ENDBRANCH   4   5
ENDBRANCH   3   4
ENDBRANCH   2   3
ENDBRANCH   1   2
BRANCH   1  15
ATOM     15  C   UNL     1      19.607  39.709  20.151  1.00  0.00     0.000 C 
BRANCH  15  16
ATOM     16  C   UNL     1      19.279  40.988  19.360  1.00  0.00     0.000 C 
BRANCH  16  17
ATOM     17  C   UNL     1      17.768  41.207  19.181  1.00  0.00     0.000 C 
BRANCH  17  18
ATOM     18  C   UNL     1      17.108  41.910  20.383  1.00  0.00    -0.000 C 
BRANCH  18  19
ATOM     19  C   UNL     1      16.269  43.156  20.042  1.00  0.00    -0.000 C 
BRANCH  19  20
ATOM     20  C   UNL     1      16.713  43.853  18.743  1.00  0.00    -0.000 C 
BRANCH  20  21
ATOM     21  C   UNL     1      15.594  44.732  18.141  1.00  0.00    -0.000 C 
BRANCH  21  22
ATOM     22  C   UNL     1      15.149  45.880  19.067  1.00  0.00    -0.000 C 
BRANCH  22  23
ATOM     23  C   UNL     1      14.048  45.457  20.052  1.00  0.00    -0.000 C 
BRANCH  23  24
ATOM     24  C   UNL     1      12.795  46.342  19.953  1.00  0.00    -0.000 C 
BRANCH  24  25
ATOM     25  C   UNL     1      11.769  45.797  18.948  1.00  0.00    -0.003 C 
ATOM     26  C   UNL     1      10.354  45.856  19.520  1.00  0.00     0.004 C 
ENDBRANCH  24  25
ENDBRANCH  23  24
ENDBRANCH  22  23
ENDBRANCH  21  22
ENDBRANCH  20  21
ENDBRANCH  19  20
ENDBRANCH  18  19
ENDBRANCH  17  18
ENDBRANCH  16  17
ENDBRANCH  15  16
ENDBRANCH   1  15
TORSDOF 22
ENDMDL
MODEL 4
REMARK VINA RESULT:    -3.992      4.819      7.465
REMARK INTER + INTRA:         -12.365
REMARK INTER:                  -9.420
REMARK INTRA:                  -2.945
REMARK UNBOUND:                -3.239
REMARK SMILES CCCCCCCCCCCCCCCCCCCCCCCC(=O)[O-]
REMARK SMILES IDX 13 1 14 2 15 3 16 4 17 5 18 6 19 7 20 8 21 9 22 10 23 11
REMARK SMILES IDX 24 12 25 13 26 14 12 15 11 16 10 17 9 18 8 19 7 20 6 21 5 22
REMARK SMILES IDX 4 23 3 24 2 25 1 26
REMARK H PARENT
REMARK Flexibility Score: inf
ROOT
ATOM      1  C   UNL     1      16.762  38.896  23.815  1.00  0.00     0.000 C 
ENDROOT
BRANCH   1   2
ATOM      2  C   UNL     1      18.034  39.764  23.762  1.00  0.00     0.000 C 
BRANCH   2   3
ATOM      3  C   UNL     1      17.888  40.957  22.799  1.00  0.00     0.000 C 
BRANCH   3   4
ATOM      4  C   UNL     1      18.888  42.096  23.074  1.00  0.00     0.000 C 
BRANCH   4   5
ATOM      5  C   UNL     1      20.348  41.647  22.882  1.00  0.00     0.000 C 
BRANCH   5   6
ATOM      6  C   UNL     1      20.966  42.159  21.568  1.00  0.00     0.000 C 
BRANCH   6   7
ATOM      7  C   UNL     1      19.952  42.455  20.449  1.00  0.00     0.000 C 
BRANCH   7   8
ATOM      8  C   UNL     1      19.615  41.214  19.604  1.00  0.00     0.000 C 
BRANCH   8   9
ATOM      9  C   UNL     1      18.155  41.207  19.124  1.00  0.00     0.000 C 
BRANCH   9  10
ATOM     10  C   UNL     1      17.536  42.616  19.089  1.00  0.00     0.006 C 
BRANCH  10  11
ATOM     11  C   UNL     1      16.235  42.697  19.898  1.00  0.00     0.053 C 
BRANCH  11  12
ATOM     12  C   UNL     1      15.531  44.003  19.690  1.00  0.00     0.041 C 
ATOM     13  O   UNL     1      14.621  44.367  20.481  1.00  0.00    -0.550 OA
ATOM     14  O   UNL     1      15.852  44.800  18.598  1.00  0.00    -0.550 OA
ENDBRANCH  11  12
ENDBRANCH  10  11
ENDBRANCH   9  10
ENDBRANCH   8   9
ENDBRANCH   7   8
ENDBRANCH   6   7
ENDBRANCH   5   6
ENDBRANCH   4   5
ENDBRANCH   3   4
ENDBRANCH   2   3
ENDBRANCH   1   2
BRANCH   1  15
ATOM     15  C   UNL     1      16.363  38.532  25.262  1.00  0.00     0.000 C 
BRANCH  15  16
ATOM     16  C   UNL     1      16.926  39.493  26.324  1.00  0.00     0.000 C 
BRANCH  16  17
ATOM     17  C   UNL     1      17.404  38.766  27.592  1.00  0.00     0.000 C 
BRANCH  17  18
ATOM     18  C   UNL     1      17.489  39.685  28.825  1.00  0.00    -0.000 C 
BRANCH  18  19
ATOM     19  C   UNL     1      16.577  39.296  30.005  1.00  0.00    -0.000 C 
BRANCH  19  20
ATOM     20  C   UNL     1      15.467  40.327  30.283  1.00  0.00    -0.000 C 
BRANCH  20  21
ATOM     21  C   UNL     1      15.529  41.526  29.311  1.00  0.00    -0.000 C 
BRANCH  21  22
ATOM     22  C   UNL     1      14.322  41.609  28.359  1.00  0.00    -0.000 C 
BRANCH  22  23
ATOM     23  C   UNL     1      13.285  40.504  28.616  1.00  0.00    -0.000 C 
BRANCH  23  24
ATOM     24  C   UNL     1      13.154  39.529  27.435  1.00  0.00    -0.000 C 
BRANCH  24  25
ATOM     25  C   UNL     1      13.709  38.134  27.760  1.00  0.00    -0.003 C 
ATOM     26  C   UNL     1      13.289  37.115  26.704  1.00  0.00     0.004 C 
ENDBRANCH  24  25
ENDBRANCH  23  24
ENDBRANCH  22  23
ENDBRANCH  21  22
ENDBRANCH  20  21
ENDBRANCH  19  20
ENDBRANCH  18  19
ENDBRANCH  17  18
ENDBRANCH  16  17
ENDBRANCH  15  16
ENDBRANCH   1  15
TORSDOF 22
ENDMDL
MODEL 5
REMARK VINA RESULT:    -3.990      2.921      6.187
REMARK INTER + INTRA:         -12.361
REMARK INTER:                 -10.029
REMARK INTRA:                  -2.331
REMARK UNBOUND:                -3.239
REMARK SMILES CCCCCCCCCCCCCCCCCCCCCCCC(=O)[O-]
REMARK SMILES IDX 13 1 14 2 15 3 16 4 17 5 18 6 19 7 20 8 21 9 22 10 23 11
REMARK SMILES IDX 24 12 25 13 26 14 12 15 11 16 10 17 9 18 8 19 7 20 6 21 5 22
REMARK SMILES IDX 4 23 3 24 2 25 1 26
REMARK H PARENT
REMARK Flexibility Score: inf
ROOT
ATOM      1  C   UNL     1      17.363  40.832  19.492  1.00  0.00     0.000 C 
ENDROOT
BRANCH   1   2
ATOM      2  C   UNL     1      16.377  41.305  20.577  1.00  0.00     0.000 C 
BRANCH   2   3
ATOM      3  C   UNL     1      16.252  42.840  20.625  1.00  0.00     0.000 C 
BRANCH   3   4
ATOM      4  C   UNL     1      15.275  43.411  19.581  1.00  0.00     0.000 C 
BRANCH   4   5
ATOM      5  C   UNL     1      14.194  44.300  20.223  1.00  0.00     0.000 C 
BRANCH   5   6
ATOM      6  C   UNL     1      14.064  45.674  19.540  1.00  0.00     0.000 C 
BRANCH   6   7
ATOM      7  C   UNL     1      13.373  45.650  18.165  1.00  0.00     0.000 C 
BRANCH   7   8
ATOM      8  C   UNL     1      12.069  46.466  18.137  1.00  0.00     0.000 C 
BRANCH   8   9
ATOM      9  C   UNL     1      11.376  46.519  19.508  1.00  0.00     0.000 C 
BRANCH   9  10
ATOM     10  C   UNL     1      10.126  45.622  19.575  1.00  0.00     0.006 C 
BRANCH  10  11
ATOM     11  C   UNL     1      10.482  44.130  19.550  1.00  0.00     0.053 C 
BRANCH  11  12
ATOM     12  C   UNL     1       9.313  43.274  19.931  1.00  0.00     0.041 C 
ATOM     13  O   UNL     1       8.173  43.506  19.449  1.00  0.00    -0.550 OA
ATOM     14  O   UNL     1       9.475  42.245  20.849  1.00  0.00    -0.550 OA
ENDBRANCH  11  12
ENDBRANCH  10  11
ENDBRANCH   9  10
ENDBRANCH   8   9
ENDBRANCH   7   8
ENDBRANCH   6   7
ENDBRANCH   5   6
ENDBRANCH   4   5
ENDBRANCH   3   4
ENDBRANCH   2   3
ENDBRANCH   1   2
BRANCH   1  15
ATOM     15  C   UNL     1      18.834  41.079  19.892  1.00  0.00     0.000 C 
BRANCH  15  16
ATOM     16  C   UNL     1      19.067  41.132  21.412  1.00  0.00     0.000 C 
BRANCH  16  17
ATOM     17  C   UNL     1      19.928  42.331  21.842  1.00  0.00     0.000 C 
BRANCH  17  18
ATOM     18  C   UNL     1      20.438  43.170  20.655  1.00  0.00    -0.000 C 
BRANCH  18  19
ATOM     19  C   UNL     1      20.253  44.694  20.794  1.00  0.00    -0.000 C 
BRANCH  19  20
ATOM     20  C   UNL     1      18.965  45.215  20.132  1.00  0.00    -0.000 C 
BRANCH  20  21
ATOM     21  C   UNL     1      17.942  45.727  21.170  1.00  0.00    -0.000 C 
BRANCH  21  22
ATOM     22  C   UNL     1      17.261  47.047  20.762  1.00  0.00    -0.000 C 
BRANCH  22  23
ATOM     23  C   UNL     1      18.241  48.056  20.144  1.00  0.00    -0.000 C 
BRANCH  23  24
ATOM     24  C   UNL     1      18.446  49.297  21.025  1.00  0.00    -0.000 C 
BRANCH  24  25
ATOM     25  C   UNL     1      19.789  49.273  21.772  1.00  0.00    -0.003 C 
ATOM     26  C   UNL     1      20.408  50.667  21.836  1.00  0.00     0.004 C 
ENDBRANCH  24  25
ENDBRANCH  23  24
ENDBRANCH  22  23
ENDBRANCH  21  22
ENDBRANCH  20  21
ENDBRANCH  19  20
ENDBRANCH  18  19
ENDBRANCH  17  18
ENDBRANCH  16  17
ENDBRANCH  15  16
ENDBRANCH   1  15
TORSDOF 22
ENDMDL
MODEL 6
REMARK VINA RESULT:    -3.965      4.206      6.461
REMARK INTER + INTRA:         -12.304
REMARK INTER:                  -9.961
REMARK INTRA:                  -2.343
REMARK UNBOUND:                -3.239
REMARK SMILES CCCCCCCCCCCCCCCCCCCCCCCC(=O)[O-]
REMARK SMILES IDX 13 1 14 2 15 3 16 4 17 5 18 6 19 7 20 8 21 9 22 10 23 11
REMARK SMILES IDX 24 12 25 13 26 14 12 15 11 16 10 17 9 18 8 19 7 20 6 21 5 22
REMARK SMILES IDX 4 23 3 24 2 25 1 26
REMARK H PARENT
REMARK Flexibility Score: inf
ROOT
ATOM      1  C   UNL     1      19.239  42.886  23.035  1.00  0.00     0.000 C 
ENDROOT
BRANCH   1   2
ATOM      2  C   UNL     1      20.395  43.466  22.198  1.00  0.00     0.000 C 
BRANCH   2   3
ATOM      3  C   UNL     1      20.333  43.021  20.725  1.00  0.00     0.000 C 
BRANCH   3   4
ATOM      4  C   UNL     1      19.922  41.547  20.544  1.00  0.00     0.000 C 
BRANCH   4   5
ATOM      5  C   UNL     1      18.745  41.389  19.564  1.00  0.00     0.000 C 
BRANCH   5   6
ATOM      6  C   UNL     1      17.381  41.295  20.272  1.00  0.00     0.000 C 
BRANCH   6   7
ATOM      7  C   UNL     1      16.389  42.415  19.915  1.00  0.00     0.000 C 
BRANCH   7   8
ATOM      8  C   UNL     1      17.035  43.550  19.103  1.00  0.00     0.000 C 
BRANCH   8   9
ATOM      9  C   UNL     1      16.361  44.910  19.349  1.00  0.00     0.000 C 
BRANCH   9  10
ATOM     10  C   UNL     1      15.324  44.859  20.486  1.00  0.00     0.006 C 
BRANCH  10  11
ATOM     11  C   UNL     1      14.060  45.662  20.153  1.00  0.00     0.053 C 
BRANCH  11  12
ATOM     12  C   UNL     1      12.881  44.770  19.913  1.00  0.00     0.041 C 
ATOM     13  O   UNL     1      11.717  45.172  20.177  1.00  0.00    -0.550 OA
ATOM     14  O   UNL     1      13.071  43.479  19.437  1.00  0.00    -0.550 OA
ENDBRANCH  11  12
ENDBRANCH  10  11
ENDBRANCH   9  10
ENDBRANCH   8   9
ENDBRANCH   7   8
ENDBRANCH   6   7
ENDBRANCH   5   6
ENDBRANCH   4   5
ENDBRANCH   3   4
ENDBRANCH   2   3
ENDBRANCH   1   2
BRANCH   1  15
ATOM     15  C   UNL     1      19.685  42.505  24.463  1.00  0.00     0.000 C 
BRANCH  15  16
ATOM     16  C   UNL     1      19.902  40.995  24.667  1.00  0.00     0.000 C 
BRANCH  16  17
ATOM     17  C   UNL     1      18.734  40.148  24.137  1.00  0.00     0.000 C 
BRANCH  17  18
ATOM     18  C   UNL     1      17.751  39.709  25.239  1.00  0.00    -0.000 C 
BRANCH  18  19
ATOM     19  C   UNL     1      18.258  39.882  26.684  1.00  0.00    -0.000 C 
BRANCH  19  20
ATOM     20  C   UNL     1      17.910  38.693  27.598  1.00  0.00    -0.000 C 
BRANCH  20  21
ATOM     21  C   UNL     1      16.444  38.738  28.082  1.00  0.00    -0.000 C 
BRANCH  21  22
ATOM     22  C   UNL     1      16.304  38.832  29.612  1.00  0.00    -0.000 C 
BRANCH  22  23
ATOM     23  C   UNL     1      15.330  39.936  30.053  1.00  0.00    -0.000 C 
BRANCH  23  24
ATOM     24  C   UNL     1      15.458  41.211  29.206  1.00  0.00    -0.000 C 
BRANCH  24  25
ATOM     25  C   UNL     1      14.100  41.723  28.704  1.00  0.00    -0.003 C 
ATOM     26  C   UNL     1      13.248  40.579  28.159  1.00  0.00     0.004 C 
ENDBRANCH  24  25
ENDBRANCH  23  24
ENDBRANCH  22  23
ENDBRANCH  21  22
ENDBRANCH  20  21
ENDBRANCH  19  20
ENDBRANCH  18  19
ENDBRANCH  17  18
ENDBRANCH  16  17
ENDBRANCH  15  16
ENDBRANCH   1  15
TORSDOF 22
ENDMDL
MODEL 7
REMARK VINA RESULT:    -3.950      2.201      3.121
REMARK INTER + INTRA:         -12.269
REMARK INTER:                  -9.609
REMARK INTRA:                  -2.659
REMARK UNBOUND:                -3.239
REMARK SMILES CCCCCCCCCCCCCCCCCCCCCCCC(=O)[O-]
REMARK SMILES IDX 13 1 14 2 15 3 16 4 17 5 18 6 19 7 20 8 21 9 22 10 23 11
REMARK SMILES IDX 24 12 25 13 26 14 12 15 11 16 10 17 9 18 8 19 7 20 6 21 5 22
REMARK SMILES IDX 4 23 3 24 2 25 1 26
REMARK H PARENT
REMARK Flexibility Score: inf
ROOT
ATOM      1  C   UNL     1      19.823  44.378  21.310  1.00  0.00     0.000 C 
ENDROOT
BRANCH   1   2
ATOM      2  C   UNL     1      19.924  45.487  20.247  1.00  0.00     0.000 C 
BRANCH   2   3
ATOM      3  C   UNL     1      18.740  46.472  20.314  1.00  0.00     0.000 C 
BRANCH   3   4
ATOM      4  C   UNL     1      17.580  45.980  21.199  1.00  0.00     0.000 C 
BRANCH   4   5
ATOM      5  C   UNL     1      16.206  46.250  20.559  1.00  0.00     0.000 C 
BRANCH   5   6
ATOM      6  C   UNL     1      15.841  45.229  19.466  1.00  0.00     0.000 C 
BRANCH   6   7
ATOM      7  C   UNL     1      15.406  45.844  18.125  1.00  0.00     0.000 C 
BRANCH   7   8
ATOM      8  C   UNL     1      13.952  45.505  17.755  1.00  0.00     0.000 C 
BRANCH   8   9
ATOM      9  C   UNL     1      12.955  46.570  18.240  1.00  0.00     0.000 C 
BRANCH   9  10
ATOM     10  C   UNL     1      12.273  46.183  19.564  1.00  0.00     0.006 C 
BRANCH  10  11
ATOM     11  C   UNL     1      11.774  44.732  19.555  1.00  0.00     0.053 C 
BRANCH  11  12
ATOM     12  C   UNL     1      10.327  44.638  19.933  1.00  0.00     0.041 C 
ATOM     13  O   UNL     1       9.520  45.539  19.580  1.00  0.00    -0.550 OA
ATOM     14  O   UNL     1       9.878  43.579  20.709  1.00  0.00    -0.550 OA
ENDBRANCH  11  12
ENDBRANCH  10  11
ENDBRANCH   9  10
ENDBRANCH   8   9
ENDBRANCH   7   8
ENDBRANCH   6   7
ENDBRANCH   5   6
ENDBRANCH   4   5
ENDBRANCH   3   4
ENDBRANCH   2   3
ENDBRANCH   1   2
BRANCH   1  15
ATOM     15  C   UNL     1      21.134  43.572  21.440  1.00  0.00     0.000 C 
BRANCH  15  16
ATOM     16  C   UNL     1      21.880  43.805  22.765  1.00  0.00     0.000 C 
BRANCH  16  17
ATOM     17  C   UNL     1      21.585  42.720  23.814  1.00  0.00     0.000 C 
BRANCH  17  18
ATOM     18  C   UNL     1      20.083  42.557  24.116  1.00  0.00    -0.000 C 
BRANCH  18  19
ATOM     19  C   UNL     1      19.709  41.329  24.968  1.00  0.00    -0.000 C 
BRANCH  19  20
ATOM     20  C   UNL     1      18.787  40.337  24.235  1.00  0.00    -0.000 C 
BRANCH  20  21
ATOM     21  C   UNL     1      18.210  40.931  22.931  1.00  0.00    -0.000 C 
BRANCH  21  22
ATOM     22  C   UNL     1      18.371  40.006  21.711  1.00  0.00    -0.000 C 
BRANCH  22  23
ATOM     23  C   UNL     1      19.714  40.200  20.989  1.00  0.00    -0.000 C 
BRANCH  23  24
ATOM     24  C   UNL     1      19.555  40.862  19.612  1.00  0.00    -0.000 C 
BRANCH  24  25
ATOM     25  C   UNL     1      18.083  41.029  19.206  1.00  0.00    -0.003 C 
ATOM     26  C   UNL     1      17.762  42.486  18.884  1.00  0.00     0.004 C 
ENDBRANCH  24  25
ENDBRANCH  23  24
ENDBRANCH  22  23
ENDBRANCH  21  22
ENDBRANCH  20  21
ENDBRANCH  19  20
ENDBRANCH  18  19
ENDBRANCH  17  18
ENDBRANCH  16  17
ENDBRANCH  15  16
ENDBRANCH   1  15
TORSDOF 22
ENDMDL
MODEL 8
REMARK VINA RESULT:    -3.947      3.031      7.030
REMARK INTER + INTRA:         -12.262
REMARK INTER:                 -10.020
REMARK INTRA:                  -2.241
REMARK UNBOUND:                -3.239
REMARK SMILES CCCCCCCCCCCCCCCCCCCCCCCC(=O)[O-]
REMARK SMILES IDX 13 1 14 2 15 3 16 4 17 5 18 6 19 7 20 8 21 9 22 10 23 11
REMARK SMILES IDX 24 12 25 13 26 14 12 15 11 16 10 17 9 18 8 19 7 20 6 21 5 22
REMARK SMILES IDX 4 23 3 24 2 25 1 26
REMARK H PARENT
REMARK Flexibility Score: inf
ROOT
ATOM      1  C   UNL     1      19.330  40.725  22.578  1.00  0.00     0.000 C 
ENDROOT
BRANCH   1   2
ATOM      2  C   UNL     1      19.128  41.841  23.620  1.00  0.00     0.000 C 
BRANCH   2   3
ATOM      3  C   UNL     1      19.285  43.247  23.010  1.00  0.00     0.000 C 
BRANCH   3   4
ATOM      4  C   UNL     1      20.648  43.473  22.329  1.00  0.00     0.000 C 
BRANCH   4   5
ATOM      5  C   UNL     1      20.505  44.161  20.959  1.00  0.00     0.000 C 
BRANCH   5   6
ATOM      6  C   UNL     1      20.424  45.696  21.063  1.00  0.00     0.000 C 
BRANCH   6   7
ATOM      7  C   UNL     1      19.167  46.321  20.434  1.00  0.00     0.000 C 
BRANCH   7   8
ATOM      8  C   UNL     1      18.951  47.784  20.858  1.00  0.00     0.000 C 
BRANCH   8   9
ATOM      9  C   UNL     1      18.772  48.726  19.657  1.00  0.00     0.000 C 
BRANCH   9  10
ATOM     10  C   UNL     1      19.405  50.110  19.890  1.00  0.00     0.006 C 
BRANCH  10  11
ATOM     11  C   UNL     1      20.892  50.012  20.255  1.00  0.00     0.053 C 
BRANCH  11  12
ATOM     12  C   UNL     1      21.772  50.431  19.117  1.00  0.00     0.041 C 
ATOM     13  O   UNL     1      23.025  50.401  19.240  1.00  0.00    -0.550 OA
ATOM     14  O   UNL     1      21.208  50.892  17.935  1.00  0.00    -0.550 OA
ENDBRANCH  11  12
ENDBRANCH  10  11
ENDBRANCH   9  10
ENDBRANCH   8   9
ENDBRANCH   7   8
ENDBRANCH   6   7
ENDBRANCH   5   6
ENDBRANCH   4   5
ENDBRANCH   3   4
ENDBRANCH   2   3
ENDBRANCH   1   2
BRANCH   1  15
ATOM     15  C   UNL     1      18.174  40.662  21.557  1.00  0.00     0.000 C 
BRANCH  15  16
ATOM     16  C   UNL     1      18.593  41.008  20.118  1.00  0.00     0.000 C 
BRANCH  16  17
ATOM     17  C   UNL     1      17.595  41.940  19.413  1.00  0.00     0.000 C 
BRANCH  17  18
ATOM     18  C   UNL     1      16.760  42.789  20.390  1.00  0.00    -0.000 C 
BRANCH  18  19
ATOM     19  C   UNL     1      16.433  44.217  19.912  1.00  0.00    -0.000 C 
BRANCH  19  20
ATOM     20  C   UNL     1      15.828  44.263  18.497  1.00  0.00    -0.000 C 
BRANCH  20  21
ATOM     21  C   UNL     1      14.990  45.540  18.263  1.00  0.00    -0.000 C 
BRANCH  21  22
ATOM     22  C   UNL     1      13.472  45.285  18.253  1.00  0.00    -0.000 C 
BRANCH  22  23
ATOM     23  C   UNL     1      12.696  46.285  19.125  1.00  0.00    -0.000 C 
BRANCH  23  24
ATOM     24  C   UNL     1      11.374  46.731  18.481  1.00  0.00    -0.000 C 
BRANCH  24  25
ATOM     25  C   UNL     1      10.162  46.474  19.389  1.00  0.00    -0.003 C 
ATOM     26  C   UNL     1       9.983  44.982  19.660  1.00  0.00     0.004 C 
ENDBRANCH  24  25
ENDBRANCH  23  24
ENDBRANCH  22  23
ENDBRANCH  21  22
ENDBRANCH  20  21
ENDBRANCH  19  20
ENDBRANCH  18  19
ENDBRANCH  17  18
ENDBRANCH  16  17
ENDBRANCH  15  16
ENDBRANCH   1  15
TORSDOF 22
ENDMDL
MODEL 9
REMARK VINA RESULT:    -3.940      2.097      5.638
REMARK INTER + INTRA:         -12.248
REMARK INTER:                  -9.081
REMARK INTRA:                  -3.167
REMARK UNBOUND:                -3.239
REMARK SMILES CCCCCCCCCCCCCCCCCCCCCCCC(=O)[O-]
REMARK SMILES IDX 13 1 14 2 15 3 16 4 17 5 18 6 19 7 20 8 21 9 22 10 23 11
REMARK SMILES IDX 24 12 25 13 26 14 12 15 11 16 10 17 9 18 8 19 7 20 6 21 5 22
REMARK SMILES IDX 4 23 3 24 2 25 1 26
REMARK H PARENT
REMARK Flexibility Score: inf
ROOT
ATOM      1  C   UNL     1      21.187  39.219  23.358  1.00  0.00     0.000 C 
ENDROOT
BRANCH   1   2
ATOM      2  C   UNL     1      19.883  39.061  22.553  1.00  0.00     0.000 C 
BRANCH   2   3
ATOM      3  C   UNL     1      19.877  39.918  21.274  1.00  0.00     0.000 C 
BRANCH   3   4
ATOM      4  C   UNL     1      18.628  40.808  21.135  1.00  0.00     0.000 C 
BRANCH   4   5
ATOM      5  C   UNL     1      18.235  41.031  19.663  1.00  0.00     0.000 C 
BRANCH   5   6
ATOM      6  C   UNL     1      17.067  42.022  19.497  1.00  0.00     0.000 C 
BRANCH   6   7
ATOM      7  C   UNL     1      17.389  43.265  18.650  1.00  0.00     0.000 C 
BRANCH   7   8
ATOM      8  C   UNL     1      16.534  44.486  19.030  1.00  0.00     0.000 C 
BRANCH   8   9
ATOM      9  C   UNL     1      16.121  44.479  20.511  1.00  0.00     0.000 C 
BRANCH   9  10
ATOM     10  C   UNL     1      14.702  45.034  20.732  1.00  0.00     0.006 C 
BRANCH  10  11
ATOM     11  C   UNL     1      13.667  44.355  19.825  1.00  0.00     0.053 C 
BRANCH  11  12
ATOM     12  C   UNL     1      12.813  45.356  19.109  1.00  0.00     0.041 C 
ATOM     13  O   UNL     1      12.672  45.292  17.860  1.00  0.00    -0.550 OA
ATOM     14  O   UNL     1      12.206  46.385  19.817  1.00  0.00    -0.550 OA
ENDBRANCH  11  12
ENDBRANCH  10  11
ENDBRANCH   9  10
ENDBRANCH   8   9
ENDBRANCH   7   8
ENDBRANCH   6   7
ENDBRANCH   5   6
ENDBRANCH   4   5
ENDBRANCH   3   4
ENDBRANCH   2   3
ENDBRANCH   1   2
BRANCH   1  15
ATOM     15  C   UNL     1      20.952  39.903  24.722  1.00  0.00     0.000 C 
BRANCH  15  16
ATOM     16  C   UNL     1      19.601  40.631  24.831  1.00  0.00     0.000 C 
BRANCH  16  17
ATOM     17  C   UNL     1      19.754  42.152  24.988  1.00  0.00     0.000 C 
BRANCH  17  18
ATOM     18  C   UNL     1      19.796  42.902  23.642  1.00  0.00    -0.000 C 
BRANCH  18  19
ATOM     19  C   UNL     1      21.206  43.180  23.084  1.00  0.00    -0.000 C 
BRANCH  19  20
ATOM     20  C   UNL     1      21.199  43.649  21.618  1.00  0.00    -0.000 C 
BRANCH  20  21
ATOM     21  C   UNL     1      19.855  44.297  21.220  1.00  0.00    -0.000 C 
BRANCH  21  22
ATOM     22  C   UNL     1      20.007  45.477  20.242  1.00  0.00    -0.000 C 
BRANCH  22  23
ATOM     23  C   UNL     1      19.178  46.703  20.657  1.00  0.00    -0.000 C 
BRANCH  23  24
ATOM     24  C   UNL     1      19.976  48.013  20.571  1.00  0.00    -0.000 C 
BRANCH  24  25
ATOM     25  C   UNL     1      19.633  48.987  21.709  1.00  0.00    -0.003 C 
ATOM     26  C   UNL     1      20.034  50.416  21.350  1.00  0.00     0.004 C 
ENDBRANCH  24  25
ENDBRANCH  23  24
ENDBRANCH  22  23
ENDBRANCH  21  22
ENDBRANCH  20  21
ENDBRANCH  19  20
ENDBRANCH  18  19
ENDBRANCH  17  18
ENDBRANCH  16  17
ENDBRANCH  15  16
ENDBRANCH   1  15
TORSDOF 22
ENDMDL
