MODEL 1
REMARK VINA RESULT:     2.650      0.000      0.000
REMARK INTER + INTRA:           4.274
REMARK INTER:                   5.128
REMARK INTRA:                  -0.854
REMARK UNBOUND:                -0.854
REMARK SMILES CCCCCCCCCCCCCCCCCC(=O)[O-]
REMARK SMILES IDX 10 1 11 2 12 3 13 4 14 5 15 6 16 7 17 8 18 9 19 10 20 11
REMARK SMILES IDX 9 12 8 13 7 14 6 15 5 16 4 17 3 18 2 19 1 20
REMARK H PARENT
REMARK Flexibility Score: inf
ROOT
ATOM      1  C   UNL     1      89.148  18.438 120.434  1.00  0.00     0.000 C 
ENDROOT
BRANCH   1   2
ATOM      2  C   UNL     1      90.533  18.517 121.096  1.00  0.00     0.000 C 
BRANCH   2   3
ATOM      3  C   UNL     1      91.683  18.378 120.081  1.00  0.00     0.000 C 
BRANCH   3   4
ATOM      4  C   UNL     1      92.213  16.938 119.988  1.00  0.00     0.000 C 
BRANCH   4   5
ATOM      5  C   UNL     1      93.259  16.626 121.073  1.00  0.00     0.000 C 
BRANCH   5   6
ATOM      6  C   UNL     1      93.832  15.205 120.953  1.00  0.00     0.000 C 
BRANCH   6   7
ATOM      7  C   UNL     1      95.365  15.173 121.023  1.00  0.00     0.006 C 
BRANCH   7   8
ATOM      8  C   UNL     1      95.941  16.589 121.125  1.00  0.00     0.053 C 
BRANCH   8   9
ATOM      9  C   UNL     1      96.763  16.910 119.917  1.00  0.00     0.041 C 
ATOM     10  O   UNL     1      98.020  16.871 119.978  1.00  0.00    -0.550 OA
ATOM     11  O   UNL     1      96.142  17.303 118.738  1.00  0.00    -0.550 OA
ENDBRANCH   8   9
ENDBRANCH   7   8
ENDBRANCH   6   7
ENDBRANCH   5   6
ENDBRANCH   4   5
ENDBRANCH   3   4
ENDBRANCH   2   3
ENDBRANCH   1   2
BRANCH   1  12
ATOM     12  C   UNL     1      88.185  19.523 120.941  1.00  0.00     0.000 C 
BRANCH  12  13
ATOM     13  C   UNL     1      86.745  19.009 121.115  1.00  0.00    -0.000 C 
BRANCH  13  14
ATOM     14  C   UNL     1      86.630  17.470 121.125  1.00  0.00    -0.000 C 
BRANCH  14  15
ATOM     15  C   UNL     1      85.784  16.939 119.952  1.00  0.00    -0.000 C 
BRANCH  15  16
ATOM     16  C   UNL     1      84.372  16.507 120.401  1.00  0.00    -0.000 C 
BRANCH  16  17
ATOM     17  C   UNL     1      83.493  17.674 120.879  1.00  0.00    -0.000 C 
BRANCH  17  18
ATOM     18  C   UNL     1      82.174  17.786 120.102  1.00  0.00    -0.000 C 
BRANCH  18  19
ATOM     19  C   UNL     1      82.429  18.157 118.636  1.00  0.00    -0.003 C 
ATOM     20  C   UNL     1      81.356  17.568 117.724  1.00  0.00     0.004 C 
ENDBRANCH  18  19
ENDBRANCH  17  18
ENDBRANCH  16  17
ENDBRANCH  15  16
ENDBRANCH  14  15
ENDBRANCH  13  14
ENDBRANCH  12  13
ENDBRANCH   1  12
TORSDOF 16
ENDMDL
