MODEL 1
REMARK VINA RESULT:    -7.360      0.000      0.000
REMARK INTER + INTRA:          -7.878
REMARK INTER:                  -8.005
REMARK INTRA:                   0.127
REMARK UNBOUND:                 0.127
REMARK SMILES C[C@@H]1[C@H](C)CC[C@]2(C(=O)[O-])CC[C@@]3(C)C(=CC[C@H]4[C@@]5(C)CC[C@@H](O)C(C)(C)[C@H]5CC[C@]43C)[C@@H]12
REMARK SMILES IDX 7 1 6 2 11 3 33 4 5 5 12 6 15 7 2 8 3 9 13 10 16 11 1 12
REMARK SMILES IDX 4 13 14 14 31 15 17 16 18 17 30 18 32 19 19 20 29 21 28 22
REMARK SMILES IDX 21 23 20 24 25 25 22 26 23 27 26 28 27 29 8 30 9 31 10 32
REMARK SMILES IDX 24 33
REMARK H PARENT 24 34
REMARK Flexibility Score: inf
ROOT
ATOM      1  C   UNL     1       3.380 -10.226 -34.681  1.00  0.00     0.017 C 
ATOM      2  C   UNL     1       3.037  -9.108 -35.701  1.00  0.00     0.014 C 
ATOM      3  C   UNL     1       2.089 -10.929 -34.252  1.00  0.00     0.014 C 
ATOM      4  C   UNL     1       3.985  -9.546 -33.407  1.00  0.00     0.030 C 
ATOM      5  C   UNL     1       4.292  -8.327 -36.121  1.00  0.00     0.004 C 
ATOM      6  C   UNL     1       2.393 -12.136 -33.361  1.00  0.00     0.013 C 
ATOM      7  C   UNL     1       3.965 -10.455 -32.142  1.00  0.00    -0.063 C 
ATOM      8  C   UNL     1       5.314  -8.772 -33.800  1.00  0.00    -0.003 C 
ATOM      9  C   UNL     1       5.033  -7.708 -34.916  1.00  0.00    -0.011 C 
ATOM     10  C   UNL     1       3.270 -11.846 -32.071  1.00  0.00    -0.006 C 
ATOM     11  C   UNL     1       4.249  -9.866 -30.969  1.00  0.00    -0.027 C 
ATOM     12  C   UNL     1       6.122  -8.134 -32.656  1.00  0.00     0.008 C 
ATOM     13  C   UNL     1       4.301  -6.442 -34.421  1.00  0.00     0.008 C 
ATOM     14  C   UNL     1       4.409 -12.907 -32.015  1.00  0.00     0.017 C 
ATOM     15  C   UNL     1       2.353 -11.967 -30.737  1.00  0.00    -0.020 C 
ATOM     16  C   UNL     1       4.277 -10.568 -29.651  1.00  0.00     0.032 C 
ATOM     17  C   UNL     1       3.203 -11.675 -29.421  1.00  0.00     0.006 C 
ATOM     18  C   UNL     1       1.193 -10.917 -30.807  1.00  0.00     0.008 C 
ATOM     19  C   UNL     1       1.753 -13.424 -30.667  1.00  0.00     0.012 C 
ATOM     20  C   UNL     1       2.371 -11.509 -28.057  1.00  0.00    -0.025 C 
ATOM     21  C   UNL     1       0.347 -10.780 -29.531  1.00  0.00     0.005 C 
ATOM     22  C   UNL     1       1.144 -10.518 -28.222  1.00  0.00     0.003 C 
ATOM     23  C   UNL     1       3.299 -11.117 -26.835  1.00  0.00     0.010 C 
ATOM     24  C   UNL     1       1.785 -12.899 -27.629  1.00  0.00     0.012 C 
ATOM     25  C   UNL     1       1.319  -8.981 -27.819  1.00  0.00    -0.006 C 
ATOM     26  C   UNL     1       2.685 -10.064 -25.915  1.00  0.00     0.033 C 
ATOM     27  C   UNL     1       2.395  -8.771 -26.683  1.00  0.00     0.120 C 
ATOM     28  C   UNL     1       1.629  -8.067 -29.032  1.00  0.00     0.014 C 
ATOM     29  C   UNL     1      -0.041  -8.471 -27.252  1.00  0.00     0.014 C 
ENDROOT
BRANCH   1  30
ATOM     30  C   UNL     1       4.283 -11.245 -35.393  1.00  0.00     0.048 C 
ATOM     31  O   UNL     1       5.479 -11.380 -35.021  1.00  0.00    -0.550 OA
ATOM     32  O   UNL     1       3.842 -12.003 -36.469  1.00  0.00    -0.550 OA
ENDBRANCH   1  30
BRANCH  27  33
ATOM     33  O   UNL     1       3.596  -8.241 -27.186  1.00  0.00    -0.393 OA
ATOM     34  H   UNL     1       3.389  -7.353 -27.581  1.00  0.00     0.210 HD
ENDBRANCH  27  33
TORSDOF 2
ENDMDL
MODEL 2
REMARK VINA RESULT:    -7.219      2.357      5.089
REMARK INTER + INTRA:          -7.724
REMARK INTER:                  -7.725
REMARK INTRA:                   0.001
REMARK UNBOUND:                 0.127
REMARK SMILES C[C@@H]1[C@H](C)CC[C@]2(C(=O)[O-])CC[C@@]3(C)C(=CC[C@H]4[C@@]5(C)CC[C@@H](O)C(C)(C)[C@H]5CC[C@]43C)[C@@H]12
REMARK SMILES IDX 7 1 6 2 11 3 33 4 5 5 12 6 15 7 2 8 3 9 13 10 16 11 1 12
REMARK SMILES IDX 4 13 14 14 31 15 17 16 18 17 30 18 32 19 19 20 29 21 28 22
REMARK SMILES IDX 21 23 20 24 25 25 22 26 23 27 26 28 27 29 8 30 9 31 10 32
REMARK SMILES IDX 24 33
REMARK H PARENT 24 34
REMARK Flexibility Score: inf
ROOT
ATOM      1  C   UNL     1       3.936 -10.518 -31.363  1.00  0.00     0.017 C 
ATOM      2  C   UNL     1       4.761 -11.578 -32.141  1.00  0.00     0.014 C 
ATOM      3  C   UNL     1       4.802  -9.925 -30.248  1.00  0.00     0.014 C 
ATOM      4  C   UNL     1       2.734 -11.250 -30.678  1.00  0.00     0.030 C 
ATOM      5  C   UNL     1       3.918 -12.251 -33.235  1.00  0.00     0.004 C 
ATOM      6  C   UNL     1       4.081  -8.769 -29.550  1.00  0.00     0.013 C 
ATOM      7  C   UNL     1       2.082 -10.438 -29.520  1.00  0.00    -0.063 C 
ATOM      8  C   UNL     1       1.816 -11.915 -31.788  1.00  0.00    -0.003 C 
ATOM      9  C   UNL     1       2.640 -12.911 -32.675  1.00  0.00    -0.011 C 
ATOM     10  C   UNL     1       2.645  -9.099 -28.961  1.00  0.00    -0.006 C 
ATOM     11  C   UNL     1       1.207 -11.092 -28.740  1.00  0.00    -0.027 C 
ATOM     12  C   UNL     1       0.512 -12.585 -31.317  1.00  0.00     0.008 C 
ATOM     13  C   UNL     1       2.978 -14.250 -31.985  1.00  0.00     0.008 C 
ATOM     14  C   UNL     1       1.667  -7.979 -29.423  1.00  0.00     0.017 C 
ATOM     15  C   UNL     1       2.705  -9.129 -27.339  1.00  0.00    -0.020 C 
ATOM     16  C   UNL     1       0.482 -10.486 -27.582  1.00  0.00     0.032 C 
ATOM     17  C   UNL     1       1.277  -9.464 -26.713  1.00  0.00     0.006 C 
ATOM     18  C   UNL     1       3.709 -10.237 -26.875  1.00  0.00     0.008 C 
ATOM     19  C   UNL     1       3.189  -7.718 -26.825  1.00  0.00     0.012 C 
ATOM     20  C   UNL     1       1.245  -9.776 -25.138  1.00  0.00    -0.025 C 
ATOM     21  C   UNL     1       3.736 -10.515 -25.364  1.00  0.00     0.005 C 
ATOM     22  C   UNL     1       2.358 -10.823 -24.714  1.00  0.00     0.003 C 
ATOM     23  C   UNL     1      -0.198 -10.200 -24.642  1.00  0.00     0.010 C 
ATOM     24  C   UNL     1       1.526  -8.457 -24.337  1.00  0.00     0.012 C 
ATOM     25  C   UNL     1       1.977 -12.373 -24.610  1.00  0.00    -0.006 C 
ATOM     26  C   UNL     1      -0.186 -11.351 -23.638  1.00  0.00     0.033 C 
ATOM     27  C   UNL     1       0.457 -12.600 -24.249  1.00  0.00     0.120 C 
ATOM     28  C   UNL     1       2.356 -13.177 -25.880  1.00  0.00     0.014 C 
ATOM     29  C   UNL     1       2.814 -13.001 -23.454  1.00  0.00     0.014 C 
ENDROOT
BRANCH   1  30
ATOM     30  C   UNL     1       3.568  -9.399 -32.349  1.00  0.00     0.048 C 
ATOM     31  O   UNL     1       4.485  -8.762 -32.934  1.00  0.00    -0.550 OA
ATOM     32  O   UNL     1       2.254  -9.025 -32.592  1.00  0.00    -0.550 OA
ENDBRANCH   1  30
BRANCH  27  33
ATOM     33  O   UNL     1      -0.292 -13.021 -25.362  1.00  0.00    -0.393 OA
ATOM     34  H   UNL     1       0.234 -13.723 -25.827  1.00  0.00     0.210 HD
ENDBRANCH  27  33
TORSDOF 2
ENDMDL
MODEL 3
REMARK VINA RESULT:    -7.110      2.174      3.038
REMARK INTER + INTRA:          -7.606
REMARK INTER:                  -7.615
REMARK INTRA:                   0.008
REMARK UNBOUND:                 0.127
REMARK SMILES C[C@@H]1[C@H](C)CC[C@]2(C(=O)[O-])CC[C@@]3(C)C(=CC[C@H]4[C@@]5(C)CC[C@@H](O)C(C)(C)[C@H]5CC[C@]43C)[C@@H]12
REMARK SMILES IDX 7 1 6 2 11 3 33 4 5 5 12 6 15 7 2 8 3 9 13 10 16 11 1 12
REMARK SMILES IDX 4 13 14 14 31 15 17 16 18 17 30 18 32 19 19 20 29 21 28 22
REMARK SMILES IDX 21 23 20 24 25 25 22 26 23 27 26 28 27 29 8 30 9 31 10 32
REMARK SMILES IDX 24 33
REMARK H PARENT 24 34
REMARK Flexibility Score: inf
ROOT
ATOM      1  C   UNL     1       0.743 -10.417 -32.199  1.00  0.00     0.017 C 
ATOM      2  C   UNL     1      -0.186  -9.461 -32.994  1.00  0.00     0.014 C 
ATOM      3  C   UNL     1      -0.095 -11.207 -31.189  1.00  0.00     0.014 C 
ATOM      4  C   UNL     1       1.752  -9.542 -31.382  1.00  0.00     0.030 C 
ATOM      5  C   UNL     1       0.614  -8.598 -33.982  1.00  0.00     0.004 C 
ATOM      6  C   UNL     1       0.753 -12.270 -30.486  1.00  0.00     0.013 C 
ATOM      7  C   UNL     1       2.441 -10.305 -30.213  1.00  0.00    -0.063 C 
ATOM      8  C   UNL     1       2.628  -8.674 -32.381  1.00  0.00    -0.003 C 
ATOM      9  C   UNL     1       1.719  -7.775 -33.288  1.00  0.00    -0.011 C 
ATOM     10  C   UNL     1       2.066 -11.748 -29.764  1.00  0.00    -0.006 C 
ATOM     11  C   UNL     1       3.134  -9.565 -29.333  1.00  0.00    -0.027 C 
ATOM     12  C   UNL     1       3.764  -7.832 -31.773  1.00  0.00     0.008 C 
ATOM     13  C   UNL     1       1.114  -6.550 -32.569  1.00  0.00     0.008 C 
ATOM     14  C   UNL     1       3.248 -12.666 -30.193  1.00  0.00     0.017 C 
ATOM     15  C   UNL     1       1.881 -11.823 -28.153  1.00  0.00    -0.020 C 
ATOM     16  C   UNL     1       3.860 -10.113 -28.147  1.00  0.00     0.032 C 
ATOM     17  C   UNL     1       3.182 -11.299 -27.395  1.00  0.00     0.006 C 
ATOM     18  C   UNL     1       0.675 -10.920 -27.725  1.00  0.00     0.008 C 
ATOM     19  C   UNL     1       1.599 -13.320 -27.746  1.00  0.00     0.012 C 
ATOM     20  C   UNL     1       3.044 -11.078 -25.810  1.00  0.00    -0.025 C 
ATOM     21  C   UNL     1       0.489 -10.739 -26.210  1.00  0.00     0.005 C 
ATOM     22  C   UNL     1       1.744 -10.251 -25.433  1.00  0.00     0.003 C 
ATOM     23  C   UNL     1       4.356 -10.457 -25.176  1.00  0.00     0.010 C 
ATOM     24  C   UNL     1       2.925 -12.470 -25.096  1.00  0.00     0.012 C 
ATOM     25  C   UNL     1       1.854  -8.669 -25.228  1.00  0.00    -0.006 C 
ATOM     26  C   UNL     1       4.077  -9.384 -24.126  1.00  0.00     0.033 C 
ATOM     27  C   UNL     1       3.284  -8.221 -24.731  1.00  0.00     0.120 C 
ATOM     28  C   UNL     1       1.444  -7.864 -26.487  1.00  0.00     0.014 C 
ATOM     29  C   UNL     1       0.841  -8.253 -24.119  1.00  0.00     0.014 C 
ENDROOT
BRANCH   1  30
ATOM     30  C   UNL     1       1.364 -11.403 -33.200  1.00  0.00     0.048 C 
ATOM     31  O   UNL     1       0.616 -12.189 -33.841  1.00  0.00    -0.550 OA
ATOM     32  O   UNL     1       2.734 -11.496 -33.399  1.00  0.00    -0.550 OA
ENDBRANCH   1  30
BRANCH  27  33
ATOM     33  O   UNL     1       4.035  -7.621 -25.757  1.00  0.00    -0.393 OA
ATOM     34  H   UNL     1       4.893  -8.116 -25.828  1.00  0.00     0.210 HD
ENDBRANCH  27  33
TORSDOF 2
ENDMDL
MODEL 4
REMARK VINA RESULT:    -6.939      2.747      5.551
REMARK INTER + INTRA:          -7.421
REMARK INTER:                  -7.445
REMARK INTRA:                   0.024
REMARK UNBOUND:                 0.127
REMARK SMILES C[C@@H]1[C@H](C)CC[C@]2(C(=O)[O-])CC[C@@]3(C)C(=CC[C@H]4[C@@]5(C)CC[C@@H](O)C(C)(C)[C@H]5CC[C@]43C)[C@@H]12
REMARK SMILES IDX 7 1 6 2 11 3 33 4 5 5 12 6 15 7 2 8 3 9 13 10 16 11 1 12
REMARK SMILES IDX 4 13 14 14 31 15 17 16 18 17 30 18 32 19 19 20 29 21 28 22
REMARK SMILES IDX 21 23 20 24 25 25 22 26 23 27 26 28 27 29 8 30 9 31 10 32
REMARK SMILES IDX 24 33
REMARK H PARENT 24 34
REMARK Flexibility Score: inf
ROOT
ATOM      1  C   UNL     1       5.683  -5.257 -35.066  1.00  0.00     0.017 C 
ATOM      2  C   UNL     1       6.882  -4.436 -34.519  1.00  0.00     0.014 C 
ATOM      3  C   UNL     1       4.469  -5.039 -34.158  1.00  0.00     0.014 C 
ATOM      4  C   UNL     1       6.059  -6.774 -34.982  1.00  0.00     0.030 C 
ATOM      5  C   UNL     1       8.148  -4.667 -35.359  1.00  0.00     0.004 C 
ATOM      6  C   UNL     1       3.223  -5.708 -34.741  1.00  0.00     0.013 C 
ATOM      7  C   UNL     1       4.833  -7.730 -35.064  1.00  0.00    -0.063 C 
ATOM      8  C   UNL     1       7.337  -7.053 -35.882  1.00  0.00    -0.003 C 
ATOM      9  C   UNL     1       8.543  -6.157 -35.436  1.00  0.00    -0.011 C 
ATOM     10  C   UNL     1       3.349  -7.257 -35.062  1.00  0.00    -0.006 C 
ATOM     11  C   UNL     1       5.050  -9.021 -34.768  1.00  0.00    -0.027 C 
ATOM     12  C   UNL     1       7.792  -8.517 -36.025  1.00  0.00     0.008 C 
ATOM     13  C   UNL     1       9.223  -6.607 -34.125  1.00  0.00     0.008 C 
ATOM     14  C   UNL     1       2.806  -7.496 -36.502  1.00  0.00     0.017 C 
ATOM     15  C   UNL     1       2.470  -8.117 -34.003  1.00  0.00    -0.020 C 
ATOM     16  C   UNL     1       4.003 -10.086 -34.787  1.00  0.00     0.032 C 
ATOM     17  C   UNL     1       2.580  -9.681 -34.293  1.00  0.00     0.006 C 
ATOM     18  C   UNL     1       3.000  -7.856 -32.553  1.00  0.00     0.008 C 
ATOM     19  C   UNL     1       0.963  -7.664 -34.112  1.00  0.00     0.012 C 
ATOM     20  C   UNL     1       1.970 -10.659 -33.174  1.00  0.00    -0.025 C 
ATOM     21  C   UNL     1       2.390  -8.742 -31.455  1.00  0.00     0.005 C 
ATOM     22  C   UNL     1       2.458 -10.273 -31.715  1.00  0.00     0.003 C 
ATOM     23  C   UNL     1       2.228 -12.185 -33.510  1.00  0.00     0.010 C 
ATOM     24  C   UNL     1       0.406 -10.549 -33.179  1.00  0.00     0.012 C 
ATOM     25  C   UNL     1       3.725 -11.022 -31.089  1.00  0.00    -0.006 C 
ATOM     26  C   UNL     1       2.619 -13.021 -32.292  1.00  0.00     0.033 C 
ATOM     27  C   UNL     1       3.905 -12.485 -31.654  1.00  0.00     0.120 C 
ATOM     28  C   UNL     1       5.042 -10.218 -31.244  1.00  0.00     0.014 C 
ATOM     29  C   UNL     1       3.498 -11.156 -29.553  1.00  0.00     0.014 C 
ENDROOT
BRANCH   1  30
ATOM     30  C   UNL     1       5.352  -4.721 -36.467  1.00  0.00     0.048 C 
ATOM     31  O   UNL     1       4.941  -3.537 -36.597  1.00  0.00    -0.550 OA
ATOM     32  O   UNL     1       5.448  -5.509 -37.605  1.00  0.00    -0.550 OA
ENDBRANCH   1  30
BRANCH  27  33
ATOM     33  O   UNL     1       4.961 -12.567 -32.578  1.00  0.00    -0.393 OA
ATOM     34  H   UNL     1       4.650 -12.151 -33.425  1.00  0.00     0.210 HD
ENDBRANCH  27  33
TORSDOF 2
ENDMDL
MODEL 5
REMARK VINA RESULT:    -6.787      2.849      8.294
REMARK INTER + INTRA:          -7.255
REMARK INTER:                  -7.258
REMARK INTRA:                   0.002
REMARK UNBOUND:                 0.127
REMARK SMILES C[C@@H]1[C@H](C)CC[C@]2(C(=O)[O-])CC[C@@]3(C)C(=CC[C@H]4[C@@]5(C)CC[C@@H](O)C(C)(C)[C@H]5CC[C@]43C)[C@@H]12
REMARK SMILES IDX 7 1 6 2 11 3 33 4 5 5 12 6 15 7 2 8 3 9 13 10 16 11 1 12
REMARK SMILES IDX 4 13 14 14 31 15 17 16 18 17 30 18 32 19 19 20 29 21 28 22
REMARK SMILES IDX 21 23 20 24 25 25 22 26 23 27 26 28 27 29 8 30 9 31 10 32
REMARK SMILES IDX 24 33
REMARK H PARENT 24 34
REMARK Flexibility Score: inf
ROOT
ATOM      1  C   UNL     1      -0.006 -10.249 -24.931  1.00  0.00     0.017 C 
ATOM      2  C   UNL     1      -1.473  -9.990 -24.492  1.00  0.00     0.014 C 
ATOM      3  C   UNL     1       0.517  -9.023 -25.685  1.00  0.00     0.014 C 
ATOM      4  C   UNL     1      -0.009 -11.448 -25.938  1.00  0.00     0.030 C 
ATOM      5  C   UNL     1      -2.069 -11.215 -23.782  1.00  0.00     0.004 C 
ATOM      6  C   UNL     1       2.006  -9.172 -26.007  1.00  0.00     0.013 C 
ATOM      7  C   UNL     1       1.284 -11.546 -26.800  1.00  0.00    -0.063 C 
ATOM      8  C   UNL     1      -0.575 -12.744 -25.217  1.00  0.00    -0.003 C 
ATOM      9  C   UNL     1      -2.015 -12.488 -24.654  1.00  0.00    -0.011 C 
ATOM     10  C   UNL     1       2.418 -10.479 -26.807  1.00  0.00    -0.006 C 
ATOM     11  C   UNL     1       1.257 -12.398 -27.837  1.00  0.00    -0.027 C 
ATOM     12  C   UNL     1      -0.546 -14.062 -26.011  1.00  0.00     0.008 C 
ATOM     13  C   UNL     1      -3.124 -12.458 -25.728  1.00  0.00     0.008 C 
ATOM     14  C   UNL     1       3.636 -11.123 -26.081  1.00  0.00     0.017 C 
ATOM     15  C   UNL     1       2.838 -10.090 -28.326  1.00  0.00    -0.020 C 
ATOM     16  C   UNL     1       2.395 -12.628 -28.778  1.00  0.00     0.032 C 
ATOM     17  C   UNL     1       3.253 -11.383 -29.161  1.00  0.00     0.006 C 
ATOM     18  C   UNL     1       1.620  -9.419 -29.046  1.00  0.00     0.008 C 
ATOM     19  C   UNL     1       4.051  -9.083 -28.273  1.00  0.00     0.012 C 
ATOM     20  C   UNL     1       3.444 -11.179 -30.743  1.00  0.00    -0.025 C 
ATOM     21  C   UNL     1       1.801  -9.162 -30.551  1.00  0.00     0.005 C 
ATOM     22  C   UNL     1       2.228 -10.396 -31.395  1.00  0.00     0.003 C 
ATOM     23  C   UNL     1       3.748 -12.543 -31.489  1.00  0.00     0.010 C 
ATOM     24  C   UNL     1       4.734 -10.329 -31.009  1.00  0.00     0.012 C 
ATOM     25  C   UNL     1       1.032 -11.220 -32.063  1.00  0.00    -0.006 C 
ATOM     26  C   UNL     1       3.017 -12.687 -32.822  1.00  0.00     0.033 C 
ATOM     27  C   UNL     1       1.500 -12.621 -32.622  1.00  0.00     0.120 C 
ATOM     28  C   UNL     1      -0.185 -11.396 -31.118  1.00  0.00     0.014 C 
ATOM     29  C   UNL     1       0.500 -10.404 -33.279  1.00  0.00     0.014 C 
ENDROOT
BRANCH   1  30
ATOM     30  C   UNL     1       0.834 -10.440 -23.659  1.00  0.00     0.048 C 
ATOM     31  O   UNL     1       0.899  -9.508 -22.813  1.00  0.00    -0.550 OA
ATOM     32  O   UNL     1       1.569 -11.593 -23.420  1.00  0.00    -0.550 OA
ENDBRANCH   1  30
BRANCH  27  33
ATOM     33  O   UNL     1       1.086 -13.683 -31.799  1.00  0.00    -0.393 OA
ATOM     34  H   UNL     1       1.029 -14.496 -32.367  1.00  0.00     0.210 HD
ENDBRANCH  27  33
TORSDOF 2
ENDMDL
MODEL 6
REMARK VINA RESULT:    -6.725      2.697      7.176
REMARK INTER + INTRA:          -7.187
REMARK INTER:                  -7.212
REMARK INTRA:                   0.025
REMARK UNBOUND:                 0.127
REMARK SMILES C[C@@H]1[C@H](C)CC[C@]2(C(=O)[O-])CC[C@@]3(C)C(=CC[C@H]4[C@@]5(C)CC[C@@H](O)C(C)(C)[C@H]5CC[C@]43C)[C@@H]12
REMARK SMILES IDX 7 1 6 2 11 3 33 4 5 5 12 6 15 7 2 8 3 9 13 10 16 11 1 12
REMARK SMILES IDX 4 13 14 14 31 15 17 16 18 17 30 18 32 19 19 20 29 21 28 22
REMARK SMILES IDX 21 23 20 24 25 25 22 26 23 27 26 28 27 29 8 30 9 31 10 32
REMARK SMILES IDX 24 33
REMARK H PARENT 24 34
REMARK Flexibility Score: inf
ROOT
ATOM      1  C   UNL     1       2.706 -11.334 -32.264  1.00  0.00     0.017 C 
ATOM      2  C   UNL     1       2.239 -11.467 -30.790  1.00  0.00     0.014 C 
ATOM      3  C   UNL     1       4.231 -11.197 -32.299  1.00  0.00     0.014 C 
ATOM      4  C   UNL     1       2.107 -10.007 -32.842  1.00  0.00     0.030 C 
ATOM      5  C   UNL     1       0.707 -11.546 -30.693  1.00  0.00     0.004 C 
ATOM      6  C   UNL     1       4.750 -11.213 -33.738  1.00  0.00     0.013 C 
ATOM      7  C   UNL     1       2.825  -9.503 -34.129  1.00  0.00    -0.063 C 
ATOM      8  C   UNL     1       0.522 -10.080 -32.801  1.00  0.00    -0.003 C 
ATOM      9  C   UNL     1       0.010 -10.331 -31.340  1.00  0.00    -0.011 C 
ATOM     10  C   UNL     1       4.118 -10.137 -34.719  1.00  0.00    -0.006 C 
ATOM     11  C   UNL     1       2.523  -8.263 -34.544  1.00  0.00    -0.027 C 
ATOM     12  C   UNL     1      -0.254  -8.913 -33.438  1.00  0.00     0.008 C 
ATOM     13  C   UNL     1       0.095  -9.098 -30.414  1.00  0.00     0.008 C 
ATOM     14  C   UNL     1       3.696 -10.869 -36.027  1.00  0.00     0.017 C 
ATOM     15  C   UNL     1       5.216  -8.993 -35.069  1.00  0.00    -0.020 C 
ATOM     16  C   UNL     1       3.107  -7.604 -35.751  1.00  0.00     0.032 C 
ATOM     17  C   UNL     1       4.611  -7.892 -36.049  1.00  0.00     0.006 C 
ATOM     18  C   UNL     1       5.659  -8.277 -33.750  1.00  0.00     0.008 C 
ATOM     19  C   UNL     1       6.461  -9.680 -35.750  1.00  0.00     0.012 C 
ATOM     20  C   UNL     1       5.499  -6.572 -36.273  1.00  0.00    -0.025 C 
ATOM     21  C   UNL     1       6.556  -7.043 -33.936  1.00  0.00     0.005 C 
ATOM     22  C   UNL     1       6.010  -5.956 -34.904  1.00  0.00     0.003 C 
ATOM     23  C   UNL     1       4.760  -5.500 -37.175  1.00  0.00     0.010 C 
ATOM     24  C   UNL     1       6.771  -6.934 -37.116  1.00  0.00     0.012 C 
ATOM     25  C   UNL     1       5.176  -4.778 -34.215  1.00  0.00    -0.006 C 
ATOM     26  C   UNL     1       4.935  -4.064 -36.685  1.00  0.00     0.033 C 
ATOM     27  C   UNL     1       4.386  -3.902 -35.264  1.00  0.00     0.120 C 
ATOM     28  C   UNL     1       4.220  -5.281 -33.103  1.00  0.00     0.014 C 
ATOM     29  C   UNL     1       6.183  -3.826 -33.500  1.00  0.00     0.014 C 
ENDROOT
BRANCH   1  30
ATOM     30  C   UNL     1       2.311 -12.625 -32.997  1.00  0.00     0.048 C 
ATOM     31  O   UNL     1       2.679 -13.738 -32.533  1.00  0.00    -0.550 OA
ATOM     32  O   UNL     1       1.594 -12.616 -34.185  1.00  0.00    -0.550 OA
ENDBRANCH   1  30
BRANCH  27  33
ATOM     33  O   UNL     1       3.008  -4.184 -35.256  1.00  0.00    -0.393 OA
ATOM     34  H   UNL     1       2.528  -3.334 -35.437  1.00  0.00     0.210 HD
ENDBRANCH  27  33
TORSDOF 2
ENDMDL
MODEL 7
REMARK VINA RESULT:    -6.682      3.481      5.402
REMARK INTER + INTRA:          -7.141
REMARK INTER:                  -7.148
REMARK INTRA:                   0.006
REMARK UNBOUND:                 0.127
REMARK SMILES C[C@@H]1[C@H](C)CC[C@]2(C(=O)[O-])CC[C@@]3(C)C(=CC[C@H]4[C@@]5(C)CC[C@@H](O)C(C)(C)[C@H]5CC[C@]43C)[C@@H]12
REMARK SMILES IDX 7 1 6 2 11 3 33 4 5 5 12 6 15 7 2 8 3 9 13 10 16 11 1 12
REMARK SMILES IDX 4 13 14 14 31 15 17 16 18 17 30 18 32 19 19 20 29 21 28 22
REMARK SMILES IDX 21 23 20 24 25 25 22 26 23 27 26 28 27 29 8 30 9 31 10 32
REMARK SMILES IDX 24 33
REMARK H PARENT 24 34
REMARK Flexibility Score: inf
ROOT
ATOM      1  C   UNL     1       1.169  -6.640 -35.564  1.00  0.00     0.017 C 
ATOM      2  C   UNL     1       0.308  -6.845 -36.839  1.00  0.00     0.014 C 
ATOM      3  C   UNL     1       2.512  -7.353 -35.744  1.00  0.00     0.014 C 
ATOM      4  C   UNL     1       0.433  -7.331 -34.369  1.00  0.00     0.030 C 
ATOM      5  C   UNL     1      -1.078  -6.200 -36.688  1.00  0.00     0.004 C 
ATOM      6  C   UNL     1       3.453  -7.054 -34.575  1.00  0.00     0.013 C 
ATOM      7  C   UNL     1       1.350  -7.605 -33.141  1.00  0.00    -0.063 C 
ATOM      8  C   UNL     1      -0.986  -6.651 -34.156  1.00  0.00    -0.003 C 
ATOM      9  C   UNL     1      -1.848  -6.733 -35.462  1.00  0.00    -0.011 C 
ATOM     10  C   UNL     1       2.891  -7.381 -33.127  1.00  0.00    -0.006 C 
ATOM     11  C   UNL     1       0.852  -8.398 -32.178  1.00  0.00    -0.027 C 
ATOM     12  C   UNL     1      -1.816  -7.115 -32.946  1.00  0.00     0.008 C 
ATOM     13  C   UNL     1      -2.432  -8.133 -35.754  1.00  0.00     0.008 C 
ATOM     14  C   UNL     1       3.149  -6.142 -32.220  1.00  0.00     0.017 C 
ATOM     15  C   UNL     1       3.659  -8.672 -32.512  1.00  0.00    -0.020 C 
ATOM     16  C   UNL     1       1.579  -8.777 -30.929  1.00  0.00     0.032 C 
ATOM     17  C   UNL     1       3.113  -9.031 -31.059  1.00  0.00     0.006 C 
ATOM     18  C   UNL     1       3.419  -9.910 -33.440  1.00  0.00     0.008 C 
ATOM     19  C   UNL     1       5.201  -8.351 -32.434  1.00  0.00     0.012 C 
ATOM     20  C   UNL     1       3.601 -10.432 -30.440  1.00  0.00    -0.025 C 
ATOM     21  C   UNL     1       3.928 -11.254 -32.894  1.00  0.00     0.005 C 
ATOM     22  C   UNL     1       3.435 -11.628 -31.468  1.00  0.00     0.003 C 
ATOM     23  C   UNL     1       2.917 -10.739 -29.045  1.00  0.00     0.010 C 
ATOM     24  C   UNL     1       5.124 -10.342 -30.081  1.00  0.00     0.012 C 
ATOM     25  C   UNL     1       2.118 -12.533 -31.411  1.00  0.00    -0.006 C 
ATOM     26  C   UNL     1       2.497 -12.198 -28.879  1.00  0.00     0.033 C 
ATOM     27  C   UNL     1       1.493 -12.603 -29.962  1.00  0.00     0.120 C 
ATOM     28  C   UNL     1       1.042 -12.105 -32.442  1.00  0.00     0.014 C 
ATOM     29  C   UNL     1       2.513 -13.989 -31.802  1.00  0.00     0.014 C 
ENDROOT
BRANCH   1  30
ATOM     30  C   UNL     1       1.429  -5.133 -35.415  1.00  0.00     0.048 C 
ATOM     31  O   UNL     1       2.033  -4.514 -36.332  1.00  0.00    -0.550 OA
ATOM     32  O   UNL     1       1.059  -4.425 -34.280  1.00  0.00    -0.550 OA
ENDBRANCH   1  30
BRANCH  27  33
ATOM     33  O   UNL     1       0.333 -11.817 -29.850  1.00  0.00    -0.393 OA
ATOM     34  H   UNL     1      -0.031 -11.951 -28.936  1.00  0.00     0.210 HD
ENDBRANCH  27  33
TORSDOF 2
ENDMDL
MODEL 8
REMARK VINA RESULT:    -6.644      2.067      6.940
REMARK INTER + INTRA:          -7.099
REMARK INTER:                  -7.105
REMARK INTRA:                   0.006
REMARK UNBOUND:                 0.127
REMARK SMILES C[C@@H]1[C@H](C)CC[C@]2(C(=O)[O-])CC[C@@]3(C)C(=CC[C@H]4[C@@]5(C)CC[C@@H](O)C(C)(C)[C@H]5CC[C@]43C)[C@@H]12
REMARK SMILES IDX 7 1 6 2 11 3 33 4 5 5 12 6 15 7 2 8 3 9 13 10 16 11 1 12
REMARK SMILES IDX 4 13 14 14 31 15 17 16 18 17 30 18 32 19 19 20 29 21 28 22
REMARK SMILES IDX 21 23 20 24 25 25 22 26 23 27 26 28 27 29 8 30 9 31 10 32
REMARK SMILES IDX 24 33
REMARK H PARENT 24 34
REMARK Flexibility Score: inf
ROOT
ATOM      1  C   UNL     1       1.848 -11.519 -27.637  1.00  0.00     0.017 C 
ATOM      2  C   UNL     1       2.456 -11.161 -26.254  1.00  0.00     0.014 C 
ATOM      3  C   UNL     1       2.844 -12.383 -28.416  1.00  0.00     0.014 C 
ATOM      4  C   UNL     1       1.660 -10.189 -28.440  1.00  0.00     0.030 C 
ATOM      5  C   UNL     1       1.521 -10.242 -25.453  1.00  0.00     0.004 C 
ATOM      6  C   UNL     1       2.228 -12.885 -29.724  1.00  0.00     0.013 C 
ATOM      7  C   UNL     1       1.490 -10.400 -29.974  1.00  0.00    -0.063 C 
ATOM      8  C   UNL     1       0.658  -9.236 -27.660  1.00  0.00    -0.003 C 
ATOM      9  C   UNL     1       1.179  -8.942 -26.211  1.00  0.00    -0.011 C 
ATOM     10  C   UNL     1       1.651 -11.770 -30.695  1.00  0.00    -0.006 C 
ATOM     11  C   UNL     1       1.558  -9.304 -30.747  1.00  0.00    -0.027 C 
ATOM     12  C   UNL     1       0.252  -7.922 -28.351  1.00  0.00     0.008 C 
ATOM     13  C   UNL     1       2.359  -7.948 -26.146  1.00  0.00     0.008 C 
ATOM     14  C   UNL     1       0.223 -12.209 -31.136  1.00  0.00     0.017 C 
ATOM     15  C   UNL     1       2.601 -11.627 -32.003  1.00  0.00    -0.020 C 
ATOM     16  C   UNL     1       1.421  -9.304 -32.234  1.00  0.00     0.032 C 
ATOM     17  C   UNL     1       2.052 -10.509 -32.998  1.00  0.00     0.006 C 
ATOM     18  C   UNL     1       4.043 -11.211 -31.556  1.00  0.00     0.008 C 
ATOM     19  C   UNL     1       2.650 -13.018 -32.746  1.00  0.00     0.012 C 
ATOM     20  C   UNL     1       3.027 -10.085 -34.202  1.00  0.00    -0.025 C 
ATOM     21  C   UNL     1       5.012 -10.855 -32.695  1.00  0.00     0.005 C 
ATOM     22  C   UNL     1       4.500  -9.784 -33.700  1.00  0.00     0.003 C 
ATOM     23  C   UNL     1       2.431  -8.897 -35.063  1.00  0.00     0.010 C 
ATOM     24  C   UNL     1       3.125 -11.262 -35.235  1.00  0.00     0.012 C 
ATOM     25  C   UNL     1       4.925  -8.277 -33.374  1.00  0.00    -0.006 C 
ATOM     26  C   UNL     1       3.471  -7.853 -35.466  1.00  0.00     0.033 C 
ATOM     27  C   UNL     1       4.117  -7.222 -34.228  1.00  0.00     0.120 C 
ATOM     28  C   UNL     1       4.832  -7.933 -31.865  1.00  0.00     0.014 C 
ATOM     29  C   UNL     1       6.428  -8.105 -33.748  1.00  0.00     0.014 C 
ENDROOT
BRANCH   1  30
ATOM     30  C   UNL     1       0.574 -12.341 -27.388  1.00  0.00     0.048 C 
ATOM     31  O   UNL     1       0.659 -13.453 -26.801  1.00  0.00    -0.550 OA
ATOM     32  O   UNL     1      -0.676 -11.924 -27.824  1.00  0.00    -0.550 OA
ENDBRANCH   1  30
BRANCH  27  33
ATOM     33  O   UNL     1       3.136  -6.566 -33.465  1.00  0.00    -0.393 OA
ATOM     34  H   UNL     1       2.794  -5.807 -34.007  1.00  0.00     0.210 HD
ENDBRANCH  27  33
TORSDOF 2
ENDMDL
MODEL 9
REMARK VINA RESULT:    -6.588      2.305      7.377
REMARK INTER + INTRA:          -7.038
REMARK INTER:                  -7.040
REMARK INTRA:                   0.002
REMARK UNBOUND:                 0.127
REMARK SMILES C[C@@H]1[C@H](C)CC[C@]2(C(=O)[O-])CC[C@@]3(C)C(=CC[C@H]4[C@@]5(C)CC[C@@H](O)C(C)(C)[C@H]5CC[C@]43C)[C@@H]12
REMARK SMILES IDX 7 1 6 2 11 3 33 4 5 5 12 6 15 7 2 8 3 9 13 10 16 11 1 12
REMARK SMILES IDX 4 13 14 14 31 15 17 16 18 17 30 18 32 19 19 20 29 21 28 22
REMARK SMILES IDX 21 23 20 24 25 25 22 26 23 27 26 28 27 29 8 30 9 31 10 32
REMARK SMILES IDX 24 33
REMARK H PARENT 24 34
REMARK Flexibility Score: inf
ROOT
ATOM      1  C   UNL     1       1.694 -12.137 -26.147  1.00  0.00     0.017 C 
ATOM      2  C   UNL     1       2.724 -12.870 -25.248  1.00  0.00     0.014 C 
ATOM      3  C   UNL     1       1.392 -13.001 -27.375  1.00  0.00     0.014 C 
ATOM      4  C   UNL     1       2.357 -10.815 -26.662  1.00  0.00     0.030 C 
ATOM      5  C   UNL     1       3.110 -12.018 -24.029  1.00  0.00     0.004 C 
ATOM      6  C   UNL     1       0.270 -12.387 -28.215  1.00  0.00     0.013 C 
ATOM      7  C   UNL     1       1.649 -10.200 -27.904  1.00  0.00    -0.063 C 
ATOM      8  C   UNL     1       2.723  -9.890 -25.425  1.00  0.00    -0.003 C 
ATOM      9  C   UNL     1       3.673 -10.638 -24.427  1.00  0.00    -0.011 C 
ATOM     10  C   UNL     1       0.493 -10.889 -28.688  1.00  0.00    -0.006 C 
ATOM     11  C   UNL     1       2.292  -9.206 -28.538  1.00  0.00    -0.027 C 
ATOM     12  C   UNL     1       3.279  -8.488 -25.733  1.00  0.00     0.008 C 
ATOM     13  C   UNL     1       5.134 -10.766 -24.913  1.00  0.00     0.008 C 
ATOM     14  C   UNL     1      -0.801 -10.085 -28.366  1.00  0.00     0.017 C 
ATOM     15  C   UNL     1       0.773 -10.847 -30.286  1.00  0.00    -0.020 C 
ATOM     16  C   UNL     1       1.777  -8.494 -29.745  1.00  0.00     0.032 C 
ATOM     17  C   UNL     1       1.008  -9.355 -30.794  1.00  0.00     0.006 C 
ATOM     18  C   UNL     1       2.059 -11.678 -30.611  1.00  0.00     0.008 C 
ATOM     19  C   UNL     1      -0.470 -11.470 -31.032  1.00  0.00     0.012 C 
ATOM     20  C   UNL     1       1.546  -9.190 -32.299  1.00  0.00    -0.025 C 
ATOM     21  C   UNL     1       2.561 -11.581 -32.061  1.00  0.00     0.005 C 
ATOM     22  C   UNL     1       2.780 -10.139 -32.599  1.00  0.00     0.003 C 
ATOM     23  C   UNL     1       1.847  -7.679 -32.664  1.00  0.00     0.010 C 
ATOM     24  C   UNL     1       0.409  -9.583 -33.306  1.00  0.00     0.012 C 
ATOM     25  C   UNL     1       4.265  -9.566 -32.445  1.00  0.00    -0.006 C 
ATOM     26  C   UNL     1       3.127  -7.490 -33.477  1.00  0.00     0.033 C 
ATOM     27  C   UNL     1       4.343  -8.010 -32.705  1.00  0.00     0.120 C 
ATOM     28  C   UNL     1       4.913  -9.918 -31.082  1.00  0.00     0.014 C 
ATOM     29  C   UNL     1       5.163 -10.248 -33.521  1.00  0.00     0.014 C 
ENDROOT
BRANCH   1  30
ATOM     30  C   UNL     1       0.401 -11.969 -25.334  1.00  0.00     0.048 C 
ATOM     31  O   UNL     1      -0.197 -12.990 -24.901  1.00  0.00    -0.550 OA
ATOM     32  O   UNL     1      -0.167 -10.726 -25.090  1.00  0.00    -0.550 OA
ENDBRANCH   1  30
BRANCH  27  33
ATOM     33  O   UNL     1       4.492  -7.283 -31.511  1.00  0.00    -0.393 OA
ATOM     34  H   UNL     1       3.597  -7.226 -31.083  1.00  0.00     0.210 HD
ENDBRANCH  27  33
TORSDOF 2
ENDMDL
