MODEL 1
REMARK VINA RESULT:    25.436      0.000      0.000
REMARK INTER + INTRA:          67.469
REMARK INTER:                  67.072
REMARK INTRA:                   0.397
REMARK UNBOUND:                 0.397
REMARK SMILES CCCCCCCCCCCCCCCCCCCCCCCCCCCCCC(=O)[O-]
REMARK SMILES IDX 16 1 17 2 18 3 19 4 20 5 21 6 22 7 23 8 24 9 25 10 26 11
REMARK SMILES IDX 27 12 28 13 29 14 30 15 31 16 32 17 15 18 14 19 13 20 12 21
REMARK SMILES IDX 11 22 10 23 9 24 8 25 7 26 6 27 5 28 4 29 3 30 2 31 1 32
REMARK H PARENT
REMARK Flexibility Score: inf
ROOT
ATOM      1  C   UNL     1     -12.164   0.518 -18.688  1.00  0.00     0.000 C 
ENDROOT
BRANCH   1   2
ATOM      2  C   UNL     1     -11.383  -0.805 -18.644  1.00  0.00     0.000 C 
BRANCH   2   3
ATOM      3  C   UNL     1     -11.844  -1.720 -17.499  1.00  0.00     0.000 C 
BRANCH   3   4
ATOM      4  C   UNL     1     -13.232  -1.335 -16.958  1.00  0.00     0.000 C 
BRANCH   4   5
ATOM      5  C   UNL     1     -14.169  -2.546 -16.804  1.00  0.00     0.000 C 
BRANCH   5   6
ATOM      6  C   UNL     1     -14.562  -2.824 -15.338  1.00  0.00     0.000 C 
BRANCH   6   7
ATOM      7  C   UNL     1     -14.115  -4.204 -14.817  1.00  0.00     0.000 C 
BRANCH   7   8
ATOM      8  C   UNL     1     -14.095  -4.363 -13.285  1.00  0.00     0.000 C 
BRANCH   8   9
ATOM      9  C   UNL     1     -14.750  -3.214 -12.493  1.00  0.00     0.000 C 
BRANCH   9  10
ATOM     10  C   UNL     1     -15.322  -3.671 -11.139  1.00  0.00     0.000 C 
BRANCH  10  11
ATOM     11  C   UNL     1     -14.267  -3.657 -10.013  1.00  0.00     0.000 C 
BRANCH  11  12
ATOM     12  C   UNL     1     -13.541  -2.309  -9.860  1.00  0.00     0.000 C 
BRANCH  12  13
ATOM     13  C   UNL     1     -14.487  -1.106  -9.944  1.00  0.00     0.006 C 
BRANCH  13  14
ATOM     14  C   UNL     1     -13.713   0.217 -10.046  1.00  0.00     0.053 C 
BRANCH  14  15
ATOM     15  C   UNL     1     -14.174   1.022 -11.225  1.00  0.00     0.041 C 
ATOM     16  O   UNL     1     -13.343   1.631 -11.956  1.00  0.00    -0.550 OA
ATOM     17  O   UNL     1     -15.528   1.080 -11.529  1.00  0.00    -0.550 OA
ENDBRANCH  14  15
ENDBRANCH  13  14
ENDBRANCH  12  13
ENDBRANCH  11  12
ENDBRANCH  10  11
ENDBRANCH   9  10
ENDBRANCH   8   9
ENDBRANCH   7   8
ENDBRANCH   6   7
ENDBRANCH   5   6
ENDBRANCH   4   5
ENDBRANCH   3   4
ENDBRANCH   2   3
ENDBRANCH   1   2
BRANCH   1  18
ATOM     18  C   UNL     1     -12.337   1.146 -17.292  1.00  0.00     0.000 C 
BRANCH  18  19
ATOM     19  C   UNL     1     -12.024   2.650 -17.280  1.00  0.00     0.000 C 
BRANCH  19  20
ATOM     20  C   UNL     1     -12.874   3.441 -18.289  1.00  0.00     0.000 C 
BRANCH  20  21
ATOM     21  C   UNL     1     -14.388   3.258 -18.076  1.00  0.00     0.000 C 
BRANCH  21  22
ATOM     22  C   UNL     1     -15.283   4.290 -18.790  1.00  0.00     0.000 C 
BRANCH  22  23
ATOM     23  C   UNL     1     -14.537   5.587 -19.158  1.00  0.00     0.000 C 
BRANCH  23  24
ATOM     24  C   UNL     1     -15.144   6.286 -20.383  1.00  0.00    -0.000 C 
BRANCH  24  25
ATOM     25  C   UNL     1     -15.456   7.771 -20.118  1.00  0.00    -0.000 C 
BRANCH  25  26
ATOM     26  C   UNL     1     -15.138   8.180 -18.670  1.00  0.00    -0.000 C 
BRANCH  26  27
ATOM     27  C   UNL     1     -13.637   8.480 -18.443  1.00  0.00    -0.000 C 
BRANCH  27  28
ATOM     28  C   UNL     1     -13.351   9.179 -17.102  1.00  0.00    -0.000 C 
BRANCH  28  29
ATOM     29  C   UNL     1     -14.420   8.903 -16.019  1.00  0.00    -0.000 C 
BRANCH  29  30
ATOM     30  C   UNL     1     -14.100   7.696 -15.113  1.00  0.00    -0.000 C 
BRANCH  30  31
ATOM     31  C   UNL     1     -13.243   6.631 -15.815  1.00  0.00    -0.003 C 
ATOM     32  C   UNL     1     -11.818   7.133 -16.049  1.00  0.00     0.004 C 
ENDBRANCH  30  31
ENDBRANCH  29  30
ENDBRANCH  28  29
ENDBRANCH  27  28
ENDBRANCH  26  27
ENDBRANCH  25  26
ENDBRANCH  24  25
ENDBRANCH  23  24
ENDBRANCH  22  23
ENDBRANCH  21  22
ENDBRANCH  20  21
ENDBRANCH  19  20
ENDBRANCH  18  19
ENDBRANCH   1  18
TORSDOF 28
ENDMDL
MODEL 2
REMARK VINA RESULT:    25.470      0.862      1.618
REMARK INTER + INTRA:          67.557
REMARK INTER:                  67.974
REMARK INTRA:                  -0.418
REMARK UNBOUND:                 0.397
REMARK SMILES CCCCCCCCCCCCCCCCCCCCCCCCCCCCCC(=O)[O-]
REMARK SMILES IDX 16 1 17 2 18 3 19 4 20 5 21 6 22 7 23 8 24 9 25 10 26 11
REMARK SMILES IDX 27 12 28 13 29 14 30 15 31 16 32 17 15 18 14 19 13 20 12 21
REMARK SMILES IDX 11 22 10 23 9 24 8 25 7 26 6 27 5 28 4 29 3 30 2 31 1 32
REMARK H PARENT
REMARK Flexibility Score: inf
ROOT
ATOM      1  C   UNL     1     -12.455   0.967 -17.291  1.00  0.00     0.000 C 
ENDROOT
BRANCH   1   2
ATOM      2  C   UNL     1     -12.210   0.273 -18.639  1.00  0.00     0.000 C 
BRANCH   2   3
ATOM      3  C   UNL     1     -11.330  -0.979 -18.503  1.00  0.00     0.000 C 
BRANCH   3   4
ATOM      4  C   UNL     1     -11.856  -1.957 -17.438  1.00  0.00     0.000 C 
BRANCH   4   5
ATOM      5  C   UNL     1     -13.393  -1.991 -17.368  1.00  0.00     0.000 C 
BRANCH   5   6
ATOM      6  C   UNL     1     -13.930  -2.092 -15.925  1.00  0.00     0.000 C 
BRANCH   6   7
ATOM      7  C   UNL     1     -14.538  -3.464 -15.574  1.00  0.00     0.000 C 
BRANCH   7   8
ATOM      8  C   UNL     1     -14.111  -4.053 -14.215  1.00  0.00     0.000 C 
BRANCH   8   9
ATOM      9  C   UNL     1     -14.630  -3.298 -12.977  1.00  0.00     0.000 C 
BRANCH   9  10
ATOM     10  C   UNL     1     -14.613  -4.160 -11.701  1.00  0.00     0.000 C 
BRANCH  10  11
ATOM     11  C   UNL     1     -15.167  -3.411 -10.470  1.00  0.00     0.000 C 
BRANCH  11  12
ATOM     12  C   UNL     1     -15.024  -1.882 -10.558  1.00  0.00     0.000 C 
BRANCH  12  13
ATOM     13  C   UNL     1     -14.004  -1.316  -9.564  1.00  0.00     0.006 C 
BRANCH  13  14
ATOM     14  C   UNL     1     -13.312  -0.060 -10.114  1.00  0.00     0.053 C 
BRANCH  14  15
ATOM     15  C   UNL     1     -14.211   0.682 -11.058  1.00  0.00     0.041 C 
ATOM     16  O   UNL     1     -15.466   0.554 -10.989  1.00  0.00    -0.550 OA
ATOM     17  O   UNL     1     -13.658   1.535 -12.004  1.00  0.00    -0.550 OA
ENDBRANCH  14  15
ENDBRANCH  13  14
ENDBRANCH  12  13
ENDBRANCH  11  12
ENDBRANCH  10  11
ENDBRANCH   9  10
ENDBRANCH   8   9
ENDBRANCH   7   8
ENDBRANCH   6   7
ENDBRANCH   5   6
ENDBRANCH   4   5
ENDBRANCH   3   4
ENDBRANCH   2   3
ENDBRANCH   1   2
BRANCH   1  18
ATOM     18  C   UNL     1     -12.373   2.502 -17.395  1.00  0.00     0.000 C 
BRANCH  18  19
ATOM     19  C   UNL     1     -12.977   3.036 -18.702  1.00  0.00     0.000 C 
BRANCH  19  20
ATOM     20  C   UNL     1     -14.360   3.677 -18.498  1.00  0.00     0.000 C 
BRANCH  20  21
ATOM     21  C   UNL     1     -14.358   5.201 -18.723  1.00  0.00     0.000 C 
BRANCH  21  22
ATOM     22  C   UNL     1     -14.670   5.654 -20.163  1.00  0.00     0.000 C 
BRANCH  22  23
ATOM     23  C   UNL     1     -15.536   6.927 -20.223  1.00  0.00     0.000 C 
BRANCH  23  24
ATOM     24  C   UNL     1     -15.130   7.963 -19.165  1.00  0.00    -0.000 C 
BRANCH  24  25
ATOM     25  C   UNL     1     -16.342   8.719 -18.588  1.00  0.00    -0.000 C 
BRANCH  25  26
ATOM     26  C   UNL     1     -16.158   9.060 -17.100  1.00  0.00    -0.000 C 
BRANCH  26  27
ATOM     27  C   UNL     1     -14.697   8.892 -16.618  1.00  0.00    -0.000 C 
BRANCH  27  28
ATOM     28  C   UNL     1     -14.560   8.863 -15.085  1.00  0.00    -0.000 C 
BRANCH  28  29
ATOM     29  C   UNL     1     -13.868   7.589 -14.548  1.00  0.00    -0.000 C 
BRANCH  29  30
ATOM     30  C   UNL     1     -12.491   7.306 -15.183  1.00  0.00    -0.000 C 
BRANCH  30  31
ATOM     31  C   UNL     1     -12.547   6.232 -16.280  1.00  0.00    -0.003 C 
ATOM     32  C   UNL     1     -11.431   5.203 -16.105  1.00  0.00     0.004 C 
ENDBRANCH  30  31
ENDBRANCH  29  30
ENDBRANCH  28  29
ENDBRANCH  27  28
ENDBRANCH  26  27
ENDBRANCH  25  26
ENDBRANCH  24  25
ENDBRANCH  23  24
ENDBRANCH  22  23
ENDBRANCH  21  22
ENDBRANCH  20  21
ENDBRANCH  19  20
ENDBRANCH  18  19
ENDBRANCH   1  18
TORSDOF 28
ENDMDL
MODEL 3
REMARK VINA RESULT:    25.514      1.923      9.955
REMARK INTER + INTRA:          67.674
REMARK INTER:                  68.930
REMARK INTRA:                  -1.255
REMARK UNBOUND:                 0.397
REMARK SMILES CCCCCCCCCCCCCCCCCCCCCCCCCCCCCC(=O)[O-]
REMARK SMILES IDX 16 1 17 2 18 3 19 4 20 5 21 6 22 7 23 8 24 9 25 10 26 11
REMARK SMILES IDX 27 12 28 13 29 14 30 15 31 16 32 17 15 18 14 19 13 20 12 21
REMARK SMILES IDX 11 22 10 23 9 24 8 25 7 26 6 27 5 28 4 29 3 30 2 31 1 32
REMARK H PARENT
REMARK Flexibility Score: inf
ROOT
ATOM      1  C   UNL     1     -12.403   1.269 -17.146  1.00  0.00     0.000 C 
ENDROOT
BRANCH   1   2
ATOM      2  C   UNL     1     -11.998   2.711 -17.491  1.00  0.00     0.000 C 
BRANCH   2   3
ATOM      3  C   UNL     1     -12.914   3.339 -18.553  1.00  0.00     0.000 C 
BRANCH   3   4
ATOM      4  C   UNL     1     -14.390   3.361 -18.120  1.00  0.00     0.000 C 
BRANCH   4   5
ATOM      5  C   UNL     1     -15.174   4.534 -18.734  1.00  0.00     0.000 C 
BRANCH   5   6
ATOM      6  C   UNL     1     -14.338   5.367 -19.728  1.00  0.00     0.000 C 
BRANCH   6   7
ATOM      7  C   UNL     1     -15.113   6.524 -20.388  1.00  0.00     0.000 C 
BRANCH   7   8
ATOM      8  C   UNL     1     -15.078   7.866 -19.631  1.00  0.00     0.000 C 
BRANCH   8   9
ATOM      9  C   UNL     1     -16.438   8.361 -19.102  1.00  0.00     0.000 C 
BRANCH   9  10
ATOM     10  C   UNL     1     -16.348   8.953 -17.684  1.00  0.00     0.000 C 
BRANCH  10  11
ATOM     11  C   UNL     1     -15.126   8.432 -16.898  1.00  0.00     0.000 C 
BRANCH  11  12
ATOM     12  C   UNL     1     -14.768   9.288 -15.671  1.00  0.00     0.000 C 
BRANCH  12  13
ATOM     13  C   UNL     1     -14.049   8.493 -14.574  1.00  0.00     0.006 C 
BRANCH  13  14
ATOM     14  C   UNL     1     -13.759   7.051 -15.016  1.00  0.00     0.053 C 
BRANCH  14  15
ATOM     15  C   UNL     1     -12.520   6.984 -15.859  1.00  0.00     0.041 C 
ATOM     16  O   UNL     1     -12.041   5.872 -16.217  1.00  0.00    -0.550 OA
ATOM     17  O   UNL     1     -11.906   8.160 -16.269  1.00  0.00    -0.550 OA
ENDBRANCH  14  15
ENDBRANCH  13  14
ENDBRANCH  12  13
ENDBRANCH  11  12
ENDBRANCH  10  11
ENDBRANCH   9  10
ENDBRANCH   8   9
ENDBRANCH   7   8
ENDBRANCH   6   7
ENDBRANCH   5   6
ENDBRANCH   4   5
ENDBRANCH   3   4
ENDBRANCH   2   3
ENDBRANCH   1   2
BRANCH   1  18
ATOM     18  C   UNL     1     -11.765   0.236 -18.094  1.00  0.00     0.000 C 
BRANCH  18  19
ATOM     19  C   UNL     1     -12.185  -1.204 -17.762  1.00  0.00     0.000 C 
BRANCH  19  20
ATOM     20  C   UNL     1     -13.282  -1.270 -16.686  1.00  0.00     0.000 C 
BRANCH  20  21
ATOM     21  C   UNL     1     -14.011  -2.626 -16.650  1.00  0.00     0.000 C 
BRANCH  21  22
ATOM     22  C   UNL     1     -14.603  -3.019 -15.281  1.00  0.00     0.000 C 
BRANCH  22  23
ATOM     23  C   UNL     1     -14.135  -4.403 -14.794  1.00  0.00     0.000 C 
BRANCH  23  24
ATOM     24  C   UNL     1     -14.036  -4.484 -13.264  1.00  0.00    -0.000 C 
BRANCH  24  25
ATOM     25  C   UNL     1     -14.815  -3.354 -12.564  1.00  0.00    -0.000 C 
BRANCH  25  26
ATOM     26  C   UNL     1     -15.121  -3.685 -11.094  1.00  0.00    -0.000 C 
BRANCH  26  27
ATOM     27  C   UNL     1     -14.019  -3.197 -10.123  1.00  0.00    -0.000 C 
BRANCH  27  28
ATOM     28  C   UNL     1     -14.172  -1.719  -9.720  1.00  0.00    -0.000 C 
BRANCH  28  29
ATOM     29  C   UNL     1     -15.255  -0.966 -10.527  1.00  0.00    -0.000 C 
BRANCH  29  30
ATOM     30  C   UNL     1     -14.930   0.520 -10.780  1.00  0.00    -0.000 C 
BRANCH  30  31
ATOM     31  C   UNL     1     -13.544   0.927 -10.257  1.00  0.00    -0.003 C 
ATOM     32  C   UNL     1     -12.795   1.780 -11.281  1.00  0.00     0.004 C 
ENDBRANCH  30  31
ENDBRANCH  29  30
ENDBRANCH  28  29
ENDBRANCH  27  28
ENDBRANCH  26  27
ENDBRANCH  25  26
ENDBRANCH  24  25
ENDBRANCH  23  24
ENDBRANCH  22  23
ENDBRANCH  21  22
ENDBRANCH  20  21
ENDBRANCH  19  20
ENDBRANCH  18  19
ENDBRANCH   1  18
TORSDOF 28
ENDMDL
MODEL 4
REMARK VINA RESULT:    26.026      0.972      2.855
REMARK INTER + INTRA:          69.024
REMARK INTER:                  70.729
REMARK INTRA:                  -1.705
REMARK UNBOUND:                 0.397
REMARK SMILES CCCCCCCCCCCCCCCCCCCCCCCCCCCCCC(=O)[O-]
REMARK SMILES IDX 16 1 17 2 18 3 19 4 20 5 21 6 22 7 23 8 24 9 25 10 26 11
REMARK SMILES IDX 27 12 28 13 29 14 30 15 31 16 32 17 15 18 14 19 13 20 12 21
REMARK SMILES IDX 11 22 10 23 9 24 8 25 7 26 6 27 5 28 4 29 3 30 2 31 1 32
REMARK H PARENT
REMARK Flexibility Score: inf
ROOT
ATOM      1  C   UNL     1     -13.236   1.248 -18.157  1.00  0.00     0.000 C 
ENDROOT
BRANCH   1   2
ATOM      2  C   UNL     1     -12.859   0.067 -19.065  1.00  0.00     0.000 C 
BRANCH   2   3
ATOM      3  C   UNL     1     -11.606  -0.674 -18.574  1.00  0.00     0.000 C 
BRANCH   3   4
ATOM      4  C   UNL     1     -11.923  -1.708 -17.478  1.00  0.00     0.000 C 
BRANCH   4   5
ATOM      5  C   UNL     1     -13.264  -1.437 -16.774  1.00  0.00     0.000 C 
BRANCH   5   6
ATOM      6  C   UNL     1     -14.068  -2.722 -16.487  1.00  0.00     0.000 C 
BRANCH   6   7
ATOM      7  C   UNL     1     -14.543  -2.855 -15.027  1.00  0.00     0.000 C 
BRANCH   7   8
ATOM      8  C   UNL     1     -14.348  -4.243 -14.387  1.00  0.00     0.000 C 
BRANCH   8   9
ATOM      9  C   UNL     1     -13.776  -4.235 -12.956  1.00  0.00     0.000 C 
BRANCH   9  10
ATOM     10  C   UNL     1     -14.869  -4.321 -11.875  1.00  0.00     0.000 C 
BRANCH  10  11
ATOM     11  C   UNL     1     -15.225  -2.943 -11.279  1.00  0.00     0.000 C 
BRANCH  11  12
ATOM     12  C   UNL     1     -14.463  -2.612  -9.984  1.00  0.00     0.000 C 
BRANCH  12  13
ATOM     13  C   UNL     1     -13.786  -1.237 -10.021  1.00  0.00     0.006 C 
BRANCH  13  14
ATOM     14  C   UNL     1     -14.803  -0.109 -10.249  1.00  0.00     0.053 C 
BRANCH  14  15
ATOM     15  C   UNL     1     -14.211   0.991 -11.079  1.00  0.00     0.041 C 
ATOM     16  O   UNL     1     -13.039   1.407 -10.859  1.00  0.00    -0.550 OA
ATOM     17  O   UNL     1     -14.953   1.544 -12.115  1.00  0.00    -0.550 OA
ENDBRANCH  14  15
ENDBRANCH  13  14
ENDBRANCH  12  13
ENDBRANCH  11  12
ENDBRANCH  10  11
ENDBRANCH   9  10
ENDBRANCH   8   9
ENDBRANCH   7   8
ENDBRANCH   6   7
ENDBRANCH   5   6
ENDBRANCH   4   5
ENDBRANCH   3   4
ENDBRANCH   2   3
ENDBRANCH   1   2
BRANCH   1  18
ATOM     18  C   UNL     1     -12.007   1.894 -17.491  1.00  0.00     0.000 C 
BRANCH  18  19
ATOM     19  C   UNL     1     -12.065   3.429 -17.514  1.00  0.00     0.000 C 
BRANCH  19  20
ATOM     20  C   UNL     1     -11.233   4.070 -16.390  1.00  0.00     0.000 C 
BRANCH  20  21
ATOM     21  C   UNL     1     -11.442   5.592 -16.278  1.00  0.00     0.000 C 
BRANCH  21  22
ATOM     22  C   UNL     1     -12.757   6.028 -15.600  1.00  0.00     0.000 C 
BRANCH  22  23
ATOM     23  C   UNL     1     -13.080   7.520 -15.809  1.00  0.00     0.000 C 
BRANCH  23  24
ATOM     24  C   UNL     1     -14.327   7.965 -15.030  1.00  0.00    -0.000 C 
BRANCH  24  25
ATOM     25  C   UNL     1     -14.759   9.401 -15.382  1.00  0.00    -0.000 C 
BRANCH  25  26
ATOM     26  C   UNL     1     -15.062   9.563 -16.881  1.00  0.00    -0.000 C 
BRANCH  26  27
ATOM     27  C   UNL     1     -16.418   8.944 -17.294  1.00  0.00    -0.000 C 
BRANCH  27  28
ATOM     28  C   UNL     1     -16.372   8.228 -18.656  1.00  0.00    -0.000 C 
BRANCH  28  29
ATOM     29  C   UNL     1     -15.093   8.529 -19.471  1.00  0.00    -0.000 C 
BRANCH  29  30
ATOM     30  C   UNL     1     -14.583   7.336 -20.305  1.00  0.00    -0.000 C 
BRANCH  30  31
ATOM     31  C   UNL     1     -15.439   6.072 -20.126  1.00  0.00    -0.003 C 
ATOM     32  C   UNL     1     -14.769   5.081 -19.174  1.00  0.00     0.004 C 
ENDBRANCH  30  31
ENDBRANCH  29  30
ENDBRANCH  28  29
ENDBRANCH  27  28
ENDBRANCH  26  27
ENDBRANCH  25  26
ENDBRANCH  24  25
ENDBRANCH  23  24
ENDBRANCH  22  23
ENDBRANCH  21  22
ENDBRANCH  20  21
ENDBRANCH  19  20
ENDBRANCH  18  19
ENDBRANCH   1  18
TORSDOF 28
ENDMDL
MODEL 5
REMARK VINA RESULT:    26.106      2.718      9.997
REMARK INTER + INTRA:          69.235
REMARK INTER:                  71.137
REMARK INTRA:                  -1.902
REMARK UNBOUND:                 0.397
REMARK SMILES CCCCCCCCCCCCCCCCCCCCCCCCCCCCCC(=O)[O-]
REMARK SMILES IDX 16 1 17 2 18 3 19 4 20 5 21 6 22 7 23 8 24 9 25 10 26 11
REMARK SMILES IDX 27 12 28 13 29 14 30 15 31 16 32 17 15 18 14 19 13 20 12 21
REMARK SMILES IDX 11 22 10 23 9 24 8 25 7 26 6 27 5 28 4 29 3 30 2 31 1 32
REMARK H PARENT
REMARK Flexibility Score: inf
ROOT
ATOM      1  C   UNL     1     -11.999  -0.648 -18.671  1.00  0.00     0.000 C 
ENDROOT
BRANCH   1   2
ATOM      2  C   UNL     1     -11.215  -0.010 -17.514  1.00  0.00     0.000 C 
BRANCH   2   3
ATOM      3  C   UNL     1     -11.982   1.144 -16.850  1.00  0.00     0.000 C 
BRANCH   3   4
ATOM      4  C   UNL     1     -12.770   1.989 -17.866  1.00  0.00     0.000 C 
BRANCH   4   5
ATOM      5  C   UNL     1     -12.604   3.502 -17.639  1.00  0.00     0.000 C 
BRANCH   5   6
ATOM      6  C   UNL     1     -11.485   3.844 -16.633  1.00  0.00     0.000 C 
BRANCH   6   7
ATOM      7  C   UNL     1     -11.397   5.340 -16.273  1.00  0.00     0.000 C 
BRANCH   7   8
ATOM      8  C   UNL     1     -12.744   6.043 -16.017  1.00  0.00     0.000 C 
BRANCH   8   9
ATOM      9  C   UNL     1     -12.649   7.533 -15.635  1.00  0.00     0.000 C 
BRANCH   9  10
ATOM     10  C   UNL     1     -13.955   8.081 -15.031  1.00  0.00     0.000 C 
BRANCH  10  11
ATOM     11  C   UNL     1     -14.777   8.907 -16.043  1.00  0.00     0.000 C 
BRANCH  11  12
ATOM     12  C   UNL     1     -14.174   8.932 -17.458  1.00  0.00     0.000 C 
BRANCH  12  13
ATOM     13  C   UNL     1     -15.024   8.175 -18.485  1.00  0.00     0.006 C 
BRANCH  13  14
ATOM     14  C   UNL     1     -14.359   8.157 -19.870  1.00  0.00     0.053 C 
BRANCH  14  15
ATOM     15  C   UNL     1     -14.658   6.879 -20.595  1.00  0.00     0.041 C 
ATOM     16  O   UNL     1     -14.043   6.580 -21.657  1.00  0.00    -0.550 OA
ATOM     17  O   UNL     1     -15.608   6.005 -20.082  1.00  0.00    -0.550 OA
ENDBRANCH  14  15
ENDBRANCH  13  14
ENDBRANCH  12  13
ENDBRANCH  11  12
ENDBRANCH  10  11
ENDBRANCH   9  10
ENDBRANCH   8   9
ENDBRANCH   7   8
ENDBRANCH   6   7
ENDBRANCH   5   6
ENDBRANCH   4   5
ENDBRANCH   3   4
ENDBRANCH   2   3
ENDBRANCH   1   2
BRANCH   1  18
ATOM     18  C   UNL     1     -13.287  -1.346 -18.195  1.00  0.00     0.000 C 
BRANCH  18  19
ATOM     19  C   UNL     1     -13.042  -2.281 -17.001  1.00  0.00     0.000 C 
BRANCH  19  20
ATOM     20  C   UNL     1     -14.035  -2.046 -15.850  1.00  0.00     0.000 C 
BRANCH  20  21
ATOM     21  C   UNL     1     -14.814  -3.315 -15.457  1.00  0.00     0.000 C 
BRANCH  21  22
ATOM     22  C   UNL     1     -13.960  -4.454 -14.864  1.00  0.00     0.000 C 
BRANCH  22  23
ATOM     23  C   UNL     1     -13.888  -4.419 -13.325  1.00  0.00     0.000 C 
BRANCH  23  24
ATOM     24  C   UNL     1     -15.000  -3.560 -12.706  1.00  0.00    -0.000 C 
BRANCH  24  25
ATOM     25  C   UNL     1     -15.206  -3.856 -11.208  1.00  0.00    -0.000 C 
BRANCH  25  26
ATOM     26  C   UNL     1     -13.994  -3.433 -10.361  1.00  0.00    -0.000 C 
BRANCH  26  27
ATOM     27  C   UNL     1     -14.120  -1.995  -9.803  1.00  0.00    -0.000 C 
BRANCH  27  28
ATOM     28  C   UNL     1     -15.318  -1.219 -10.380  1.00  0.00    -0.000 C 
BRANCH  28  29
ATOM     29  C   UNL     1     -15.033   0.285 -10.602  1.00  0.00    -0.000 C 
BRANCH  29  30
ATOM     30  C   UNL     1     -13.658   0.748 -10.080  1.00  0.00    -0.000 C 
BRANCH  30  31
ATOM     31  C   UNL     1     -12.860   1.544 -11.124  1.00  0.00    -0.003 C 
ATOM     32  C   UNL     1     -13.631   1.663 -12.438  1.00  0.00     0.004 C 
ENDBRANCH  30  31
ENDBRANCH  29  30
ENDBRANCH  28  29
ENDBRANCH  27  28
ENDBRANCH  26  27
ENDBRANCH  25  26
ENDBRANCH  24  25
ENDBRANCH  23  24
ENDBRANCH  22  23
ENDBRANCH  21  22
ENDBRANCH  20  21
ENDBRANCH  19  20
ENDBRANCH  18  19
ENDBRANCH   1  18
TORSDOF 28
ENDMDL
MODEL 6
REMARK VINA RESULT:    26.248      1.093      3.103
REMARK INTER + INTRA:          69.610
REMARK INTER:                  69.848
REMARK INTRA:                  -0.238
REMARK UNBOUND:                 0.397
REMARK SMILES CCCCCCCCCCCCCCCCCCCCCCCCCCCCCC(=O)[O-]
REMARK SMILES IDX 16 1 17 2 18 3 19 4 20 5 21 6 22 7 23 8 24 9 25 10 26 11
REMARK SMILES IDX 27 12 28 13 29 14 30 15 31 16 32 17 15 18 14 19 13 20 12 21
REMARK SMILES IDX 11 22 10 23 9 24 8 25 7 26 6 27 5 28 4 29 3 30 2 31 1 32
REMARK H PARENT
REMARK Flexibility Score: inf
ROOT
ATOM      1  C   UNL     1     -12.318   1.816 -17.283  1.00  0.00     0.000 C 
ENDROOT
BRANCH   1   2
ATOM      2  C   UNL     1     -12.950   0.588 -17.958  1.00  0.00     0.000 C 
BRANCH   2   3
ATOM      3  C   UNL     1     -11.896  -0.399 -18.483  1.00  0.00     0.000 C 
BRANCH   3   4
ATOM      4  C   UNL     1     -11.689  -1.598 -17.541  1.00  0.00     0.000 C 
BRANCH   4   5
ATOM      5  C   UNL     1     -12.978  -2.409 -17.316  1.00  0.00     0.000 C 
BRANCH   5   6
ATOM      6  C   UNL     1     -13.659  -2.102 -15.967  1.00  0.00     0.000 C 
BRANCH   6   7
ATOM      7  C   UNL     1     -14.794  -3.076 -15.598  1.00  0.00     0.000 C 
BRANCH   7   8
ATOM      8  C   UNL     1     -14.365  -4.338 -14.824  1.00  0.00     0.000 C 
BRANCH   8   9
ATOM      9  C   UNL     1     -13.945  -4.103 -13.361  1.00  0.00     0.000 C 
BRANCH   9  10
ATOM     10  C   UNL     1     -14.975  -3.276 -12.569  1.00  0.00     0.000 C 
BRANCH  10  11
ATOM     11  C   UNL     1     -14.993  -3.629 -11.067  1.00  0.00     0.000 C 
BRANCH  11  12
ATOM     12  C   UNL     1     -13.836  -3.003 -10.269  1.00  0.00     0.000 C 
BRANCH  12  13
ATOM     13  C   UNL     1     -14.210  -1.667  -9.618  1.00  0.00     0.006 C 
BRANCH  13  14
ATOM     14  C   UNL     1     -15.108  -0.821 -10.533  1.00  0.00     0.053 C 
BRANCH  14  15
ATOM     15  C   UNL     1     -14.464   0.495 -10.854  1.00  0.00     0.041 C 
ATOM     16  O   UNL     1     -14.929   1.238 -11.764  1.00  0.00    -0.550 OA
ATOM     17  O   UNL     1     -13.356   0.912 -10.127  1.00  0.00    -0.550 OA
ENDBRANCH  14  15
ENDBRANCH  13  14
ENDBRANCH  12  13
ENDBRANCH  11  12
ENDBRANCH  10  11
ENDBRANCH   9  10
ENDBRANCH   8   9
ENDBRANCH   7   8
ENDBRANCH   6   7
ENDBRANCH   5   6
ENDBRANCH   4   5
ENDBRANCH   3   4
ENDBRANCH   2   3
ENDBRANCH   1   2
BRANCH   1  18
ATOM     18  C   UNL     1     -12.493   3.100 -18.114  1.00  0.00     0.000 C 
BRANCH  18  19
ATOM     19  C   UNL     1     -12.685   4.347 -17.238  1.00  0.00     0.000 C 
BRANCH  19  20
ATOM     20  C   UNL     1     -11.497   4.599 -16.295  1.00  0.00     0.000 C 
BRANCH  20  21
ATOM     21  C   UNL     1     -11.488   6.020 -15.700  1.00  0.00     0.000 C 
BRANCH  21  22
ATOM     22  C   UNL     1     -12.583   6.964 -16.236  1.00  0.00     0.000 C 
BRANCH  22  23
ATOM     23  C   UNL     1     -13.714   7.217 -15.221  1.00  0.00     0.000 C 
BRANCH  23  24
ATOM     24  C   UNL     1     -14.269   8.647 -15.306  1.00  0.00    -0.000 C 
BRANCH  24  25
ATOM     25  C   UNL     1     -14.543   9.086 -16.757  1.00  0.00    -0.000 C 
BRANCH  25  26
ATOM     26  C   UNL     1     -13.471   8.570 -17.731  1.00  0.00    -0.000 C 
BRANCH  26  27
ATOM     27  C   UNL     1     -13.819   8.847 -19.214  1.00  0.00    -0.000 C 
BRANCH  27  28
ATOM     28  C   UNL     1     -15.220   8.352 -19.614  1.00  0.00    -0.000 C 
BRANCH  28  29
ATOM     29  C   UNL     1     -15.371   6.814 -19.563  1.00  0.00    -0.000 C 
BRANCH  29  30
ATOM     30  C   UNL     1     -15.013   6.102 -20.884  1.00  0.00    -0.000 C 
BRANCH  30  31
ATOM     31  C   UNL     1     -13.498   6.005 -21.118  1.00  0.00    -0.003 C 
ATOM     32  C   UNL     1     -13.136   6.372 -22.557  1.00  0.00     0.004 C 
ENDBRANCH  30  31
ENDBRANCH  29  30
ENDBRANCH  28  29
ENDBRANCH  27  28
ENDBRANCH  26  27
ENDBRANCH  25  26
ENDBRANCH  24  25
ENDBRANCH  23  24
ENDBRANCH  22  23
ENDBRANCH  21  22
ENDBRANCH  20  21
ENDBRANCH  19  20
ENDBRANCH  18  19
ENDBRANCH   1  18
TORSDOF 28
ENDMDL
MODEL 7
REMARK VINA RESULT:    26.662      2.620     10.220
REMARK INTER + INTRA:          70.700
REMARK INTER:                  72.379
REMARK INTRA:                  -1.679
REMARK UNBOUND:                 0.397
REMARK SMILES CCCCCCCCCCCCCCCCCCCCCCCCCCCCCC(=O)[O-]
REMARK SMILES IDX 16 1 17 2 18 3 19 4 20 5 21 6 22 7 23 8 24 9 25 10 26 11
REMARK SMILES IDX 27 12 28 13 29 14 30 15 31 16 32 17 15 18 14 19 13 20 12 21
REMARK SMILES IDX 11 22 10 23 9 24 8 25 7 26 6 27 5 28 4 29 3 30 2 31 1 32
REMARK H PARENT
REMARK Flexibility Score: inf
ROOT
ATOM      1  C   UNL     1     -12.556   1.191 -17.077  1.00  0.00     0.000 C 
ENDROOT
BRANCH   1   2
ATOM      2  C   UNL     1     -13.142   1.932 -18.289  1.00  0.00     0.000 C 
BRANCH   2   3
ATOM      3  C   UNL     1     -12.519   3.323 -18.484  1.00  0.00     0.000 C 
BRANCH   3   4
ATOM      4  C   UNL     1     -13.015   4.342 -17.443  1.00  0.00     0.000 C 
BRANCH   4   5
ATOM      5  C   UNL     1     -11.986   4.606 -16.330  1.00  0.00     0.000 C 
BRANCH   5   6
ATOM      6  C   UNL     1     -11.516   6.074 -16.276  1.00  0.00     0.000 C 
BRANCH   6   7
ATOM      7  C   UNL     1     -12.663   7.101 -16.211  1.00  0.00     0.000 C 
BRANCH   7   8
ATOM      8  C   UNL     1     -13.462   7.125 -14.894  1.00  0.00     0.000 C 
BRANCH   8   9
ATOM      9  C   UNL     1     -14.317   8.386 -14.663  1.00  0.00     0.000 C 
BRANCH   9  10
ATOM     10  C   UNL     1     -14.564   9.186 -15.955  1.00  0.00     0.000 C 
BRANCH  10  11
ATOM     11  C   UNL     1     -16.037   9.139 -16.411  1.00  0.00     0.000 C 
BRANCH  11  12
ATOM     12  C   UNL     1     -16.211   8.920 -17.924  1.00  0.00     0.000 C 
BRANCH  12  13
ATOM     13  C   UNL     1     -15.091   8.075 -18.541  1.00  0.00     0.006 C 
BRANCH  13  14
ATOM     14  C   UNL     1     -15.319   7.839 -20.042  1.00  0.00     0.053 C 
BRANCH  14  15
ATOM     15  C   UNL     1     -14.797   6.497 -20.461  1.00  0.00     0.041 C 
ATOM     16  O   UNL     1     -14.069   6.378 -21.487  1.00  0.00    -0.550 OA
ATOM     17  O   UNL     1     -15.100   5.375 -19.701  1.00  0.00    -0.550 OA
ENDBRANCH  14  15
ENDBRANCH  13  14
ENDBRANCH  12  13
ENDBRANCH  11  12
ENDBRANCH  10  11
ENDBRANCH   9  10
ENDBRANCH   8   9
ENDBRANCH   7   8
ENDBRANCH   6   7
ENDBRANCH   5   6
ENDBRANCH   4   5
ENDBRANCH   3   4
ENDBRANCH   2   3
ENDBRANCH   1   2
BRANCH   1  18
ATOM     18  C   UNL     1     -11.291   0.388 -17.433  1.00  0.00     0.000 C 
BRANCH  18  19
ATOM     19  C   UNL     1     -11.610  -1.051 -17.866  1.00  0.00     0.000 C 
BRANCH  19  20
ATOM     20  C   UNL     1     -13.105  -1.389 -17.744  1.00  0.00     0.000 C 
BRANCH  20  21
ATOM     21  C   UNL     1     -13.499  -1.890 -16.342  1.00  0.00     0.000 C 
BRANCH  21  22
ATOM     22  C   UNL     1     -14.465  -3.092 -16.319  1.00  0.00     0.000 C 
BRANCH  22  23
ATOM     23  C   UNL     1     -14.998  -3.413 -14.910  1.00  0.00     0.000 C 
BRANCH  23  24
ATOM     24  C   UNL     1     -14.099  -4.401 -14.153  1.00  0.00    -0.000 C 
BRANCH  24  25
ATOM     25  C   UNL     1     -13.819  -3.951 -12.707  1.00  0.00    -0.000 C 
BRANCH  25  26
ATOM     26  C   UNL     1     -14.987  -4.277 -11.762  1.00  0.00    -0.000 C 
BRANCH  26  27
ATOM     27  C   UNL     1     -14.944  -3.464 -10.445  1.00  0.00    -0.000 C 
BRANCH  27  28
ATOM     28  C   UNL     1     -14.918  -1.942 -10.669  1.00  0.00    -0.000 C 
BRANCH  28  29
ATOM     29  C   UNL     1     -14.094  -1.173  -9.611  1.00  0.00    -0.000 C 
BRANCH  29  30
ATOM     30  C   UNL     1     -13.574   0.197 -10.091  1.00  0.00    -0.000 C 
BRANCH  30  31
ATOM     31  C   UNL     1     -14.484   0.846 -11.145  1.00  0.00    -0.003 C 
ATOM     32  C   UNL     1     -13.674   1.671 -12.144  1.00  0.00     0.004 C 
ENDBRANCH  30  31
ENDBRANCH  29  30
ENDBRANCH  28  29
ENDBRANCH  27  28
ENDBRANCH  26  27
ENDBRANCH  25  26
ENDBRANCH  24  25
ENDBRANCH  23  24
ENDBRANCH  22  23
ENDBRANCH  21  22
ENDBRANCH  20  21
ENDBRANCH  19  20
ENDBRANCH  18  19
ENDBRANCH   1  18
TORSDOF 28
ENDMDL
MODEL 8
REMARK VINA RESULT:    26.677      2.100      9.890
REMARK INTER + INTRA:          70.741
REMARK INTER:                  70.940
REMARK INTRA:                  -0.199
REMARK UNBOUND:                 0.397
REMARK SMILES CCCCCCCCCCCCCCCCCCCCCCCCCCCCCC(=O)[O-]
REMARK SMILES IDX 16 1 17 2 18 3 19 4 20 5 21 6 22 7 23 8 24 9 25 10 26 11
REMARK SMILES IDX 27 12 28 13 29 14 30 15 31 16 32 17 15 18 14 19 13 20 12 21
REMARK SMILES IDX 11 22 10 23 9 24 8 25 7 26 6 27 5 28 4 29 3 30 2 31 1 32
REMARK H PARENT
REMARK Flexibility Score: inf
ROOT
ATOM      1  C   UNL     1     -12.621   0.571 -17.596  1.00  0.00     0.000 C 
ENDROOT
BRANCH   1   2
ATOM      2  C   UNL     1     -11.914   1.669 -16.786  1.00  0.00     0.000 C 
BRANCH   2   3
ATOM      3  C   UNL     1     -12.107   3.065 -17.397  1.00  0.00     0.000 C 
BRANCH   3   4
ATOM      4  C   UNL     1     -13.099   3.062 -18.574  1.00  0.00     0.000 C 
BRANCH   4   5
ATOM      5  C   UNL     1     -14.121   4.210 -18.495  1.00  0.00     0.000 C 
BRANCH   5   6
ATOM      6  C   UNL     1     -14.103   5.122 -19.739  1.00  0.00     0.000 C 
BRANCH   6   7
ATOM      7  C   UNL     1     -15.386   5.954 -19.929  1.00  0.00     0.000 C 
BRANCH   7   8
ATOM      8  C   UNL     1     -15.171   7.430 -20.318  1.00  0.00     0.000 C 
BRANCH   8   9
ATOM      9  C   UNL     1     -14.975   8.402 -19.138  1.00  0.00     0.000 C 
BRANCH   9  10
ATOM     10  C   UNL     1     -13.493   8.620 -18.784  1.00  0.00     0.000 C 
BRANCH  10  11
ATOM     11  C   UNL     1     -13.293   9.106 -17.333  1.00  0.00     0.000 C 
BRANCH  11  12
ATOM     12  C   UNL     1     -12.315   8.242 -16.518  1.00  0.00     0.000 C 
BRANCH  12  13
ATOM     13  C   UNL     1     -12.832   6.819 -16.273  1.00  0.00     0.006 C 
BRANCH  13  14
ATOM     14  C   UNL     1     -13.788   6.762 -15.072  1.00  0.00     0.053 C 
BRANCH  14  15
ATOM     15  C   UNL     1     -14.261   8.134 -14.694  1.00  0.00     0.041 C 
ATOM     16  O   UNL     1     -13.952   8.640 -13.579  1.00  0.00    -0.550 OA
ATOM     17  O   UNL     1     -15.031   8.865 -15.590  1.00  0.00    -0.550 OA
ENDBRANCH  14  15
ENDBRANCH  13  14
ENDBRANCH  12  13
ENDBRANCH  11  12
ENDBRANCH  10  11
ENDBRANCH   9  10
ENDBRANCH   8   9
ENDBRANCH   7   8
ENDBRANCH   6   7
ENDBRANCH   5   6
ENDBRANCH   4   5
ENDBRANCH   3   4
ENDBRANCH   2   3
ENDBRANCH   1   2
BRANCH   1  18
ATOM     18  C   UNL     1     -11.709  -0.640 -17.868  1.00  0.00     0.000 C 
BRANCH  18  19
ATOM     19  C   UNL     1     -12.335  -1.964 -17.404  1.00  0.00     0.000 C 
BRANCH  19  20
ATOM     20  C   UNL     1     -13.798  -1.804 -16.956  1.00  0.00     0.000 C 
BRANCH  20  21
ATOM     21  C   UNL     1     -14.050  -2.314 -15.525  1.00  0.00     0.000 C 
BRANCH  21  22
ATOM     22  C   UNL     1     -14.740  -3.690 -15.428  1.00  0.00     0.000 C 
BRANCH  22  23
ATOM     23  C   UNL     1     -14.099  -4.617 -14.378  1.00  0.00     0.000 C 
BRANCH  23  24
ATOM     24  C   UNL     1     -13.831  -3.899 -13.047  1.00  0.00    -0.000 C 
BRANCH  24  25
ATOM     25  C   UNL     1     -14.873  -4.252 -11.969  1.00  0.00    -0.000 C 
BRANCH  25  26
ATOM     26  C   UNL     1     -15.373  -3.008 -11.216  1.00  0.00    -0.000 C 
BRANCH  26  27
ATOM     27  C   UNL     1     -14.531  -2.682  -9.960  1.00  0.00    -0.000 C 
BRANCH  27  28
ATOM     28  C   UNL     1     -13.772  -1.347 -10.064  1.00  0.00    -0.000 C 
BRANCH  28  29
ATOM     29  C   UNL     1     -14.697  -0.109 -10.090  1.00  0.00    -0.000 C 
BRANCH  29  30
ATOM     30  C   UNL     1     -14.791   0.577 -11.469  1.00  0.00    -0.000 C 
BRANCH  30  31
ATOM     31  C   UNL     1     -13.638   1.560 -11.727  1.00  0.00    -0.003 C 
ATOM     32  C   UNL     1     -12.710   1.655 -10.516  1.00  0.00     0.004 C 
ENDBRANCH  30  31
ENDBRANCH  29  30
ENDBRANCH  28  29
ENDBRANCH  27  28
ENDBRANCH  26  27
ENDBRANCH  25  26
ENDBRANCH  24  25
ENDBRANCH  23  24
ENDBRANCH  22  23
ENDBRANCH  21  22
ENDBRANCH  20  21
ENDBRANCH  19  20
ENDBRANCH  18  19
ENDBRANCH   1  18
TORSDOF 28
ENDMDL
MODEL 9
REMARK VINA RESULT:    27.750      1.734      3.300
REMARK INTER + INTRA:          73.570
REMARK INTER:                  73.618
REMARK INTRA:                  -0.048
REMARK UNBOUND:                 0.397
REMARK SMILES CCCCCCCCCCCCCCCCCCCCCCCCCCCCCC(=O)[O-]
REMARK SMILES IDX 16 1 17 2 18 3 19 4 20 5 21 6 22 7 23 8 24 9 25 10 26 11
REMARK SMILES IDX 27 12 28 13 29 14 30 15 31 16 32 17 15 18 14 19 13 20 12 21
REMARK SMILES IDX 11 22 10 23 9 24 8 25 7 26 6 27 5 28 4 29 3 30 2 31 1 32
REMARK H PARENT
REMARK Flexibility Score: inf
ROOT
ATOM      1  C   UNL     1      -7.938  -1.625 -18.001  1.00  0.00     0.000 C 
ENDROOT
BRANCH   1   2
ATOM      2  C   UNL     1      -9.269  -2.344 -17.736  1.00  0.00     0.000 C 
BRANCH   2   3
ATOM      3  C   UNL     1     -10.467  -1.608 -18.356  1.00  0.00     0.000 C 
BRANCH   3   4
ATOM      4  C   UNL     1     -11.810  -2.055 -17.753  1.00  0.00     0.000 C 
BRANCH   4   5
ATOM      5  C   UNL     1     -12.847  -0.919 -17.700  1.00  0.00     0.000 C 
BRANCH   5   6
ATOM      6  C   UNL     1     -13.953  -1.157 -16.651  1.00  0.00     0.000 C 
BRANCH   6   7
ATOM      7  C   UNL     1     -13.662  -2.319 -15.681  1.00  0.00     0.000 C 
BRANCH   7   8
ATOM      8  C   UNL     1     -14.701  -3.456 -15.674  1.00  0.00     0.000 C 
BRANCH   8   9
ATOM      9  C   UNL     1     -14.430  -4.592 -14.668  1.00  0.00     0.000 C 
BRANCH   9  10
ATOM     10  C   UNL     1     -13.967  -4.075 -13.294  1.00  0.00     0.000 C 
BRANCH  10  11
ATOM     11  C   UNL     1     -15.146  -3.741 -12.356  1.00  0.00     0.000 C 
BRANCH  11  12
ATOM     12  C   UNL     1     -14.714  -3.328 -10.938  1.00  0.00     0.000 C 
BRANCH  12  13
ATOM     13  C   UNL     1     -14.986  -1.851 -10.634  1.00  0.00     0.006 C 
BRANCH  13  14
ATOM     14  C   UNL     1     -13.716  -1.125 -10.164  1.00  0.00     0.053 C 
BRANCH  14  15
ATOM     15  C   UNL     1     -13.857   0.361 -10.315  1.00  0.00     0.041 C 
ATOM     16  O   UNL     1     -13.278   1.149  -9.517  1.00  0.00    -0.550 OA
ATOM     17  O   UNL     1     -14.617   0.875 -11.358  1.00  0.00    -0.550 OA
ENDBRANCH  14  15
ENDBRANCH  13  14
ENDBRANCH  12  13
ENDBRANCH  11  12
ENDBRANCH  10  11
ENDBRANCH   9  10
ENDBRANCH   8   9
ENDBRANCH   7   8
ENDBRANCH   6   7
ENDBRANCH   5   6
ENDBRANCH   4   5
ENDBRANCH   3   4
ENDBRANCH   2   3
ENDBRANCH   1   2
BRANCH   1  18
ATOM     18  C   UNL     1      -7.315  -1.047 -16.716  1.00  0.00     0.000 C 
BRANCH  18  19
ATOM     19  C   UNL     1      -7.934   0.302 -16.317  1.00  0.00     0.000 C 
BRANCH  19  20
ATOM     20  C   UNL     1      -9.465   0.239 -16.193  1.00  0.00     0.000 C 
BRANCH  20  21
ATOM     21  C   UNL     1     -10.169   1.480 -16.773  1.00  0.00     0.000 C 
BRANCH  21  22
ATOM     22  C   UNL     1     -11.710   1.436 -16.744  1.00  0.00     0.000 C 
BRANCH  22  23
ATOM     23  C   UNL     1     -12.355   1.944 -18.048  1.00  0.00     0.000 C 
BRANCH  23  24
ATOM     24  C   UNL     1     -12.951   3.351 -17.899  1.00  0.00    -0.000 C 
BRANCH  24  25
ATOM     25  C   UNL     1     -14.269   3.517 -18.679  1.00  0.00    -0.000 C 
BRANCH  25  26
ATOM     26  C   UNL     1     -14.794   4.961 -18.630  1.00  0.00    -0.000 C 
BRANCH  26  27
ATOM     27  C   UNL     1     -14.428   5.781 -19.890  1.00  0.00    -0.000 C 
BRANCH  27  28
ATOM     28  C   UNL     1     -15.374   6.969 -20.140  1.00  0.00    -0.000 C 
BRANCH  28  29
ATOM     29  C   UNL     1     -15.323   8.046 -19.032  1.00  0.00    -0.000 C 
BRANCH  29  30
ATOM     30  C   UNL     1     -13.907   8.322 -18.488  1.00  0.00    -0.000 C 
BRANCH  30  31
ATOM     31  C   UNL     1     -13.879   8.518 -16.964  1.00  0.00    -0.003 C 
ATOM     32  C   UNL     1     -12.948   7.508 -16.292  1.00  0.00     0.004 C 
ENDBRANCH  30  31
ENDBRANCH  29  30
ENDBRANCH  28  29
ENDBRANCH  27  28
ENDBRANCH  26  27
ENDBRANCH  25  26
ENDBRANCH  24  25
ENDBRANCH  23  24
ENDBRANCH  22  23
ENDBRANCH  21  22
ENDBRANCH  20  21
ENDBRANCH  19  20
ENDBRANCH  18  19
ENDBRANCH   1  18
TORSDOF 28
ENDMDL
