MODEL 1
REMARK VINA RESULT:    -3.538      0.000      0.000
REMARK INTER + INTRA:          -9.015
REMARK INTER:                  -6.434
REMARK INTRA:                  -2.581
REMARK UNBOUND:                -2.581
REMARK SMILES CCCCCCCCCCCCCCCC(=O)[O-]
REMARK SMILES IDX 9 1 10 2 11 3 12 4 13 5 14 6 15 7 16 8 17 9 18 10 8 11 7 12
REMARK SMILES IDX 6 13 5 14 4 15 3 16 2 17 1 18
REMARK H PARENT
REMARK Flexibility Score: inf
ROOT
ATOM      1  C   UNL     1      31.230  35.748  21.093  1.00  0.00     0.000 C 
ENDROOT
BRANCH   1   2
ATOM      2  C   UNL     1      32.517  35.492  21.892  1.00  0.00     0.000 C 
BRANCH   2   3
ATOM      3  C   UNL     1      32.326  34.448  23.003  1.00  0.00     0.000 C 
BRANCH   3   4
ATOM      4  C   UNL     1      32.755  33.037  22.569  1.00  0.00     0.000 C 
BRANCH   4   5
ATOM      5  C   UNL     1      33.999  33.046  21.663  1.00  0.00     0.000 C 
BRANCH   5   6
ATOM      6  C   UNL     1      33.811  32.259  20.347  1.00  0.00     0.006 C 
BRANCH   6   7
ATOM      7  C   UNL     1      34.286  33.028  19.104  1.00  0.00     0.053 C 
BRANCH   7   8
ATOM      8  C   UNL     1      33.800  32.392  17.837  1.00  0.00     0.041 C 
ATOM      9  O   UNL     1      33.163  33.071  16.990  1.00  0.00    -0.550 OA
ATOM     10  O   UNL     1      34.069  31.053  17.582  1.00  0.00    -0.550 OA
ENDBRANCH   7   8
ENDBRANCH   6   7
ENDBRANCH   5   6
ENDBRANCH   4   5
ENDBRANCH   3   4
ENDBRANCH   2   3
ENDBRANCH   1   2
BRANCH   1  11
ATOM     11  C   UNL     1      31.327  35.145  19.687  1.00  0.00     0.000 C 
BRANCH  11  12
ATOM     12  C   UNL     1      30.502  33.854  19.583  1.00  0.00    -0.000 C 
BRANCH  12  13
ATOM     13  C   UNL     1      29.103  33.991  20.208  1.00  0.00    -0.000 C 
BRANCH  13  14
ATOM     14  C   UNL     1      28.646  32.707  20.923  1.00  0.00    -0.000 C 
BRANCH  14  15
ATOM     15  C   UNL     1      29.150  32.628  22.373  1.00  0.00    -0.000 C 
BRANCH  15  16
ATOM     16  C   UNL     1      28.227  33.360  23.361  1.00  0.00    -0.000 C 
BRANCH  16  17
ATOM     17  C   UNL     1      28.863  34.641  23.923  1.00  0.00    -0.003 C 
ATOM     18  C   UNL     1      28.196  35.914  23.401  1.00  0.00     0.004 C 
ENDBRANCH  16  17
ENDBRANCH  15  16
ENDBRANCH  14  15
ENDBRANCH  13  14
ENDBRANCH  12  13
ENDBRANCH  11  12
ENDBRANCH   1  11
TORSDOF 14
ENDMDL
MODEL 2
REMARK VINA RESULT:    -3.493      1.807      3.192
REMARK INTER + INTRA:          -8.933
REMARK INTER:                  -6.948
REMARK INTRA:                  -1.985
REMARK UNBOUND:                -2.581
REMARK SMILES CCCCCCCCCCCCCCCC(=O)[O-]
REMARK SMILES IDX 9 1 10 2 11 3 12 4 13 5 14 6 15 7 16 8 17 9 18 10 8 11 7 12
REMARK SMILES IDX 6 13 5 14 4 15 3 16 2 17 1 18
REMARK H PARENT
REMARK Flexibility Score: inf
ROOT
ATOM      1  C   UNL     1      31.636  33.094  22.985  1.00  0.00     0.000 C 
ENDROOT
BRANCH   1   2
ATOM      2  C   UNL     1      32.562  33.390  21.795  1.00  0.00     0.000 C 
BRANCH   2   3
ATOM      3  C   UNL     1      32.405  34.824  21.267  1.00  0.00     0.000 C 
BRANCH   3   4
ATOM      4  C   UNL     1      31.871  34.869  19.826  1.00  0.00     0.000 C 
BRANCH   4   5
ATOM      5  C   UNL     1      31.624  33.468  19.239  1.00  0.00     0.000 C 
BRANCH   5   6
ATOM      6  C   UNL     1      32.597  33.095  18.098  1.00  0.00     0.006 C 
BRANCH   6   7
ATOM      7  C   UNL     1      33.501  31.899  18.436  1.00  0.00     0.053 C 
BRANCH   7   8
ATOM      8  C   UNL     1      34.882  32.336  18.819  1.00  0.00     0.041 C 
ATOM      9  O   UNL     1      35.548  33.078  18.050  1.00  0.00    -0.550 OA
ATOM     10  O   UNL     1      35.426  31.943  20.035  1.00  0.00    -0.550 OA
ENDBRANCH   7   8
ENDBRANCH   6   7
ENDBRANCH   5   6
ENDBRANCH   4   5
ENDBRANCH   3   4
ENDBRANCH   2   3
ENDBRANCH   1   2
BRANCH   1  11
ATOM     11  C   UNL     1      30.817  34.332  23.366  1.00  0.00     0.000 C 
BRANCH  11  12
ATOM     12  C   UNL     1      29.312  34.061  23.223  1.00  0.00    -0.000 C 
BRANCH  12  13
ATOM     13  C   UNL     1      29.012  32.711  22.550  1.00  0.00    -0.000 C 
BRANCH  13  14
ATOM     14  C   UNL     1      28.526  32.869  21.098  1.00  0.00    -0.000 C 
BRANCH  14  15
ATOM     15  C   UNL     1      28.262  34.336  20.720  1.00  0.00    -0.000 C 
BRANCH  15  16
ATOM     16  C   UNL     1      26.849  34.555  20.153  1.00  0.00    -0.000 C 
BRANCH  16  17
ATOM     17  C   UNL     1      25.920  33.358  20.408  1.00  0.00    -0.003 C 
ATOM     18  C   UNL     1      24.912  33.139  19.280  1.00  0.00     0.004 C 
ENDBRANCH  16  17
ENDBRANCH  15  16
ENDBRANCH  14  15
ENDBRANCH  13  14
ENDBRANCH  12  13
ENDBRANCH  11  12
ENDBRANCH   1  11
TORSDOF 14
ENDMDL
MODEL 3
REMARK VINA RESULT:    -3.411      1.805      4.524
REMARK INTER + INTRA:          -8.783
REMARK INTER:                  -7.005
REMARK INTRA:                  -1.778
REMARK UNBOUND:                -2.581
REMARK SMILES CCCCCCCCCCCCCCCC(=O)[O-]
REMARK SMILES IDX 9 1 10 2 11 3 12 4 13 5 14 6 15 7 16 8 17 9 18 10 8 11 7 12
REMARK SMILES IDX 6 13 5 14 4 15 3 16 2 17 1 18
REMARK H PARENT
REMARK Flexibility Score: inf
ROOT
ATOM      1  C   UNL     1      28.893  33.005  20.578  1.00  0.00     0.000 C 
ENDROOT
BRANCH   1   2
ATOM      2  C   UNL     1      29.698  34.192  20.027  1.00  0.00     0.000 C 
BRANCH   2   3
ATOM      3  C   UNL     1      30.910  33.749  19.193  1.00  0.00     0.000 C 
BRANCH   3   4
ATOM      4  C   UNL     1      31.889  34.900  18.913  1.00  0.00     0.000 C 
BRANCH   4   5
ATOM      5  C   UNL     1      32.254  35.022  17.423  1.00  0.00     0.000 C 
BRANCH   5   6
ATOM      6  C   UNL     1      32.611  33.672  16.762  1.00  0.00     0.006 C 
BRANCH   6   7
ATOM      7  C   UNL     1      32.449  33.681  15.233  1.00  0.00     0.053 C 
BRANCH   7   8
ATOM      8  C   UNL     1      33.350  32.682  14.574  1.00  0.00     0.041 C 
ATOM      9  O   UNL     1      33.582  32.757  13.338  1.00  0.00    -0.550 OA
ATOM     10  O   UNL     1      33.950  31.680  15.326  1.00  0.00    -0.550 OA
ENDBRANCH   7   8
ENDBRANCH   6   7
ENDBRANCH   5   6
ENDBRANCH   4   5
ENDBRANCH   3   4
ENDBRANCH   2   3
ENDBRANCH   1   2
BRANCH   1  11
ATOM     11  C   UNL     1      28.495  33.241  22.040  1.00  0.00     0.000 C 
BRANCH  11  12
ATOM     12  C   UNL     1      29.666  32.932  22.985  1.00  0.00    -0.000 C 
BRANCH  12  13
ATOM     13  C   UNL     1      30.332  34.202  23.541  1.00  0.00    -0.000 C 
BRANCH  13  14
ATOM     14  C   UNL     1      31.802  34.338  23.106  1.00  0.00    -0.000 C 
BRANCH  14  15
ATOM     15  C   UNL     1      32.387  33.016  22.583  1.00  0.00    -0.000 C 
BRANCH  15  16
ATOM     16  C   UNL     1      33.695  33.217  21.799  1.00  0.00    -0.000 C 
BRANCH  16  17
ATOM     17  C   UNL     1      33.843  32.224  20.635  1.00  0.00    -0.003 C 
ATOM     18  C   UNL     1      35.106  32.464  19.807  1.00  0.00     0.004 C 
ENDBRANCH  16  17
ENDBRANCH  15  16
ENDBRANCH  14  15
ENDBRANCH  13  14
ENDBRANCH  12  13
ENDBRANCH  11  12
ENDBRANCH   1  11
TORSDOF 14
ENDMDL
MODEL 4
REMARK VINA RESULT:    -3.364      2.071      3.748
REMARK INTER + INTRA:          -8.698
REMARK INTER:                  -7.259
REMARK INTRA:                  -1.440
REMARK UNBOUND:                -2.581
REMARK SMILES CCCCCCCCCCCCCCCC(=O)[O-]
REMARK SMILES IDX 9 1 10 2 11 3 12 4 13 5 14 6 15 7 16 8 17 9 18 10 8 11 7 12
REMARK SMILES IDX 6 13 5 14 4 15 3 16 2 17 1 18
REMARK H PARENT
REMARK Flexibility Score: inf
ROOT
ATOM      1  C   UNL     1      30.827  34.148  19.405  1.00  0.00     0.000 C 
ENDROOT
BRANCH   1   2
ATOM      2  C   UNL     1      31.632  33.400  18.331  1.00  0.00     0.000 C 
BRANCH   2   3
ATOM      3  C   UNL     1      32.815  32.614  18.919  1.00  0.00     0.000 C 
BRANCH   3   4
ATOM      4  C   UNL     1      34.055  32.644  18.011  1.00  0.00     0.000 C 
BRANCH   4   5
ATOM      5  C   UNL     1      34.383  31.268  17.406  1.00  0.00     0.000 C 
BRANCH   5   6
ATOM      6  C   UNL     1      34.216  31.213  15.870  1.00  0.00     0.006 C 
BRANCH   6   7
ATOM      7  C   UNL     1      33.665  32.516  15.270  1.00  0.00     0.053 C 
BRANCH   7   8
ATOM      8  C   UNL     1      34.112  32.707  13.853  1.00  0.00     0.041 C 
ATOM      9  O   UNL     1      33.268  32.719  12.919  1.00  0.00    -0.550 OA
ATOM     10  O   UNL     1      35.458  32.893  13.565  1.00  0.00    -0.550 OA
ENDBRANCH   7   8
ENDBRANCH   6   7
ENDBRANCH   5   6
ENDBRANCH   4   5
ENDBRANCH   3   4
ENDBRANCH   2   3
ENDBRANCH   1   2
BRANCH   1  11
ATOM     11  C   UNL     1      29.688  33.275  19.945  1.00  0.00     0.000 C 
BRANCH  11  12
ATOM     12  C   UNL     1      28.555  34.141  20.516  1.00  0.00    -0.000 C 
BRANCH  12  13
ATOM     13  C   UNL     1      27.837  33.475  21.701  1.00  0.00    -0.000 C 
BRANCH  13  14
ATOM     14  C   UNL     1      28.808  33.045  22.815  1.00  0.00    -0.000 C 
BRANCH  14  15
ATOM     15  C   UNL     1      29.430  34.243  23.551  1.00  0.00    -0.000 C 
BRANCH  15  16
ATOM     16  C   UNL     1      30.952  34.335  23.351  1.00  0.00    -0.000 C 
BRANCH  16  17
ATOM     17  C   UNL     1      31.573  32.994  22.930  1.00  0.00    -0.003 C 
ATOM     18  C   UNL     1      33.028  33.128  22.482  1.00  0.00     0.004 C 
ENDBRANCH  16  17
ENDBRANCH  15  16
ENDBRANCH  14  15
ENDBRANCH  13  14
ENDBRANCH  12  13
ENDBRANCH  11  12
ENDBRANCH   1  11
TORSDOF 14
ENDMDL
MODEL 5
REMARK VINA RESULT:    -3.329      1.574      3.828
REMARK INTER + INTRA:          -8.634
REMARK INTER:                  -6.339
REMARK INTRA:                  -2.295
REMARK UNBOUND:                -2.581
REMARK SMILES CCCCCCCCCCCCCCCC(=O)[O-]
REMARK SMILES IDX 9 1 10 2 11 3 12 4 13 5 14 6 15 7 16 8 17 9 18 10 8 11 7 12
REMARK SMILES IDX 6 13 5 14 4 15 3 16 2 17 1 18
REMARK H PARENT
REMARK Flexibility Score: inf
ROOT
ATOM      1  C   UNL     1      28.229  33.123  20.552  1.00  0.00     0.000 C 
ENDROOT
BRANCH   1   2
ATOM      2  C   UNL     1      29.718  33.191  20.182  1.00  0.00     0.000 C 
BRANCH   2   3
ATOM      3  C   UNL     1      30.217  34.633  19.998  1.00  0.00     0.000 C 
BRANCH   3   4
ATOM      4  C   UNL     1      31.538  34.706  19.217  1.00  0.00     0.000 C 
BRANCH   4   5
ATOM      5  C   UNL     1      31.782  33.464  18.341  1.00  0.00     0.000 C 
BRANCH   5   6
ATOM      6  C   UNL     1      33.021  32.644  18.765  1.00  0.00     0.006 C 
BRANCH   6   7
ATOM      7  C   UNL     1      34.340  33.422  18.637  1.00  0.00     0.053 C 
BRANCH   7   8
ATOM      8  C   UNL     1      35.372  32.929  19.605  1.00  0.00     0.041 C 
ATOM      9  O   UNL     1      36.063  33.748  20.267  1.00  0.00    -0.550 OA
ATOM     10  O   UNL     1      35.558  31.565  19.792  1.00  0.00    -0.550 OA
ENDBRANCH   7   8
ENDBRANCH   6   7
ENDBRANCH   5   6
ENDBRANCH   4   5
ENDBRANCH   3   4
ENDBRANCH   2   3
ENDBRANCH   1   2
BRANCH   1  11
ATOM     11  C   UNL     1      27.888  34.138  21.650  1.00  0.00     0.000 C 
BRANCH  11  12
ATOM     12  C   UNL     1      28.235  33.582  23.040  1.00  0.00    -0.000 C 
BRANCH  12  13
ATOM     13  C   UNL     1      28.571  34.686  24.055  1.00  0.00    -0.000 C 
BRANCH  13  14
ATOM     14  C   UNL     1      29.831  35.481  23.668  1.00  0.00    -0.000 C 
BRANCH  14  15
ATOM     15  C   UNL     1      31.098  34.610  23.656  1.00  0.00    -0.000 C 
BRANCH  15  16
ATOM     16  C   UNL     1      32.316  35.346  23.071  1.00  0.00    -0.000 C 
BRANCH  16  17
ATOM     17  C   UNL     1      33.328  34.388  22.423  1.00  0.00    -0.003 C 
ATOM     18  C   UNL     1      32.838  32.940  22.392  1.00  0.00     0.004 C 
ENDBRANCH  16  17
ENDBRANCH  15  16
ENDBRANCH  14  15
ENDBRANCH  13  14
ENDBRANCH  12  13
ENDBRANCH  11  12
ENDBRANCH   1  11
TORSDOF 14
ENDMDL
MODEL 6
REMARK VINA RESULT:    -3.320      4.735      6.953
REMARK INTER + INTRA:          -8.619
REMARK INTER:                  -6.785
REMARK INTRA:                  -1.834
REMARK UNBOUND:                -2.581
REMARK SMILES CCCCCCCCCCCCCCCC(=O)[O-]
REMARK SMILES IDX 9 1 10 2 11 3 12 4 13 5 14 6 15 7 16 8 17 9 18 10 8 11 7 12
REMARK SMILES IDX 6 13 5 14 4 15 3 16 2 17 1 18
REMARK H PARENT
REMARK Flexibility Score: inf
ROOT
ATOM      1  C   UNL     1      31.732  35.328  22.550  1.00  0.00     0.000 C 
ENDROOT
BRANCH   1   2
ATOM      2  C   UNL     1      31.514  35.372  24.070  1.00  0.00     0.000 C 
BRANCH   2   3
ATOM      3  C   UNL     1      30.714  36.605  24.518  1.00  0.00     0.000 C 
BRANCH   3   4
ATOM      4  C   UNL     1      29.466  36.846  23.655  1.00  0.00     0.000 C 
BRANCH   4   5
ATOM      5  C   UNL     1      28.160  36.796  24.468  1.00  0.00     0.000 C 
BRANCH   5   6
ATOM      6  C   UNL     1      28.171  35.733  25.590  1.00  0.00     0.006 C 
BRANCH   6   7
ATOM      7  C   UNL     1      27.644  36.261  26.934  1.00  0.00     0.053 C 
BRANCH   7   8
ATOM      8  C   UNL     1      28.741  36.847  27.769  1.00  0.00     0.041 C 
ATOM      9  O   UNL     1      29.668  36.114  28.204  1.00  0.00    -0.550 OA
ATOM     10  O   UNL     1      28.753  38.208  28.050  1.00  0.00    -0.550 OA
ENDBRANCH   7   8
ENDBRANCH   6   7
ENDBRANCH   5   6
ENDBRANCH   4   5
ENDBRANCH   3   4
ENDBRANCH   2   3
ENDBRANCH   1   2
BRANCH   1  11
ATOM     11  C   UNL     1      31.357  33.956  21.980  1.00  0.00     0.000 C 
BRANCH  11  12
ATOM     12  C   UNL     1      30.789  33.041  23.075  1.00  0.00    -0.000 C 
BRANCH  12  13
ATOM     13  C   UNL     1      29.455  32.391  22.673  1.00  0.00    -0.000 C 
BRANCH  13  14
ATOM     14  C   UNL     1      28.247  33.308  22.937  1.00  0.00    -0.000 C 
BRANCH  14  15
ATOM     15  C   UNL     1      27.865  34.149  21.708  1.00  0.00    -0.000 C 
BRANCH  15  16
ATOM     16  C   UNL     1      27.337  33.292  20.546  1.00  0.00    -0.000 C 
BRANCH  16  17
ATOM     17  C   UNL     1      25.975  33.780  20.026  1.00  0.00    -0.003 C 
ATOM     18  C   UNL     1      24.883  32.715  20.133  1.00  0.00     0.004 C 
ENDBRANCH  16  17
ENDBRANCH  15  16
ENDBRANCH  14  15
ENDBRANCH  13  14
ENDBRANCH  12  13
ENDBRANCH  11  12
ENDBRANCH   1  11
TORSDOF 14
ENDMDL
MODEL 7
REMARK VINA RESULT:    -3.296      1.020      2.877
REMARK INTER + INTRA:          -8.575
REMARK INTER:                  -6.073
REMARK INTRA:                  -2.501
REMARK UNBOUND:                -2.581
REMARK SMILES CCCCCCCCCCCCCCCC(=O)[O-]
REMARK SMILES IDX 9 1 10 2 11 3 12 4 13 5 14 6 15 7 16 8 17 9 18 10 8 11 7 12
REMARK SMILES IDX 6 13 5 14 4 15 3 16 2 17 1 18
REMARK H PARENT
REMARK Flexibility Score: inf
ROOT
ATOM      1  C   UNL     1      30.374  35.047  23.902  1.00  0.00     0.000 C 
ENDROOT
BRANCH   1   2
ATOM      2  C   UNL     1      31.544  34.213  23.360  1.00  0.00     0.000 C 
BRANCH   2   3
ATOM      3  C   UNL     1      32.702  35.082  22.843  1.00  0.00     0.000 C 
BRANCH   3   4
ATOM      4  C   UNL     1      33.788  34.258  22.133  1.00  0.00     0.000 C 
BRANCH   4   5
ATOM      5  C   UNL     1      33.368  32.797  21.897  1.00  0.00     0.000 C 
BRANCH   5   6
ATOM      6  C   UNL     1      34.044  32.152  20.665  1.00  0.00     0.006 C 
BRANCH   6   7
ATOM      7  C   UNL     1      34.706  33.174  19.728  1.00  0.00     0.053 C 
BRANCH   7   8
ATOM      8  C   UNL     1      34.394  32.892  18.290  1.00  0.00     0.041 C 
ATOM      9  O   UNL     1      34.466  33.813  17.434  1.00  0.00    -0.550 OA
ATOM     10  O   UNL     1      34.045  31.608  17.890  1.00  0.00    -0.550 OA
ENDBRANCH   7   8
ENDBRANCH   6   7
ENDBRANCH   5   6
ENDBRANCH   4   5
ENDBRANCH   3   4
ENDBRANCH   2   3
ENDBRANCH   1   2
BRANCH   1  11
ATOM     11  C   UNL     1      29.048  34.292  23.761  1.00  0.00     0.000 C 
BRANCH  11  12
ATOM     12  C   UNL     1      29.260  32.929  23.085  1.00  0.00    -0.000 C 
BRANCH  12  13
ATOM     13  C   UNL     1      28.410  32.757  21.815  1.00  0.00    -0.000 C 
BRANCH  13  14
ATOM     14  C   UNL     1      27.847  34.092  21.295  1.00  0.00    -0.000 C 
BRANCH  14  15
ATOM     15  C   UNL     1      28.557  34.575  20.020  1.00  0.00    -0.000 C 
BRANCH  15  16
ATOM     16  C   UNL     1      29.903  35.259  20.315  1.00  0.00    -0.000 C 
BRANCH  16  17
ATOM     17  C   UNL     1      31.056  34.671  19.487  1.00  0.00    -0.003 C 
ATOM     18  C   UNL     1      30.848  33.196  19.143  1.00  0.00     0.004 C 
ENDBRANCH  16  17
ENDBRANCH  15  16
ENDBRANCH  14  15
ENDBRANCH  13  14
ENDBRANCH  12  13
ENDBRANCH  11  12
ENDBRANCH   1  11
TORSDOF 14
ENDMDL
MODEL 8
REMARK VINA RESULT:    -3.291      1.294      3.049
REMARK INTER + INTRA:          -8.566
REMARK INTER:                  -6.680
REMARK INTRA:                  -1.886
REMARK UNBOUND:                -2.581
REMARK SMILES CCCCCCCCCCCCCCCC(=O)[O-]
REMARK SMILES IDX 9 1 10 2 11 3 12 4 13 5 14 6 15 7 16 8 17 9 18 10 8 11 7 12
REMARK SMILES IDX 6 13 5 14 4 15 3 16 2 17 1 18
REMARK H PARENT
REMARK Flexibility Score: inf
ROOT
ATOM      1  C   UNL     1      32.153  34.479  22.921  1.00  0.00     0.000 C 
ENDROOT
BRANCH   1   2
ATOM      2  C   UNL     1      32.701  33.081  22.597  1.00  0.00     0.000 C 
BRANCH   2   3
ATOM      3  C   UNL     1      34.038  33.131  21.840  1.00  0.00     0.000 C 
BRANCH   3   4
ATOM      4  C   UNL     1      33.999  32.344  20.520  1.00  0.00     0.000 C 
BRANCH   4   5
ATOM      5  C   UNL     1      35.224  32.616  19.629  1.00  0.00     0.000 C 
BRANCH   5   6
ATOM      6  C   UNL     1      34.878  33.337  18.307  1.00  0.00     0.006 C 
BRANCH   6   7
ATOM      7  C   UNL     1      35.433  32.627  17.062  1.00  0.00     0.053 C 
BRANCH   7   8
ATOM      8  C   UNL     1      34.419  31.711  16.447  1.00  0.00     0.041 C 
ATOM      9  O   UNL     1      34.015  30.699  17.076  1.00  0.00    -0.550 OA
ATOM     10  O   UNL     1      33.904  31.987  15.186  1.00  0.00    -0.550 OA
ENDBRANCH   7   8
ENDBRANCH   6   7
ENDBRANCH   5   6
ENDBRANCH   4   5
ENDBRANCH   3   4
ENDBRANCH   2   3
ENDBRANCH   1   2
BRANCH   1  11
ATOM     11  C   UNL     1      30.716  34.397  23.449  1.00  0.00     0.000 C 
BRANCH  11  12
ATOM     12  C   UNL     1      30.125  32.997  23.222  1.00  0.00    -0.000 C 
BRANCH  12  13
ATOM     13  C   UNL     1      28.660  33.039  22.758  1.00  0.00    -0.000 C 
BRANCH  13  14
ATOM     14  C   UNL     1      28.502  32.704  21.264  1.00  0.00    -0.000 C 
BRANCH  14  15
ATOM     15  C   UNL     1      28.098  33.926  20.424  1.00  0.00    -0.000 C 
BRANCH  15  16
ATOM     16  C   UNL     1      29.287  34.852  20.116  1.00  0.00    -0.000 C 
BRANCH  16  17
ATOM     17  C   UNL     1      30.521  34.081  19.623  1.00  0.00    -0.003 C 
ATOM     18  C   UNL     1      31.684  34.999  19.249  1.00  0.00     0.004 C 
ENDBRANCH  16  17
ENDBRANCH  15  16
ENDBRANCH  14  15
ENDBRANCH  13  14
ENDBRANCH  12  13
ENDBRANCH  11  12
ENDBRANCH   1  11
TORSDOF 14
ENDMDL
MODEL 9
REMARK VINA RESULT:    -3.254      2.760      6.415
REMARK INTER + INTRA:          -8.498
REMARK INTER:                  -7.039
REMARK INTRA:                  -1.459
REMARK UNBOUND:                -2.581
REMARK SMILES CCCCCCCCCCCCCCCC(=O)[O-]
REMARK SMILES IDX 9 1 10 2 11 3 12 4 13 5 14 6 15 7 16 8 17 9 18 10 8 11 7 12
REMARK SMILES IDX 6 13 5 14 4 15 3 16 2 17 1 18
REMARK H PARENT
REMARK Flexibility Score: inf
ROOT
ATOM      1  C   UNL     1      33.028  33.547  19.869  1.00  0.00     0.000 C 
ENDROOT
BRANCH   1   2
ATOM      2  C   UNL     1      33.673  32.684  20.963  1.00  0.00     0.000 C 
BRANCH   2   3
ATOM      3  C   UNL     1      32.919  32.764  22.300  1.00  0.00     0.000 C 
BRANCH   3   4
ATOM      4  C   UNL     1      32.265  34.136  22.529  1.00  0.00     0.000 C 
BRANCH   4   5
ATOM      5  C   UNL     1      30.945  34.042  23.314  1.00  0.00     0.000 C 
BRANCH   5   6
ATOM      6  C   UNL     1      30.099  32.800  22.954  1.00  0.00     0.006 C 
BRANCH   6   7
ATOM      7  C   UNL     1      28.646  33.139  22.584  1.00  0.00     0.053 C 
BRANCH   7   8
ATOM      8  C   UNL     1      28.440  33.156  21.101  1.00  0.00     0.041 C 
ATOM      9  O   UNL     1      29.430  33.125  20.323  1.00  0.00    -0.550 OA
ATOM     10  O   UNL     1      27.155  33.184  20.574  1.00  0.00    -0.550 OA
ENDBRANCH   7   8
ENDBRANCH   6   7
ENDBRANCH   5   6
ENDBRANCH   4   5
ENDBRANCH   3   4
ENDBRANCH   2   3
ENDBRANCH   1   2
BRANCH   1  11
ATOM     11  C   UNL     1      32.804  32.735  18.588  1.00  0.00     0.000 C 
BRANCH  11  12
ATOM     12  C   UNL     1      33.841  31.608  18.462  1.00  0.00    -0.000 C 
BRANCH  12  13
ATOM     13  C   UNL     1      34.257  31.344  17.006  1.00  0.00    -0.000 C 
BRANCH  13  14
ATOM     14  C   UNL     1      35.257  32.388  16.478  1.00  0.00    -0.000 C 
BRANCH  14  15
ATOM     15  C   UNL     1      34.808  33.015  15.147  1.00  0.00    -0.000 C 
BRANCH  15  16
ATOM     16  C   UNL     1      33.500  32.403  14.617  1.00  0.00    -0.000 C 
BRANCH  16  17
ATOM     17  C   UNL     1      32.417  33.461  14.358  1.00  0.00    -0.003 C 
ATOM     18  C   UNL     1      32.370  34.540  15.441  1.00  0.00     0.004 C 
ENDBRANCH  16  17
ENDBRANCH  15  16
ENDBRANCH  14  15
ENDBRANCH  13  14
ENDBRANCH  12  13
ENDBRANCH  11  12
ENDBRANCH   1  11
TORSDOF 14
ENDMDL
