MODEL 1
REMARK VINA RESULT:    -4.066      0.000      0.000
REMARK INTER + INTRA:         -10.523
REMARK INTER:                  -7.632
REMARK INTRA:                  -2.892
REMARK UNBOUND:                -2.892
REMARK SMILES CCCCCCCCC=CCCCCCCCC(=O)[O-]
REMARK SMILES IDX 10 1 9 2 11 3 12 4 13 5 14 6 15 7 16 8 17 9 18 10 19 11
REMARK SMILES IDX 20 12 8 13 7 14 6 15 5 16 4 17 3 18 2 19 1 20
REMARK H PARENT
REMARK Flexibility Score: inf
ROOT
ATOM      1  C   UNL     1      -6.265  -4.487   8.916  1.00  0.00    -0.031 C 
ATOM      2  C   UNL     1      -7.157  -3.487   8.975  1.00  0.00    -0.031 C 
ENDROOT
BRANCH   1   3
ATOM      3  C   UNL     1      -4.807  -4.257   9.206  1.00  0.00     0.027 C 
BRANCH   3   4
ATOM      4  C   UNL     1      -3.947  -4.512   7.963  1.00  0.00     0.004 C 
BRANCH   4   5
ATOM      5  C   UNL     1      -3.555  -3.195   7.285  1.00  0.00     0.000 C 
BRANCH   5   6
ATOM      6  C   UNL     1      -4.263  -3.039   5.932  1.00  0.00     0.000 C 
BRANCH   6   7
ATOM      7  C   UNL     1      -5.348  -1.948   5.944  1.00  0.00     0.000 C 
BRANCH   7   8
ATOM      8  C   UNL     1      -6.783  -2.447   5.677  1.00  0.00     0.006 C 
BRANCH   8   9
ATOM      9  C   UNL     1      -6.867  -3.728   4.831  1.00  0.00     0.053 C 
BRANCH   9  10
ATOM     10  C   UNL     1      -8.073  -4.549   5.172  1.00  0.00     0.041 C 
ATOM     11  O   UNL     1      -9.226  -4.124   4.900  1.00  0.00    -0.550 OA
ATOM     12  O   UNL     1      -7.921  -5.799   5.758  1.00  0.00    -0.550 OA
ENDBRANCH   9  10
ENDBRANCH   8   9
ENDBRANCH   7   8
ENDBRANCH   6   7
ENDBRANCH   5   6
ENDBRANCH   4   5
ENDBRANCH   3   4
ENDBRANCH   1   3
BRANCH   2  13
ATOM     13  C   UNL     1      -8.626  -3.721   8.742  1.00  0.00     0.027 C 
BRANCH  13  14
ATOM     14  C   UNL     1      -9.444  -2.441   8.974  1.00  0.00     0.004 C 
BRANCH  14  15
ATOM     15  C   UNL     1      -9.129  -1.720  10.300  1.00  0.00     0.000 C 
BRANCH  15  16
ATOM     16  C   UNL     1      -9.071  -0.182  10.207  1.00  0.00     0.000 C 
BRANCH  16  17
ATOM     17  C   UNL     1      -8.749   0.379   8.808  1.00  0.00    -0.000 C 
BRANCH  17  18
ATOM     18  C   UNL     1      -7.307   0.133   8.327  1.00  0.00    -0.000 C 
BRANCH  18  19
ATOM     19  C   UNL     1      -6.256   0.514   9.380  1.00  0.00    -0.003 C 
ATOM     20  C   UNL     1      -5.094  -0.475   9.380  1.00  0.00     0.004 C 
ENDBRANCH  18  19
ENDBRANCH  17  18
ENDBRANCH  16  17
ENDBRANCH  15  16
ENDBRANCH  14  15
ENDBRANCH  13  14
ENDBRANCH   2  13
TORSDOF 15
ENDMDL
MODEL 2
REMARK VINA RESULT:    -3.989     12.608     14.692
REMARK INTER + INTRA:         -10.378
REMARK INTER:                  -7.621
REMARK INTRA:                  -2.758
REMARK UNBOUND:                -2.892
REMARK SMILES CCCCCCCCC=CCCCCCCCC(=O)[O-]
REMARK SMILES IDX 10 1 9 2 11 3 12 4 13 5 14 6 15 7 16 8 17 9 18 10 19 11
REMARK SMILES IDX 20 12 8 13 7 14 6 15 5 16 4 17 3 18 2 19 1 20
REMARK H PARENT
REMARK Flexibility Score: inf
ROOT
ATOM      1  C   UNL     1       6.946   4.264   8.741  1.00  0.00    -0.031 C 
ATOM      2  C   UNL     1       6.270   5.404   8.533  1.00  0.00    -0.031 C 
ENDROOT
BRANCH   1   3
ATOM      3  C   UNL     1       8.415   4.155   8.442  1.00  0.00     0.027 C 
BRANCH   3   4
ATOM      4  C   UNL     1       8.911   2.715   8.610  1.00  0.00     0.004 C 
BRANCH   4   5
ATOM      5  C   UNL     1       7.874   1.712   8.091  1.00  0.00     0.000 C 
BRANCH   5   6
ATOM      6  C   UNL     1       8.240   1.222   6.682  1.00  0.00     0.000 C 
BRANCH   6   7
ATOM      7  C   UNL     1       7.097   1.406   5.668  1.00  0.00     0.000 C 
BRANCH   7   8
ATOM      8  C   UNL     1       6.485   2.822   5.619  1.00  0.00     0.006 C 
BRANCH   8   9
ATOM      9  C   UNL     1       7.001   3.701   4.469  1.00  0.00     0.053 C 
BRANCH   9  10
ATOM     10  C   UNL     1       8.149   4.566   4.894  1.00  0.00     0.041 C 
ATOM     11  O   UNL     1       7.953   5.765   5.220  1.00  0.00    -0.550 OA
ATOM     12  O   UNL     1       9.431   4.034   4.965  1.00  0.00    -0.550 OA
ENDBRANCH   9  10
ENDBRANCH   8   9
ENDBRANCH   7   8
ENDBRANCH   6   7
ENDBRANCH   5   6
ENDBRANCH   4   5
ENDBRANCH   3   4
ENDBRANCH   1   3
BRANCH   2  13
ATOM     13  C   UNL     1       4.812   5.537   8.884  1.00  0.00     0.027 C 
BRANCH  13  14
ATOM     14  C   UNL     1       3.910   5.139   7.705  1.00  0.00     0.004 C 
BRANCH  14  15
ATOM     15  C   UNL     1       2.402   5.304   7.979  1.00  0.00     0.000 C 
BRANCH  15  16
ATOM     16  C   UNL     1       1.588   3.995   7.948  1.00  0.00     0.000 C 
BRANCH  16  17
ATOM     17  C   UNL     1       2.152   2.893   7.031  1.00  0.00    -0.000 C 
BRANCH  17  18
ATOM     18  C   UNL     1       2.576   1.601   7.754  1.00  0.00    -0.000 C 
BRANCH  18  19
ATOM     19  C   UNL     1       4.052   1.613   8.177  1.00  0.00    -0.003 C 
ATOM     20  C   UNL     1       4.190   1.810   9.685  1.00  0.00     0.004 C 
ENDBRANCH  18  19
ENDBRANCH  17  18
ENDBRANCH  16  17
ENDBRANCH  15  16
ENDBRANCH  14  15
ENDBRANCH  13  14
ENDBRANCH   2  13
TORSDOF 15
ENDMDL
MODEL 3
REMARK VINA RESULT:    -3.975     11.707     13.905
REMARK INTER + INTRA:         -10.352
REMARK INTER:                  -7.606
REMARK INTRA:                  -2.746
REMARK UNBOUND:                -2.892
REMARK SMILES CCCCCCCCC=CCCCCCCCC(=O)[O-]
REMARK SMILES IDX 10 1 9 2 11 3 12 4 13 5 14 6 15 7 16 8 17 9 18 10 19 11
REMARK SMILES IDX 20 12 8 13 7 14 6 15 5 16 4 17 3 18 2 19 1 20
REMARK H PARENT
REMARK Flexibility Score: inf
ROOT
ATOM      1  C   UNL     1       5.421   4.864   8.573  1.00  0.00    -0.031 C 
ATOM      2  C   UNL     1       4.395   5.583   9.054  1.00  0.00    -0.031 C 
ENDROOT
BRANCH   1   3
ATOM      3  C   UNL     1       6.765   5.486   8.316  1.00  0.00     0.027 C 
BRANCH   3   4
ATOM      4  C   UNL     1       7.891   4.460   8.477  1.00  0.00     0.004 C 
BRANCH   4   5
ATOM      5  C   UNL     1       7.363   3.153   9.079  1.00  0.00     0.000 C 
BRANCH   5   6
ATOM      6  C   UNL     1       7.933   1.935   8.338  1.00  0.00     0.000 C 
BRANCH   6   7
ATOM      7  C   UNL     1       8.664   2.313   7.038  1.00  0.00     0.000 C 
BRANCH   7   8
ATOM      8  C   UNL     1       7.968   1.858   5.738  1.00  0.00     0.006 C 
BRANCH   8   9
ATOM      9  C   UNL     1       6.436   1.981   5.758  1.00  0.00     0.053 C 
BRANCH   9  10
ATOM     10  C   UNL     1       5.975   3.330   5.295  1.00  0.00     0.041 C 
ATOM     11  O   UNL     1       6.805   4.166   4.853  1.00  0.00    -0.550 OA
ATOM     12  O   UNL     1       4.623   3.648   5.318  1.00  0.00    -0.550 OA
ENDBRANCH   9  10
ENDBRANCH   8   9
ENDBRANCH   7   8
ENDBRANCH   6   7
ENDBRANCH   5   6
ENDBRANCH   4   5
ENDBRANCH   3   4
ENDBRANCH   1   3
BRANCH   2  13
ATOM     13  C   UNL     1       3.063   4.954   9.367  1.00  0.00     0.027 C 
BRANCH  13  14
ATOM     14  C   UNL     1       2.096   5.060   8.179  1.00  0.00     0.004 C 
BRANCH  14  15
ATOM     15  C   UNL     1       1.142   3.858   8.030  1.00  0.00     0.000 C 
BRANCH  15  16
ATOM     16  C   UNL     1       1.700   2.684   7.200  1.00  0.00     0.000 C 
BRANCH  16  17
ATOM     17  C   UNL     1       2.284   1.518   8.021  1.00  0.00    -0.000 C 
BRANCH  17  18
ATOM     18  C   UNL     1       3.810   1.568   8.223  1.00  0.00    -0.000 C 
BRANCH  18  19
ATOM     19  C   UNL     1       4.221   1.415   9.694  1.00  0.00    -0.003 C 
ATOM     20  C   UNL     1       5.019   0.132   9.912  1.00  0.00     0.004 C 
ENDBRANCH  18  19
ENDBRANCH  17  18
ENDBRANCH  16  17
ENDBRANCH  15  16
ENDBRANCH  14  15
ENDBRANCH  13  14
ENDBRANCH   2  13
TORSDOF 15
ENDMDL
MODEL 4
REMARK VINA RESULT:    -3.969     12.822     14.970
REMARK INTER + INTRA:         -10.340
REMARK INTER:                  -7.652
REMARK INTRA:                  -2.688
REMARK UNBOUND:                -2.892
REMARK SMILES CCCCCCCCC=CCCCCCCCC(=O)[O-]
REMARK SMILES IDX 10 1 9 2 11 3 12 4 13 5 14 6 15 7 16 8 17 9 18 10 19 11
REMARK SMILES IDX 20 12 8 13 7 14 6 15 5 16 4 17 3 18 2 19 1 20
REMARK H PARENT
REMARK Flexibility Score: inf
ROOT
ATOM      1  C   UNL     1       6.420   5.562   8.006  1.00  0.00    -0.031 C 
ATOM      2  C   UNL     1       5.601   4.997   8.905  1.00  0.00    -0.031 C 
ENDROOT
BRANCH   1   3
ATOM      3  C   UNL     1       7.737   4.935   7.639  1.00  0.00     0.027 C 
BRANCH   3   4
ATOM      4  C   UNL     1       8.293   4.097   8.795  1.00  0.00     0.004 C 
BRANCH   4   5
ATOM      5  C   UNL     1       9.098   2.902   8.272  1.00  0.00     0.000 C 
BRANCH   5   6
ATOM      6  C   UNL     1       8.238   1.631   8.240  1.00  0.00     0.000 C 
BRANCH   6   7
ATOM      7  C   UNL     1       8.502   0.759   6.999  1.00  0.00     0.000 C 
BRANCH   7   8
ATOM      8  C   UNL     1       7.992   1.345   5.666  1.00  0.00     0.006 C 
BRANCH   8   9
ATOM      9  C   UNL     1       9.099   1.828   4.715  1.00  0.00     0.053 C 
BRANCH   9  10
ATOM     10  C   UNL     1       9.003   3.298   4.442  1.00  0.00     0.041 C 
ATOM     11  O   UNL     1      10.048   3.992   4.337  1.00  0.00    -0.550 OA
ATOM     12  O   UNL     1       7.760   3.894   4.266  1.00  0.00    -0.550 OA
ENDBRANCH   9  10
ENDBRANCH   8   9
ENDBRANCH   7   8
ENDBRANCH   6   7
ENDBRANCH   5   6
ENDBRANCH   4   5
ENDBRANCH   3   4
ENDBRANCH   1   3
BRANCH   2  13
ATOM     13  C   UNL     1       4.257   5.589   9.235  1.00  0.00     0.027 C 
BRANCH  13  14
ATOM     14  C   UNL     1       3.346   4.567   9.932  1.00  0.00     0.004 C 
BRANCH  14  15
ATOM     15  C   UNL     1       1.938   4.450   9.315  1.00  0.00     0.000 C 
BRANCH  15  16
ATOM     16  C   UNL     1       1.884   4.600   7.782  1.00  0.00     0.000 C 
BRANCH  16  17
ATOM     17  C   UNL     1       2.312   3.352   6.985  1.00  0.00    -0.000 C 
BRANCH  17  18
ATOM     18  C   UNL     1       3.376   3.609   5.901  1.00  0.00    -0.000 C 
BRANCH  18  19
ATOM     19  C   UNL     1       4.696   2.873   6.177  1.00  0.00    -0.003 C 
ATOM     20  C   UNL     1       4.545   1.889   7.334  1.00  0.00     0.004 C 
ENDBRANCH  18  19
ENDBRANCH  17  18
ENDBRANCH  16  17
ENDBRANCH  15  16
ENDBRANCH  14  15
ENDBRANCH  13  14
ENDBRANCH   2  13
TORSDOF 15
ENDMDL
MODEL 5
REMARK VINA RESULT:    -3.875      1.408      4.053
REMARK INTER + INTRA:         -10.164
REMARK INTER:                  -7.770
REMARK INTRA:                  -2.394
REMARK UNBOUND:                -2.892
REMARK SMILES CCCCCCCCC=CCCCCCCCC(=O)[O-]
REMARK SMILES IDX 10 1 9 2 11 3 12 4 13 5 14 6 15 7 16 8 17 9 18 10 19 11
REMARK SMILES IDX 20 12 8 13 7 14 6 15 5 16 4 17 3 18 2 19 1 20
REMARK H PARENT
REMARK Flexibility Score: inf
ROOT
ATOM      1  C   UNL     1      -8.699  -3.558   8.745  1.00  0.00    -0.031 C 
ATOM      2  C   UNL     1      -7.430  -3.759   9.130  1.00  0.00    -0.031 C 
ENDROOT
BRANCH   1   3
ATOM      3  C   UNL     1      -9.435  -2.293   9.092  1.00  0.00     0.027 C 
BRANCH   3   4
ATOM      4  C   UNL     1      -8.505  -1.076   9.034  1.00  0.00     0.004 C 
BRANCH   4   5
ATOM      5  C   UNL     1      -8.430  -0.509   7.612  1.00  0.00     0.000 C 
BRANCH   5   6
ATOM      6  C   UNL     1      -7.092  -0.864   6.947  1.00  0.00     0.000 C 
BRANCH   6   7
ATOM      7  C   UNL     1      -7.228  -1.153   5.442  1.00  0.00     0.000 C 
BRANCH   7   8
ATOM      8  C   UNL     1      -8.012  -2.434   5.088  1.00  0.00     0.006 C 
BRANCH   8   9
ATOM      9  C   UNL     1      -7.239  -3.741   5.323  1.00  0.00     0.053 C 
BRANCH   9  10
ATOM     10  C   UNL     1      -8.074  -4.949   5.022  1.00  0.00     0.041 C 
ATOM     11  O   UNL     1      -7.898  -6.017   5.663  1.00  0.00    -0.550 OA
ATOM     12  O   UNL     1      -9.071  -4.882   4.057  1.00  0.00    -0.550 OA
ENDBRANCH   9  10
ENDBRANCH   8   9
ENDBRANCH   7   8
ENDBRANCH   6   7
ENDBRANCH   5   6
ENDBRANCH   4   5
ENDBRANCH   3   4
ENDBRANCH   1   3
BRANCH   2  13
ATOM     13  C   UNL     1      -6.668  -4.997   8.738  1.00  0.00     0.027 C 
BRANCH  13  14
ATOM     14  C   UNL     1      -5.202  -4.677   8.411  1.00  0.00     0.004 C 
BRANCH  14  15
ATOM     15  C   UNL     1      -4.214  -5.004   9.549  1.00  0.00     0.000 C 
BRANCH  15  16
ATOM     16  C   UNL     1      -3.047  -4.008   9.704  1.00  0.00     0.000 C 
BRANCH  16  17
ATOM     17  C   UNL     1      -3.048  -3.195  11.014  1.00  0.00    -0.000 C 
BRANCH  17  18
ATOM     18  C   UNL     1      -3.240  -1.678  10.835  1.00  0.00    -0.000 C 
BRANCH  18  19
ATOM     19  C   UNL     1      -4.321  -1.333   9.800  1.00  0.00    -0.003 C 
ATOM     20  C   UNL     1      -5.189  -0.171  10.278  1.00  0.00     0.004 C 
ENDBRANCH  18  19
ENDBRANCH  17  18
ENDBRANCH  16  17
ENDBRANCH  15  16
ENDBRANCH  14  15
ENDBRANCH  13  14
ENDBRANCH   2  13
TORSDOF 15
ENDMDL
MODEL 6
REMARK VINA RESULT:    -3.841      1.488      3.915
REMARK INTER + INTRA:         -10.101
REMARK INTER:                  -7.387
REMARK INTRA:                  -2.713
REMARK UNBOUND:                -2.892
REMARK SMILES CCCCCCCCC=CCCCCCCCC(=O)[O-]
REMARK SMILES IDX 10 1 9 2 11 3 12 4 13 5 14 6 15 7 16 8 17 9 18 10 19 11
REMARK SMILES IDX 20 12 8 13 7 14 6 15 5 16 4 17 3 18 2 19 1 20
REMARK H PARENT
REMARK Flexibility Score: inf
ROOT
ATOM      1  C   UNL     1      -6.347  -3.996   9.100  1.00  0.00    -0.031 C 
ATOM      2  C   UNL     1      -5.473  -4.841   8.532  1.00  0.00    -0.031 C 
ENDROOT
BRANCH   1   3
ATOM      3  C   UNL     1      -7.830  -4.151   8.907  1.00  0.00     0.027 C 
BRANCH   3   4
ATOM      4  C   UNL     1      -8.598  -3.003   9.572  1.00  0.00     0.004 C 
BRANCH   4   5
ATOM      5  C   UNL     1      -9.233  -2.085   8.521  1.00  0.00     0.000 C 
BRANCH   5   6
ATOM      6  C   UNL     1      -9.252  -2.758   7.142  1.00  0.00     0.000 C 
BRANCH   6   7
ATOM      7  C   UNL     1      -8.394  -2.018   6.100  1.00  0.00     0.000 C 
BRANCH   7   8
ATOM      8  C   UNL     1      -7.134  -2.775   5.632  1.00  0.00     0.006 C 
BRANCH   8   9
ATOM      9  C   UNL     1      -7.334  -3.627   4.369  1.00  0.00     0.053 C 
BRANCH   9  10
ATOM     10  C   UNL     1      -8.054  -4.908   4.663  1.00  0.00     0.041 C 
ATOM     11  O   UNL     1      -8.975  -5.306   3.904  1.00  0.00    -0.550 OA
ATOM     12  O   UNL     1      -7.682  -5.679   5.757  1.00  0.00    -0.550 OA
ENDBRANCH   9  10
ENDBRANCH   8   9
ENDBRANCH   7   8
ENDBRANCH   6   7
ENDBRANCH   5   6
ENDBRANCH   4   5
ENDBRANCH   3   4
ENDBRANCH   1   3
BRANCH   2  13
ATOM     13  C   UNL     1      -3.991  -4.727   8.767  1.00  0.00     0.027 C 
BRANCH  13  14
ATOM     14  C   UNL     1      -3.682  -3.992  10.080  1.00  0.00     0.004 C 
BRANCH  14  15
ATOM     15  C   UNL     1      -2.373  -3.178  10.058  1.00  0.00     0.000 C 
BRANCH  15  16
ATOM     16  C   UNL     1      -2.508  -1.742   9.515  1.00  0.00     0.000 C 
BRANCH  16  17
ATOM     17  C   UNL     1      -3.919  -1.131   9.618  1.00  0.00    -0.000 C 
BRANCH  17  18
ATOM     18  C   UNL     1      -4.617  -0.882   8.268  1.00  0.00    -0.000 C 
BRANCH  18  19
ATOM     19  C   UNL     1      -6.038  -0.320   8.428  1.00  0.00    -0.003 C 
ATOM     20  C   UNL     1      -6.368  -0.067   9.896  1.00  0.00     0.004 C 
ENDBRANCH  18  19
ENDBRANCH  17  18
ENDBRANCH  16  17
ENDBRANCH  15  16
ENDBRANCH  14  15
ENDBRANCH  13  14
ENDBRANCH   2  13
TORSDOF 15
ENDMDL
MODEL 7
REMARK VINA RESULT:    -3.841     11.540     13.609
REMARK INTER + INTRA:         -10.101
REMARK INTER:                  -7.399
REMARK INTRA:                  -2.701
REMARK UNBOUND:                -2.892
REMARK SMILES CCCCCCCCC=CCCCCCCCC(=O)[O-]
REMARK SMILES IDX 10 1 9 2 11 3 12 4 13 5 14 6 15 7 16 8 17 9 18 10 19 11
REMARK SMILES IDX 20 12 8 13 7 14 6 15 5 16 4 17 3 18 2 19 1 20
REMARK H PARENT
REMARK Flexibility Score: inf
ROOT
ATOM      1  C   UNL     1       6.944   3.656   8.788  1.00  0.00    -0.031 C 
ATOM      2  C   UNL     1       5.618   3.827   8.679  1.00  0.00    -0.031 C 
ENDROOT
BRANCH   1   3
ATOM      3  C   UNL     1       7.555   2.285   8.881  1.00  0.00     0.027 C 
BRANCH   3   4
ATOM      4  C   UNL     1       8.608   2.072   7.787  1.00  0.00     0.004 C 
BRANCH   4   5
ATOM      5  C   UNL     1       8.994   3.401   7.128  1.00  0.00     0.000 C 
BRANCH   5   6
ATOM      6  C   UNL     1       8.746   3.356   5.614  1.00  0.00     0.000 C 
BRANCH   6   7
ATOM      7  C   UNL     1       7.461   4.093   5.194  1.00  0.00     0.000 C 
BRANCH   7   8
ATOM      8  C   UNL     1       6.450   3.245   4.395  1.00  0.00     0.006 C 
BRANCH   8   9
ATOM      9  C   UNL     1       5.520   2.378   5.259  1.00  0.00     0.053 C 
BRANCH   9  10
ATOM     10  C   UNL     1       4.088   2.803   5.144  1.00  0.00     0.041 C 
ATOM     11  O   UNL     1       3.206   1.972   4.807  1.00  0.00    -0.550 OA
ATOM     12  O   UNL     1       3.724   4.109   5.445  1.00  0.00    -0.550 OA
ENDBRANCH   9  10
ENDBRANCH   8   9
ENDBRANCH   7   8
ENDBRANCH   6   7
ENDBRANCH   5   6
ENDBRANCH   4   5
ENDBRANCH   3   4
ENDBRANCH   1   3
BRANCH   2  13
ATOM     13  C   UNL     1       5.003   5.193   8.528  1.00  0.00     0.027 C 
BRANCH  13  14
ATOM     14  C   UNL     1       3.685   5.307   9.307  1.00  0.00     0.004 C 
BRANCH  14  15
ATOM     15  C   UNL     1       2.454   5.605   8.427  1.00  0.00     0.000 C 
BRANCH  15  16
ATOM     16  C   UNL     1       1.516   4.404   8.192  1.00  0.00     0.000 C 
BRANCH  16  17
ATOM     17  C   UNL     1       1.843   3.144   9.017  1.00  0.00    -0.000 C 
BRANCH  17  18
ATOM     18  C   UNL     1       2.185   1.894   8.185  1.00  0.00    -0.000 C 
BRANCH  18  19
ATOM     19  C   UNL     1       3.314   1.057   8.804  1.00  0.00    -0.003 C 
ATOM     20  C   UNL     1       3.507   1.399  10.279  1.00  0.00     0.004 C 
ENDBRANCH  18  19
ENDBRANCH  17  18
ENDBRANCH  16  17
ENDBRANCH  15  16
ENDBRANCH  14  15
ENDBRANCH  13  14
ENDBRANCH   2  13
TORSDOF 15
ENDMDL
MODEL 8
REMARK VINA RESULT:    -3.835      2.343      4.974
REMARK INTER + INTRA:         -10.089
REMARK INTER:                  -7.845
REMARK INTRA:                  -2.244
REMARK UNBOUND:                -2.892
REMARK SMILES CCCCCCCCC=CCCCCCCCC(=O)[O-]
REMARK SMILES IDX 10 1 9 2 11 3 12 4 13 5 14 6 15 7 16 8 17 9 18 10 19 11
REMARK SMILES IDX 20 12 8 13 7 14 6 15 5 16 4 17 3 18 2 19 1 20
REMARK H PARENT
REMARK Flexibility Score: inf
ROOT
ATOM      1  C   UNL     1      -5.523  -2.106   8.289  1.00  0.00    -0.031 C 
ATOM      2  C   UNL     1      -5.647  -3.140   9.134  1.00  0.00    -0.031 C 
ENDROOT
BRANCH   1   3
ATOM      3  C   UNL     1      -5.853  -0.701   8.712  1.00  0.00     0.027 C 
BRANCH   3   4
ATOM      4  C   UNL     1      -7.006  -0.683   9.722  1.00  0.00     0.004 C 
BRANCH   4   5
ATOM      5  C   UNL     1      -8.363  -0.689   9.008  1.00  0.00     0.000 C 
BRANCH   5   6
ATOM      6  C   UNL     1      -9.164  -1.950   9.360  1.00  0.00     0.000 C 
BRANCH   6   7
ATOM      7  C   UNL     1      -9.358  -2.893   8.159  1.00  0.00     0.000 C 
BRANCH   7   8
ATOM      8  C   UNL     1      -8.842  -2.350   6.810  1.00  0.00     0.006 C 
BRANCH   8   9
ATOM      9  C   UNL     1      -8.780  -3.394   5.683  1.00  0.00     0.053 C 
BRANCH   9  10
ATOM     10  C   UNL     1      -7.573  -4.275   5.798  1.00  0.00     0.041 C 
ATOM     11  O   UNL     1      -7.676  -5.429   6.288  1.00  0.00    -0.550 OA
ATOM     12  O   UNL     1      -6.343  -3.833   5.329  1.00  0.00    -0.550 OA
ENDBRANCH   9  10
ENDBRANCH   8   9
ENDBRANCH   7   8
ENDBRANCH   6   7
ENDBRANCH   5   6
ENDBRANCH   4   5
ENDBRANCH   3   4
ENDBRANCH   1   3
BRANCH   2  13
ATOM     13  C   UNL     1      -5.264  -4.541   8.735  1.00  0.00     0.027 C 
BRANCH  13  14
ATOM     14  C   UNL     1      -4.082  -5.061   9.566  1.00  0.00     0.004 C 
BRANCH  14  15
ATOM     15  C   UNL     1      -2.708  -4.894   8.885  1.00  0.00     0.000 C 
BRANCH  15  16
ATOM     16  C   UNL     1      -2.011  -3.544   9.148  1.00  0.00     0.000 C 
BRANCH  16  17
ATOM     17  C   UNL     1      -1.707  -3.240  10.628  1.00  0.00    -0.000 C 
BRANCH  17  18
ATOM     18  C   UNL     1      -2.671  -2.241  11.296  1.00  0.00    -0.000 C 
BRANCH  18  19
ATOM     19  C   UNL     1      -2.296  -1.935  12.753  1.00  0.00    -0.003 C 
ATOM     20  C   UNL     1      -2.585  -3.129  13.658  1.00  0.00     0.004 C 
ENDBRANCH  18  19
ENDBRANCH  17  18
ENDBRANCH  16  17
ENDBRANCH  15  16
ENDBRANCH  14  15
ENDBRANCH  13  14
ENDBRANCH   2  13
TORSDOF 15
ENDMDL
MODEL 9
REMARK VINA RESULT:    -3.785      2.071      5.167
REMARK INTER + INTRA:          -9.995
REMARK INTER:                  -7.247
REMARK INTRA:                  -2.748
REMARK UNBOUND:                -2.892
REMARK SMILES CCCCCCCCC=CCCCCCCCC(=O)[O-]
REMARK SMILES IDX 10 1 9 2 11 3 12 4 13 5 14 6 15 7 16 8 17 9 18 10 19 11
REMARK SMILES IDX 20 12 8 13 7 14 6 15 5 16 4 17 3 18 2 19 1 20
REMARK H PARENT
REMARK Flexibility Score: inf
ROOT
ATOM      1  C   UNL     1      -4.802  -2.410   8.604  1.00  0.00    -0.031 C 
ATOM      2  C   UNL     1      -4.924  -3.361   9.541  1.00  0.00    -0.031 C 
ENDROOT
BRANCH   1   3
ATOM      3  C   UNL     1      -5.473  -1.073   8.748  1.00  0.00     0.027 C 
BRANCH   3   4
ATOM      4  C   UNL     1      -6.459  -0.820   7.601  1.00  0.00     0.004 C 
BRANCH   4   5
ATOM      5  C   UNL     1      -7.850  -0.469   8.139  1.00  0.00     0.000 C 
BRANCH   5   6
ATOM      6  C   UNL     1      -8.035  -0.992   9.571  1.00  0.00     0.000 C 
BRANCH   6   7
ATOM      7  C   UNL     1      -9.333  -1.800   9.753  1.00  0.00     0.000 C 
BRANCH   7   8
ATOM      8  C   UNL     1      -9.466  -3.039   8.844  1.00  0.00     0.006 C 
BRANCH   8   9
ATOM      9  C   UNL     1      -8.272  -4.006   8.903  1.00  0.00     0.053 C 
BRANCH   9  10
ATOM     10  C   UNL     1      -7.820  -4.425   7.537  1.00  0.00     0.041 C 
ATOM     11  O   UNL     1      -8.163  -3.761   6.525  1.00  0.00    -0.550 OA
ATOM     12  O   UNL     1      -6.989  -5.529   7.387  1.00  0.00    -0.550 OA
ENDBRANCH   9  10
ENDBRANCH   8   9
ENDBRANCH   7   8
ENDBRANCH   6   7
ENDBRANCH   5   6
ENDBRANCH   4   5
ENDBRANCH   3   4
ENDBRANCH   1   3
BRANCH   2  13
ATOM     13  C   UNL     1      -4.209  -4.682   9.431  1.00  0.00     0.027 C 
BRANCH  13  14
ATOM     14  C   UNL     1      -3.354  -4.755   8.157  1.00  0.00     0.004 C 
BRANCH  14  15
ATOM     15  C   UNL     1      -1.837  -4.640   8.406  1.00  0.00     0.000 C 
BRANCH  15  16
ATOM     16  C   UNL     1      -1.444  -3.968   9.736  1.00  0.00     0.000 C 
BRANCH  16  17
ATOM     17  C   UNL     1      -0.718  -2.615   9.599  1.00  0.00    -0.000 C 
BRANCH  17  18
ATOM     18  C   UNL     1      -1.541  -1.390  10.039  1.00  0.00    -0.000 C 
BRANCH  18  19
ATOM     19  C   UNL     1      -1.745  -0.372   8.907  1.00  0.00    -0.003 C 
ATOM     20  C   UNL     1      -1.399  -0.981   7.551  1.00  0.00     0.004 C 
ENDBRANCH  18  19
ENDBRANCH  17  18
ENDBRANCH  16  17
ENDBRANCH  15  16
ENDBRANCH  14  15
ENDBRANCH  13  14
ENDBRANCH   2  13
TORSDOF 15
ENDMDL
