MODEL 1
REMARK VINA RESULT:    -5.234      0.000      0.000
REMARK INTER + INTRA:          -6.168
REMARK INTER:                  -6.304
REMARK INTRA:                   0.137
REMARK UNBOUND:                 0.137
REMARK SMILES O=c1c(O)c(-c2ccc(O)c(O)c2)oc2cc(O)cc(O)c12
REMARK SMILES IDX 5 1 3 2 2 3 1 4 22 5 20 6 19 7 17 8 16 9 15 10 14 11 6 12
REMARK SMILES IDX 7 13 8 14 9 15 13 16 11 17 10 18 12 20 4 22 21 24 18 26
REMARK H PARENT 10 19 12 21 4 23 21 25 18 27
REMARK Flexibility Score: inf
ROOT
ATOM      1  C   UNL     1       4.184 -15.424   7.092  1.00  0.00     0.180 A 
ATOM      2  C   UNL     1       4.265 -16.721   6.554  1.00  0.00     0.208 A 
ATOM      3  C   UNL     1       4.429 -17.809   7.425  1.00  0.00     0.238 A 
ATOM      4  O   UNL     1       4.556 -18.962   6.934  1.00  0.00    -0.285 OA
ATOM      5  C   UNL     1       4.492 -17.591   8.823  1.00  0.00     0.111 A 
ATOM      6  C   UNL     1       4.615 -18.624   9.799  1.00  0.00     0.134 A 
ATOM      7  C   UNL     1       4.800 -18.284  11.144  1.00  0.00     0.093 A 
ATOM      8  C   UNL     1       4.799 -16.949  11.556  1.00  0.00     0.123 A 
ATOM      9  C   UNL     1       4.619 -15.936  10.618  1.00  0.00     0.094 A 
ATOM     10  C   UNL     1       4.470 -16.243   9.263  1.00  0.00     0.146 A 
ATOM     11  O   UNL     1       4.311 -15.246   8.401  1.00  0.00    -0.452 OA
ENDROOT
BRANCH   1  12
ATOM     12  C   UNL     1       3.985 -14.229   6.240  1.00  0.00     0.025 A 
ATOM     13  C   UNL     1       3.077 -14.286   5.171  1.00  0.00     0.016 A 
ATOM     14  C   UNL     1       2.890 -13.178   4.342  1.00  0.00     0.051 A 
ATOM     15  C   UNL     1       3.619 -12.001   4.559  1.00  0.00     0.157 A 
ATOM     16  C   UNL     1       4.731 -13.053   6.443  1.00  0.00     0.062 A 
ATOM     17  C   UNL     1       4.546 -11.940   5.613  1.00  0.00     0.158 A 
BRANCH  15  18
ATOM     18  O   UNL     1       3.428 -10.895   3.731  1.00  0.00    -0.504 OA
ATOM     19  H   UNL     1       3.083 -10.996   2.784  1.00  0.00     0.293 HD
ENDBRANCH  15  18
BRANCH  17  20
ATOM     20  O   UNL     1       5.297 -10.790   5.846  1.00  0.00    -0.504 OA
ATOM     21  H   UNL     1       4.990  -9.875   5.539  1.00  0.00     0.293 HD
ENDBRANCH  17  20
ENDBRANCH   1  12
BRANCH   2  22
ATOM     22  O   UNL     1       4.223 -16.911   5.169  1.00  0.00    -0.502 OA
ATOM     23  H   UNL     1       3.358 -17.078   4.670  1.00  0.00     0.293 HD
ENDBRANCH   2  22
BRANCH   6  24
ATOM     24  O   UNL     1       4.536 -19.990   9.506  1.00  0.00    -0.507 OA
ATOM     25  H   UNL     1       4.967 -20.720  10.053  1.00  0.00     0.293 HD
ENDBRANCH   6  24
BRANCH   8  26
ATOM     26  O   UNL     1       4.968 -16.620  12.899  1.00  0.00    -0.508 OA
ATOM     27  H   UNL     1       4.791 -17.293  13.636  1.00  0.00     0.293 HD
ENDBRANCH   8  26
TORSDOF 6
ENDMDL
MODEL 2
REMARK VINA RESULT:    -5.222      1.273      6.558
REMARK INTER + INTRA:          -6.154
REMARK INTER:                  -6.627
REMARK INTRA:                   0.473
REMARK UNBOUND:                 0.137
REMARK SMILES O=c1c(O)c(-c2ccc(O)c(O)c2)oc2cc(O)cc(O)c12
REMARK SMILES IDX 5 1 3 2 2 3 1 4 22 5 20 6 19 7 17 8 16 9 15 10 14 11 6 12
REMARK SMILES IDX 7 13 8 14 9 15 13 16 11 17 10 18 12 20 4 22 21 24 18 26
REMARK H PARENT 10 19 12 21 4 23 21 25 18 27
REMARK Flexibility Score: inf
ROOT
ATOM      1  C   UNL     1       4.032 -16.888   7.968  1.00  0.00     0.180 A 
ATOM      2  C   UNL     1       3.589 -17.848   7.040  1.00  0.00     0.208 A 
ATOM      3  C   UNL     1       3.339 -17.449   5.717  1.00  0.00     0.238 A 
ATOM      4  O   UNL     1       2.891 -18.300   4.904  1.00  0.00    -0.285 OA
ATOM      5  C   UNL     1       3.551 -16.103   5.334  1.00  0.00     0.111 A 
ATOM      6  C   UNL     1       3.370 -15.598   4.012  1.00  0.00     0.134 A 
ATOM      7  C   UNL     1       3.483 -14.223   3.776  1.00  0.00     0.093 A 
ATOM      8  C   UNL     1       3.835 -13.343   4.802  1.00  0.00     0.123 A 
ATOM      9  C   UNL     1       4.073 -13.834   6.083  1.00  0.00     0.094 A 
ATOM     10  C   UNL     1       3.932 -15.197   6.358  1.00  0.00     0.146 A 
ATOM     11  O   UNL     1       4.159 -15.621   7.595  1.00  0.00    -0.452 OA
ENDROOT
BRANCH   1  12
ATOM     12  C   UNL     1       4.340 -17.237   9.374  1.00  0.00     0.025 A 
ATOM     13  C   UNL     1       4.506 -18.585   9.731  1.00  0.00     0.016 A 
ATOM     14  C   UNL     1       4.777 -18.938  11.055  1.00  0.00     0.051 A 
ATOM     15  C   UNL     1       4.870 -17.952  12.045  1.00  0.00     0.157 A 
ATOM     16  C   UNL     1       4.414 -16.251  10.375  1.00  0.00     0.062 A 
ATOM     17  C   UNL     1       4.684 -16.601  11.703  1.00  0.00     0.158 A 
BRANCH  15  18
ATOM     18  O   UNL     1       5.143 -18.307  13.366  1.00  0.00    -0.504 OA
ATOM     19  H   UNL     1       4.710 -17.824  14.144  1.00  0.00     0.293 HD
ENDBRANCH  15  18
BRANCH  17  20
ATOM     20  O   UNL     1       4.756 -15.598  12.667  1.00  0.00    -0.504 OA
ATOM     21  H   UNL     1       4.678 -15.796  13.657  1.00  0.00     0.293 HD
ENDBRANCH  17  20
ENDBRANCH   1  12
BRANCH   2  22
ATOM     22  O   UNL     1       3.364 -19.167   7.445  1.00  0.00    -0.502 OA
ATOM     23  H   UNL     1       4.109 -19.850   7.509  1.00  0.00     0.293 HD
ENDBRANCH   2  22
BRANCH   6  24
ATOM     24  O   UNL     1       3.106 -16.403   2.898  1.00  0.00    -0.507 OA
ATOM     25  H   UNL     1       2.808 -17.366   2.943  1.00  0.00     0.293 HD
ENDBRANCH   6  24
BRANCH   8  26
ATOM     26  O   UNL     1       3.961 -11.978   4.555  1.00  0.00    -0.508 OA
ATOM     27  H   UNL     1       3.527 -11.288   5.158  1.00  0.00     0.293 HD
ENDBRANCH   8  26
TORSDOF 6
ENDMDL
MODEL 3
REMARK VINA RESULT:    -5.053      1.207      6.599
REMARK INTER + INTRA:          -5.950
REMARK INTER:                  -6.423
REMARK INTRA:                   0.473
REMARK UNBOUND:                 0.137
REMARK SMILES O=c1c(O)c(-c2ccc(O)c(O)c2)oc2cc(O)cc(O)c12
REMARK SMILES IDX 5 1 3 2 2 3 1 4 22 5 20 6 19 7 17 8 16 9 15 10 14 11 6 12
REMARK SMILES IDX 7 13 8 14 9 15 13 16 11 17 10 18 12 20 4 22 21 24 18 26
REMARK H PARENT 10 19 12 21 4 23 21 25 18 27
REMARK Flexibility Score: inf
ROOT
ATOM      1  C   UNL     1       4.167 -15.874   7.688  1.00  0.00     0.180 A 
ATOM      2  C   UNL     1       3.693 -16.524   6.534  1.00  0.00     0.208 A 
ATOM      3  C   UNL     1       3.559 -15.788   5.347  1.00  0.00     0.238 A 
ATOM      4  O   UNL     1       3.083 -16.361   4.332  1.00  0.00    -0.285 OA
ATOM      5  C   UNL     1       3.916 -14.418   5.322  1.00  0.00     0.111 A 
ATOM      6  C   UNL     1       3.859 -13.587   4.163  1.00  0.00     0.134 A 
ATOM      7  C   UNL     1       4.112 -12.215   4.285  1.00  0.00     0.093 A 
ATOM      8  C   UNL     1       4.483 -11.657   5.510  1.00  0.00     0.123 A 
ATOM      9  C   UNL     1       4.599 -12.471   6.634  1.00  0.00     0.094 A 
ATOM     10  C   UNL     1       4.318 -13.837   6.552  1.00  0.00     0.146 A 
ATOM     11  O   UNL     1       4.432 -14.574   7.650  1.00  0.00    -0.452 OA
ENDROOT
BRANCH   1  12
ATOM     12  C   UNL     1       4.359 -16.589   8.972  1.00  0.00     0.025 A 
ATOM     13  C   UNL     1       4.373 -17.993   8.985  1.00  0.00     0.016 A 
ATOM     14  C   UNL     1       4.532 -18.688  10.186  1.00  0.00     0.051 A 
ATOM     15  C   UNL     1       4.664 -17.991  11.394  1.00  0.00     0.157 A 
ATOM     16  C   UNL     1       4.472 -15.892  10.189  1.00  0.00     0.062 A 
ATOM     17  C   UNL     1       4.629 -16.586  11.395  1.00  0.00     0.158 A 
BRANCH  15  18
ATOM     18  O   UNL     1       4.825 -18.687  12.591  1.00  0.00    -0.504 OA
ATOM     19  H   UNL     1       4.463 -18.326  13.467  1.00  0.00     0.293 HD
ENDBRANCH  15  18
BRANCH  17  20
ATOM     20  O   UNL     1       4.744 -15.863  12.581  1.00  0.00    -0.504 OA
ATOM     21  H   UNL     1       4.472 -16.252  13.476  1.00  0.00     0.293 HD
ENDBRANCH  17  20
ENDBRANCH   1  12
BRANCH   2  22
ATOM     22  O   UNL     1       3.325 -17.872   6.587  1.00  0.00    -0.502 OA
ATOM     23  H   UNL     1       2.601 -18.213   7.207  1.00  0.00     0.293 HD
ENDBRANCH   2  22
BRANCH   6  24
ATOM     24  O   UNL     1       3.588 -14.060   2.875  1.00  0.00    -0.507 OA
ATOM     25  H   UNL     1       4.175 -14.703   2.364  1.00  0.00     0.293 HD
ENDBRANCH   6  24
BRANCH   8  26
ATOM     26  O   UNL     1       4.747 -10.294   5.618  1.00  0.00    -0.508 OA
ATOM     27  H   UNL     1       4.526  -9.776   6.461  1.00  0.00     0.293 HD
ENDBRANCH   8  26
TORSDOF 6
ENDMDL
MODEL 4
REMARK VINA RESULT:    -5.001      7.221     12.096
REMARK INTER + INTRA:          -5.888
REMARK INTER:                  -5.780
REMARK INTRA:                  -0.108
REMARK UNBOUND:                 0.137
REMARK SMILES O=c1c(O)c(-c2ccc(O)c(O)c2)oc2cc(O)cc(O)c12
REMARK SMILES IDX 5 1 3 2 2 3 1 4 22 5 20 6 19 7 17 8 16 9 15 10 14 11 6 12
REMARK SMILES IDX 7 13 8 14 9 15 13 16 11 17 10 18 12 20 4 22 21 24 18 26
REMARK H PARENT 10 19 12 21 4 23 21 25 18 27
REMARK Flexibility Score: inf
ROOT
ATOM      1  C   UNL     1       5.775  -5.704   5.681  1.00  0.00     0.180 A 
ATOM      2  C   UNL     1       5.112  -4.518   6.046  1.00  0.00     0.208 A 
ATOM      3  C   UNL     1       5.858  -3.336   6.179  1.00  0.00     0.238 A 
ATOM      4  O   UNL     1       5.269  -2.290   6.559  1.00  0.00    -0.285 OA
ATOM      5  C   UNL     1       7.252  -3.349   5.929  1.00  0.00     0.111 A 
ATOM      6  C   UNL     1       8.097  -2.202   5.994  1.00  0.00     0.134 A 
ATOM      7  C   UNL     1       9.482  -2.356   5.856  1.00  0.00     0.093 A 
ATOM      8  C   UNL     1      10.044  -3.607   5.590  1.00  0.00     0.123 A 
ATOM      9  C   UNL     1       9.221  -4.723   5.465  1.00  0.00     0.094 A 
ATOM     10  C   UNL     1       7.839  -4.607   5.635  1.00  0.00     0.146 A 
ATOM     11  O   UNL     1       7.092  -5.698   5.517  1.00  0.00    -0.452 OA
ENDROOT
BRANCH   1  12
ATOM     12  C   UNL     1       5.053  -6.984   5.497  1.00  0.00     0.025 A 
ATOM     13  C   UNL     1       4.031  -7.069   4.539  1.00  0.00     0.016 A 
ATOM     14  C   UNL     1       3.323  -8.260   4.362  1.00  0.00     0.051 A 
ATOM     15  C   UNL     1       3.616  -9.380   5.151  1.00  0.00     0.157 A 
ATOM     16  C   UNL     1       5.331  -8.105   6.302  1.00  0.00     0.062 A 
ATOM     17  C   UNL     1       4.623  -9.300   6.129  1.00  0.00     0.158 A 
BRANCH  15  18
ATOM     18  O   UNL     1       2.910 -10.569   4.971  1.00  0.00    -0.504 OA
ATOM     19  H   UNL     1       3.275 -11.321   4.399  1.00  0.00     0.293 HD
ENDBRANCH  15  18
BRANCH  17  20
ATOM     20  O   UNL     1       4.928 -10.391   6.939  1.00  0.00    -0.504 OA
ATOM     21  H   UNL     1       5.872 -10.746   7.030  1.00  0.00     0.293 HD
ENDBRANCH  17  20
ENDBRANCH   1  12
BRANCH   2  22
ATOM     22  O   UNL     1       3.740  -4.533   6.310  1.00  0.00    -0.502 OA
ATOM     23  H   UNL     1       3.186  -5.379   6.263  1.00  0.00     0.293 HD
ENDBRANCH   2  22
BRANCH   6  24
ATOM     24  O   UNL     1       7.629  -0.895   6.164  1.00  0.00    -0.507 OA
ATOM     25  H   UNL     1       8.215  -0.074   6.195  1.00  0.00     0.293 HD
ENDBRANCH   6  24
BRANCH   8  26
ATOM     26  O   UNL     1      11.421  -3.748   5.438  1.00  0.00    -0.508 OA
ATOM     27  H   UNL     1      12.063  -3.010   5.704  1.00  0.00     0.293 HD
ENDBRANCH   8  26
TORSDOF 6
ENDMDL
MODEL 5
REMARK VINA RESULT:    -4.892      2.157      6.857
REMARK INTER + INTRA:          -5.757
REMARK INTER:                  -6.166
REMARK INTRA:                   0.410
REMARK UNBOUND:                 0.137
REMARK SMILES O=c1c(O)c(-c2ccc(O)c(O)c2)oc2cc(O)cc(O)c12
REMARK SMILES IDX 5 1 3 2 2 3 1 4 22 5 20 6 19 7 17 8 16 9 15 10 14 11 6 12
REMARK SMILES IDX 7 13 8 14 9 15 13 16 11 17 10 18 12 20 4 22 21 24 18 26
REMARK H PARENT 10 19 12 21 4 23 21 25 18 27
REMARK Flexibility Score: inf
ROOT
ATOM      1  C   UNL     1       4.208 -17.057   7.863  1.00  0.00     0.180 A 
ATOM      2  C   UNL     1       4.299 -15.752   7.348  1.00  0.00     0.208 A 
ATOM      3  C   UNL     1       4.029 -15.538   5.987  1.00  0.00     0.238 A 
ATOM      4  O   UNL     1       4.166 -14.376   5.520  1.00  0.00    -0.285 OA
ATOM      5  C   UNL     1       3.654 -16.626   5.162  1.00  0.00     0.111 A 
ATOM      6  C   UNL     1       3.318 -16.517   3.780  1.00  0.00     0.134 A 
ATOM      7  C   UNL     1       3.089 -17.678   3.032  1.00  0.00     0.093 A 
ATOM      8  C   UNL     1       3.120 -18.939   3.631  1.00  0.00     0.123 A 
ATOM      9  C   UNL     1       3.388 -19.050   4.993  1.00  0.00     0.094 A 
ATOM     10  C   UNL     1       3.657 -17.913   5.759  1.00  0.00     0.146 A 
ATOM     11  O   UNL     1       3.917 -18.066   7.051  1.00  0.00    -0.452 OA
ENDROOT
BRANCH   1  12
ATOM     12  C   UNL     1       4.453 -17.359   9.293  1.00  0.00     0.025 A 
ATOM     13  C   UNL     1       4.584 -18.694   9.704  1.00  0.00     0.016 A 
ATOM     14  C   UNL     1       4.794 -19.003  11.050  1.00  0.00     0.051 A 
ATOM     15  C   UNL     1       4.862 -17.983  12.007  1.00  0.00     0.157 A 
ATOM     16  C   UNL     1       4.501 -16.337  10.259  1.00  0.00     0.062 A 
ATOM     17  C   UNL     1       4.711 -16.643  11.609  1.00  0.00     0.158 A 
BRANCH  15  18
ATOM     18  O   UNL     1       5.076 -18.293  13.349  1.00  0.00    -0.504 OA
ATOM     19  H   UNL     1       5.970 -18.638  13.678  1.00  0.00     0.293 HD
ENDBRANCH  15  18
BRANCH  17  20
ATOM     20  O   UNL     1       4.759 -15.606  12.538  1.00  0.00    -0.504 OA
ATOM     21  H   UNL     1       5.617 -15.342  13.006  1.00  0.00     0.293 HD
ENDBRANCH  17  20
ENDBRANCH   1  12
BRANCH   2  22
ATOM     22  O   UNL     1       4.693 -14.696   8.175  1.00  0.00    -0.502 OA
ATOM     23  H   UNL     1       4.854 -14.814   9.168  1.00  0.00     0.293 HD
ENDBRANCH   2  22
BRANCH   6  24
ATOM     24  O   UNL     1       3.171 -15.300   3.106  1.00  0.00    -0.507 OA
ATOM     25  H   UNL     1       3.934 -14.709   2.814  1.00  0.00     0.293 HD
ENDBRANCH   6  24
BRANCH   8  26
ATOM     26  O   UNL     1       2.876 -20.087   2.882  1.00  0.00    -0.508 OA
ATOM     27  H   UNL     1       2.048 -20.652   3.033  1.00  0.00     0.293 HD
ENDBRANCH   8  26
TORSDOF 6
ENDMDL
MODEL 6
REMARK VINA RESULT:    -4.697      4.865      9.789
REMARK INTER + INTRA:          -5.521
REMARK INTER:                  -5.276
REMARK INTRA:                  -0.245
REMARK UNBOUND:                 0.137
REMARK SMILES O=c1c(O)c(-c2ccc(O)c(O)c2)oc2cc(O)cc(O)c12
REMARK SMILES IDX 5 1 3 2 2 3 1 4 22 5 20 6 19 7 17 8 16 9 15 10 14 11 6 12
REMARK SMILES IDX 7 13 8 14 9 15 13 16 11 17 10 18 12 20 4 22 21 24 18 26
REMARK H PARENT 10 19 12 21 4 23 21 25 18 27
REMARK Flexibility Score: inf
ROOT
ATOM      1  C   UNL     1       5.190  -8.733   6.154  1.00  0.00     0.180 A 
ATOM      2  C   UNL     1       4.249  -7.688   6.148  1.00  0.00     0.208 A 
ATOM      3  C   UNL     1       4.706  -6.361   6.114  1.00  0.00     0.238 A 
ATOM      4  O   UNL     1       3.862  -5.429   6.164  1.00  0.00    -0.285 OA
ATOM      5  C   UNL     1       6.097  -6.095   6.069  1.00  0.00     0.111 A 
ATOM      6  C   UNL     1       6.670  -4.791   5.990  1.00  0.00     0.134 A 
ATOM      7  C   UNL     1       8.059  -4.641   6.083  1.00  0.00     0.093 A 
ATOM      8  C   UNL     1       8.898  -5.753   6.185  1.00  0.00     0.123 A 
ATOM      9  C   UNL     1       8.351  -7.034   6.201  1.00  0.00     0.094 A 
ATOM     10  C   UNL     1       6.967  -7.214   6.148  1.00  0.00     0.146 A 
ATOM     11  O   UNL     1       6.486  -8.451   6.176  1.00  0.00    -0.452 OA
ENDROOT
BRANCH   1  12
ATOM     12  C   UNL     1       4.784 -10.158   6.164  1.00  0.00     0.025 A 
ATOM     13  C   UNL     1       5.045 -10.942   7.299  1.00  0.00     0.016 A 
ATOM     14  C   UNL     1       4.690 -12.293   7.322  1.00  0.00     0.051 A 
ATOM     15  C   UNL     1       4.083 -12.884   6.206  1.00  0.00     0.157 A 
ATOM     16  C   UNL     1       4.193 -10.759   5.038  1.00  0.00     0.062 A 
ATOM     17  C   UNL     1       3.837 -12.113   5.057  1.00  0.00     0.158 A 
BRANCH  15  18
ATOM     18  O   UNL     1       3.728 -14.232   6.233  1.00  0.00    -0.504 OA
ATOM     19  H   UNL     1       4.356 -14.938   6.598  1.00  0.00     0.293 HD
ENDBRANCH  15  18
BRANCH  17  20
ATOM     20  O   UNL     1       3.248 -12.674   3.926  1.00  0.00    -0.504 OA
ATOM     21  H   UNL     1       3.589 -13.534   3.512  1.00  0.00     0.293 HD
ENDBRANCH  17  20
ENDBRANCH   1  12
BRANCH   2  22
ATOM     22  O   UNL     1       2.882  -7.972   6.216  1.00  0.00    -0.502 OA
ATOM     23  H   UNL     1       2.359  -7.923   7.082  1.00  0.00     0.293 HD
ENDBRANCH   2  22
BRANCH   6  24
ATOM     24  O   UNL     1       5.928  -3.622   5.796  1.00  0.00    -0.507 OA
ATOM     25  H   UNL     1       5.235  -3.268   6.438  1.00  0.00     0.293 HD
ENDBRANCH   6  24
BRANCH   8  26
ATOM     26  O   UNL     1      10.280  -5.596   6.260  1.00  0.00    -0.508 OA
ATOM     27  H   UNL     1      10.906  -6.096   5.639  1.00  0.00     0.293 HD
ENDBRANCH   8  26
TORSDOF 6
ENDMDL
MODEL 7
REMARK VINA RESULT:    -4.555      1.293      1.572
REMARK INTER + INTRA:          -5.350
REMARK INTER:                  -5.341
REMARK INTRA:                  -0.009
REMARK UNBOUND:                 0.137
REMARK SMILES O=c1c(O)c(-c2ccc(O)c(O)c2)oc2cc(O)cc(O)c12
REMARK SMILES IDX 5 1 3 2 2 3 1 4 22 5 20 6 19 7 17 8 16 9 15 10 14 11 6 12
REMARK SMILES IDX 7 13 8 14 9 15 13 16 11 17 10 18 12 20 4 22 21 24 18 26
REMARK H PARENT 10 19 12 21 4 23 21 25 18 27
REMARK Flexibility Score: inf
ROOT
ATOM      1  C   UNL     1       3.883 -14.924   6.378  1.00  0.00     0.180 A 
ATOM      2  C   UNL     1       3.936 -15.975   5.445  1.00  0.00     0.208 A 
ATOM      3  C   UNL     1       3.936 -17.299   5.913  1.00  0.00     0.238 A 
ATOM      4  O   UNL     1       4.038 -18.235   5.076  1.00  0.00    -0.285 OA
ATOM      5  C   UNL     1       3.865 -17.556   7.303  1.00  0.00     0.111 A 
ATOM      6  C   UNL     1       3.817 -18.858   7.885  1.00  0.00     0.134 A 
ATOM      7  C   UNL     1       3.881 -18.995   9.277  1.00  0.00     0.093 A 
ATOM      8  C   UNL     1       3.924 -17.875  10.109  1.00  0.00     0.123 A 
ATOM      9  C   UNL     1       3.911 -16.598   9.552  1.00  0.00     0.094 A 
ATOM     10  C   UNL     1       3.885 -16.430   8.166  1.00  0.00     0.146 A 
ATOM     11  O   UNL     1       3.884 -15.196   7.677  1.00  0.00    -0.452 OA
ENDROOT
BRANCH   1  12
ATOM     12  C   UNL     1       3.855 -13.503   5.962  1.00  0.00     0.025 A 
ATOM     13  C   UNL     1       2.907 -13.079   5.017  1.00  0.00     0.016 A 
ATOM     14  C   UNL     1       2.875 -11.748   4.594  1.00  0.00     0.051 A 
ATOM     15  C   UNL     1       3.800 -10.824   5.097  1.00  0.00     0.157 A 
ATOM     16  C   UNL     1       4.795 -12.577   6.450  1.00  0.00     0.062 A 
ATOM     17  C   UNL     1       4.767 -11.243   6.027  1.00  0.00     0.158 A 
BRANCH  15  18
ATOM     18  O   UNL     1       3.765  -9.495   4.676  1.00  0.00    -0.504 OA
ATOM     19  H   UNL     1       4.380  -8.796   5.076  1.00  0.00     0.293 HD
ENDBRANCH  15  18
BRANCH  17  20
ATOM     20  O   UNL     1       5.710 -10.352   6.536  1.00  0.00    -0.504 OA
ATOM     21  H   UNL     1       6.705 -10.497   6.420  1.00  0.00     0.293 HD
ENDBRANCH  17  20
ENDBRANCH   1  12
BRANCH   2  22
ATOM     22  O   UNL     1       4.027 -15.698   4.078  1.00  0.00    -0.502 OA
ATOM     23  H   UNL     1       4.783 -15.150   3.684  1.00  0.00     0.293 HD
ENDBRANCH   2  22
BRANCH   6  24
ATOM     24  O   UNL     1       3.680 -20.039   7.147  1.00  0.00    -0.507 OA
ATOM     25  H   UNL     1       4.117 -20.212   6.254  1.00  0.00     0.293 HD
ENDBRANCH   6  24
BRANCH   8  26
ATOM     26  O   UNL     1       3.971 -18.020  11.494  1.00  0.00    -0.508 OA
ATOM     27  H   UNL     1       4.578 -18.702  11.935  1.00  0.00     0.293 HD
ENDBRANCH   8  26
TORSDOF 6
ENDMDL
MODEL 8
REMARK VINA RESULT:    -4.436      1.456      6.763
REMARK INTER + INTRA:          -5.207
REMARK INTER:                  -5.643
REMARK INTRA:                   0.436
REMARK UNBOUND:                 0.137
REMARK SMILES O=c1c(O)c(-c2ccc(O)c(O)c2)oc2cc(O)cc(O)c12
REMARK SMILES IDX 5 1 3 2 2 3 1 4 22 5 20 6 19 7 17 8 16 9 15 10 14 11 6 12
REMARK SMILES IDX 7 13 8 14 9 15 13 16 11 17 10 18 12 20 4 22 21 24 18 26
REMARK H PARENT 10 19 12 21 4 23 21 25 18 27
REMARK Flexibility Score: inf
ROOT
ATOM      1  C   UNL     1       4.119 -15.042   6.331  1.00  0.00     0.180 A 
ATOM      2  C   UNL     1       3.614 -15.126   5.021  1.00  0.00     0.208 A 
ATOM      3  C   UNL     1       3.398 -13.942   4.298  1.00  0.00     0.238 A 
ATOM      4  O   UNL     1       2.895 -14.020   3.147  1.00  0.00    -0.285 OA
ATOM      5  C   UNL     1       3.705 -12.691   4.886  1.00  0.00     0.111 A 
ATOM      6  C   UNL     1       3.565 -11.431   4.231  1.00  0.00     0.134 A 
ATOM      7  C   UNL     1       3.775 -10.250   4.953  1.00  0.00     0.093 A 
ATOM      8  C   UNL     1       4.184 -10.285   6.288  1.00  0.00     0.123 A 
ATOM      9  C   UNL     1       4.381 -11.511   6.919  1.00  0.00     0.094 A 
ATOM     10  C   UNL     1       4.145 -12.707   6.236  1.00  0.00     0.146 A 
ATOM     11  O   UNL     1       4.336 -13.853   6.877  1.00  0.00    -0.452 OA
ENDROOT
BRANCH   1  12
ATOM     12  C   UNL     1       4.396 -16.247   7.146  1.00  0.00     0.025 A 
ATOM     13  C   UNL     1       4.538 -17.492   6.513  1.00  0.00     0.016 A 
ATOM     14  C   UNL     1       4.779 -18.645   7.264  1.00  0.00     0.051 A 
ATOM     15  C   UNL     1       4.866 -18.574   8.660  1.00  0.00     0.157 A 
ATOM     16  C   UNL     1       4.464 -16.182   8.550  1.00  0.00     0.062 A 
ATOM     17  C   UNL     1       4.704 -17.336   9.306  1.00  0.00     0.158 A 
BRANCH  15  18
ATOM     18  O   UNL     1       5.110 -19.725   9.407  1.00  0.00    -0.504 OA
ATOM     19  H   UNL     1       4.358 -20.232   9.860  1.00  0.00     0.293 HD
ENDBRANCH  15  18
BRANCH  17  20
ATOM     20  O   UNL     1       4.770 -17.234  10.694  1.00  0.00    -0.504 OA
ATOM     21  H   UNL     1       5.619 -16.961  11.174  1.00  0.00     0.293 HD
ENDBRANCH  17  20
ENDBRANCH   1  12
BRANCH   2  22
ATOM     22  O   UNL     1       3.296 -16.370   4.468  1.00  0.00    -0.502 OA
ATOM     23  H   UNL     1       2.583 -16.483   3.758  1.00  0.00     0.293 HD
ENDBRANCH   2  22
BRANCH   6  24
ATOM     24  O   UNL     1       3.250 -11.287   2.876  1.00  0.00    -0.507 OA
ATOM     25  H   UNL     1       3.804 -10.769   2.210  1.00  0.00     0.293 HD
ENDBRANCH   6  24
BRANCH   8  26
ATOM     26  O   UNL     1       4.406  -9.106   6.994  1.00  0.00    -0.508 OA
ATOM     27  H   UNL     1       5.221  -8.986   7.585  1.00  0.00     0.293 HD
ENDBRANCH   8  26
TORSDOF 6
ENDMDL
MODEL 9
REMARK VINA RESULT:    -4.191      6.348     11.283
REMARK INTER + INTRA:          -4.912
REMARK INTER:                  -4.947
REMARK INTRA:                   0.035
REMARK UNBOUND:                 0.137
REMARK SMILES O=c1c(O)c(-c2ccc(O)c(O)c2)oc2cc(O)cc(O)c12
REMARK SMILES IDX 5 1 3 2 2 3 1 4 22 5 20 6 19 7 17 8 16 9 15 10 14 11 6 12
REMARK SMILES IDX 7 13 8 14 9 15 13 16 11 17 10 18 12 20 4 22 21 24 18 26
REMARK H PARENT 10 19 12 21 4 23 21 25 18 27
REMARK Flexibility Score: inf
ROOT
ATOM      1  C   UNL     1       5.086  -6.842   5.894  1.00  0.00     0.180 A 
ATOM      2  C   UNL     1       6.417  -6.566   6.257  1.00  0.00     0.208 A 
ATOM      3  C   UNL     1       6.805  -5.232   6.451  1.00  0.00     0.238 A 
ATOM      4  O   UNL     1       8.010  -4.986   6.723  1.00  0.00    -0.285 OA
ATOM      5  C   UNL     1       5.857  -4.191   6.299  1.00  0.00     0.111 A 
ATOM      6  C   UNL     1       6.131  -2.807   6.512  1.00  0.00     0.134 A 
ATOM      7  C   UNL     1       5.152  -1.855   6.205  1.00  0.00     0.093 A 
ATOM      8  C   UNL     1       3.887  -2.240   5.755  1.00  0.00     0.123 A 
ATOM      9  C   UNL     1       3.591  -3.593   5.601  1.00  0.00     0.094 A 
ATOM     10  C   UNL     1       4.559  -4.565   5.864  1.00  0.00     0.146 A 
ATOM     11  O   UNL     1       4.237  -5.842   5.695  1.00  0.00    -0.452 OA
ENDROOT
BRANCH   1  12
ATOM     12  C   UNL     1       4.595  -8.226   5.695  1.00  0.00     0.025 A 
ATOM     13  C   UNL     1       3.761  -8.512   4.603  1.00  0.00     0.016 A 
ATOM     14  C   UNL     1       3.269  -9.805   4.408  1.00  0.00     0.051 A 
ATOM     15  C   UNL     1       3.590 -10.827   5.310  1.00  0.00     0.157 A 
ATOM     16  C   UNL     1       4.899  -9.250   6.611  1.00  0.00     0.062 A 
ATOM     17  C   UNL     1       4.406 -10.546   6.420  1.00  0.00     0.158 A 
BRANCH  15  18
ATOM     18  O   UNL     1       3.100 -12.117   5.112  1.00  0.00    -0.504 OA
ATOM     19  H   UNL     1       2.157 -12.373   5.382  1.00  0.00     0.293 HD
ENDBRANCH  15  18
BRANCH  17  20
ATOM     20  O   UNL     1       4.733 -11.537   7.343  1.00  0.00    -0.504 OA
ATOM     21  H   UNL     1       5.659 -11.942   7.393  1.00  0.00     0.293 HD
ENDBRANCH  17  20
ENDBRANCH   1  12
BRANCH   2  22
ATOM     22  O   UNL     1       7.342  -7.607   6.380  1.00  0.00    -0.502 OA
ATOM     23  H   UNL     1       7.925  -7.909   5.610  1.00  0.00     0.293 HD
ENDBRANCH   2  22
BRANCH   6  24
ATOM     24  O   UNL     1       7.329  -2.321   7.045  1.00  0.00    -0.507 OA
ATOM     25  H   UNL     1       7.602  -2.402   8.013  1.00  0.00     0.293 HD
ENDBRANCH   6  24
BRANCH   8  26
ATOM     26  O   UNL     1       2.914  -1.286   5.466  1.00  0.00    -0.508 OA
ATOM     27  H   UNL     1       2.244  -0.985   6.164  1.00  0.00     0.293 HD
ENDBRANCH   8  26
TORSDOF 6
ENDMDL
