MODEL 1
REMARK VINA RESULT:    -1.684      0.000      0.000
REMARK INTER + INTRA:          -6.568
REMARK INTER:                  -3.259
REMARK INTRA:                  -3.309
REMARK UNBOUND:                -3.309
REMARK SMILES CCCCCCCCCCCCCCCCCC(=O)[O-]
REMARK SMILES IDX 10 1 11 2 12 3 13 4 14 5 15 6 16 7 17 8 18 9 19 10 20 11
REMARK SMILES IDX 9 12 8 13 7 14 6 15 5 16 4 17 3 18 2 19 1 20
REMARK H PARENT
REMARK Flexibility Score: inf
ROOT
ATOM      1  C   UNL     1     174.950 189.732 178.882  1.00  0.00     0.000 C 
ENDROOT
BRANCH   1   2
ATOM      2  C   UNL     1     173.825 188.695 178.746  1.00  0.00     0.000 C 
BRANCH   2   3
ATOM      3  C   UNL     1     173.313 188.257 180.126  1.00  0.00     0.000 C 
BRANCH   3   4
ATOM      4  C   UNL     1     171.844 187.806 180.100  1.00  0.00     0.000 C 
BRANCH   4   5
ATOM      5  C   UNL     1     171.196 187.816 181.496  1.00  0.00     0.000 C 
BRANCH   5   6
ATOM      6  C   UNL     1     172.231 187.725 182.628  1.00  0.00     0.000 C 
BRANCH   6   7
ATOM      7  C   UNL     1     171.762 188.422 183.918  1.00  0.00     0.006 C 
BRANCH   7   8
ATOM      8  C   UNL     1     172.768 188.253 185.065  1.00  0.00     0.053 C 
BRANCH   8   9
ATOM      9  C   UNL     1     172.822 186.838 185.552  1.00  0.00     0.041 C 
ATOM     10  O   UNL     1     171.758 186.199 185.766  1.00  0.00    -0.550 OA
ATOM     11  O   UNL     1     174.049 186.233 185.798  1.00  0.00    -0.550 OA
ENDBRANCH   8   9
ENDBRANCH   7   8
ENDBRANCH   6   7
ENDBRANCH   5   6
ENDBRANCH   4   5
ENDBRANCH   3   4
ENDBRANCH   2   3
ENDBRANCH   1   2
BRANCH   1  12
ATOM     12  C   UNL     1     174.567 191.103 178.302  1.00  0.00     0.000 C 
BRANCH  12  13
ATOM     13  C   UNL     1     173.236 191.070 177.529  1.00  0.00    -0.000 C 
BRANCH  13  14
ATOM     14  C   UNL     1     172.178 192.005 178.153  1.00  0.00    -0.000 C 
BRANCH  14  15
ATOM     15  C   UNL     1     170.966 191.257 178.734  1.00  0.00    -0.000 C 
BRANCH  15  16
ATOM     16  C   UNL     1     170.875 191.370 180.264  1.00  0.00    -0.000 C 
BRANCH  16  17
ATOM     17  C   UNL     1     172.077 192.110 180.879  1.00  0.00    -0.000 C 
BRANCH  17  18
ATOM     18  C   UNL     1     172.770 191.372 182.042  1.00  0.00    -0.000 C 
BRANCH  18  19
ATOM     19  C   UNL     1     174.309 191.414 182.015  1.00  0.00    -0.003 C 
ATOM     20  C   UNL     1     174.948 190.389 182.950  1.00  0.00     0.004 C 
ENDBRANCH  18  19
ENDBRANCH  17  18
ENDBRANCH  16  17
ENDBRANCH  15  16
ENDBRANCH  14  15
ENDBRANCH  13  14
ENDBRANCH  12  13
ENDBRANCH   1  12
TORSDOF 16
ENDMDL
MODEL 2
REMARK VINA RESULT:    -1.649      3.140      5.766
REMARK INTER + INTRA:          -6.501
REMARK INTER:                  -3.385
REMARK INTRA:                  -3.116
REMARK UNBOUND:                -3.309
REMARK SMILES CCCCCCCCCCCCCCCCCC(=O)[O-]
REMARK SMILES IDX 10 1 11 2 12 3 13 4 14 5 15 6 16 7 17 8 18 9 19 10 20 11
REMARK SMILES IDX 9 12 8 13 7 14 6 15 5 16 4 17 3 18 2 19 1 20
REMARK H PARENT
REMARK Flexibility Score: inf
ROOT
ATOM      1  C   UNL     1     175.014 186.703 182.569  1.00  0.00     0.000 C 
ENDROOT
BRANCH   1   2
ATOM      2  C   UNL     1     175.383 188.144 182.189  1.00  0.00     0.000 C 
BRANCH   2   3
ATOM      3  C   UNL     1     174.172 188.884 181.600  1.00  0.00     0.000 C 
BRANCH   3   4
ATOM      4  C   UNL     1     174.288 190.411 181.730  1.00  0.00     0.000 C 
BRANCH   4   5
ATOM      5  C   UNL     1     173.078 191.039 182.444  1.00  0.00     0.000 C 
BRANCH   5   6
ATOM      6  C   UNL     1     171.738 190.583 181.846  1.00  0.00     0.000 C 
BRANCH   6   7
ATOM      7  C   UNL     1     171.304 191.439 180.643  1.00  0.00     0.006 C 
BRANCH   7   8
ATOM      8  C   UNL     1     170.876 190.579 179.446  1.00  0.00     0.053 C 
BRANCH   8   9
ATOM      9  C   UNL     1     172.056 190.000 178.727  1.00  0.00     0.041 C 
ATOM     10  O   UNL     1     172.186 188.752 178.623  1.00  0.00    -0.550 OA
ATOM     11  O   UNL     1     173.027 190.840 178.196  1.00  0.00    -0.550 OA
ENDBRANCH   8   9
ENDBRANCH   7   8
ENDBRANCH   6   7
ENDBRANCH   5   6
ENDBRANCH   4   5
ENDBRANCH   3   4
ENDBRANCH   2   3
ENDBRANCH   1   2
BRANCH   1  12
ATOM     12  C   UNL     1     173.684 186.246 181.947  1.00  0.00     0.000 C 
BRANCH  12  13
ATOM     13  C   UNL     1     173.032 185.089 182.726  1.00  0.00    -0.000 C 
BRANCH  13  14
ATOM     14  C   UNL     1     171.718 185.518 183.413  1.00  0.00    -0.000 C 
BRANCH  14  15
ATOM     15  C   UNL     1     171.357 186.995 183.177  1.00  0.00    -0.000 C 
BRANCH  15  16
ATOM     16  C   UNL     1     171.226 187.791 184.485  1.00  0.00    -0.000 C 
BRANCH  16  17
ATOM     17  C   UNL     1     172.529 188.512 184.877  1.00  0.00    -0.000 C 
BRANCH  17  18
ATOM     18  C   UNL     1     173.516 187.666 185.705  1.00  0.00    -0.000 C 
BRANCH  18  19
ATOM     19  C   UNL     1     174.784 188.407 186.165  1.00  0.00    -0.003 C 
ATOM     20  C   UNL     1     174.952 189.770 185.494  1.00  0.00     0.004 C 
ENDBRANCH  18  19
ENDBRANCH  17  18
ENDBRANCH  16  17
ENDBRANCH  15  16
ENDBRANCH  14  15
ENDBRANCH  13  14
ENDBRANCH  12  13
ENDBRANCH   1  12
TORSDOF 16
ENDMDL
MODEL 3
REMARK VINA RESULT:    -1.586      4.022      6.845
REMARK INTER + INTRA:          -6.379
REMARK INTER:                  -3.769
REMARK INTRA:                  -2.610
REMARK UNBOUND:                -3.309
REMARK SMILES CCCCCCCCCCCCCCCCCC(=O)[O-]
REMARK SMILES IDX 10 1 11 2 12 3 13 4 14 5 15 6 16 7 17 8 18 9 19 10 20 11
REMARK SMILES IDX 9 12 8 13 7 14 6 15 5 16 4 17 3 18 2 19 1 20
REMARK H PARENT
REMARK Flexibility Score: inf
ROOT
ATOM      1  C   UNL     1     173.088 187.950 184.864  1.00  0.00     0.000 C 
ENDROOT
BRANCH   1   2
ATOM      2  C   UNL     1     173.229 186.882 183.770  1.00  0.00     0.000 C 
BRANCH   2   3
ATOM      3  C   UNL     1     173.895 187.467 182.515  1.00  0.00     0.000 C 
BRANCH   3   4
ATOM      4  C   UNL     1     175.410 187.667 182.684  1.00  0.00     0.000 C 
BRANCH   4   5
ATOM      5  C   UNL     1     175.848 189.120 182.432  1.00  0.00     0.000 C 
BRANCH   5   6
ATOM      6  C   UNL     1     174.803 189.922 181.639  1.00  0.00     0.000 C 
BRANCH   6   7
ATOM      7  C   UNL     1     174.265 191.131 182.424  1.00  0.00     0.006 C 
BRANCH   7   8
ATOM      8  C   UNL     1     172.756 191.027 182.684  1.00  0.00     0.053 C 
BRANCH   8   9
ATOM      9  C   UNL     1     171.986 190.828 181.414  1.00  0.00     0.041 C 
ATOM     10  O   UNL     1     171.903 191.759 180.570  1.00  0.00    -0.550 OA
ATOM     11  O   UNL     1     171.337 189.623 181.176  1.00  0.00    -0.550 OA
ENDBRANCH   8   9
ENDBRANCH   7   8
ENDBRANCH   6   7
ENDBRANCH   5   6
ENDBRANCH   4   5
ENDBRANCH   3   4
ENDBRANCH   2   3
ENDBRANCH   1   2
BRANCH   1  12
ATOM     12  C   UNL     1     173.880 187.606 186.136  1.00  0.00     0.000 C 
BRANCH  12  13
ATOM     13  C   UNL     1     175.156 188.453 186.286  1.00  0.00    -0.000 C 
BRANCH  13  14
ATOM     14  C   UNL     1     174.930 189.924 185.878  1.00  0.00    -0.000 C 
BRANCH  14  15
ATOM     15  C   UNL     1     176.191 190.796 186.007  1.00  0.00    -0.000 C 
BRANCH  15  16
ATOM     16  C   UNL     1     176.071 191.856 187.113  1.00  0.00    -0.000 C 
BRANCH  16  17
ATOM     17  C   UNL     1     177.309 191.908 188.027  1.00  0.00    -0.000 C 
BRANCH  17  18
ATOM     18  C   UNL     1     177.542 190.644 188.878  1.00  0.00    -0.000 C 
BRANCH  18  19
ATOM     19  C   UNL     1     178.820 189.856 188.539  1.00  0.00    -0.003 C 
ATOM     20  C   UNL     1     178.530 188.505 187.887  1.00  0.00     0.004 C 
ENDBRANCH  18  19
ENDBRANCH  17  18
ENDBRANCH  16  17
ENDBRANCH  15  16
ENDBRANCH  14  15
ENDBRANCH  13  14
ENDBRANCH  12  13
ENDBRANCH   1  12
TORSDOF 16
ENDMDL
MODEL 4
REMARK VINA RESULT:    -1.574      1.997      4.384
REMARK INTER + INTRA:          -6.355
REMARK INTER:                  -3.368
REMARK INTRA:                  -2.987
REMARK UNBOUND:                -3.309
REMARK SMILES CCCCCCCCCCCCCCCCCC(=O)[O-]
REMARK SMILES IDX 10 1 11 2 12 3 13 4 14 5 15 6 16 7 17 8 18 9 19 10 20 11
REMARK SMILES IDX 9 12 8 13 7 14 6 15 5 16 4 17 3 18 2 19 1 20
REMARK H PARENT
REMARK Flexibility Score: inf
ROOT
ATOM      1  C   UNL     1     175.159 189.808 182.219  1.00  0.00     0.000 C 
ENDROOT
BRANCH   1   2
ATOM      2  C   UNL     1     176.542 190.122 182.807  1.00  0.00     0.000 C 
BRANCH   2   3
ATOM      3  C   UNL     1     176.440 191.182 183.914  1.00  0.00     0.000 C 
BRANCH   3   4
ATOM      4  C   UNL     1     176.828 190.636 185.298  1.00  0.00     0.000 C 
BRANCH   4   5
ATOM      5  C   UNL     1     175.627 190.542 186.255  1.00  0.00     0.000 C 
BRANCH   5   6
ATOM      6  C   UNL     1     174.821 189.247 186.065  1.00  0.00     0.000 C 
BRANCH   6   7
ATOM      7  C   UNL     1     175.717 188.022 185.815  1.00  0.00     0.006 C 
BRANCH   7   8
ATOM      8  C   UNL     1     175.092 187.043 184.810  1.00  0.00     0.053 C 
BRANCH   8   9
ATOM      9  C   UNL     1     174.616 185.790 185.479  1.00  0.00     0.041 C 
ATOM     10  O   UNL     1     173.436 185.387 185.303  1.00  0.00    -0.550 OA
ATOM     11  O   UNL     1     175.468 185.083 186.318  1.00  0.00    -0.550 OA
ENDBRANCH   8   9
ENDBRANCH   7   8
ENDBRANCH   6   7
ENDBRANCH   5   6
ENDBRANCH   4   5
ENDBRANCH   3   4
ENDBRANCH   2   3
ENDBRANCH   1   2
BRANCH   1  12
ATOM     12  C   UNL     1     174.037 190.635 182.865  1.00  0.00     0.000 C 
BRANCH  12  13
ATOM     13  C   UNL     1     173.302 191.532 181.852  1.00  0.00    -0.000 C 
BRANCH  13  14
ATOM     14  C   UNL     1     171.887 191.006 181.530  1.00  0.00    -0.000 C 
BRANCH  14  15
ATOM     15  C   UNL     1     171.850 190.041 180.333  1.00  0.00    -0.000 C 
BRANCH  15  16
ATOM     16  C   UNL     1     171.007 188.785 180.607  1.00  0.00    -0.000 C 
BRANCH  16  17
ATOM     17  C   UNL     1     171.868 187.534 180.863  1.00  0.00    -0.000 C 
BRANCH  17  18
ATOM     18  C   UNL     1     172.369 187.375 182.313  1.00  0.00    -0.000 C 
BRANCH  18  19
ATOM     19  C   UNL     1     171.270 187.419 183.390  1.00  0.00    -0.003 C 
ATOM     20  C   UNL     1     171.528 188.479 184.459  1.00  0.00     0.004 C 
ENDBRANCH  18  19
ENDBRANCH  17  18
ENDBRANCH  16  17
ENDBRANCH  15  16
ENDBRANCH  14  15
ENDBRANCH  13  14
ENDBRANCH  12  13
ENDBRANCH   1  12
TORSDOF 16
ENDMDL
MODEL 5
REMARK VINA RESULT:    -1.567      2.477      3.755
REMARK INTER + INTRA:          -6.342
REMARK INTER:                  -3.369
REMARK INTRA:                  -2.973
REMARK UNBOUND:                -3.309
REMARK SMILES CCCCCCCCCCCCCCCCCC(=O)[O-]
REMARK SMILES IDX 10 1 11 2 12 3 13 4 14 5 15 6 16 7 17 8 18 9 19 10 20 11
REMARK SMILES IDX 9 12 8 13 7 14 6 15 5 16 4 17 3 18 2 19 1 20
REMARK H PARENT
REMARK Flexibility Score: inf
ROOT
ATOM      1  C   UNL     1     176.179 189.177 180.982  1.00  0.00     0.000 C 
ENDROOT
BRANCH   1   2
ATOM      2  C   UNL     1     174.937 188.517 180.367  1.00  0.00     0.000 C 
BRANCH   2   3
ATOM      3  C   UNL     1     174.096 187.817 181.446  1.00  0.00     0.000 C 
BRANCH   3   4
ATOM      4  C   UNL     1     174.892 186.758 182.226  1.00  0.00     0.000 C 
BRANCH   4   5
ATOM      5  C   UNL     1     174.878 187.005 183.744  1.00  0.00     0.000 C 
BRANCH   5   6
ATOM      6  C   UNL     1     173.905 188.124 184.151  1.00  0.00     0.000 C 
BRANCH   6   7
ATOM      7  C   UNL     1     174.263 188.756 185.507  1.00  0.00     0.006 C 
BRANCH   7   8
ATOM      8  C   UNL     1     175.000 190.093 185.346  1.00  0.00     0.053 C 
BRANCH   8   9
ATOM      9  C   UNL     1     175.784 190.447 186.572  1.00  0.00     0.041 C 
ATOM     10  O   UNL     1     175.754 191.620 187.027  1.00  0.00    -0.550 OA
ATOM     11  O   UNL     1     176.571 189.486 187.196  1.00  0.00    -0.550 OA
ENDBRANCH   8   9
ENDBRANCH   7   8
ENDBRANCH   6   7
ENDBRANCH   5   6
ENDBRANCH   4   5
ENDBRANCH   3   4
ENDBRANCH   2   3
ENDBRANCH   1   2
BRANCH   1  12
ATOM     12  C   UNL     1     175.932 190.634 181.403  1.00  0.00     0.000 C 
BRANCH  12  13
ATOM     13  C   UNL     1     175.005 191.383 180.428  1.00  0.00    -0.000 C 
BRANCH  13  14
ATOM     14  C   UNL     1     173.810 192.040 181.151  1.00  0.00    -0.000 C 
BRANCH  14  15
ATOM     15  C   UNL     1     173.362 191.279 182.410  1.00  0.00    -0.000 C 
BRANCH  15  16
ATOM     16  C   UNL     1     171.921 190.753 182.306  1.00  0.00    -0.000 C 
BRANCH  16  17
ATOM     17  C   UNL     1     171.340 190.884 180.886  1.00  0.00    -0.000 C 
BRANCH  17  18
ATOM     18  C   UNL     1     171.154 189.552 180.134  1.00  0.00    -0.000 C 
BRANCH  18  19
ATOM     19  C   UNL     1     171.775 189.506 178.726  1.00  0.00    -0.003 C 
ATOM     20  C   UNL     1     172.070 190.894 178.161  1.00  0.00     0.004 C 
ENDBRANCH  18  19
ENDBRANCH  17  18
ENDBRANCH  16  17
ENDBRANCH  15  16
ENDBRANCH  14  15
ENDBRANCH  13  14
ENDBRANCH  12  13
ENDBRANCH   1  12
TORSDOF 16
ENDMDL
MODEL 6
REMARK VINA RESULT:    -1.545      3.558      6.540
REMARK INTER + INTRA:          -6.299
REMARK INTER:                  -3.319
REMARK INTRA:                  -2.980
REMARK UNBOUND:                -3.309
REMARK SMILES CCCCCCCCCCCCCCCCCC(=O)[O-]
REMARK SMILES IDX 10 1 11 2 12 3 13 4 14 5 15 6 16 7 17 8 18 9 19 10 20 11
REMARK SMILES IDX 9 12 8 13 7 14 6 15 5 16 4 17 3 18 2 19 1 20
REMARK H PARENT
REMARK Flexibility Score: inf
ROOT
ATOM      1  C   UNL     1     175.939 186.795 186.036  1.00  0.00     0.000 C 
ENDROOT
BRANCH   1   2
ATOM      2  C   UNL     1     175.094 187.148 187.268  1.00  0.00     0.000 C 
BRANCH   2   3
ATOM      3  C   UNL     1     173.622 186.768 187.051  1.00  0.00     0.000 C 
BRANCH   3   4
ATOM      4  C   UNL     1     173.314 186.387 185.594  1.00  0.00     0.000 C 
BRANCH   4   5
ATOM      5  C   UNL     1     171.891 186.786 185.165  1.00  0.00     0.000 C 
BRANCH   5   6
ATOM      6  C   UNL     1     171.823 188.216 184.604  1.00  0.00     0.000 C 
BRANCH   6   7
ATOM      7  C   UNL     1     173.203 188.754 184.185  1.00  0.00     0.006 C 
BRANCH   7   8
ATOM      8  C   UNL     1     173.324 188.909 182.663  1.00  0.00     0.053 C 
BRANCH   8   9
ATOM      9  C   UNL     1     173.522 190.340 182.264  1.00  0.00     0.041 C 
ATOM     10  O   UNL     1     172.767 191.236 182.723  1.00  0.00    -0.550 OA
ATOM     11  O   UNL     1     174.524 190.679 181.363  1.00  0.00    -0.550 OA
ENDBRANCH   8   9
ENDBRANCH   7   8
ENDBRANCH   6   7
ENDBRANCH   5   6
ENDBRANCH   4   5
ENDBRANCH   3   4
ENDBRANCH   2   3
ENDBRANCH   1   2
BRANCH   1  12
ATOM     12  C   UNL     1     177.404 187.241 186.172  1.00  0.00     0.000 C 
BRANCH  12  13
ATOM     13  C   UNL     1     177.953 187.874 184.880  1.00  0.00    -0.000 C 
BRANCH  13  14
ATOM     14  C   UNL     1     176.872 188.666 184.115  1.00  0.00    -0.000 C 
BRANCH  14  15
ATOM     15  C   UNL     1     177.265 190.127 183.837  1.00  0.00    -0.000 C 
BRANCH  15  16
ATOM     16  C   UNL     1     176.304 191.136 184.487  1.00  0.00    -0.000 C 
BRANCH  16  17
ATOM     17  C   UNL     1     175.649 190.594 185.770  1.00  0.00    -0.000 C 
BRANCH  17  18
ATOM     18  C   UNL     1     176.133 191.254 187.077  1.00  0.00    -0.000 C 
BRANCH  18  19
ATOM     19  C   UNL     1     177.169 190.441 187.873  1.00  0.00    -0.003 C 
ATOM     20  C   UNL     1     178.596 190.636 187.366  1.00  0.00     0.004 C 
ENDBRANCH  18  19
ENDBRANCH  17  18
ENDBRANCH  16  17
ENDBRANCH  15  16
ENDBRANCH  14  15
ENDBRANCH  13  14
ENDBRANCH  12  13
ENDBRANCH   1  12
TORSDOF 16
ENDMDL
MODEL 7
REMARK VINA RESULT:    -1.542      2.395      4.233
REMARK INTER + INTRA:          -6.293
REMARK INTER:                  -3.292
REMARK INTRA:                  -3.001
REMARK UNBOUND:                -3.309
REMARK SMILES CCCCCCCCCCCCCCCCCC(=O)[O-]
REMARK SMILES IDX 10 1 11 2 12 3 13 4 14 5 15 6 16 7 17 8 18 9 19 10 20 11
REMARK SMILES IDX 9 12 8 13 7 14 6 15 5 16 4 17 3 18 2 19 1 20
REMARK H PARENT
REMARK Flexibility Score: inf
ROOT
ATOM      1  C   UNL     1     172.137 187.931 181.781  1.00  0.00     0.000 C 
ENDROOT
BRANCH   1   2
ATOM      2  C   UNL     1     171.130 187.272 182.733  1.00  0.00     0.000 C 
BRANCH   2   3
ATOM      3  C   UNL     1     171.126 187.973 184.099  1.00  0.00     0.000 C 
BRANCH   3   4
ATOM      4  C   UNL     1     172.430 188.738 184.380  1.00  0.00     0.000 C 
BRANCH   4   5
ATOM      5  C   UNL     1     173.421 187.926 185.230  1.00  0.00     0.000 C 
BRANCH   5   6
ATOM      6  C   UNL     1     174.784 187.749 184.541  1.00  0.00     0.000 C 
BRANCH   6   7
ATOM      7  C   UNL     1     175.959 188.202 185.425  1.00  0.00     0.006 C 
BRANCH   7   8
ATOM      8  C   UNL     1     176.718 189.388 184.815  1.00  0.00     0.053 C 
BRANCH   8   9
ATOM      9  C   UNL     1     176.522 190.642 185.612  1.00  0.00     0.041 C 
ATOM     10  O   UNL     1     177.416 191.528 185.630  1.00  0.00    -0.550 OA
ATOM     11  O   UNL     1     175.363 190.818 186.358  1.00  0.00    -0.550 OA
ENDBRANCH   8   9
ENDBRANCH   7   8
ENDBRANCH   6   7
ENDBRANCH   5   6
ENDBRANCH   4   5
ENDBRANCH   3   4
ENDBRANCH   2   3
ENDBRANCH   1   2
BRANCH   1  12
ATOM     12  C   UNL     1     171.461 188.632 180.591  1.00  0.00     0.000 C 
BRANCH  12  13
ATOM     13  C   UNL     1     171.179 190.121 180.862  1.00  0.00    -0.000 C 
BRANCH  13  14
ATOM     14  C   UNL     1     171.919 191.042 179.868  1.00  0.00    -0.000 C 
BRANCH  14  15
ATOM     15  C   UNL     1     172.990 191.924 180.532  1.00  0.00    -0.000 C 
BRANCH  15  16
ATOM     16  C   UNL     1     173.108 191.679 182.045  1.00  0.00    -0.000 C 
BRANCH  16  17
ATOM     17  C   UNL     1     174.452 191.044 182.443  1.00  0.00    -0.000 C 
BRANCH  17  18
ATOM     18  C   UNL     1     175.327 190.579 181.261  1.00  0.00    -0.000 C 
BRANCH  18  19
ATOM     19  C   UNL     1     175.542 189.058 181.168  1.00  0.00    -0.003 C 
ATOM     20  C   UNL     1     175.267 188.503 179.772  1.00  0.00     0.004 C 
ENDBRANCH  18  19
ENDBRANCH  17  18
ENDBRANCH  16  17
ENDBRANCH  15  16
ENDBRANCH  14  15
ENDBRANCH  13  14
ENDBRANCH  12  13
ENDBRANCH   1  12
TORSDOF 16
ENDMDL
MODEL 8
REMARK VINA RESULT:    -1.508      1.589      3.409
REMARK INTER + INTRA:          -6.227
REMARK INTER:                  -2.823
REMARK INTRA:                  -3.404
REMARK UNBOUND:                -3.309
REMARK SMILES CCCCCCCCCCCCCCCCCC(=O)[O-]
REMARK SMILES IDX 10 1 11 2 12 3 13 4 14 5 15 6 16 7 17 8 18 9 19 10 20 11
REMARK SMILES IDX 9 12 8 13 7 14 6 15 5 16 4 17 3 18 2 19 1 20
REMARK H PARENT
REMARK Flexibility Score: inf
ROOT
ATOM      1  C   UNL     1     175.650 188.685 179.691  1.00  0.00     0.000 C 
ENDROOT
BRANCH   1   2
ATOM      2  C   UNL     1     175.998 187.938 180.986  1.00  0.00     0.000 C 
BRANCH   2   3
ATOM      3  C   UNL     1     176.234 188.923 182.141  1.00  0.00     0.000 C 
BRANCH   3   4
ATOM      4  C   UNL     1     175.747 188.380 183.494  1.00  0.00     0.000 C 
BRANCH   4   5
ATOM      5  C   UNL     1     175.738 189.455 184.595  1.00  0.00     0.000 C 
BRANCH   5   6
ATOM      6  C   UNL     1     174.608 189.245 185.616  1.00  0.00     0.000 C 
BRANCH   6   7
ATOM      7  C   UNL     1     174.781 187.953 186.434  1.00  0.00     0.006 C 
BRANCH   7   8
ATOM      8  C   UNL     1     173.500 187.108 186.457  1.00  0.00     0.053 C 
BRANCH   8   9
ATOM      9  C   UNL     1     173.559 185.983 185.469  1.00  0.00     0.041 C 
ATOM     10  O   UNL     1     174.667 185.479 185.147  1.00  0.00    -0.550 OA
ATOM     11  O   UNL     1     172.391 185.511 184.882  1.00  0.00    -0.550 OA
ENDBRANCH   8   9
ENDBRANCH   7   8
ENDBRANCH   6   7
ENDBRANCH   5   6
ENDBRANCH   4   5
ENDBRANCH   3   4
ENDBRANCH   2   3
ENDBRANCH   1   2
BRANCH   1  12
ATOM     12  C   UNL     1     175.478 190.197 179.905  1.00  0.00     0.000 C 
BRANCH  12  13
ATOM     13  C   UNL     1     174.241 190.762 179.182  1.00  0.00    -0.000 C 
BRANCH  13  14
ATOM     14  C   UNL     1     173.202 191.334 180.170  1.00  0.00    -0.000 C 
BRANCH  14  15
ATOM     15  C   UNL     1     173.787 191.654 181.557  1.00  0.00    -0.000 C 
BRANCH  15  16
ATOM     16  C   UNL     1     172.963 191.045 182.703  1.00  0.00    -0.000 C 
BRANCH  16  17
ATOM     17  C   UNL     1     171.993 189.950 182.224  1.00  0.00    -0.000 C 
BRANCH  17  18
ATOM     18  C   UNL     1     172.185 188.573 182.891  1.00  0.00    -0.000 C 
BRANCH  18  19
ATOM     19  C   UNL     1     172.452 187.410 181.919  1.00  0.00    -0.003 C 
ATOM     20  C   UNL     1     172.165 187.773 180.463  1.00  0.00     0.004 C 
ENDBRANCH  18  19
ENDBRANCH  17  18
ENDBRANCH  16  17
ENDBRANCH  15  16
ENDBRANCH  14  15
ENDBRANCH  13  14
ENDBRANCH  12  13
ENDBRANCH   1  12
TORSDOF 16
ENDMDL
MODEL 9
REMARK VINA RESULT:    -1.474      3.456      5.725
REMARK INTER + INTRA:          -6.163
REMARK INTER:                  -2.969
REMARK INTRA:                  -3.194
REMARK UNBOUND:                -3.309
REMARK SMILES CCCCCCCCCCCCCCCCCC(=O)[O-]
REMARK SMILES IDX 10 1 11 2 12 3 13 4 14 5 15 6 16 7 17 8 18 9 19 10 20 11
REMARK SMILES IDX 9 12 8 13 7 14 6 15 5 16 4 17 3 18 2 19 1 20
REMARK H PARENT
REMARK Flexibility Score: inf
ROOT
ATOM      1  C   UNL     1     176.717 186.324 182.682  1.00  0.00     0.000 C 
ENDROOT
BRANCH   1   2
ATOM      2  C   UNL     1     175.872 185.708 183.806  1.00  0.00     0.000 C 
BRANCH   2   3
ATOM      3  C   UNL     1     174.449 185.399 183.316  1.00  0.00     0.000 C 
BRANCH   3   4
ATOM      4  C   UNL     1     173.365 185.909 184.279  1.00  0.00     0.000 C 
BRANCH   4   5
ATOM      5  C   UNL     1     172.514 187.037 183.671  1.00  0.00     0.000 C 
BRANCH   5   6
ATOM      6  C   UNL     1     172.470 186.980 182.135  1.00  0.00     0.000 C 
BRANCH   6   7
ATOM      7  C   UNL     1     172.407 188.377 181.493  1.00  0.00     0.006 C 
BRANCH   7   8
ATOM      8  C   UNL     1     172.037 189.466 182.510  1.00  0.00     0.053 C 
BRANCH   8   9
ATOM      9  C   UNL     1     172.060 190.831 181.895  1.00  0.00     0.041 C 
ATOM     10  O   UNL     1     172.890 191.691 182.291  1.00  0.00    -0.550 OA
ATOM     11  O   UNL     1     171.144 191.163 180.904  1.00  0.00    -0.550 OA
ENDBRANCH   8   9
ENDBRANCH   7   8
ENDBRANCH   6   7
ENDBRANCH   5   6
ENDBRANCH   4   5
ENDBRANCH   3   4
ENDBRANCH   2   3
ENDBRANCH   1   2
BRANCH   1  12
ATOM     12  C   UNL     1     176.097 187.608 182.107  1.00  0.00     0.000 C 
BRANCH  12  13
ATOM     13  C   UNL     1     176.570 188.876 182.841  1.00  0.00    -0.000 C 
BRANCH  13  14
ATOM     14  C   UNL     1     175.410 189.599 183.559  1.00  0.00    -0.000 C 
BRANCH  14  15
ATOM     15  C   UNL     1     175.881 190.588 184.639  1.00  0.00    -0.000 C 
BRANCH  15  16
ATOM     16  C   UNL     1     175.343 190.243 186.037  1.00  0.00    -0.000 C 
BRANCH  16  17
ATOM     17  C   UNL     1     174.687 188.852 186.096  1.00  0.00    -0.000 C 
BRANCH  17  18
ATOM     18  C   UNL     1     175.511 187.775 186.831  1.00  0.00    -0.000 C 
BRANCH  18  19
ATOM     19  C   UNL     1     176.967 188.168 187.142  1.00  0.00    -0.003 C 
ATOM     20  C   UNL     1     177.965 187.589 186.141  1.00  0.00     0.004 C 
ENDBRANCH  18  19
ENDBRANCH  17  18
ENDBRANCH  16  17
ENDBRANCH  15  16
ENDBRANCH  14  15
ENDBRANCH  13  14
ENDBRANCH  12  13
ENDBRANCH   1  12
TORSDOF 16
ENDMDL
