MODEL 1
REMARK VINA RESULT:    -3.810      0.000      0.000
REMARK INTER + INTRA:         -11.876
REMARK INTER:                  -8.711
REMARK INTRA:                  -3.165
REMARK UNBOUND:                -3.165
REMARK SMILES CCCCCCCCCCCCCCCCCCCCCCCC(=O)[O-]
REMARK SMILES IDX 13 1 14 2 15 3 16 4 17 5 18 6 19 7 20 8 21 9 22 10 23 11
REMARK SMILES IDX 24 12 25 13 26 14 12 15 11 16 10 17 9 18 8 19 7 20 6 21 5 22
REMARK SMILES IDX 4 23 3 24 2 25 1 26
REMARK H PARENT
REMARK Flexibility Score: inf
ROOT
ATOM      1  C   UNL     1      -1.125 -34.631  47.477  1.00  0.00     0.000 C 
ENDROOT
BRANCH   1   2
ATOM      2  C   UNL     1      -0.218 -35.766  47.982  1.00  0.00     0.000 C 
BRANCH   2   3
ATOM      3  C   UNL     1      -0.121 -36.945  46.995  1.00  0.00     0.000 C 
BRANCH   3   4
ATOM      4  C   UNL     1      -1.195 -36.965  45.891  1.00  0.00     0.000 C 
BRANCH   4   5
ATOM      5  C   UNL     1      -0.724 -36.307  44.583  1.00  0.00     0.000 C 
BRANCH   5   6
ATOM      6  C   UNL     1       0.808 -36.235  44.484  1.00  0.00     0.000 C 
BRANCH   6   7
ATOM      7  C   UNL     1       1.314 -34.793  44.316  1.00  0.00     0.000 C 
BRANCH   7   8
ATOM      8  C   UNL     1       2.672 -34.602  45.008  1.00  0.00     0.000 C 
BRANCH   8   9
ATOM      9  C   UNL     1       3.040 -35.782  45.921  1.00  0.00     0.000 C 
BRANCH   9  10
ATOM     10  C   UNL     1       3.937 -35.360  47.098  1.00  0.00     0.006 C 
BRANCH  10  11
ATOM     11  C   UNL     1       3.125 -35.015  48.354  1.00  0.00     0.053 C 
BRANCH  11  12
ATOM     12  C   UNL     1       3.006 -33.535  48.555  1.00  0.00     0.041 C 
ATOM     13  O   UNL     1       4.036 -32.811  48.548  1.00  0.00    -0.550 OA
ATOM     14  O   UNL     1       1.760 -32.960  48.772  1.00  0.00    -0.550 OA
ENDBRANCH  11  12
ENDBRANCH  10  11
ENDBRANCH   9  10
ENDBRANCH   8   9
ENDBRANCH   7   8
ENDBRANCH   6   7
ENDBRANCH   5   6
ENDBRANCH   4   5
ENDBRANCH   3   4
ENDBRANCH   2   3
ENDBRANCH   1   2
BRANCH   1  15
ATOM     15  C   UNL     1      -1.710 -33.787  48.619  1.00  0.00     0.000 C 
BRANCH  15  16
ATOM     16  C   UNL     1      -3.233 -33.958  48.767  1.00  0.00     0.000 C 
BRANCH  16  17
ATOM     17  C   UNL     1      -3.630 -35.405  49.101  1.00  0.00     0.000 C 
BRANCH  17  18
ATOM     18  C   UNL     1      -4.868 -35.873  48.317  1.00  0.00    -0.000 C 
BRANCH  18  19
ATOM     19  C   UNL     1      -4.587 -37.125  47.470  1.00  0.00    -0.000 C 
BRANCH  19  20
ATOM     20  C   UNL     1      -5.219 -37.042  46.073  1.00  0.00    -0.000 C 
BRANCH  20  21
ATOM     21  C   UNL     1      -4.455 -36.059  45.178  1.00  0.00    -0.000 C 
BRANCH  21  22
ATOM     22  C   UNL     1      -5.417 -35.277  44.277  1.00  0.00    -0.000 C 
BRANCH  22  23
ATOM     23  C   UNL     1      -6.059 -34.106  45.037  1.00  0.00    -0.000 C 
BRANCH  23  24
ATOM     24  C   UNL     1      -7.251 -34.558  45.905  1.00  0.00    -0.000 C 
BRANCH  24  25
ATOM     25  C   UNL     1      -7.355 -33.811  47.247  1.00  0.00    -0.003 C 
ATOM     26  C   UNL     1      -6.402 -32.622  47.347  1.00  0.00     0.004 C 
ENDBRANCH  24  25
ENDBRANCH  23  24
ENDBRANCH  22  23
ENDBRANCH  21  22
ENDBRANCH  20  21
ENDBRANCH  19  20
ENDBRANCH  18  19
ENDBRANCH  17  18
ENDBRANCH  16  17
ENDBRANCH  15  16
ENDBRANCH   1  15
TORSDOF 22
ENDMDL
MODEL 2
REMARK VINA RESULT:    -2.980      1.794      3.225
REMARK INTER + INTRA:          -9.977
REMARK INTER:                  -7.932
REMARK INTRA:                  -2.045
REMARK UNBOUND:                -3.165
REMARK SMILES CCCCCCCCCCCCCCCCCCCCCCCC(=O)[O-]
REMARK SMILES IDX 13 1 14 2 15 3 16 4 17 5 18 6 19 7 20 8 21 9 22 10 23 11
REMARK SMILES IDX 24 12 25 13 26 14 12 15 11 16 10 17 9 18 8 19 7 20 6 21 5 22
REMARK SMILES IDX 4 23 3 24 2 25 1 26
REMARK H PARENT
REMARK Flexibility Score: inf
ROOT
ATOM      1  C   UNL     1      -3.348 -33.993  47.223  1.00  0.00     0.000 C 
ENDROOT
BRANCH   1   2
ATOM      2  C   UNL     1      -1.978 -33.312  47.382  1.00  0.00     0.000 C 
BRANCH   2   3
ATOM      3  C   UNL     1      -1.212 -33.782  48.633  1.00  0.00     0.000 C 
BRANCH   3   4
ATOM      4  C   UNL     1      -0.472 -35.124  48.480  1.00  0.00     0.000 C 
BRANCH   4   5
ATOM      5  C   UNL     1       0.979 -35.071  48.990  1.00  0.00     0.000 C 
BRANCH   5   6
ATOM      6  C   UNL     1       1.498 -33.630  49.125  1.00  0.00     0.000 C 
BRANCH   6   7
ATOM      7  C   UNL     1       3.016 -33.535  48.900  1.00  0.00     0.000 C 
BRANCH   7   8
ATOM      8  C   UNL     1       3.370 -33.782  47.426  1.00  0.00     0.000 C 
BRANCH   8   9
ATOM      9  C   UNL     1       3.821 -35.228  47.162  1.00  0.00     0.000 C 
BRANCH   9  10
ATOM     10  C   UNL     1       3.167 -35.830  45.905  1.00  0.00     0.006 C 
BRANCH  10  11
ATOM     11  C   UNL     1       2.574 -34.753  44.986  1.00  0.00     0.053 C 
BRANCH  11  12
ATOM     12  C   UNL     1       1.187 -35.101  44.538  1.00  0.00     0.041 C 
ATOM     13  O   UNL     1       0.977 -36.166  43.900  1.00  0.00    -0.550 OA
ATOM     14  O   UNL     1       0.131 -34.238  44.807  1.00  0.00    -0.550 OA
ENDBRANCH  11  12
ENDBRANCH  10  11
ENDBRANCH   9  10
ENDBRANCH   8   9
ENDBRANCH   7   8
ENDBRANCH   6   7
ENDBRANCH   5   6
ENDBRANCH   4   5
ENDBRANCH   3   4
ENDBRANCH   2   3
ENDBRANCH   1   2
BRANCH   1  15
ATOM     15  C   UNL     1      -4.004 -34.327  48.571  1.00  0.00     0.000 C 
BRANCH  15  16
ATOM     16  C   UNL     1      -4.125 -35.842  48.815  1.00  0.00     0.000 C 
BRANCH  16  17
ATOM     17  C   UNL     1      -3.774 -36.667  47.567  1.00  0.00     0.000 C 
BRANCH  17  18
ATOM     18  C   UNL     1      -4.996 -36.927  46.669  1.00  0.00    -0.000 C 
BRANCH  18  19
ATOM     19  C   UNL     1      -4.608 -37.121  45.194  1.00  0.00    -0.000 C 
BRANCH  19  20
ATOM     20  C   UNL     1      -5.115 -35.979  44.300  1.00  0.00    -0.000 C 
BRANCH  20  21
ATOM     21  C   UNL     1      -5.158 -34.653  45.069  1.00  0.00    -0.000 C 
BRANCH  21  22
ATOM     22  C   UNL     1      -6.569 -34.055  45.050  1.00  0.00    -0.000 C 
BRANCH  22  23
ATOM     23  C   UNL     1      -7.399 -34.557  46.242  1.00  0.00    -0.000 C 
BRANCH  23  24
ATOM     24  C   UNL     1      -7.187 -33.696  47.504  1.00  0.00    -0.000 C 
BRANCH  24  25
ATOM     25  C   UNL     1      -6.520 -32.339  47.219  1.00  0.00    -0.003 C 
ATOM     26  C   UNL     1      -6.561 -31.387  48.413  1.00  0.00     0.004 C 
ENDBRANCH  24  25
ENDBRANCH  23  24
ENDBRANCH  22  23
ENDBRANCH  21  22
ENDBRANCH  20  21
ENDBRANCH  19  20
ENDBRANCH  18  19
ENDBRANCH  17  18
ENDBRANCH  16  17
ENDBRANCH  15  16
ENDBRANCH   1  15
TORSDOF 22
ENDMDL
MODEL 3
REMARK VINA RESULT:    -2.905      1.381      2.886
REMARK INTER + INTRA:          -9.806
REMARK INTER:                  -7.250
REMARK INTRA:                  -2.556
REMARK UNBOUND:                -3.165
REMARK SMILES CCCCCCCCCCCCCCCCCCCCCCCC(=O)[O-]
REMARK SMILES IDX 13 1 14 2 15 3 16 4 17 5 18 6 19 7 20 8 21 9 22 10 23 11
REMARK SMILES IDX 24 12 25 13 26 14 12 15 11 16 10 17 9 18 8 19 7 20 6 21 5 22
REMARK SMILES IDX 4 23 3 24 2 25 1 26
REMARK H PARENT
REMARK Flexibility Score: inf
ROOT
ATOM      1  C   UNL     1      -2.165 -35.672  45.456  1.00  0.00     0.000 C 
ENDROOT
BRANCH   1   2
ATOM      2  C   UNL     1      -1.392 -36.965  45.147  1.00  0.00     0.000 C 
BRANCH   2   3
ATOM      3  C   UNL     1       0.127 -36.744  45.018  1.00  0.00     0.000 C 
BRANCH   3   4
ATOM      4  C   UNL     1       0.703 -35.625  45.906  1.00  0.00     0.000 C 
BRANCH   4   5
ATOM      5  C   UNL     1       1.553 -34.612  45.119  1.00  0.00     0.000 C 
BRANCH   5   6
ATOM      6  C   UNL     1       3.056 -34.762  45.408  1.00  0.00     0.000 C 
BRANCH   6   7
ATOM      7  C   UNL     1       3.400 -36.133  46.012  1.00  0.00     0.000 C 
BRANCH   7   8
ATOM      8  C   UNL     1       4.031 -35.979  47.404  1.00  0.00     0.000 C 
BRANCH   8   9
ATOM      9  C   UNL     1       3.242 -35.016  48.306  1.00  0.00     0.000 C 
BRANCH   9  10
ATOM     10  C   UNL     1       4.070 -33.787  48.723  1.00  0.00     0.006 C 
BRANCH  10  11
ATOM     11  C   UNL     1       3.660 -32.522  47.956  1.00  0.00     0.053 C 
BRANCH  11  12
ATOM     12  C   UNL     1       2.708 -31.674  48.744  1.00  0.00     0.041 C 
ATOM     13  O   UNL     1       1.597 -32.141  49.107  1.00  0.00    -0.550 OA
ATOM     14  O   UNL     1       3.040 -30.361  49.057  1.00  0.00    -0.550 OA
ENDBRANCH  11  12
ENDBRANCH  10  11
ENDBRANCH   9  10
ENDBRANCH   8   9
ENDBRANCH   7   8
ENDBRANCH   6   7
ENDBRANCH   5   6
ENDBRANCH   4   5
ENDBRANCH   3   4
ENDBRANCH   2   3
ENDBRANCH   1   2
BRANCH   1  15
ATOM     15  C   UNL     1      -3.681 -35.897  45.551  1.00  0.00     0.000 C 
BRANCH  15  16
ATOM     16  C   UNL     1      -4.050 -37.124  46.404  1.00  0.00     0.000 C 
BRANCH  16  17
ATOM     17  C   UNL     1      -3.773 -36.901  47.900  1.00  0.00     0.000 C 
BRANCH  17  18
ATOM     18  C   UNL     1      -5.038 -36.503  48.680  1.00  0.00    -0.000 C 
BRANCH  18  19
ATOM     19  C   UNL     1      -6.316 -36.647  47.838  1.00  0.00    -0.000 C 
BRANCH  19  20
ATOM     20  C   UNL     1      -7.099 -35.330  47.731  1.00  0.00    -0.000 C 
BRANCH  20  21
ATOM     21  C   UNL     1      -6.956 -34.713  46.335  1.00  0.00    -0.000 C 
BRANCH  21  22
ATOM     22  C   UNL     1      -6.063 -33.468  46.375  1.00  0.00    -0.000 C 
BRANCH  22  23
ATOM     23  C   UNL     1      -6.454 -32.543  47.538  1.00  0.00    -0.000 C 
BRANCH  23  24
ATOM     24  C   UNL     1      -5.241 -32.161  48.412  1.00  0.00    -0.000 C 
BRANCH  24  25
ATOM     25  C   UNL     1      -4.107 -33.200  48.381  1.00  0.00    -0.003 C 
ATOM     26  C   UNL     1      -2.842 -32.688  47.695  1.00  0.00     0.004 C 
ENDBRANCH  24  25
ENDBRANCH  23  24
ENDBRANCH  22  23
ENDBRANCH  21  22
ENDBRANCH  20  21
ENDBRANCH  19  20
ENDBRANCH  18  19
ENDBRANCH  17  18
ENDBRANCH  16  17
ENDBRANCH  15  16
ENDBRANCH   1  15
TORSDOF 22
ENDMDL
MODEL 4
REMARK VINA RESULT:    -2.384      1.751      3.920
REMARK INTER + INTRA:          -8.614
REMARK INTER:                  -6.863
REMARK INTRA:                  -1.752
REMARK UNBOUND:                -3.165
REMARK SMILES CCCCCCCCCCCCCCCCCCCCCCCC(=O)[O-]
REMARK SMILES IDX 13 1 14 2 15 3 16 4 17 5 18 6 19 7 20 8 21 9 22 10 23 11
REMARK SMILES IDX 24 12 25 13 26 14 12 15 11 16 10 17 9 18 8 19 7 20 6 21 5 22
REMARK SMILES IDX 4 23 3 24 2 25 1 26
REMARK H PARENT
REMARK Flexibility Score: inf
ROOT
ATOM      1  C   UNL     1       0.159 -35.351  44.893  1.00  0.00     0.000 C 
ENDROOT
BRANCH   1   2
ATOM      2  C   UNL     1       1.279 -36.404  44.929  1.00  0.00     0.000 C 
BRANCH   2   3
ATOM      3  C   UNL     1       2.665 -35.800  45.230  1.00  0.00     0.000 C 
BRANCH   3   4
ATOM      4  C   UNL     1       3.469 -36.524  46.327  1.00  0.00     0.000 C 
BRANCH   4   5
ATOM      5  C   UNL     1       3.698 -35.655  47.576  1.00  0.00     0.000 C 
BRANCH   5   6
ATOM      6  C   UNL     1       3.685 -34.152  47.252  1.00  0.00     0.000 C 
BRANCH   6   7
ATOM      7  C   UNL     1       4.495 -33.330  48.268  1.00  0.00     0.000 C 
BRANCH   7   8
ATOM      8  C   UNL     1       3.582 -32.389  49.067  1.00  0.00     0.000 C 
BRANCH   8   9
ATOM      9  C   UNL     1       2.126 -32.421  48.574  1.00  0.00     0.000 C 
BRANCH   9  10
ATOM     10  C   UNL     1       1.343 -33.626  49.125  1.00  0.00     0.006 C 
BRANCH  10  11
ATOM     11  C   UNL     1      -0.176 -33.407  49.070  1.00  0.00     0.053 C 
BRANCH  11  12
ATOM     12  C   UNL     1      -0.828 -34.268  48.032  1.00  0.00     0.041 C 
ATOM     13  O   UNL     1      -1.576 -33.752  47.160  1.00  0.00    -0.550 OA
ATOM     14  O   UNL     1      -0.627 -35.644  48.041  1.00  0.00    -0.550 OA
ENDBRANCH  11  12
ENDBRANCH  10  11
ENDBRANCH   9  10
ENDBRANCH   8   9
ENDBRANCH   7   8
ENDBRANCH   6   7
ENDBRANCH   5   6
ENDBRANCH   4   5
ENDBRANCH   3   4
ENDBRANCH   2   3
ENDBRANCH   1   2
BRANCH   1  15
ATOM     15  C   UNL     1      -1.138 -35.887  44.267  1.00  0.00     0.000 C 
BRANCH  15  16
ATOM     16  C   UNL     1      -1.823 -36.955  45.139  1.00  0.00     0.000 C 
BRANCH  16  17
ATOM     17  C   UNL     1      -3.073 -36.416  45.852  1.00  0.00     0.000 C 
BRANCH  17  18
ATOM     18  C   UNL     1      -4.379 -36.938  45.230  1.00  0.00    -0.000 C 
BRANCH  18  19
ATOM     19  C   UNL     1      -4.953 -35.974  44.179  1.00  0.00    -0.000 C 
BRANCH  19  20
ATOM     20  C   UNL     1      -5.015 -34.525  44.685  1.00  0.00    -0.000 C 
BRANCH  20  21
ATOM     21  C   UNL     1      -6.465 -34.038  44.789  1.00  0.00    -0.000 C 
BRANCH  21  22
ATOM     22  C   UNL     1      -7.201 -34.749  45.931  1.00  0.00    -0.000 C 
BRANCH  22  23
ATOM     23  C   UNL     1      -6.731 -34.232  47.300  1.00  0.00    -0.000 C 
BRANCH  23  24
ATOM     24  C   UNL     1      -5.990 -35.317  48.109  1.00  0.00    -0.000 C 
BRANCH  24  25
ATOM     25  C   UNL     1      -4.608 -34.872  48.616  1.00  0.00    -0.003 C 
ATOM     26  C   UNL     1      -4.332 -33.388  48.383  1.00  0.00     0.004 C 
ENDBRANCH  24  25
ENDBRANCH  23  24
ENDBRANCH  22  23
ENDBRANCH  21  22
ENDBRANCH  20  21
ENDBRANCH  19  20
ENDBRANCH  18  19
ENDBRANCH  17  18
ENDBRANCH  16  17
ENDBRANCH  15  16
ENDBRANCH   1  15
TORSDOF 22
ENDMDL
MODEL 5
REMARK VINA RESULT:    -2.132      1.866      3.531
REMARK INTER + INTRA:          -8.040
REMARK INTER:                  -6.236
REMARK INTRA:                  -1.803
REMARK UNBOUND:                -3.165
REMARK SMILES CCCCCCCCCCCCCCCCCCCCCCCC(=O)[O-]
REMARK SMILES IDX 13 1 14 2 15 3 16 4 17 5 18 6 19 7 20 8 21 9 22 10 23 11
REMARK SMILES IDX 24 12 25 13 26 14 12 15 11 16 10 17 9 18 8 19 7 20 6 21 5 22
REMARK SMILES IDX 4 23 3 24 2 25 1 26
REMARK H PARENT
REMARK Flexibility Score: inf
ROOT
ATOM      1  C   UNL     1      -2.729 -34.476  46.574  1.00  0.00     0.000 C 
ENDROOT
BRANCH   1   2
ATOM      2  C   UNL     1      -2.493 -33.041  47.074  1.00  0.00     0.000 C 
BRANCH   2   3
ATOM      3  C   UNL     1      -1.979 -32.985  48.525  1.00  0.00     0.000 C 
BRANCH   3   4
ATOM      4  C   UNL     1      -1.564 -34.341  49.125  1.00  0.00     0.000 C 
BRANCH   4   5
ATOM      5  C   UNL     1      -0.140 -34.765  48.724  1.00  0.00     0.000 C 
BRANCH   5   6
ATOM      6  C   UNL     1       0.721 -33.571  48.278  1.00  0.00     0.000 C 
BRANCH   6   7
ATOM      7  C   UNL     1       2.149 -33.640  48.842  1.00  0.00     0.000 C 
BRANCH   7   8
ATOM      8  C   UNL     1       3.152 -34.043  47.750  1.00  0.00     0.000 C 
BRANCH   8   9
ATOM      9  C   UNL     1       3.873 -35.363  48.070  1.00  0.00     0.000 C 
BRANCH   9  10
ATOM     10  C   UNL     1       4.023 -36.268  46.835  1.00  0.00     0.006 C 
BRANCH  10  11
ATOM     11  C   UNL     1       3.388 -35.650  45.581  1.00  0.00     0.053 C 
BRANCH  11  12
ATOM     12  C   UNL     1       1.950 -36.044  45.429  1.00  0.00     0.041 C 
ATOM     13  O   UNL     1       1.318 -35.740  44.384  1.00  0.00    -0.550 OA
ATOM     14  O   UNL     1       1.303 -36.728  46.452  1.00  0.00    -0.550 OA
ENDBRANCH  11  12
ENDBRANCH  10  11
ENDBRANCH   9  10
ENDBRANCH   8   9
ENDBRANCH   7   8
ENDBRANCH   6   7
ENDBRANCH   5   6
ENDBRANCH   4   5
ENDBRANCH   3   4
ENDBRANCH   2   3
ENDBRANCH   1   2
BRANCH   1  15
ATOM     15  C   UNL     1      -1.993 -34.773  45.258  1.00  0.00     0.000 C 
BRANCH  15  16
ATOM     16  C   UNL     1      -1.826 -36.281  44.997  1.00  0.00     0.000 C 
BRANCH  16  17
ATOM     17  C   UNL     1      -2.866 -37.125  45.752  1.00  0.00     0.000 C 
BRANCH  17  18
ATOM     18  C   UNL     1      -2.633 -37.125  47.273  1.00  0.00    -0.000 C 
BRANCH  18  19
ATOM     19  C   UNL     1      -3.949 -37.095  48.066  1.00  0.00    -0.000 C 
BRANCH  19  20
ATOM     20  C   UNL     1      -5.183 -37.055  47.152  1.00  0.00    -0.000 C 
BRANCH  20  21
ATOM     21  C   UNL     1      -6.265 -36.133  47.725  1.00  0.00    -0.000 C 
BRANCH  21  22
ATOM     22  C   UNL     1      -5.728 -34.709  47.914  1.00  0.00    -0.000 C 
BRANCH  22  23
ATOM     23  C   UNL     1      -6.031 -33.836  46.686  1.00  0.00    -0.000 C 
BRANCH  23  24
ATOM     24  C   UNL     1      -7.155 -34.429  45.812  1.00  0.00    -0.000 C 
BRANCH  24  25
ATOM     25  C   UNL     1      -6.807 -34.483  44.314  1.00  0.00    -0.003 C 
ATOM     26  C   UNL     1      -5.413 -35.045  44.041  1.00  0.00     0.004 C 
ENDBRANCH  24  25
ENDBRANCH  23  24
ENDBRANCH  22  23
ENDBRANCH  21  22
ENDBRANCH  20  21
ENDBRANCH  19  20
ENDBRANCH  18  19
ENDBRANCH  17  18
ENDBRANCH  16  17
ENDBRANCH  15  16
ENDBRANCH   1  15
TORSDOF 22
ENDMDL
MODEL 6
REMARK VINA RESULT:    -2.108      2.630      7.547
REMARK INTER + INTRA:          -7.986
REMARK INTER:                  -4.159
REMARK INTRA:                  -3.827
REMARK UNBOUND:                -3.165
REMARK SMILES CCCCCCCCCCCCCCCCCCCCCCCC(=O)[O-]
REMARK SMILES IDX 13 1 14 2 15 3 16 4 17 5 18 6 19 7 20 8 21 9 22 10 23 11
REMARK SMILES IDX 24 12 25 13 26 14 12 15 11 16 10 17 9 18 8 19 7 20 6 21 5 22
REMARK SMILES IDX 4 23 3 24 2 25 1 26
REMARK H PARENT
REMARK Flexibility Score: inf
ROOT
ATOM      1  C   UNL     1      -0.945 -33.644  48.310  1.00  0.00     0.000 C 
ENDROOT
BRANCH   1   2
ATOM      2  C   UNL     1      -2.141 -33.706  47.345  1.00  0.00     0.000 C 
BRANCH   2   3
ATOM      3  C   UNL     1      -3.338 -32.856  47.812  1.00  0.00     0.000 C 
BRANCH   3   4
ATOM      4  C   UNL     1      -4.524 -33.655  48.383  1.00  0.00     0.000 C 
BRANCH   4   5
ATOM      5  C   UNL     1      -5.840 -33.399  47.628  1.00  0.00     0.000 C 
BRANCH   5   6
ATOM      6  C   UNL     1      -6.683 -34.676  47.474  1.00  0.00     0.000 C 
BRANCH   6   7
ATOM      7  C   UNL     1      -6.098 -35.859  48.261  1.00  0.00     0.000 C 
BRANCH   7   8
ATOM      8  C   UNL     1      -5.725 -37.015  47.321  1.00  0.00     0.000 C 
BRANCH   8   9
ATOM      9  C   UNL     1      -4.225 -37.044  46.987  1.00  0.00     0.000 C 
BRANCH   9  10
ATOM     10  C   UNL     1      -3.946 -36.768  45.499  1.00  0.00     0.006 C 
BRANCH  10  11
ATOM     11  C   UNL     1      -5.234 -36.506  44.705  1.00  0.00     0.053 C 
BRANCH  11  12
ATOM     12  C   UNL     1      -5.418 -35.051  44.401  1.00  0.00     0.041 C 
ATOM     13  O   UNL     1      -6.499 -34.641  43.903  1.00  0.00    -0.550 OA
ATOM     14  O   UNL     1      -4.387 -34.152  44.646  1.00  0.00    -0.550 OA
ENDBRANCH  11  12
ENDBRANCH  10  11
ENDBRANCH   9  10
ENDBRANCH   8   9
ENDBRANCH   7   8
ENDBRANCH   6   7
ENDBRANCH   5   6
ENDBRANCH   4   5
ENDBRANCH   3   4
ENDBRANCH   2   3
ENDBRANCH   1   2
BRANCH   1  15
ATOM     15  C   UNL     1      -0.528 -35.030  48.826  1.00  0.00     0.000 C 
BRANCH  15  16
ATOM     16  C   UNL     1      -0.966 -36.171  47.891  1.00  0.00     0.000 C 
BRANCH  16  17
ATOM     17  C   UNL     1       0.220 -37.023  47.411  1.00  0.00     0.000 C 
BRANCH  17  18
ATOM     18  C   UNL     1       0.290 -37.125  45.877  1.00  0.00    -0.000 C 
BRANCH  18  19
ATOM     19  C   UNL     1      -0.321 -35.899  45.181  1.00  0.00    -0.000 C 
BRANCH  19  20
ATOM     20  C   UNL     1       0.746 -34.993  44.547  1.00  0.00    -0.000 C 
BRANCH  20  21
ATOM     21  C   UNL     1       1.429 -34.119  45.606  1.00  0.00    -0.000 C 
BRANCH  21  22
ATOM     22  C   UNL     1       2.904 -34.506  45.766  1.00  0.00    -0.000 C 
BRANCH  22  23
ATOM     23  C   UNL     1       3.221 -34.892  47.219  1.00  0.00    -0.000 C 
BRANCH  23  24
ATOM     24  C   UNL     1       3.813 -33.712  48.019  1.00  0.00    -0.000 C 
BRANCH  24  25
ATOM     25  C   UNL     1       2.749 -32.830  48.694  1.00  0.00    -0.003 C 
ATOM     26  C   UNL     1       2.928 -31.342  48.400  1.00  0.00     0.004 C 
ENDBRANCH  24  25
ENDBRANCH  23  24
ENDBRANCH  22  23
ENDBRANCH  21  22
ENDBRANCH  20  21
ENDBRANCH  19  20
ENDBRANCH  18  19
ENDBRANCH  17  18
ENDBRANCH  16  17
ENDBRANCH  15  16
ENDBRANCH   1  15
TORSDOF 22
ENDMDL
MODEL 7
REMARK VINA RESULT:    -1.994      1.983      4.165
REMARK INTER + INTRA:          -7.723
REMARK INTER:                  -5.296
REMARK INTRA:                  -2.427
REMARK UNBOUND:                -3.165
REMARK SMILES CCCCCCCCCCCCCCCCCCCCCCCC(=O)[O-]
REMARK SMILES IDX 13 1 14 2 15 3 16 4 17 5 18 6 19 7 20 8 21 9 22 10 23 11
REMARK SMILES IDX 24 12 25 13 26 14 12 15 11 16 10 17 9 18 8 19 7 20 6 21 5 22
REMARK SMILES IDX 4 23 3 24 2 25 1 26
REMARK H PARENT
REMARK Flexibility Score: inf
ROOT
ATOM      1  C   UNL     1       1.157 -36.869  48.363  1.00  0.00     0.000 C 
ENDROOT
BRANCH   1   2
ATOM      2  C   UNL     1       1.772 -37.124  46.977  1.00  0.00     0.000 C 
BRANCH   2   3
ATOM      3  C   UNL     1       3.145 -36.451  46.793  1.00  0.00     0.000 C 
BRANCH   3   4
ATOM      4  C   UNL     1       4.206 -36.831  47.843  1.00  0.00     0.000 C 
BRANCH   4   5
ATOM      5  C   UNL     1       4.112 -35.986  49.125  1.00  0.00     0.000 C 
BRANCH   5   6
ATOM      6  C   UNL     1       4.212 -34.478  48.840  1.00  0.00     0.000 C 
BRANCH   6   7
ATOM      7  C   UNL     1       2.893 -33.742  49.125  1.00  0.00     0.000 C 
BRANCH   7   8
ATOM      8  C   UNL     1       2.705 -32.558  48.164  1.00  0.00     0.000 C 
BRANCH   8   9
ATOM      9  C   UNL     1       2.359 -33.008  46.735  1.00  0.00     0.000 C 
BRANCH   9  10
ATOM     10  C   UNL     1       1.031 -33.781  46.665  1.00  0.00     0.006 C 
BRANCH  10  11
ATOM     11  C   UNL     1       0.408 -33.741  45.263  1.00  0.00     0.053 C 
BRANCH  11  12
ATOM     12  C   UNL     1       0.968 -34.805  44.370  1.00  0.00     0.041 C 
ATOM     13  O   UNL     1       0.389 -35.919  44.272  1.00  0.00    -0.550 OA
ATOM     14  O   UNL     1       2.143 -34.575  43.663  1.00  0.00    -0.550 OA
ENDBRANCH  11  12
ENDBRANCH  10  11
ENDBRANCH   9  10
ENDBRANCH   8   9
ENDBRANCH   7   8
ENDBRANCH   6   7
ENDBRANCH   5   6
ENDBRANCH   4   5
ENDBRANCH   3   4
ENDBRANCH   2   3
ENDBRANCH   1   2
BRANCH   1  15
ATOM     15  C   UNL     1      -0.299 -36.383  48.285  1.00  0.00     0.000 C 
BRANCH  15  16
ATOM     16  C   UNL     1      -1.018 -36.856  47.009  1.00  0.00     0.000 C 
BRANCH  16  17
ATOM     17  C   UNL     1      -2.174 -35.926  46.609  1.00  0.00     0.000 C 
BRANCH  17  18
ATOM     18  C   UNL     1      -2.350 -34.750  47.585  1.00  0.00    -0.000 C 
BRANCH  18  19
ATOM     19  C   UNL     1      -3.708 -34.785  48.305  1.00  0.00    -0.000 C 
BRANCH  19  20
ATOM     20  C   UNL     1      -4.372 -33.401  48.369  1.00  0.00    -0.000 C 
BRANCH  20  21
ATOM     21  C   UNL     1      -5.843 -33.474  47.943  1.00  0.00    -0.000 C 
BRANCH  21  22
ATOM     22  C   UNL     1      -6.014 -33.029  46.486  1.00  0.00    -0.000 C 
BRANCH  22  23
ATOM     23  C   UNL     1      -6.594 -34.162  45.625  1.00  0.00    -0.000 C 
BRANCH  23  24
ATOM     24  C   UNL     1      -5.749 -34.424  44.361  1.00  0.00    -0.000 C 
BRANCH  24  25
ATOM     25  C   UNL     1      -5.346 -35.898  44.184  1.00  0.00    -0.003 C 
ATOM     26  C   UNL     1      -5.109 -36.619  45.509  1.00  0.00     0.004 C 
ENDBRANCH  24  25
ENDBRANCH  23  24
ENDBRANCH  22  23
ENDBRANCH  21  22
ENDBRANCH  20  21
ENDBRANCH  19  20
ENDBRANCH  18  19
ENDBRANCH  17  18
ENDBRANCH  16  17
ENDBRANCH  15  16
ENDBRANCH   1  15
TORSDOF 22
ENDMDL
MODEL 8
REMARK VINA RESULT:    -1.909      1.955      6.932
REMARK INTER + INTRA:          -7.530
REMARK INTER:                  -6.015
REMARK INTRA:                  -1.515
REMARK UNBOUND:                -3.165
REMARK SMILES CCCCCCCCCCCCCCCCCCCCCCCC(=O)[O-]
REMARK SMILES IDX 13 1 14 2 15 3 16 4 17 5 18 6 19 7 20 8 21 9 22 10 23 11
REMARK SMILES IDX 24 12 25 13 26 14 12 15 11 16 10 17 9 18 8 19 7 20 6 21 5 22
REMARK SMILES IDX 4 23 3 24 2 25 1 26
REMARK H PARENT
REMARK Flexibility Score: inf
ROOT
ATOM      1  C   UNL     1      -5.011 -33.063  47.552  1.00  0.00     0.000 C 
ENDROOT
BRANCH   1   2
ATOM      2  C   UNL     1      -6.499 -32.674  47.523  1.00  0.00     0.000 C 
BRANCH   2   3
ATOM      3  C   UNL     1      -7.392 -33.751  46.878  1.00  0.00     0.000 C 
BRANCH   3   4
ATOM      4  C   UNL     1      -6.719 -35.121  46.672  1.00  0.00     0.000 C 
BRANCH   4   5
ATOM      5  C   UNL     1      -6.795 -36.022  47.916  1.00  0.00     0.000 C 
BRANCH   5   6
ATOM      6  C   UNL     1      -5.404 -36.389  48.459  1.00  0.00     0.000 C 
BRANCH   6   7
ATOM      7  C   UNL     1      -4.547 -37.125  47.417  1.00  0.00     0.000 C 
BRANCH   7   8
ATOM      8  C   UNL     1      -4.806 -36.576  46.005  1.00  0.00     0.000 C 
BRANCH   8   9
ATOM      9  C   UNL     1      -3.728 -37.009  44.998  1.00  0.00     0.000 C 
BRANCH   9  10
ATOM     10  C   UNL     1      -2.424 -36.205  45.147  1.00  0.00     0.006 C 
BRANCH  10  11
ATOM     11  C   UNL     1      -1.178 -37.097  45.064  1.00  0.00     0.053 C 
BRANCH  11  12
ATOM     12  C   UNL     1       0.013 -36.349  44.549  1.00  0.00     0.041 C 
ATOM     13  O   UNL     1       0.959 -36.969  43.995  1.00  0.00    -0.550 OA
ATOM     14  O   UNL     1       0.088 -34.969  44.700  1.00  0.00    -0.550 OA
ENDBRANCH  11  12
ENDBRANCH  10  11
ENDBRANCH   9  10
ENDBRANCH   8   9
ENDBRANCH   7   8
ENDBRANCH   6   7
ENDBRANCH   5   6
ENDBRANCH   4   5
ENDBRANCH   3   4
ENDBRANCH   2   3
ENDBRANCH   1   2
BRANCH   1  15
ATOM     15  C   UNL     1      -4.305 -32.611  48.839  1.00  0.00     0.000 C 
BRANCH  15  16
ATOM     16  C   UNL     1      -2.792 -32.894  48.820  1.00  0.00     0.000 C 
BRANCH  16  17
ATOM     17  C   UNL     1      -2.472 -34.384  49.021  1.00  0.00     0.000 C 
BRANCH  17  18
ATOM     18  C   UNL     1      -1.460 -34.914  47.990  1.00  0.00    -0.000 C 
BRANCH  18  19
ATOM     19  C   UNL     1      -0.371 -35.787  48.635  1.00  0.00    -0.000 C 
BRANCH  19  20
ATOM     20  C   UNL     1       0.827 -34.961  49.125  1.00  0.00    -0.000 C 
BRANCH  20  21
ATOM     21  C   UNL     1       2.131 -35.759  49.014  1.00  0.00    -0.000 C 
BRANCH  21  22
ATOM     22  C   UNL     1       2.888 -35.396  47.731  1.00  0.00    -0.000 C 
BRANCH  22  23
ATOM     23  C   UNL     1       2.502 -33.993  47.238  1.00  0.00    -0.000 C 
BRANCH  23  24
ATOM     24  C   UNL     1       3.650 -32.977  47.413  1.00  0.00    -0.000 C 
BRANCH  24  25
ATOM     25  C   UNL     1       3.640 -32.265  48.777  1.00  0.00    -0.003 C 
ATOM     26  C   UNL     1       2.287 -31.646  49.122  1.00  0.00     0.004 C 
ENDBRANCH  24  25
ENDBRANCH  23  24
ENDBRANCH  22  23
ENDBRANCH  21  22
ENDBRANCH  20  21
ENDBRANCH  19  20
ENDBRANCH  18  19
ENDBRANCH  17  18
ENDBRANCH  16  17
ENDBRANCH  15  16
ENDBRANCH   1  15
TORSDOF 22
ENDMDL
