MODEL 1
REMARK VINA RESULT:     5.723      0.000      0.000
REMARK INTER + INTRA:          10.766
REMARK INTER:                  10.742
REMARK INTRA:                   0.024
REMARK UNBOUND:                 0.024
REMARK SMILES CCCCCCCCC=CCCCCCCCC(=O)[O-]
REMARK SMILES IDX 10 1 9 2 11 3 12 4 13 5 14 6 15 7 16 8 17 9 18 10 19 11
REMARK SMILES IDX 20 12 8 13 7 14 6 15 5 16 4 17 3 18 2 19 1 20
REMARK H PARENT
REMARK Flexibility Score: inf
ROOT
ATOM      1  C   UNL     1     -39.012  24.312   8.148  1.00  0.00    -0.031 C 
ATOM      2  C   UNL     1     -38.104  24.868   7.326  1.00  0.00    -0.031 C 
ENDROOT
BRANCH   1   3
ATOM      3  C   UNL     1     -38.823  23.007   8.878  1.00  0.00     0.027 C 
BRANCH   3   4
ATOM      4  C   UNL     1     -39.910  22.006   8.470  1.00  0.00     0.004 C 
BRANCH   4   5
ATOM      5  C   UNL     1     -41.289  22.440   8.984  1.00  0.00     0.000 C 
BRANCH   5   6
ATOM      6  C   UNL     1     -42.103  23.101   7.865  1.00  0.00     0.000 C 
BRANCH   6   7
ATOM      7  C   UNL     1     -42.115  24.628   8.008  1.00  0.00     0.000 C 
BRANCH   7   8
ATOM      8  C   UNL     1     -41.750  25.304   6.677  1.00  0.00     0.006 C 
BRANCH   8   9
ATOM      9  C   UNL     1     -42.125  24.444   5.461  1.00  0.00     0.053 C 
BRANCH   9  10
ATOM     10  C   UNL     1     -41.081  23.413   5.144  1.00  0.00     0.041 C 
ATOM     11  O   UNL     1     -39.897  23.760   4.892  1.00  0.00    -0.550 OA
ATOM     12  O   UNL     1     -41.426  22.067   5.112  1.00  0.00    -0.550 OA
ENDBRANCH   9  10
ENDBRANCH   8   9
ENDBRANCH   7   8
ENDBRANCH   6   7
ENDBRANCH   5   6
ENDBRANCH   4   5
ENDBRANCH   3   4
ENDBRANCH   1   3
BRANCH   2  13
ATOM     13  C   UNL     1     -36.715  24.334   7.095  1.00  0.00     0.027 C 
BRANCH  13  14
ATOM     14  C   UNL     1     -35.864  25.358   6.332  1.00  0.00     0.004 C 
BRANCH  14  15
ATOM     15  C   UNL     1     -34.968  26.203   7.257  1.00  0.00     0.000 C 
BRANCH  15  16
ATOM     16  C   UNL     1     -34.516  25.492   8.548  1.00  0.00     0.000 C 
BRANCH  16  17
ATOM     17  C   UNL     1     -33.009  25.644   8.815  1.00  0.00    -0.000 C 
BRANCH  17  18
ATOM     18  C   UNL     1     -32.184  24.488   8.226  1.00  0.00    -0.000 C 
BRANCH  18  19
ATOM     19  C   UNL     1     -31.160  24.958   7.180  1.00  0.00    -0.003 C 
ATOM     20  C   UNL     1     -30.347  26.142   7.700  1.00  0.00     0.004 C 
ENDBRANCH  18  19
ENDBRANCH  17  18
ENDBRANCH  16  17
ENDBRANCH  15  16
ENDBRANCH  14  15
ENDBRANCH  13  14
ENDBRANCH   2  13
TORSDOF 15
ENDMDL
MODEL 2
REMARK VINA RESULT:     6.358      1.630      2.261
REMARK INTER + INTRA:          11.958
REMARK INTER:                  10.840
REMARK INTRA:                   1.118
REMARK UNBOUND:                 0.024
REMARK SMILES CCCCCCCCC=CCCCCCCCC(=O)[O-]
REMARK SMILES IDX 10 1 9 2 11 3 12 4 13 5 14 6 15 7 16 8 17 9 18 10 19 11
REMARK SMILES IDX 20 12 8 13 7 14 6 15 5 16 4 17 3 18 2 19 1 20
REMARK H PARENT
REMARK Flexibility Score: inf
ROOT
ATOM      1  C   UNL     1     -38.690  22.289   9.123  1.00  0.00    -0.031 C 
ATOM      2  C   UNL     1     -37.734  23.095   8.627  1.00  0.00    -0.031 C 
ENDROOT
BRANCH   1   3
ATOM      3  C   UNL     1     -40.170  22.559   9.037  1.00  0.00     0.027 C 
BRANCH   3   4
ATOM      4  C   UNL     1     -40.478  23.467   7.841  1.00  0.00     0.004 C 
BRANCH   4   5
ATOM      5  C   UNL     1     -41.945  23.342   7.408  1.00  0.00     0.000 C 
BRANCH   5   6
ATOM      6  C   UNL     1     -42.055  22.610   6.066  1.00  0.00     0.000 C 
BRANCH   6   7
ATOM      7  C   UNL     1     -40.852  22.907   5.164  1.00  0.00     0.000 C 
BRANCH   7   8
ATOM      8  C   UNL     1     -40.742  24.414   4.879  1.00  0.00     0.006 C 
BRANCH   8   9
ATOM      9  C   UNL     1     -42.104  25.121   4.937  1.00  0.00     0.053 C 
BRANCH   9  10
ATOM     10  C   UNL     1     -42.063  26.377   5.758  1.00  0.00     0.041 C 
ATOM     11  O   UNL     1     -42.124  27.506   5.202  1.00  0.00    -0.550 OA
ATOM     12  O   UNL     1     -41.943  26.296   7.140  1.00  0.00    -0.550 OA
ENDBRANCH   9  10
ENDBRANCH   8   9
ENDBRANCH   7   8
ENDBRANCH   6   7
ENDBRANCH   5   6
ENDBRANCH   4   5
ENDBRANCH   3   4
ENDBRANCH   1   3
BRANCH   2  13
ATOM     13  C   UNL     1     -37.995  24.333   7.809  1.00  0.00     0.027 C 
BRANCH  13  14
ATOM     14  C   UNL     1     -36.912  24.509   6.737  1.00  0.00     0.004 C 
BRANCH  14  15
ATOM     15  C   UNL     1     -35.957  25.681   7.034  1.00  0.00     0.000 C 
BRANCH  15  16
ATOM     16  C   UNL     1     -34.736  25.318   7.901  1.00  0.00     0.000 C 
BRANCH  16  17
ATOM     17  C   UNL     1     -33.400  25.565   7.181  1.00  0.00    -0.000 C 
BRANCH  17  18
ATOM     18  C   UNL     1     -32.186  25.373   8.104  1.00  0.00    -0.000 C 
BRANCH  18  19
ATOM     19  C   UNL     1     -30.868  25.211   7.330  1.00  0.00    -0.003 C 
ATOM     20  C   UNL     1     -30.089  26.524   7.290  1.00  0.00     0.004 C 
ENDBRANCH  18  19
ENDBRANCH  17  18
ENDBRANCH  16  17
ENDBRANCH  15  16
ENDBRANCH  14  15
ENDBRANCH  13  14
ENDBRANCH   2  13
TORSDOF 15
ENDMDL
MODEL 3
REMARK VINA RESULT:     6.421      3.617      8.182
REMARK INTER + INTRA:          12.075
REMARK INTER:                  12.998
REMARK INTRA:                  -0.922
REMARK UNBOUND:                 0.024
REMARK SMILES CCCCCCCCC=CCCCCCCCC(=O)[O-]
REMARK SMILES IDX 10 1 9 2 11 3 12 4 13 5 14 6 15 7 16 8 17 9 18 10 19 11
REMARK SMILES IDX 20 12 8 13 7 14 6 15 5 16 4 17 3 18 2 19 1 20
REMARK H PARENT
REMARK Flexibility Score: inf
ROOT
ATOM      1  C   UNL     1     -38.253  22.898   8.442  1.00  0.00    -0.031 C 
ATOM      2  C   UNL     1     -39.422  22.837   9.105  1.00  0.00    -0.031 C 
ENDROOT
BRANCH   1   3
ATOM      3  C   UNL     1     -38.049  23.605   7.126  1.00  0.00     0.027 C 
BRANCH   3   4
ATOM      4  C   UNL     1     -38.261  25.114   7.294  1.00  0.00     0.004 C 
BRANCH   4   5
ATOM      5  C   UNL     1     -36.982  25.805   7.785  1.00  0.00     0.000 C 
BRANCH   5   6
ATOM      6  C   UNL     1     -35.757  25.290   7.021  1.00  0.00     0.000 C 
BRANCH   6   7
ATOM      7  C   UNL     1     -34.488  26.057   7.412  1.00  0.00     0.000 C 
BRANCH   7   8
ATOM      8  C   UNL     1     -33.553  25.172   8.252  1.00  0.00     0.006 C 
BRANCH   8   9
ATOM      9  C   UNL     1     -32.296  24.748   7.480  1.00  0.00     0.053 C 
BRANCH   9  10
ATOM     10  C   UNL     1     -31.091  25.559   7.857  1.00  0.00     0.041 C 
ATOM     11  O   UNL     1     -30.106  25.640   7.076  1.00  0.00    -0.550 OA
ATOM     12  O   UNL     1     -31.053  26.213   9.083  1.00  0.00    -0.550 OA
ENDBRANCH   9  10
ENDBRANCH   8   9
ENDBRANCH   7   8
ENDBRANCH   6   7
ENDBRANCH   5   6
ENDBRANCH   4   5
ENDBRANCH   3   4
ENDBRANCH   1   3
BRANCH   2  13
ATOM     13  C   UNL     1     -40.679  23.559   8.697  1.00  0.00     0.027 C 
BRANCH  13  14
ATOM     14  C   UNL     1     -41.880  22.606   8.722  1.00  0.00     0.004 C 
BRANCH  14  15
ATOM     15  C   UNL     1     -41.763  21.464   7.695  1.00  0.00     0.000 C 
BRANCH  15  16
ATOM     16  C   UNL     1     -41.892  21.902   6.222  1.00  0.00     0.000 C 
BRANCH  16  17
ATOM     17  C   UNL     1     -42.125  23.414   6.069  1.00  0.00    -0.000 C 
BRANCH  17  18
ATOM     18  C   UNL     1     -41.034  24.098   5.230  1.00  0.00    -0.000 C 
BRANCH  18  19
ATOM     19  C   UNL     1     -41.414  25.528   4.809  1.00  0.00    -0.003 C 
ATOM     20  C   UNL     1     -42.083  26.279   5.958  1.00  0.00     0.004 C 
ENDBRANCH  18  19
ENDBRANCH  17  18
ENDBRANCH  16  17
ENDBRANCH  15  16
ENDBRANCH  14  15
ENDBRANCH  13  14
ENDBRANCH   2  13
TORSDOF 15
ENDMDL
MODEL 4
REMARK VINA RESULT:     6.937      1.133      2.036
REMARK INTER + INTRA:          13.044
REMARK INTER:                  14.209
REMARK INTRA:                  -1.166
REMARK UNBOUND:                 0.024
REMARK SMILES CCCCCCCCC=CCCCCCCCC(=O)[O-]
REMARK SMILES IDX 10 1 9 2 11 3 12 4 13 5 14 6 15 7 16 8 17 9 18 10 19 11
REMARK SMILES IDX 20 12 8 13 7 14 6 15 5 16 4 17 3 18 2 19 1 20
REMARK H PARENT
REMARK Flexibility Score: inf
ROOT
ATOM      1  C   UNL     1     -37.004  24.205   6.633  1.00  0.00    -0.031 C 
ATOM      2  C   UNL     1     -35.974  25.054   6.466  1.00  0.00    -0.031 C 
ENDROOT
BRANCH   1   3
ATOM      3  C   UNL     1     -38.256  24.517   7.412  1.00  0.00     0.027 C 
BRANCH   3   4
ATOM      4  C   UNL     1     -38.555  23.394   8.412  1.00  0.00     0.004 C 
BRANCH   4   5
ATOM      5  C   UNL     1     -40.048  23.342   8.762  1.00  0.00     0.000 C 
BRANCH   5   6
ATOM      6  C   UNL     1     -40.512  21.893   8.949  1.00  0.00     0.000 C 
BRANCH   6   7
ATOM      7  C   UNL     1     -41.764  21.592   8.116  1.00  0.00     0.000 C 
BRANCH   7   8
ATOM      8  C   UNL     1     -42.114  22.782   7.209  1.00  0.00     0.006 C 
BRANCH   8   9
ATOM      9  C   UNL     1     -41.634  22.579   5.765  1.00  0.00     0.053 C 
BRANCH   9  10
ATOM     10  C   UNL     1     -40.902  23.775   5.230  1.00  0.00     0.041 C 
ATOM     11  O   UNL     1     -39.814  23.634   4.611  1.00  0.00    -0.550 OA
ATOM     12  O   UNL     1     -41.419  25.050   5.431  1.00  0.00    -0.550 OA
ENDBRANCH   9  10
ENDBRANCH   8   9
ENDBRANCH   7   8
ENDBRANCH   6   7
ENDBRANCH   5   6
ENDBRANCH   4   5
ENDBRANCH   3   4
ENDBRANCH   1   3
BRANCH   2  13
ATOM     13  C   UNL     1     -35.957  26.485   6.935  1.00  0.00     0.027 C 
BRANCH  13  14
ATOM     14  C   UNL     1     -34.951  26.665   8.079  1.00  0.00     0.004 C 
BRANCH  14  15
ATOM     15  C   UNL     1     -34.721  25.374   8.887  1.00  0.00     0.000 C 
BRANCH  15  16
ATOM     16  C   UNL     1     -33.242  25.013   9.125  1.00  0.00     0.000 C 
BRANCH  16  17
ATOM     17  C   UNL     1     -32.367  25.233   7.879  1.00  0.00    -0.000 C 
BRANCH  17  18
ATOM     18  C   UNL     1     -30.952  25.719   8.229  1.00  0.00    -0.000 C 
BRANCH  18  19
ATOM     19  C   UNL     1     -30.045  25.852   6.994  1.00  0.00    -0.003 C 
ATOM     20  C   UNL     1     -30.117  27.260   6.408  1.00  0.00     0.004 C 
ENDBRANCH  18  19
ENDBRANCH  17  18
ENDBRANCH  16  17
ENDBRANCH  15  16
ENDBRANCH  14  15
ENDBRANCH  13  14
ENDBRANCH   2  13
TORSDOF 15
ENDMDL
MODEL 5
REMARK VINA RESULT:     7.646      3.638      8.238
REMARK INTER + INTRA:          14.375
REMARK INTER:                  14.567
REMARK INTRA:                  -0.192
REMARK UNBOUND:                 0.024
REMARK SMILES CCCCCCCCC=CCCCCCCCC(=O)[O-]
REMARK SMILES IDX 10 1 9 2 11 3 12 4 13 5 14 6 15 7 16 8 17 9 18 10 19 11
REMARK SMILES IDX 20 12 8 13 7 14 6 15 5 16 4 17 3 18 2 19 1 20
REMARK H PARENT
REMARK Flexibility Score: inf
ROOT
ATOM      1  C   UNL     1     -38.431  23.851   7.710  1.00  0.00    -0.031 C 
ATOM      2  C   UNL     1     -39.543  24.490   8.113  1.00  0.00    -0.031 C 
ENDROOT
BRANCH   1   3
ATOM      3  C   UNL     1     -37.702  24.126   6.420  1.00  0.00     0.027 C 
BRANCH   3   4
ATOM      4  C   UNL     1     -36.228  24.440   6.697  1.00  0.00     0.004 C 
BRANCH   4   5
ATOM      5  C   UNL     1     -35.938  25.940   6.544  1.00  0.00     0.000 C 
BRANCH   5   6
ATOM      6  C   UNL     1     -34.720  26.347   7.380  1.00  0.00     0.000 C 
BRANCH   6   7
ATOM      7  C   UNL     1     -34.574  25.464   8.626  1.00  0.00     0.000 C 
BRANCH   7   8
ATOM      8  C   UNL     1     -33.093  25.278   8.993  1.00  0.00     0.006 C 
BRANCH   8   9
ATOM      9  C   UNL     1     -32.204  25.079   7.757  1.00  0.00     0.053 C 
BRANCH   9  10
ATOM     10  C   UNL     1     -30.908  25.829   7.856  1.00  0.00     0.041 C 
ATOM     11  O   UNL     1     -30.619  26.470   8.901  1.00  0.00    -0.550 OA
ATOM     12  O   UNL     1     -30.026  25.830   6.781  1.00  0.00    -0.550 OA
ENDBRANCH   9  10
ENDBRANCH   8   9
ENDBRANCH   7   8
ENDBRANCH   6   7
ENDBRANCH   5   6
ENDBRANCH   4   5
ENDBRANCH   3   4
ENDBRANCH   1   3
BRANCH   2  13
ATOM     13  C   UNL     1     -40.170  25.656   7.395  1.00  0.00     0.027 C 
BRANCH  13  14
ATOM     14  C   UNL     1     -41.549  25.271   6.843  1.00  0.00     0.004 C 
BRANCH  14  15
ATOM     15  C   UNL     1     -41.467  24.374   5.593  1.00  0.00     0.000 C 
BRANCH  15  16
ATOM     16  C   UNL     1     -41.043  22.918   5.867  1.00  0.00     0.000 C 
BRANCH  16  17
ATOM     17  C   UNL     1     -42.089  22.135   6.679  1.00  0.00    -0.000 C 
BRANCH  17  18
ATOM     18  C   UNL     1     -42.125  22.555   8.157  1.00  0.00    -0.000 C 
BRANCH  18  19
ATOM     19  C   UNL     1     -41.523  21.493   9.093  1.00  0.00    -0.003 C 
ATOM     20  C   UNL     1     -40.043  21.270   8.791  1.00  0.00     0.004 C 
ENDBRANCH  18  19
ENDBRANCH  17  18
ENDBRANCH  16  17
ENDBRANCH  15  16
ENDBRANCH  14  15
ENDBRANCH  13  14
ENDBRANCH   2  13
TORSDOF 15
ENDMDL
