MODEL 1
REMARK VINA RESULT:     0.321      0.000      0.000
REMARK INTER + INTRA:           0.340
REMARK INTER:                   0.620
REMARK INTRA:                  -0.280
REMARK UNBOUND:                -0.280
REMARK SMILES CCCCCCCCCCCCCCCCCC(=O)[O-]
REMARK SMILES IDX 10 1 11 2 12 3 13 4 14 5 15 6 16 7 17 8 18 9 19 10 20 11
REMARK SMILES IDX 9 12 8 13 7 14 6 15 5 16 4 17 3 18 2 19 1 20
REMARK H PARENT
REMARK Flexibility Score: inf
ROOT
ATOM      1  C   UNL     1      -5.497  35.170  22.488  1.00  0.00     0.000 C 
ENDROOT
BRANCH   1   2
ATOM      2  C   UNL     1      -6.020  34.015  23.361  1.00  0.00     0.000 C 
BRANCH   2   3
ATOM      3  C   UNL     1      -6.125  34.326  24.868  1.00  0.00     0.000 C 
BRANCH   3   4
ATOM      4  C   UNL     1      -6.125  35.822  25.230  1.00  0.00     0.000 C 
BRANCH   4   5
ATOM      5  C   UNL     1      -4.709  36.424  25.274  1.00  0.00     0.000 C 
BRANCH   5   6
ATOM      6  C   UNL     1      -4.721  37.954  25.421  1.00  0.00     0.000 C 
BRANCH   6   7
ATOM      7  C   UNL     1      -5.492  38.656  24.291  1.00  0.00     0.006 C 
BRANCH   7   8
ATOM      8  C   UNL     1      -4.984  38.204  22.919  1.00  0.00     0.053 C 
BRANCH   8   9
ATOM      9  C   UNL     1      -5.451  39.143  21.852  1.00  0.00     0.041 C 
ATOM     10  O   UNL     1      -5.543  40.377  22.091  1.00  0.00    -0.550 OA
ATOM     11  O   UNL     1      -5.749  38.662  20.583  1.00  0.00    -0.550 OA
ENDBRANCH   8   9
ENDBRANCH   7   8
ENDBRANCH   6   7
ENDBRANCH   5   6
ENDBRANCH   4   5
ENDBRANCH   3   4
ENDBRANCH   2   3
ENDBRANCH   1   2
BRANCH   1  12
ATOM     12  C   UNL     1      -6.000  35.093  21.036  1.00  0.00     0.000 C 
BRANCH  12  13
ATOM     13  C   UNL     1      -4.931  35.519  20.015  1.00  0.00    -0.000 C 
BRANCH  13  14
ATOM     14  C   UNL     1      -5.230  34.999  18.598  1.00  0.00    -0.000 C 
BRANCH  14  15
ATOM     15  C   UNL     1      -3.963  34.841  17.738  1.00  0.00    -0.000 C 
BRANCH  15  16
ATOM     16  C   UNL     1      -4.018  35.525  16.359  1.00  0.00    -0.000 C 
BRANCH  16  17
ATOM     17  C   UNL     1      -2.635  35.639  15.692  1.00  0.00    -0.000 C 
BRANCH  17  18
ATOM     18  C   UNL     1      -2.719  36.164  14.250  1.00  0.00    -0.000 C 
BRANCH  18  19
ATOM     19  C   UNL     1      -4.105  36.732  13.910  1.00  0.00    -0.003 C 
ATOM     20  C   UNL     1      -4.193  38.214  14.265  1.00  0.00     0.004 C 
ENDBRANCH  18  19
ENDBRANCH  17  18
ENDBRANCH  16  17
ENDBRANCH  15  16
ENDBRANCH  14  15
ENDBRANCH  13  14
ENDBRANCH  12  13
ENDBRANCH   1  12
TORSDOF 16
ENDMDL
MODEL 2
REMARK VINA RESULT:     0.656      2.479      3.321
REMARK INTER + INTRA:           0.989
REMARK INTER:                   1.589
REMARK INTRA:                  -0.599
REMARK UNBOUND:                -0.280
REMARK SMILES CCCCCCCCCCCCCCCCCC(=O)[O-]
REMARK SMILES IDX 10 1 11 2 12 3 13 4 14 5 15 6 16 7 17 8 18 9 19 10 20 11
REMARK SMILES IDX 9 12 8 13 7 14 6 15 5 16 4 17 3 18 2 19 1 20
REMARK H PARENT
REMARK Flexibility Score: inf
ROOT
ATOM      1  C   UNL     1      -5.379  37.884  20.528  1.00  0.00     0.000 C 
ENDROOT
BRANCH   1   2
ATOM      2  C   UNL     1      -5.558  37.469  22.000  1.00  0.00     0.000 C 
BRANCH   2   3
ATOM      3  C   UNL     1      -5.977  36.002  22.222  1.00  0.00     0.000 C 
BRANCH   3   4
ATOM      4  C   UNL     1      -5.198  35.255  23.320  1.00  0.00     0.000 C 
BRANCH   4   5
ATOM      5  C   UNL     1      -5.964  35.188  24.653  1.00  0.00     0.000 C 
BRANCH   5   6
ATOM      6  C   UNL     1      -5.913  36.512  25.432  1.00  0.00     0.000 C 
BRANCH   6   7
ATOM      7  C   UNL     1      -4.531  37.183  25.376  1.00  0.00     0.006 C 
BRANCH   7   8
ATOM      8  C   UNL     1      -4.069  37.603  26.774  1.00  0.00     0.053 C 
BRANCH   8   9
ATOM      9  C   UNL     1      -2.634  37.232  26.986  1.00  0.00     0.041 C 
ATOM     10  O   UNL     1      -1.718  38.025  26.641  1.00  0.00    -0.550 OA
ATOM     11  O   UNL     1      -2.311  36.027  27.598  1.00  0.00    -0.550 OA
ENDBRANCH   8   9
ENDBRANCH   7   8
ENDBRANCH   6   7
ENDBRANCH   5   6
ENDBRANCH   4   5
ENDBRANCH   3   4
ENDBRANCH   2   3
ENDBRANCH   1   2
BRANCH   1  12
ATOM     12  C   UNL     1      -5.713  36.748  19.546  1.00  0.00     0.000 C 
BRANCH  12  13
ATOM     13  C   UNL     1      -4.589  35.704  19.443  1.00  0.00    -0.000 C 
BRANCH  13  14
ATOM     14  C   UNL     1      -5.008  34.465  18.633  1.00  0.00    -0.000 C 
BRANCH  14  15
ATOM     15  C   UNL     1      -4.185  34.284  17.345  1.00  0.00    -0.000 C 
BRANCH  15  16
ATOM     16  C   UNL     1      -3.883  35.581  16.571  1.00  0.00    -0.000 C 
BRANCH  16  17
ATOM     17  C   UNL     1      -2.624  35.475  15.693  1.00  0.00    -0.000 C 
BRANCH  17  18
ATOM     18  C   UNL     1      -2.743  36.285  14.392  1.00  0.00    -0.000 C 
BRANCH  18  19
ATOM     19  C   UNL     1      -4.171  36.795  14.145  1.00  0.00    -0.003 C 
ATOM     20  C   UNL     1      -4.222  38.320  14.182  1.00  0.00     0.004 C 
ENDBRANCH  18  19
ENDBRANCH  17  18
ENDBRANCH  16  17
ENDBRANCH  15  16
ENDBRANCH  14  15
ENDBRANCH  13  14
ENDBRANCH  12  13
ENDBRANCH   1  12
TORSDOF 16
ENDMDL
MODEL 3
REMARK VINA RESULT:     0.695      2.414      7.306
REMARK INTER + INTRA:           1.066
REMARK INTER:                   1.805
REMARK INTRA:                  -0.739
REMARK UNBOUND:                -0.280
REMARK SMILES CCCCCCCCCCCCCCCCCC(=O)[O-]
REMARK SMILES IDX 10 1 11 2 12 3 13 4 14 5 15 6 16 7 17 8 18 9 19 10 20 11
REMARK SMILES IDX 9 12 8 13 7 14 6 15 5 16 4 17 3 18 2 19 1 20
REMARK H PARENT
REMARK Flexibility Score: inf
ROOT
ATOM      1  C   UNL     1      -6.092  35.482  22.243  1.00  0.00     0.000 C 
ENDROOT
BRANCH   1   2
ATOM      2  C   UNL     1      -5.116  35.210  21.084  1.00  0.00     0.000 C 
BRANCH   2   3
ATOM      3  C   UNL     1      -5.777  34.972  19.711  1.00  0.00     0.000 C 
BRANCH   3   4
ATOM      4  C   UNL     1      -4.835  34.452  18.610  1.00  0.00     0.000 C 
BRANCH   4   5
ATOM      5  C   UNL     1      -4.175  35.586  17.807  1.00  0.00     0.000 C 
BRANCH   5   6
ATOM      6  C   UNL     1      -3.970  35.222  16.328  1.00  0.00     0.000 C 
BRANCH   6   7
ATOM      7  C   UNL     1      -2.555  35.547  15.825  1.00  0.00     0.006 C 
BRANCH   7   8
ATOM      8  C   UNL     1      -2.599  36.162  14.423  1.00  0.00     0.053 C 
BRANCH   8   9
ATOM      9  C   UNL     1      -3.842  36.976  14.246  1.00  0.00     0.041 C 
ATOM     10  O   UNL     1      -4.916  36.423  13.887  1.00  0.00    -0.550 OA
ATOM     11  O   UNL     1      -3.824  38.340  14.514  1.00  0.00    -0.550 OA
ENDBRANCH   8   9
ENDBRANCH   7   8
ENDBRANCH   6   7
ENDBRANCH   5   6
ENDBRANCH   4   5
ENDBRANCH   3   4
ENDBRANCH   2   3
ENDBRANCH   1   2
BRANCH   1  12
ATOM     12  C   UNL     1      -6.030  34.402  23.338  1.00  0.00     0.000 C 
BRANCH  12  13
ATOM     13  C   UNL     1      -5.639  34.973  24.712  1.00  0.00    -0.000 C 
BRANCH  13  14
ATOM     14  C   UNL     1      -6.125  36.419  24.909  1.00  0.00    -0.000 C 
BRANCH  14  15
ATOM     15  C   UNL     1      -4.984  37.393  25.254  1.00  0.00    -0.000 C 
BRANCH  15  16
ATOM     16  C   UNL     1      -4.470  38.245  24.077  1.00  0.00    -0.000 C 
BRANCH  16  17
ATOM     17  C   UNL     1      -5.311  39.512  23.844  1.00  0.00    -0.000 C 
BRANCH  17  18
ATOM     18  C   UNL     1      -5.521  39.813  22.351  1.00  0.00    -0.000 C 
BRANCH  18  19
ATOM     19  C   UNL     1      -5.687  38.537  21.512  1.00  0.00    -0.003 C 
ATOM     20  C   UNL     1      -5.259  38.771  20.066  1.00  0.00     0.004 C 
ENDBRANCH  18  19
ENDBRANCH  17  18
ENDBRANCH  16  17
ENDBRANCH  15  16
ENDBRANCH  14  15
ENDBRANCH  13  14
ENDBRANCH  12  13
ENDBRANCH   1  12
TORSDOF 16
ENDMDL
MODEL 4
REMARK VINA RESULT:     0.893      2.313      7.932
REMARK INTER + INTRA:           1.448
REMARK INTER:                   2.478
REMARK INTRA:                  -1.030
REMARK UNBOUND:                -0.280
REMARK SMILES CCCCCCCCCCCCCCCCCC(=O)[O-]
REMARK SMILES IDX 10 1 11 2 12 3 13 4 14 5 15 6 16 7 17 8 18 9 19 10 20 11
REMARK SMILES IDX 9 12 8 13 7 14 6 15 5 16 4 17 3 18 2 19 1 20
REMARK H PARENT
REMARK Flexibility Score: inf
ROOT
ATOM      1  C   UNL     1      -5.255  37.935  20.704  1.00  0.00     0.000 C 
ENDROOT
BRANCH   1   2
ATOM      2  C   UNL     1      -5.638  36.508  20.272  1.00  0.00     0.000 C 
BRANCH   2   3
ATOM      3  C   UNL     1      -4.595  35.785  19.396  1.00  0.00     0.000 C 
BRANCH   3   4
ATOM      4  C   UNL     1      -5.074  34.471  18.753  1.00  0.00     0.000 C 
BRANCH   4   5
ATOM      5  C   UNL     1      -4.348  34.154  17.434  1.00  0.00     0.000 C 
BRANCH   5   6
ATOM      6  C   UNL     1      -4.172  35.394  16.543  1.00  0.00     0.000 C 
BRANCH   6   7
ATOM      7  C   UNL     1      -2.814  35.422  15.823  1.00  0.00     0.006 C 
BRANCH   7   8
ATOM      8  C   UNL     1      -2.947  36.038  14.428  1.00  0.00     0.053 C 
BRANCH   8   9
ATOM      9  C   UNL     1      -3.939  37.158  14.441  1.00  0.00     0.041 C 
ATOM     10  O   UNL     1      -5.056  37.020  13.875  1.00  0.00    -0.550 OA
ATOM     11  O   UNL     1      -3.645  38.340  15.109  1.00  0.00    -0.550 OA
ENDBRANCH   8   9
ENDBRANCH   7   8
ENDBRANCH   6   7
ENDBRANCH   5   6
ENDBRANCH   4   5
ENDBRANCH   3   4
ENDBRANCH   2   3
ENDBRANCH   1   2
BRANCH   1  12
ATOM     12  C   UNL     1      -5.938  38.363  22.015  1.00  0.00     0.000 C 
BRANCH  12  13
ATOM     13  C   UNL     1      -5.193  39.505  22.727  1.00  0.00    -0.000 C 
BRANCH  13  14
ATOM     14  C   UNL     1      -5.413  39.492  24.249  1.00  0.00    -0.000 C 
BRANCH  14  15
ATOM     15  C   UNL     1      -4.437  38.560  24.989  1.00  0.00    -0.000 C 
BRANCH  15  16
ATOM     16  C   UNL     1      -5.091  37.373  25.722  1.00  0.00    -0.000 C 
BRANCH  16  17
ATOM     17  C   UNL     1      -5.952  36.498  24.794  1.00  0.00    -0.000 C 
BRANCH  17  18
ATOM     18  C   UNL     1      -5.150  35.354  24.152  1.00  0.00    -0.000 C 
BRANCH  18  19
ATOM     19  C   UNL     1      -5.978  34.552  23.137  1.00  0.00    -0.003 C 
ATOM     20  C   UNL     1      -6.111  33.094  23.567  1.00  0.00     0.004 C 
ENDBRANCH  18  19
ENDBRANCH  17  18
ENDBRANCH  16  17
ENDBRANCH  15  16
ENDBRANCH  14  15
ENDBRANCH  13  14
ENDBRANCH  12  13
ENDBRANCH   1  12
TORSDOF 16
ENDMDL
MODEL 5
REMARK VINA RESULT:     0.919      2.060      3.431
REMARK INTER + INTRA:           1.499
REMARK INTER:                   2.097
REMARK INTRA:                  -0.598
REMARK UNBOUND:                -0.280
REMARK SMILES CCCCCCCCCCCCCCCCCC(=O)[O-]
REMARK SMILES IDX 10 1 11 2 12 3 13 4 14 5 15 6 16 7 17 8 18 9 19 10 20 11
REMARK SMILES IDX 9 12 8 13 7 14 6 15 5 16 4 17 3 18 2 19 1 20
REMARK H PARENT
REMARK Flexibility Score: inf
ROOT
ATOM      1  C   UNL     1      -5.264  37.518  20.916  1.00  0.00     0.000 C 
ENDROOT
BRANCH   1   2
ATOM      2  C   UNL     1      -5.928  38.900  21.051  1.00  0.00     0.000 C 
BRANCH   2   3
ATOM      3  C   UNL     1      -5.290  39.835  22.099  1.00  0.00     0.000 C 
BRANCH   3   4
ATOM      4  C   UNL     1      -5.474  39.400  23.564  1.00  0.00     0.000 C 
BRANCH   4   5
ATOM      5  C   UNL     1      -5.027  37.949  23.816  1.00  0.00     0.000 C 
BRANCH   5   6
ATOM      6  C   UNL     1      -5.732  37.314  25.025  1.00  0.00     0.000 C 
BRANCH   6   7
ATOM      7  C   UNL     1      -6.012  35.816  24.832  1.00  0.00     0.006 C 
BRANCH   7   8
ATOM      8  C   UNL     1      -5.138  35.234  23.718  1.00  0.00     0.053 C 
BRANCH   8   9
ATOM      9  C   UNL     1      -5.775  34.011  23.136  1.00  0.00     0.041 C 
ATOM     10  O   UNL     1      -6.031  33.020  23.871  1.00  0.00    -0.550 OA
ATOM     11  O   UNL     1      -6.119  33.979  21.790  1.00  0.00    -0.550 OA
ENDBRANCH   8   9
ENDBRANCH   7   8
ENDBRANCH   6   7
ENDBRANCH   5   6
ENDBRANCH   4   5
ENDBRANCH   3   4
ENDBRANCH   2   3
ENDBRANCH   1   2
BRANCH   1  12
ATOM     12  C   UNL     1      -5.706  36.767  19.648  1.00  0.00     0.000 C 
BRANCH  12  13
ATOM     13  C   UNL     1      -4.537  36.068  18.935  1.00  0.00    -0.000 C 
BRANCH  13  14
ATOM     14  C   UNL     1      -4.988  34.833  18.136  1.00  0.00    -0.000 C 
BRANCH  14  15
ATOM     15  C   UNL     1      -3.955  34.388  17.085  1.00  0.00    -0.000 C 
BRANCH  15  16
ATOM     16  C   UNL     1      -3.095  35.518  16.491  1.00  0.00    -0.000 C 
BRANCH  16  17
ATOM     17  C   UNL     1      -2.914  35.396  14.967  1.00  0.00    -0.000 C 
BRANCH  17  18
ATOM     18  C   UNL     1      -2.940  36.760  14.259  1.00  0.00    -0.000 C 
BRANCH  18  19
ATOM     19  C   UNL     1      -4.368  37.231  13.943  1.00  0.00    -0.003 C 
ATOM     20  C   UNL     1      -4.527  38.723  14.218  1.00  0.00     0.004 C 
ENDBRANCH  18  19
ENDBRANCH  17  18
ENDBRANCH  16  17
ENDBRANCH  15  16
ENDBRANCH  14  15
ENDBRANCH  13  14
ENDBRANCH  12  13
ENDBRANCH   1  12
TORSDOF 16
ENDMDL
MODEL 6
REMARK VINA RESULT:     0.991      2.326      7.552
REMARK INTER + INTRA:           1.639
REMARK INTER:                   2.091
REMARK INTRA:                  -0.452
REMARK UNBOUND:                -0.280
REMARK SMILES CCCCCCCCCCCCCCCCCC(=O)[O-]
REMARK SMILES IDX 10 1 11 2 12 3 13 4 14 5 15 6 16 7 17 8 18 9 19 10 20 11
REMARK SMILES IDX 9 12 8 13 7 14 6 15 5 16 4 17 3 18 2 19 1 20
REMARK H PARENT
REMARK Flexibility Score: inf
ROOT
ATOM      1  C   UNL     1      -4.727  36.129  21.453  1.00  0.00     0.000 C 
ENDROOT
BRANCH   1   2
ATOM      2  C   UNL     1      -5.269  36.962  20.277  1.00  0.00     0.000 C 
BRANCH   2   3
ATOM      3  C   UNL     1      -5.425  36.196  18.947  1.00  0.00     0.000 C 
BRANCH   3   4
ATOM      4  C   UNL     1      -4.745  34.815  18.902  1.00  0.00     0.000 C 
BRANCH   4   5
ATOM      5  C   UNL     1      -4.245  34.444  17.495  1.00  0.00     0.000 C 
BRANCH   5   6
ATOM      6  C   UNL     1      -3.855  35.675  16.661  1.00  0.00     0.000 C 
BRANCH   6   7
ATOM      7  C   UNL     1      -2.620  35.431  15.780  1.00  0.00     0.006 C 
BRANCH   7   8
ATOM      8  C   UNL     1      -2.815  36.032  14.385  1.00  0.00     0.053 C 
BRANCH   8   9
ATOM      9  C   UNL     1      -3.908  37.053  14.402  1.00  0.00     0.041 C 
ATOM     10  O   UNL     1      -3.690  38.207  14.859  1.00  0.00    -0.550 OA
ATOM     11  O   UNL     1      -5.158  36.744  13.878  1.00  0.00    -0.550 OA
ENDBRANCH   8   9
ENDBRANCH   7   8
ENDBRANCH   6   7
ENDBRANCH   5   6
ENDBRANCH   4   5
ENDBRANCH   3   4
ENDBRANCH   2   3
ENDBRANCH   1   2
BRANCH   1  12
ATOM     12  C   UNL     1      -5.701  35.025  21.899  1.00  0.00     0.000 C 
BRANCH  12  13
ATOM     13  C   UNL     1      -5.115  34.126  23.000  1.00  0.00    -0.000 C 
BRANCH  13  14
ATOM     14  C   UNL     1      -6.038  34.018  24.226  1.00  0.00    -0.000 C 
BRANCH  14  15
ATOM     15  C   UNL     1      -6.125  35.328  25.029  1.00  0.00    -0.000 C 
BRANCH  15  16
ATOM     16  C   UNL     1      -4.844  36.184  25.027  1.00  0.00    -0.000 C 
BRANCH  16  17
ATOM     17  C   UNL     1      -5.134  37.695  25.030  1.00  0.00    -0.000 C 
BRANCH  17  18
ATOM     18  C   UNL     1      -4.818  38.358  23.679  1.00  0.00    -0.000 C 
BRANCH  18  19
ATOM     19  C   UNL     1      -5.489  39.731  23.525  1.00  0.00    -0.003 C 
ATOM     20  C   UNL     1      -5.441  40.206  22.076  1.00  0.00     0.004 C 
ENDBRANCH  18  19
ENDBRANCH  17  18
ENDBRANCH  16  17
ENDBRANCH  15  16
ENDBRANCH  14  15
ENDBRANCH  13  14
ENDBRANCH  12  13
ENDBRANCH   1  12
TORSDOF 16
ENDMDL
MODEL 7
REMARK VINA RESULT:     2.471      2.587      8.147
REMARK INTER + INTRA:           4.503
REMARK INTER:                   5.612
REMARK INTRA:                  -1.109
REMARK UNBOUND:                -0.280
REMARK SMILES CCCCCCCCCCCCCCCCCC(=O)[O-]
REMARK SMILES IDX 10 1 11 2 12 3 13 4 14 5 15 6 16 7 17 8 18 9 19 10 20 11
REMARK SMILES IDX 9 12 8 13 7 14 6 15 5 16 4 17 3 18 2 19 1 20
REMARK H PARENT
REMARK Flexibility Score: inf
ROOT
ATOM      1  C   UNL     1      -4.889  37.223  19.948  1.00  0.00     0.000 C 
ENDROOT
BRANCH   1   2
ATOM      2  C   UNL     1      -5.704  36.272  20.844  1.00  0.00     0.000 C 
BRANCH   2   3
ATOM      3  C   UNL     1      -5.617  34.779  20.466  1.00  0.00     0.000 C 
BRANCH   3   4
ATOM      4  C   UNL     1      -5.882  34.461  18.983  1.00  0.00     0.000 C 
BRANCH   4   5
ATOM      5  C   UNL     1      -4.587  34.255  18.178  1.00  0.00     0.000 C 
BRANCH   5   6
ATOM      6  C   UNL     1      -4.568  35.062  16.871  1.00  0.00     0.000 C 
BRANCH   6   7
ATOM      7  C   UNL     1      -3.157  35.536  16.483  1.00  0.00     0.006 C 
BRANCH   7   8
ATOM      8  C   UNL     1      -3.041  35.728  14.969  1.00  0.00     0.053 C 
BRANCH   8   9
ATOM      9  C   UNL     1      -3.895  36.872  14.518  1.00  0.00     0.041 C 
ATOM     10  O   UNL     1      -4.956  36.655  13.875  1.00  0.00    -0.550 OA
ATOM     11  O   UNL     1      -3.538  38.176  14.841  1.00  0.00    -0.550 OA
ENDBRANCH   8   9
ENDBRANCH   7   8
ENDBRANCH   6   7
ENDBRANCH   5   6
ENDBRANCH   4   5
ENDBRANCH   3   4
ENDBRANCH   2   3
ENDBRANCH   1   2
BRANCH   1  12
ATOM     12  C   UNL     1      -5.119  38.705  20.292  1.00  0.00     0.000 C 
BRANCH  12  13
ATOM     13  C   UNL     1      -5.931  38.895  21.584  1.00  0.00    -0.000 C 
BRANCH  13  14
ATOM     14  C   UNL     1      -5.084  39.474  22.731  1.00  0.00    -0.000 C 
BRANCH  14  15
ATOM     15  C   UNL     1      -5.457  38.889  24.105  1.00  0.00    -0.000 C 
BRANCH  15  16
ATOM     16  C   UNL     1      -5.621  37.358  24.144  1.00  0.00    -0.000 C 
BRANCH  16  17
ATOM     17  C   UNL     1      -4.884  36.707  25.328  1.00  0.00    -0.000 C 
BRANCH  17  18
ATOM     18  C   UNL     1      -4.075  37.724  26.149  1.00  0.00    -0.000 C 
BRANCH  18  19
ATOM     19  C   UNL     1      -2.983  37.058  27.001  1.00  0.00    -0.003 C 
ATOM     20  C   UNL     1      -1.687  37.862  26.958  1.00  0.00     0.004 C 
ENDBRANCH  18  19
ENDBRANCH  17  18
ENDBRANCH  16  17
ENDBRANCH  15  16
ENDBRANCH  14  15
ENDBRANCH  13  14
ENDBRANCH  12  13
ENDBRANCH   1  12
TORSDOF 16
ENDMDL
