MODEL 1
REMARK VINA RESULT:    -4.325      0.000      0.000
REMARK INTER + INTRA:          -8.901
REMARK INTER:                  -7.865
REMARK INTRA:                  -1.036
REMARK UNBOUND:                -1.036
REMARK SMILES CCCCCCCCCCCCCCCC(=O)[O-]
REMARK SMILES IDX 9 1 10 2 11 3 12 4 13 5 14 6 15 7 16 8 17 9 18 10 8 11 7 12
REMARK SMILES IDX 6 13 5 14 4 15 3 16 2 17 1 18
REMARK H PARENT
REMARK Flexibility Score: inf
ROOT
ATOM      1  C   UNL     1      -0.013  -1.196  -9.550  1.00  0.00     0.000 C 
ENDROOT
BRANCH   1   2
ATOM      2  C   UNL     1       1.123  -1.277  -8.517  1.00  0.00     0.000 C 
BRANCH   2   3
ATOM      3  C   UNL     1       0.652  -0.926  -7.095  1.00  0.00     0.000 C 
BRANCH   3   4
ATOM      4  C   UNL     1       1.563  -1.517  -6.008  1.00  0.00     0.000 C 
BRANCH   4   5
ATOM      5  C   UNL     1       2.551  -2.559  -6.564  1.00  0.00     0.000 C 
BRANCH   5   6
ATOM      6  C   UNL     1       2.233  -3.985  -6.090  1.00  0.00     0.006 C 
BRANCH   6   7
ATOM      7  C   UNL     1       0.884  -4.494  -6.614  1.00  0.00     0.053 C 
BRANCH   7   8
ATOM      8  C   UNL     1       1.019  -4.974  -8.024  1.00  0.00     0.041 C 
ATOM      9  O   UNL     1       2.035  -5.629  -8.376  1.00  0.00    -0.550 OA
ATOM     10  O   UNL     1      -0.002  -4.742  -8.939  1.00  0.00    -0.550 OA
ENDBRANCH   7   8
ENDBRANCH   6   7
ENDBRANCH   5   6
ENDBRANCH   4   5
ENDBRANCH   3   4
ENDBRANCH   2   3
ENDBRANCH   1   2
BRANCH   1  11
ATOM     11  C   UNL     1      -1.319  -0.649  -8.954  1.00  0.00     0.000 C 
BRANCH  11  12
ATOM     12  C   UNL     1      -2.537  -1.183  -9.716  1.00  0.00    -0.000 C 
BRANCH  12  13
ATOM     13  C   UNL     1      -3.846  -0.681  -9.087  1.00  0.00    -0.000 C 
BRANCH  13  14
ATOM     14  C   UNL     1      -4.908  -1.787  -8.973  1.00  0.00    -0.000 C 
BRANCH  14  15
ATOM     15  C   UNL     1      -6.205  -1.296  -8.308  1.00  0.00    -0.000 C 
BRANCH  15  16
ATOM     16  C   UNL     1      -6.769  -2.301  -7.288  1.00  0.00    -0.000 C 
BRANCH  16  17
ATOM     17  C   UNL     1      -6.506  -3.780  -7.628  1.00  0.00    -0.003 C 
ATOM     18  C   UNL     1      -7.083  -4.743  -6.591  1.00  0.00     0.004 C 
ENDBRANCH  16  17
ENDBRANCH  15  16
ENDBRANCH  14  15
ENDBRANCH  13  14
ENDBRANCH  12  13
ENDBRANCH  11  12
ENDBRANCH   1  11
TORSDOF 14
ENDMDL
MODEL 2
REMARK VINA RESULT:    -4.212      3.177      4.703
REMARK INTER + INTRA:          -8.694
REMARK INTER:                  -7.167
REMARK INTRA:                  -1.527
REMARK UNBOUND:                -1.036
REMARK SMILES CCCCCCCCCCCCCCCC(=O)[O-]
REMARK SMILES IDX 9 1 10 2 11 3 12 4 13 5 14 6 15 7 16 8 17 9 18 10 8 11 7 12
REMARK SMILES IDX 6 13 5 14 4 15 3 16 2 17 1 18
REMARK H PARENT
REMARK Flexibility Score: inf
ROOT
ATOM      1  C   UNL     1      -0.085  -3.941  -9.286  1.00  0.00     0.000 C 
ENDROOT
BRANCH   1   2
ATOM      2  C   UNL     1      -0.504  -2.538  -9.755  1.00  0.00     0.000 C 
BRANCH   2   3
ATOM      3  C   UNL     1       0.473  -1.444  -9.289  1.00  0.00     0.000 C 
BRANCH   3   4
ATOM      4  C   UNL     1       0.005  -0.743  -8.004  1.00  0.00     0.000 C 
BRANCH   4   5
ATOM      5  C   UNL     1       0.844  -1.136  -6.774  1.00  0.00     0.000 C 
BRANCH   5   6
ATOM      6  C   UNL     1       2.120  -1.905  -7.152  1.00  0.00     0.006 C 
BRANCH   6   7
ATOM      7  C   UNL     1       2.588  -2.853  -6.041  1.00  0.00     0.053 C 
BRANCH   7   8
ATOM      8  C   UNL     1       2.044  -4.229  -6.265  1.00  0.00     0.041 C 
ATOM      9  O   UNL     1       0.827  -4.472  -6.050  1.00  0.00    -0.550 OA
ATOM     10  O   UNL     1       2.869  -5.231  -6.761  1.00  0.00    -0.550 OA
ENDBRANCH   7   8
ENDBRANCH   6   7
ENDBRANCH   5   6
ENDBRANCH   4   5
ENDBRANCH   3   4
ENDBRANCH   2   3
ENDBRANCH   1   2
BRANCH   1  11
ATOM     11  C   UNL     1       1.274  -4.374  -9.856  1.00  0.00     0.000 C 
BRANCH  11  12
ATOM     12  C   UNL     1       1.374  -5.902  -9.937  1.00  0.00    -0.000 C 
BRANCH  12  13
ATOM     13  C   UNL     1       0.238  -6.572  -9.147  1.00  0.00    -0.000 C 
BRANCH  13  14
ATOM     14  C   UNL     1      -0.232  -7.887  -9.789  1.00  0.00    -0.000 C 
BRANCH  14  15
ATOM     15  C   UNL     1      -1.630  -8.314  -9.311  1.00  0.00    -0.000 C 
BRANCH  15  16
ATOM     16  C   UNL     1      -2.562  -7.117  -9.049  1.00  0.00    -0.000 C 
BRANCH  16  17
ATOM     17  C   UNL     1      -4.047  -7.484  -8.873  1.00  0.00    -0.003 C 
ATOM     18  C   UNL     1      -4.280  -8.518  -7.772  1.00  0.00     0.004 C 
ENDBRANCH  16  17
ENDBRANCH  15  16
ENDBRANCH  14  15
ENDBRANCH  13  14
ENDBRANCH  12  13
ENDBRANCH  11  12
ENDBRANCH   1  11
TORSDOF 14
ENDMDL
MODEL 3
REMARK VINA RESULT:    -4.202      2.959      7.306
REMARK INTER + INTRA:          -8.677
REMARK INTER:                  -6.636
REMARK INTRA:                  -2.041
REMARK UNBOUND:                -1.036
REMARK SMILES CCCCCCCCCCCCCCCC(=O)[O-]
REMARK SMILES IDX 9 1 10 2 11 3 12 4 13 5 14 6 15 7 16 8 17 9 18 10 8 11 7 12
REMARK SMILES IDX 6 13 5 14 4 15 3 16 2 17 1 18
REMARK H PARENT
REMARK Flexibility Score: inf
ROOT
ATOM      1  C   UNL     1       1.790  -1.830  -5.997  1.00  0.00     0.000 C 
ENDROOT
BRANCH   1   2
ATOM      2  C   UNL     1       1.436  -0.960  -7.214  1.00  0.00     0.000 C 
BRANCH   2   3
ATOM      3  C   UNL     1      -0.022  -1.147  -7.668  1.00  0.00     0.000 C 
BRANCH   3   4
ATOM      4  C   UNL     1      -0.154  -1.264  -9.195  1.00  0.00     0.000 C 
BRANCH   4   5
ATOM      5  C   UNL     1      -1.620  -1.257  -9.667  1.00  0.00     0.000 C 
BRANCH   5   6
ATOM      6  C   UNL     1      -2.518  -0.371  -8.788  1.00  0.00     0.006 C 
BRANCH   6   7
ATOM      7  C   UNL     1      -3.801   0.064  -9.506  1.00  0.00     0.053 C 
BRANCH   7   8
ATOM      8  C   UNL     1      -4.987  -0.643  -8.930  1.00  0.00     0.041 C 
ATOM      9  O   UNL     1      -5.977   0.014  -8.513  1.00  0.00    -0.550 OA
ATOM     10  O   UNL     1      -5.022  -2.033  -8.898  1.00  0.00    -0.550 OA
ENDBRANCH   7   8
ENDBRANCH   6   7
ENDBRANCH   5   6
ENDBRANCH   4   5
ENDBRANCH   3   4
ENDBRANCH   2   3
ENDBRANCH   1   2
BRANCH   1  11
ATOM     11  C   UNL     1       1.148  -3.225  -6.059  1.00  0.00     0.000 C 
BRANCH  11  12
ATOM     12  C   UNL     1       2.216  -4.323  -5.991  1.00  0.00    -0.000 C 
BRANCH  12  13
ATOM     13  C   UNL     1       2.527  -4.879  -7.389  1.00  0.00    -0.000 C 
BRANCH  13  14
ATOM     14  C   UNL     1       1.397  -4.610  -8.396  1.00  0.00    -0.000 C 
BRANCH  14  15
ATOM     15  C   UNL     1       1.924  -4.290  -9.806  1.00  0.00    -0.000 C 
BRANCH  15  16
ATOM     16  C   UNL     1       3.350  -3.712  -9.792  1.00  0.00    -0.000 C 
BRANCH  16  17
ATOM     17  C   UNL     1       3.429  -2.190 -10.009  1.00  0.00    -0.003 C 
ATOM     18  C   UNL     1       4.468  -1.513  -9.115  1.00  0.00     0.004 C 
ENDBRANCH  16  17
ENDBRANCH  15  16
ENDBRANCH  14  15
ENDBRANCH  13  14
ENDBRANCH  12  13
ENDBRANCH  11  12
ENDBRANCH   1  11
TORSDOF 14
ENDMDL
MODEL 4
REMARK VINA RESULT:    -4.180     10.744     13.214
REMARK INTER + INTRA:          -8.637
REMARK INTER:                  -6.593
REMARK INTRA:                  -2.044
REMARK UNBOUND:                -1.036
REMARK SMILES CCCCCCCCCCCCCCCC(=O)[O-]
REMARK SMILES IDX 9 1 10 2 11 3 12 4 13 5 14 6 15 7 16 8 17 9 18 10 8 11 7 12
REMARK SMILES IDX 6 13 5 14 4 15 3 16 2 17 1 18
REMARK H PARENT
REMARK Flexibility Score: inf
ROOT
ATOM      1  C   UNL     1      -7.138  -6.727  -0.663  1.00  0.00     0.000 C 
ENDROOT
BRANCH   1   2
ATOM      2  C   UNL     1      -7.884  -5.897   0.395  1.00  0.00     0.000 C 
BRANCH   2   3
ATOM      3  C   UNL     1      -7.033  -5.642   1.652  1.00  0.00     0.000 C 
BRANCH   3   4
ATOM      4  C   UNL     1      -7.884  -5.258   2.872  1.00  0.00     0.000 C 
BRANCH   4   5
ATOM      5  C   UNL     1      -7.159  -4.285   3.820  1.00  0.00     0.000 C 
BRANCH   5   6
ATOM      6  C   UNL     1      -7.507  -2.815   3.535  1.00  0.00     0.006 C 
BRANCH   6   7
ATOM      7  C   UNL     1      -6.409  -2.090   2.747  1.00  0.00     0.053 C 
BRANCH   7   8
ATOM      8  C   UNL     1      -6.728  -2.090   1.286  1.00  0.00     0.041 C 
ATOM      9  O   UNL     1      -7.925  -2.133   0.898  1.00  0.00    -0.550 OA
ATOM     10  O   UNL     1      -5.705  -1.991   0.350  1.00  0.00    -0.550 OA
ENDBRANCH   7   8
ENDBRANCH   6   7
ENDBRANCH   5   6
ENDBRANCH   4   5
ENDBRANCH   3   4
ENDBRANCH   2   3
ENDBRANCH   1   2
BRANCH   1  11
ATOM     11  C   UNL     1      -7.613  -8.187  -0.714  1.00  0.00     0.000 C 
BRANCH  11  12
ATOM     12  C   UNL     1      -6.877  -9.040   0.327  1.00  0.00    -0.000 C 
BRANCH  12  13
ATOM     13  C   UNL     1      -7.811  -9.426   1.484  1.00  0.00    -0.000 C 
BRANCH  13  14
ATOM     14  C   UNL     1      -7.141  -9.273   2.859  1.00  0.00    -0.000 C 
BRANCH  14  15
ATOM     15  C   UNL     1      -5.679  -8.804   2.757  1.00  0.00    -0.000 C 
BRANCH  15  16
ATOM     16  C   UNL     1      -5.251  -7.924   3.945  1.00  0.00    -0.000 C 
BRANCH  16  17
ATOM     17  C   UNL     1      -5.983  -8.225   5.266  1.00  0.00    -0.003 C 
ATOM     18  C   UNL     1      -6.333  -6.964   6.055  1.00  0.00     0.004 C 
ENDBRANCH  16  17
ENDBRANCH  15  16
ENDBRANCH  14  15
ENDBRANCH  13  14
ENDBRANCH  12  13
ENDBRANCH  11  12
ENDBRANCH   1  11
TORSDOF 14
ENDMDL
MODEL 5
REMARK VINA RESULT:    -4.167      3.921      6.500
REMARK INTER + INTRA:          -8.613
REMARK INTER:                  -6.981
REMARK INTRA:                  -1.632
REMARK UNBOUND:                -1.036
REMARK SMILES CCCCCCCCCCCCCCCC(=O)[O-]
REMARK SMILES IDX 9 1 10 2 11 3 12 4 13 5 14 6 15 7 16 8 17 9 18 10 8 11 7 12
REMARK SMILES IDX 6 13 5 14 4 15 3 16 2 17 1 18
REMARK H PARENT
REMARK Flexibility Score: inf
ROOT
ATOM      1  C   UNL     1       1.420  -3.230  -5.633  1.00  0.00     0.000 C 
ENDROOT
BRANCH   1   2
ATOM      2  C   UNL     1       2.162  -4.516  -6.030  1.00  0.00     0.000 C 
BRANCH   2   3
ATOM      3  C   UNL     1       2.191  -4.735  -7.553  1.00  0.00     0.000 C 
BRANCH   3   4
ATOM      4  C   UNL     1       0.830  -5.178  -8.111  1.00  0.00     0.000 C 
BRANCH   4   5
ATOM      5  C   UNL     1       0.961  -6.039  -9.381  1.00  0.00     0.000 C 
BRANCH   5   6
ATOM      6  C   UNL     1      -0.071  -7.177  -9.432  1.00  0.00     0.006 C 
BRANCH   6   7
ATOM      7  C   UNL     1      -1.492  -6.700  -9.108  1.00  0.00     0.053 C 
BRANCH   7   8
ATOM      8  C   UNL     1      -2.414  -7.868  -8.961  1.00  0.00     0.041 C 
ATOM      9  O   UNL     1      -2.104  -8.986  -9.451  1.00  0.00    -0.550 OA
ATOM     10  O   UNL     1      -3.595  -7.737  -8.240  1.00  0.00    -0.550 OA
ENDBRANCH   7   8
ENDBRANCH   6   7
ENDBRANCH   5   6
ENDBRANCH   4   5
ENDBRANCH   3   4
ENDBRANCH   2   3
ENDBRANCH   1   2
BRANCH   1  11
ATOM     11  C   UNL     1       2.134  -1.960  -6.121  1.00  0.00     0.000 C 
BRANCH  11  12
ATOM     12  C   UNL     1       1.132  -0.956  -6.703  1.00  0.00    -0.000 C 
BRANCH  12  13
ATOM     13  C   UNL     1       0.124  -1.655  -7.627  1.00  0.00    -0.000 C 
BRANCH  13  14
ATOM     14  C   UNL     1       0.409  -1.398  -9.116  1.00  0.00    -0.000 C 
BRANCH  14  15
ATOM     15  C   UNL     1       1.753  -0.685  -9.346  1.00  0.00    -0.000 C 
BRANCH  15  16
ATOM     16  C   UNL     1       2.809  -1.599  -9.993  1.00  0.00    -0.000 C 
BRANCH  16  17
ATOM     17  C   UNL     1       4.048  -1.871  -9.120  1.00  0.00    -0.003 C 
ATOM     18  C   UNL     1       5.211  -0.928  -9.425  1.00  0.00     0.004 C 
ENDBRANCH  16  17
ENDBRANCH  15  16
ENDBRANCH  14  15
ENDBRANCH  13  14
ENDBRANCH  12  13
ENDBRANCH  11  12
ENDBRANCH   1  11
TORSDOF 14
ENDMDL
MODEL 6
REMARK VINA RESULT:    -4.167     10.634     12.932
REMARK INTER + INTRA:          -8.613
REMARK INTER:                  -6.666
REMARK INTRA:                  -1.947
REMARK UNBOUND:                -1.036
REMARK SMILES CCCCCCCCCCCCCCCC(=O)[O-]
REMARK SMILES IDX 9 1 10 2 11 3 12 4 13 5 14 6 15 7 16 8 17 9 18 10 8 11 7 12
REMARK SMILES IDX 6 13 5 14 4 15 3 16 2 17 1 18
REMARK H PARENT
REMARK Flexibility Score: inf
ROOT
ATOM      1  C   UNL     1      -5.226  -7.905   3.750  1.00  0.00     0.000 C 
ENDROOT
BRANCH   1   2
ATOM      2  C   UNL     1      -6.305  -6.913   4.215  1.00  0.00     0.000 C 
BRANCH   2   3
ATOM      3  C   UNL     1      -5.763  -5.881   5.220  1.00  0.00     0.000 C 
BRANCH   3   4
ATOM      4  C   UNL     1      -6.712  -4.688   5.411  1.00  0.00     0.000 C 
BRANCH   4   5
ATOM      5  C   UNL     1      -6.168  -3.391   4.783  1.00  0.00     0.000 C 
BRANCH   5   6
ATOM      6  C   UNL     1      -6.308  -3.373   3.253  1.00  0.00     0.006 C 
BRANCH   6   7
ATOM      7  C   UNL     1      -6.466  -1.955   2.691  1.00  0.00     0.053 C 
BRANCH   7   8
ATOM      8  C   UNL     1      -6.703  -2.002   1.215  1.00  0.00     0.041 C 
ATOM      9  O   UNL     1      -5.730  -2.008   0.416  1.00  0.00    -0.550 OA
ATOM     10  O   UNL     1      -7.999  -2.089   0.721  1.00  0.00    -0.550 OA
ENDBRANCH   7   8
ENDBRANCH   6   7
ENDBRANCH   5   6
ENDBRANCH   4   5
ENDBRANCH   3   4
ENDBRANCH   2   3
ENDBRANCH   1   2
BRANCH   1  11
ATOM     11  C   UNL     1      -5.719  -8.833   2.629  1.00  0.00     0.000 C 
BRANCH  11  12
ATOM     12  C   UNL     1      -7.224  -9.098   2.758  1.00  0.00    -0.000 C 
BRANCH  12  13
ATOM     13  C   UNL     1      -7.852  -9.393   1.386  1.00  0.00    -0.000 C 
BRANCH  13  14
ATOM     14  C   UNL     1      -6.951  -8.957   0.219  1.00  0.00    -0.000 C 
BRANCH  14  15
ATOM     15  C   UNL     1      -7.644  -7.956  -0.722  1.00  0.00    -0.000 C 
BRANCH  15  16
ATOM     16  C   UNL     1      -6.991  -6.563  -0.695  1.00  0.00    -0.000 C 
BRANCH  16  17
ATOM     17  C   UNL     1      -7.091  -5.831   0.656  1.00  0.00    -0.003 C 
ATOM     18  C   UNL     1      -8.531  -5.670   1.143  1.00  0.00     0.004 C 
ENDBRANCH  16  17
ENDBRANCH  15  16
ENDBRANCH  14  15
ENDBRANCH  13  14
ENDBRANCH  12  13
ENDBRANCH  11  12
ENDBRANCH   1  11
TORSDOF 14
ENDMDL
MODEL 7
REMARK VINA RESULT:    -4.156      2.264      4.063
REMARK INTER + INTRA:          -8.593
REMARK INTER:                  -6.877
REMARK INTRA:                  -1.716
REMARK UNBOUND:                -1.036
REMARK SMILES CCCCCCCCCCCCCCCC(=O)[O-]
REMARK SMILES IDX 9 1 10 2 11 3 12 4 13 5 14 6 15 7 16 8 17 9 18 10 8 11 7 12
REMARK SMILES IDX 6 13 5 14 4 15 3 16 2 17 1 18
REMARK H PARENT
REMARK Flexibility Score: inf
ROOT
ATOM      1  C   UNL     1       1.830  -1.890  -6.028  1.00  0.00     0.000 C 
ENDROOT
BRANCH   1   2
ATOM      2  C   UNL     1       1.270  -3.280  -5.686  1.00  0.00     0.000 C 
BRANCH   2   3
ATOM      3  C   UNL     1       2.258  -4.412  -6.021  1.00  0.00     0.000 C 
BRANCH   3   4
ATOM      4  C   UNL     1       2.138  -4.888  -7.477  1.00  0.00     0.000 C 
BRANCH   4   5
ATOM      5  C   UNL     1       0.675  -5.006  -7.945  1.00  0.00     0.000 C 
BRANCH   5   6
ATOM      6  C   UNL     1       0.538  -5.791  -9.259  1.00  0.00     0.006 C 
BRANCH   6   7
ATOM      7  C   UNL     1      -0.924  -6.015  -9.663  1.00  0.00     0.053 C 
BRANCH   7   8
ATOM      8  C   UNL     1      -1.413  -7.331  -9.147  1.00  0.00     0.041 C 
ATOM      9  O   UNL     1      -0.692  -8.358  -9.246  1.00  0.00    -0.550 OA
ATOM     10  O   UNL     1      -2.646  -7.415  -8.510  1.00  0.00    -0.550 OA
ENDBRANCH   7   8
ENDBRANCH   6   7
ENDBRANCH   5   6
ENDBRANCH   4   5
ENDBRANCH   3   4
ENDBRANCH   2   3
ENDBRANCH   1   2
BRANCH   1  11
ATOM     11  C   UNL     1       1.043  -1.194  -7.149  1.00  0.00     0.000 C 
BRANCH  11  12
ATOM     12  C   UNL     1       1.762  -1.337  -8.496  1.00  0.00    -0.000 C 
BRANCH  12  13
ATOM     13  C   UNL     1       0.760  -1.586  -9.634  1.00  0.00    -0.000 C 
BRANCH  13  14
ATOM     14  C   UNL     1      -0.657  -1.882  -9.118  1.00  0.00    -0.000 C 
BRANCH  14  15
ATOM     15  C   UNL     1      -1.753  -1.341 -10.053  1.00  0.00    -0.000 C 
BRANCH  15  16
ATOM     16  C   UNL     1      -2.848  -0.564  -9.301  1.00  0.00    -0.000 C 
BRANCH  16  17
ATOM     17  C   UNL     1      -4.203  -1.289  -9.207  1.00  0.00    -0.003 C 
ATOM     18  C   UNL     1      -4.283  -2.524 -10.104  1.00  0.00     0.004 C 
ENDBRANCH  16  17
ENDBRANCH  15  16
ENDBRANCH  14  15
ENDBRANCH  13  14
ENDBRANCH  12  13
ENDBRANCH  11  12
ENDBRANCH   1  11
TORSDOF 14
ENDMDL
MODEL 8
REMARK VINA RESULT:    -4.153      1.830      2.765
REMARK INTER + INTRA:          -8.587
REMARK INTER:                  -7.128
REMARK INTRA:                  -1.458
REMARK UNBOUND:                -1.036
REMARK SMILES CCCCCCCCCCCCCCCC(=O)[O-]
REMARK SMILES IDX 9 1 10 2 11 3 12 4 13 5 14 6 15 7 16 8 17 9 18 10 8 11 7 12
REMARK SMILES IDX 6 13 5 14 4 15 3 16 2 17 1 18
REMARK H PARENT
REMARK Flexibility Score: inf
ROOT
ATOM      1  C   UNL     1       0.186  -1.826  -9.606  1.00  0.00     0.000 C 
ENDROOT
BRANCH   1   2
ATOM      2  C   UNL     1      -0.296  -3.260  -9.333  1.00  0.00     0.000 C 
BRANCH   2   3
ATOM      3  C   UNL     1       0.683  -4.321  -9.864  1.00  0.00     0.000 C 
BRANCH   3   4
ATOM      4  C   UNL     1       1.231  -5.228  -8.751  1.00  0.00     0.000 C 
BRANCH   4   5
ATOM      5  C   UNL     1       0.676  -4.864  -7.361  1.00  0.00     0.000 C 
BRANCH   5   6
ATOM      6  C   UNL     1       1.781  -4.468  -6.370  1.00  0.00     0.006 C 
BRANCH   6   7
ATOM      7  C   UNL     1       1.462  -3.172  -5.615  1.00  0.00     0.053 C 
BRANCH   7   8
ATOM      8  C   UNL     1       1.985  -1.988  -6.366  1.00  0.00     0.041 C 
ATOM      9  O   UNL     1       2.858  -2.140  -7.260  1.00  0.00    -0.550 OA
ATOM     10  O   UNL     1       1.471  -0.722  -6.113  1.00  0.00    -0.550 OA
ENDBRANCH   7   8
ENDBRANCH   6   7
ENDBRANCH   5   6
ENDBRANCH   4   5
ENDBRANCH   3   4
ENDBRANCH   2   3
ENDBRANCH   1   2
BRANCH   1  11
ATOM     11  C   UNL     1      -0.594  -0.775  -8.800  1.00  0.00     0.000 C 
BRANCH  11  12
ATOM     12  C   UNL     1      -1.805  -0.265  -9.591  1.00  0.00    -0.000 C 
BRANCH  12  13
ATOM     13  C   UNL     1      -2.980   0.057  -8.654  1.00  0.00    -0.000 C 
BRANCH  13  14
ATOM     14  C   UNL     1      -4.310  -0.531  -9.152  1.00  0.00    -0.000 C 
BRANCH  14  15
ATOM     15  C   UNL     1      -4.139  -1.910  -9.811  1.00  0.00    -0.000 C 
BRANCH  15  16
ATOM     16  C   UNL     1      -5.154  -2.947  -9.299  1.00  0.00    -0.000 C 
BRANCH  16  17
ATOM     17  C   UNL     1      -6.116  -2.425  -8.216  1.00  0.00    -0.003 C 
ATOM     18  C   UNL     1      -6.672  -3.536  -7.325  1.00  0.00     0.004 C 
ENDBRANCH  16  17
ENDBRANCH  15  16
ENDBRANCH  14  15
ENDBRANCH  13  14
ENDBRANCH  12  13
ENDBRANCH  11  12
ENDBRANCH   1  11
TORSDOF 14
ENDMDL
MODEL 9
REMARK VINA RESULT:    -4.051      3.760      6.518
REMARK INTER + INTRA:          -8.402
REMARK INTER:                  -7.226
REMARK INTRA:                  -1.176
REMARK UNBOUND:                -1.036
REMARK SMILES CCCCCCCCCCCCCCCC(=O)[O-]
REMARK SMILES IDX 9 1 10 2 11 3 12 4 13 5 14 6 15 7 16 8 17 9 18 10 8 11 7 12
REMARK SMILES IDX 6 13 5 14 4 15 3 16 2 17 1 18
REMARK H PARENT
REMARK Flexibility Score: inf
ROOT
ATOM      1  C   UNL     1       1.506  -1.851  -5.999  1.00  0.00     0.000 C 
ENDROOT
BRANCH   1   2
ATOM      2  C   UNL     1       0.771  -1.105  -7.125  1.00  0.00     0.000 C 
BRANCH   2   3
ATOM      3  C   UNL     1       1.405  -1.351  -8.505  1.00  0.00     0.000 C 
BRANCH   3   4
ATOM      4  C   UNL     1       0.417  -1.112  -9.659  1.00  0.00     0.000 C 
BRANCH   4   5
ATOM      5  C   UNL     1      -0.434   0.155  -9.459  1.00  0.00     0.000 C 
BRANCH   5   6
ATOM      6  C   UNL     1      -1.841   0.021 -10.061  1.00  0.00     0.006 C 
BRANCH   6   7
ATOM      7  C   UNL     1      -2.900  -0.341  -9.012  1.00  0.00     0.053 C 
BRANCH   7   8
ATOM      8  C   UNL     1      -3.975   0.699  -8.975  1.00  0.00     0.041 C 
ATOM      9  O   UNL     1      -5.187   0.360  -9.017  1.00  0.00    -0.550 OA
ATOM     10  O   UNL     1      -3.640   2.041  -8.842  1.00  0.00    -0.550 OA
ENDBRANCH   7   8
ENDBRANCH   6   7
ENDBRANCH   5   6
ENDBRANCH   4   5
ENDBRANCH   3   4
ENDBRANCH   2   3
ENDBRANCH   1   2
BRANCH   1  11
ATOM     11  C   UNL     1       1.201  -3.357  -5.988  1.00  0.00     0.000 C 
BRANCH  11  12
ATOM     12  C   UNL     1       2.438  -4.169  -6.388  1.00  0.00    -0.000 C 
BRANCH  12  13
ATOM     13  C   UNL     1       2.215  -4.891  -7.727  1.00  0.00    -0.000 C 
BRANCH  13  14
ATOM     14  C   UNL     1       0.733  -4.937  -8.133  1.00  0.00    -0.000 C 
BRANCH  14  15
ATOM     15  C   UNL     1       0.395  -6.160  -9.002  1.00  0.00    -0.000 C 
BRANCH  15  16
ATOM     16  C   UNL     1      -1.014  -6.714  -8.729  1.00  0.00    -0.000 C 
BRANCH  16  17
ATOM     17  C   UNL     1      -1.309  -8.077  -9.383  1.00  0.00    -0.003 C 
ATOM     18  C   UNL     1      -0.075  -8.711 -10.024  1.00  0.00     0.004 C 
ENDBRANCH  16  17
ENDBRANCH  15  16
ENDBRANCH  14  15
ENDBRANCH  13  14
ENDBRANCH  12  13
ENDBRANCH  11  12
ENDBRANCH   1  11
TORSDOF 14
ENDMDL
