MODEL 1
REMARK VINA RESULT:    -6.581      0.000      0.000
REMARK INTER + INTRA:          -7.993
REMARK INTER:                  -7.735
REMARK INTRA:                  -0.258
REMARK UNBOUND:                -0.258
REMARK SMILES O=c1c(O)c(-c2ccc(O)cc2)oc2cc(O)cc(O)c12
REMARK SMILES IDX 5 1 3 2 2 3 1 4 21 5 19 6 18 7 16 8 15 9 14 10 13 11 6 12
REMARK SMILES IDX 7 13 8 14 9 15 12 16 11 17 10 18 4 20 20 22 17 24
REMARK H PARENT 10 19 4 21 20 23 17 25
REMARK Flexibility Score: inf
ROOT
ATOM      1  C   UNL     1     170.157 143.969 153.424  1.00  0.00     0.180 A 
ATOM      2  C   UNL     1     171.168 144.708 154.069  1.00  0.00     0.208 A 
ATOM      3  C   UNL     1     171.105 144.870 155.462  1.00  0.00     0.238 A 
ATOM      4  O   UNL     1     171.998 145.539 156.050  1.00  0.00    -0.285 OA
ATOM      5  C   UNL     1     170.049 144.277 156.186  1.00  0.00     0.111 A 
ATOM      6  C   UNL     1     169.915 144.389 157.591  1.00  0.00     0.134 A 
ATOM      7  C   UNL     1     168.841 143.762 158.239  1.00  0.00     0.093 A 
ATOM      8  C   UNL     1     167.900 143.026 157.510  1.00  0.00     0.123 A 
ATOM      9  C   UNL     1     168.029 142.913 156.124  1.00  0.00     0.094 A 
ATOM     10  C   UNL     1     169.091 143.532 155.460  1.00  0.00     0.146 A 
ATOM     11  O   UNL     1     169.186 143.412 154.140  1.00  0.00    -0.452 OA
ENDROOT
BRANCH   1  12
ATOM     12  C   UNL     1     170.144 143.771 151.956  1.00  0.00     0.021 A 
ATOM     13  C   UNL     1     170.493 142.517 151.426  1.00  0.00     0.016 A 
ATOM     14  C   UNL     1     170.465 142.300 150.045  1.00  0.00     0.047 A 
ATOM     15  C   UNL     1     170.075 143.329 149.178  1.00  0.00     0.115 A 
ATOM     16  C   UNL     1     169.733 144.793 151.082  1.00  0.00     0.016 A 
ATOM     17  C   UNL     1     169.706 144.572 149.701  1.00  0.00     0.047 A 
BRANCH  15  18
ATOM     18  O   UNL     1     170.044 143.125 147.800  1.00  0.00    -0.508 OA
ATOM     19  H   UNL     1     170.628 142.426 147.355  1.00  0.00     0.293 HD
ENDBRANCH  15  18
ENDBRANCH   1  12
BRANCH   2  20
ATOM     20  O   UNL     1     172.230 145.243 153.335  1.00  0.00    -0.502 OA
ATOM     21  H   UNL     1     173.181 144.912 153.437  1.00  0.00     0.293 HD
ENDBRANCH   2  20
BRANCH   6  22
ATOM     22  O   UNL     1     170.838 145.116 158.345  1.00  0.00    -0.507 OA
ATOM     23  H   UNL     1     170.547 145.728 159.098  1.00  0.00     0.293 HD
ENDBRANCH   6  22
BRANCH   8  24
ATOM     24  O   UNL     1     166.833 142.402 158.154  1.00  0.00    -0.508 OA
ATOM     25  H   UNL     1     166.983 141.670 158.839  1.00  0.00     0.293 HD
ENDBRANCH   8  24
TORSDOF 5
ENDMDL
MODEL 2
REMARK VINA RESULT:    -6.479      2.127      7.030
REMARK INTER + INTRA:          -7.873
REMARK INTER:                  -7.629
REMARK INTRA:                  -0.244
REMARK UNBOUND:                -0.258
REMARK SMILES O=c1c(O)c(-c2ccc(O)cc2)oc2cc(O)cc(O)c12
REMARK SMILES IDX 5 1 3 2 2 3 1 4 21 5 19 6 18 7 16 8 15 9 14 10 13 11 6 12
REMARK SMILES IDX 7 13 8 14 9 15 12 16 11 17 10 18 4 20 20 22 17 24
REMARK H PARENT 10 19 4 21 20 23 17 25
REMARK Flexibility Score: inf
ROOT
ATOM      1  C   UNL     1     170.107 143.677 152.432  1.00  0.00     0.180 A 
ATOM      2  C   UNL     1     171.371 143.058 152.385  1.00  0.00     0.208 A 
ATOM      3  C   UNL     1     172.015 142.923 151.144  1.00  0.00     0.238 A 
ATOM      4  O   UNL     1     173.142 142.361 151.089  1.00  0.00    -0.285 OA
ATOM      5  C   UNL     1     171.397 143.426 149.980  1.00  0.00     0.111 A 
ATOM      6  C   UNL     1     171.980 143.334 148.694  1.00  0.00     0.134 A 
ATOM      7  C   UNL     1     171.306 143.868 147.585  1.00  0.00     0.093 A 
ATOM      8  C   UNL     1     170.061 144.489 147.739  1.00  0.00     0.123 A 
ATOM      9  C   UNL     1     169.482 144.581 149.006  1.00  0.00     0.094 A 
ATOM     10  C   UNL     1     170.138 144.055 150.123  1.00  0.00     0.146 A 
ATOM     11  O   UNL     1     169.562 144.152 151.316  1.00  0.00    -0.452 OA
ENDROOT
BRANCH   1  12
ATOM     12  C   UNL     1     169.356 143.838 153.698  1.00  0.00     0.021 A 
ATOM     13  C   UNL     1     169.235 145.116 154.271  1.00  0.00     0.016 A 
ATOM     14  C   UNL     1     168.512 145.294 155.455  1.00  0.00     0.047 A 
ATOM     15  C   UNL     1     167.890 144.202 156.072  1.00  0.00     0.115 A 
ATOM     16  C   UNL     1     168.711 142.749 154.312  1.00  0.00     0.016 A 
ATOM     17  C   UNL     1     167.989 142.932 155.495  1.00  0.00     0.047 A 
BRANCH  15  18
ATOM     18  O   UNL     1     167.167 144.368 157.252  1.00  0.00    -0.508 OA
ATOM     19  H   UNL     1     167.563 144.847 158.052  1.00  0.00     0.293 HD
ENDBRANCH  15  18
ENDBRANCH   1  12
BRANCH   2  20
ATOM     20  O   UNL     1     171.983 142.613 153.559  1.00  0.00    -0.502 OA
ATOM     21  H   UNL     1     171.970 141.642 153.844  1.00  0.00     0.293 HD
ENDBRANCH   2  20
BRANCH   6  22
ATOM     22  O   UNL     1     173.220 142.721 148.509  1.00  0.00    -0.507 OA
ATOM     23  H   UNL     1     173.298 141.754 148.220  1.00  0.00     0.293 HD
ENDBRANCH   6  22
BRANCH   8  24
ATOM     24  O   UNL     1     169.391 145.019 146.638  1.00  0.00    -0.508 OA
ATOM     25  H   UNL     1     169.527 144.645 145.706  1.00  0.00     0.293 HD
ENDBRANCH   8  24
TORSDOF 5
ENDMDL
MODEL 3
REMARK VINA RESULT:    -6.396      1.964      2.443
REMARK INTER + INTRA:          -7.776
REMARK INTER:                  -7.492
REMARK INTRA:                  -0.284
REMARK UNBOUND:                -0.258
REMARK SMILES O=c1c(O)c(-c2ccc(O)cc2)oc2cc(O)cc(O)c12
REMARK SMILES IDX 5 1 3 2 2 3 1 4 21 5 19 6 18 7 16 8 15 9 14 10 13 11 6 12
REMARK SMILES IDX 7 13 8 14 9 15 12 16 11 17 10 18 4 20 20 22 17 24
REMARK H PARENT 10 19 4 21 20 23 17 25
REMARK Flexibility Score: inf
ROOT
ATOM      1  C   UNL     1     171.428 143.369 152.567  1.00  0.00     0.180 A 
ATOM      2  C   UNL     1     171.898 144.509 153.246  1.00  0.00     0.208 A 
ATOM      3  C   UNL     1     171.221 144.937 154.400  1.00  0.00     0.238 A 
ATOM      4  O   UNL     1     171.626 145.963 155.011  1.00  0.00    -0.285 OA
ATOM      5  C   UNL     1     170.105 144.211 154.864  1.00  0.00     0.111 A 
ATOM      6  C   UNL     1     169.372 144.573 156.020  1.00  0.00     0.134 A 
ATOM      7  C   UNL     1     168.278 143.792 156.423  1.00  0.00     0.093 A 
ATOM      8  C   UNL     1     167.905 142.658 155.692  1.00  0.00     0.123 A 
ATOM      9  C   UNL     1     168.626 142.298 154.552  1.00  0.00     0.094 A 
ATOM     10  C   UNL     1     169.718 143.063 154.134  1.00  0.00     0.146 A 
ATOM     11  O   UNL     1     170.382 142.700 153.042  1.00  0.00    -0.452 OA
ENDROOT
BRANCH   1  12
ATOM     12  C   UNL     1     172.075 142.867 151.333  1.00  0.00     0.021 A 
ATOM     13  C   UNL     1     171.604 143.301 150.081  1.00  0.00     0.016 A 
ATOM     14  C   UNL     1     172.214 142.857 148.904  1.00  0.00     0.047 A 
ATOM     15  C   UNL     1     173.310 141.987 148.963  1.00  0.00     0.115 A 
ATOM     16  C   UNL     1     173.189 142.010 151.385  1.00  0.00     0.016 A 
ATOM     17  C   UNL     1     173.796 141.569 150.205  1.00  0.00     0.047 A 
BRANCH  15  18
ATOM     18  O   UNL     1     173.926 141.539 147.796  1.00  0.00    -0.508 OA
ATOM     19  H   UNL     1     174.887 141.777 147.579  1.00  0.00     0.293 HD
ENDBRANCH  15  18
ENDBRANCH   1  12
BRANCH   2  20
ATOM     20  O   UNL     1     173.035 145.183 152.794  1.00  0.00    -0.502 OA
ATOM     21  H   UNL     1     173.413 145.046 151.865  1.00  0.00     0.293 HD
ENDBRANCH   2  20
BRANCH   6  22
ATOM     22  O   UNL     1     169.721 145.697 156.769  1.00  0.00    -0.507 OA
ATOM     23  H   UNL     1     170.503 146.288 156.512  1.00  0.00     0.293 HD
ENDBRANCH   6  22
BRANCH   8  24
ATOM     24  O   UNL     1     166.819 141.882 156.092  1.00  0.00    -0.508 OA
ATOM     25  H   UNL     1     166.409 141.980 157.014  1.00  0.00     0.293 HD
ENDBRANCH   8  24
TORSDOF 5
ENDMDL
MODEL 4
REMARK VINA RESULT:    -6.369      2.930      7.113
REMARK INTER + INTRA:          -7.744
REMARK INTER:                  -7.554
REMARK INTRA:                  -0.190
REMARK UNBOUND:                -0.258
REMARK SMILES O=c1c(O)c(-c2ccc(O)cc2)oc2cc(O)cc(O)c12
REMARK SMILES IDX 5 1 3 2 2 3 1 4 21 5 19 6 18 7 16 8 15 9 14 10 13 11 6 12
REMARK SMILES IDX 7 13 8 14 9 15 12 16 11 17 10 18 4 20 20 22 17 24
REMARK H PARENT 10 19 4 21 20 23 17 25
REMARK Flexibility Score: inf
ROOT
ATOM      1  C   UNL     1     171.211 144.900 157.395  1.00  0.00     0.180 A 
ATOM      2  C   UNL     1     170.036 144.215 157.760  1.00  0.00     0.208 A 
ATOM      3  C   UNL     1     168.981 144.138 156.836  1.00  0.00     0.238 A 
ATOM      4  O   UNL     1     167.920 143.537 157.154  1.00  0.00    -0.285 OA
ATOM      5  C   UNL     1     169.126 144.727 155.562  1.00  0.00     0.111 A 
ATOM      6  C   UNL     1     168.113 144.690 154.573  1.00  0.00     0.134 A 
ATOM      7  C   UNL     1     168.338 145.293 153.326  1.00  0.00     0.093 A 
ATOM      8  C   UNL     1     169.553 145.929 153.050  1.00  0.00     0.123 A 
ATOM      9  C   UNL     1     170.554 145.967 154.023  1.00  0.00     0.094 A 
ATOM     10  C   UNL     1     170.349 145.374 155.272  1.00  0.00     0.146 A 
ATOM     11  O   UNL     1     171.317 145.430 156.180  1.00  0.00    -0.452 OA
ENDROOT
BRANCH   1  12
ATOM     12  C   UNL     1     172.358 145.042 158.321  1.00  0.00     0.021 A 
ATOM     13  C   UNL     1     173.163 143.923 158.599  1.00  0.00     0.016 A 
ATOM     14  C   UNL     1     174.264 144.038 159.452  1.00  0.00     0.047 A 
ATOM     15  C   UNL     1     174.584 145.275 160.027  1.00  0.00     0.115 A 
ATOM     16  C   UNL     1     172.697 146.285 158.885  1.00  0.00     0.016 A 
ATOM     17  C   UNL     1     173.799 146.396 159.738  1.00  0.00     0.047 A 
BRANCH  15  18
ATOM     18  O   UNL     1     175.679 145.402 160.879  1.00  0.00    -0.508 OA
ATOM     19  H   UNL     1     175.673 145.006 161.811  1.00  0.00     0.293 HD
ENDBRANCH  15  18
ENDBRANCH   1  12
BRANCH   2  20
ATOM     20  O   UNL     1     169.936 143.598 159.009  1.00  0.00    -0.502 OA
ATOM     21  H   UNL     1     169.412 144.003 159.775  1.00  0.00     0.293 HD
ENDBRANCH   2  20
BRANCH   6  22
ATOM     22  O   UNL     1     166.892 144.063 154.819  1.00  0.00    -0.507 OA
ATOM     23  H   UNL     1     166.386 143.576 154.088  1.00  0.00     0.293 HD
ENDBRANCH   6  22
BRANCH   8  24
ATOM     24  O   UNL     1     169.777 146.526 151.811  1.00  0.00    -0.508 OA
ATOM     25  H   UNL     1     170.110 145.990 151.017  1.00  0.00     0.293 HD
ENDBRANCH   8  24
TORSDOF 5
ENDMDL
MODEL 5
REMARK VINA RESULT:    -6.340      1.886      6.667
REMARK INTER + INTRA:          -7.709
REMARK INTER:                  -7.411
REMARK INTRA:                  -0.298
REMARK UNBOUND:                -0.258
REMARK SMILES O=c1c(O)c(-c2ccc(O)cc2)oc2cc(O)cc(O)c12
REMARK SMILES IDX 5 1 3 2 2 3 1 4 21 5 19 6 18 7 16 8 15 9 14 10 13 11 6 12
REMARK SMILES IDX 7 13 8 14 9 15 12 16 11 17 10 18 4 20 20 22 17 24
REMARK H PARENT 10 19 4 21 20 23 17 25
REMARK Flexibility Score: inf
ROOT
ATOM      1  C   UNL     1     169.449 143.286 154.173  1.00  0.00     0.180 A 
ATOM      2  C   UNL     1     169.393 144.659 153.865  1.00  0.00     0.208 A 
ATOM      3  C   UNL     1     169.668 145.071 152.551  1.00  0.00     0.238 A 
ATOM      4  O   UNL     1     169.631 146.299 152.266  1.00  0.00    -0.285 OA
ATOM      5  C   UNL     1     169.972 144.108 151.567  1.00  0.00     0.111 A 
ATOM      6  C   UNL     1     170.255 144.440 150.221  1.00  0.00     0.134 A 
ATOM      7  C   UNL     1     170.540 143.421 149.298  1.00  0.00     0.093 A 
ATOM      8  C   UNL     1     170.546 142.079 149.698  1.00  0.00     0.123 A 
ATOM      9  C   UNL     1     170.266 141.748 151.025  1.00  0.00     0.094 A 
ATOM     10  C   UNL     1     169.982 142.749 151.959  1.00  0.00     0.146 A 
ATOM     11  O   UNL     1     169.725 142.405 153.216  1.00  0.00    -0.452 OA
ENDROOT
BRANCH   1  12
ATOM     12  C   UNL     1     169.192 142.775 155.539  1.00  0.00     0.021 A 
ATOM     13  C   UNL     1     167.895 142.362 155.889  1.00  0.00     0.016 A 
ATOM     14  C   UNL     1     167.634 141.855 157.166  1.00  0.00     0.047 A 
ATOM     15  C   UNL     1     168.668 141.742 158.104  1.00  0.00     0.115 A 
ATOM     16  C   UNL     1     170.230 142.639 156.479  1.00  0.00     0.016 A 
ATOM     17  C   UNL     1     169.965 142.132 157.754  1.00  0.00     0.047 A 
BRANCH  15  18
ATOM     18  O   UNL     1     168.420 141.239 159.379  1.00  0.00    -0.508 OA
ATOM     19  H   UNL     1     169.020 140.538 159.797  1.00  0.00     0.293 HD
ENDBRANCH  15  18
ENDBRANCH   1  12
BRANCH   2  20
ATOM     20  O   UNL     1     169.041 145.589 154.846  1.00  0.00    -0.502 OA
ATOM     21  H   UNL     1     169.545 146.458 154.977  1.00  0.00     0.293 HD
ENDBRANCH   2  20
BRANCH   6  22
ATOM     22  O   UNL     1     170.257 145.767 149.793  1.00  0.00    -0.507 OA
ATOM     23  H   UNL     1     169.600 146.446 150.159  1.00  0.00     0.293 HD
ENDBRANCH   6  22
BRANCH   8  24
ATOM     24  O   UNL     1     170.827 141.068 148.782  1.00  0.00    -0.508 OA
ATOM     25  H   UNL     1     170.297 140.204 148.768  1.00  0.00     0.293 HD
ENDBRANCH   8  24
TORSDOF 5
ENDMDL
MODEL 6
REMARK VINA RESULT:    -6.263      1.438      3.180
REMARK INTER + INTRA:          -7.620
REMARK INTER:                  -7.322
REMARK INTRA:                  -0.297
REMARK UNBOUND:                -0.258
REMARK SMILES O=c1c(O)c(-c2ccc(O)cc2)oc2cc(O)cc(O)c12
REMARK SMILES IDX 5 1 3 2 2 3 1 4 21 5 19 6 18 7 16 8 15 9 14 10 13 11 6 12
REMARK SMILES IDX 7 13 8 14 9 15 12 16 11 17 10 18 4 20 20 22 17 24
REMARK H PARENT 10 19 4 21 20 23 17 25
REMARK Flexibility Score: inf
ROOT
ATOM      1  C   UNL     1     170.179 143.858 154.030  1.00  0.00     0.180 A 
ATOM      2  C   UNL     1     169.354 142.998 154.780  1.00  0.00     0.208 A 
ATOM      3  C   UNL     1     169.329 143.132 156.178  1.00  0.00     0.238 A 
ATOM      4  O   UNL     1     168.603 142.362 156.862  1.00  0.00    -0.285 OA
ATOM      5  C   UNL     1     170.110 144.131 156.797  1.00  0.00     0.111 A 
ATOM      6  C   UNL     1     170.138 144.334 158.197  1.00  0.00     0.134 A 
ATOM      7  C   UNL     1     170.935 145.357 158.736  1.00  0.00     0.093 A 
ATOM      8  C   UNL     1     171.702 146.177 157.901  1.00  0.00     0.123 A 
ATOM      9  C   UNL     1     171.677 145.979 156.519  1.00  0.00     0.094 A 
ATOM     10  C   UNL     1     170.891 144.966 155.963  1.00  0.00     0.146 A 
ATOM     11  O   UNL     1     170.890 144.797 154.646  1.00  0.00    -0.452 OA
ENDROOT
BRANCH   1  12
ATOM     12  C   UNL     1     170.274 143.765 152.555  1.00  0.00     0.021 A 
ATOM     13  C   UNL     1     169.459 144.587 151.757  1.00  0.00     0.016 A 
ATOM     14  C   UNL     1     169.549 144.533 150.363  1.00  0.00     0.047 A 
ATOM     15  C   UNL     1     170.463 143.668 149.748  1.00  0.00     0.115 A 
ATOM     16  C   UNL     1     171.205 142.914 151.931  1.00  0.00     0.016 A 
ATOM     17  C   UNL     1     171.292 142.863 150.537  1.00  0.00     0.047 A 
BRANCH  15  18
ATOM     18  O   UNL     1     170.561 143.605 148.360  1.00  0.00    -0.508 OA
ATOM     19  H   UNL     1     170.524 144.441 147.789  1.00  0.00     0.293 HD
ENDBRANCH  15  18
ENDBRANCH   1  12
BRANCH   2  20
ATOM     20  O   UNL     1     168.552 142.050 154.140  1.00  0.00    -0.502 OA
ATOM     21  H   UNL     1     168.539 141.076 154.415  1.00  0.00     0.293 HD
ENDBRANCH   2  20
BRANCH   6  22
ATOM     22  O   UNL     1     169.384 143.533 159.055  1.00  0.00    -0.507 OA
ATOM     23  H   UNL     1     169.027 142.630 158.765  1.00  0.00     0.293 HD
ENDBRANCH   6  22
BRANCH   8  24
ATOM     24  O   UNL     1     172.492 147.192 158.435  1.00  0.00    -0.508 OA
ATOM     25  H   UNL     1     172.873 147.929 157.852  1.00  0.00     0.293 HD
ENDBRANCH   8  24
TORSDOF 5
ENDMDL
MODEL 7
REMARK VINA RESULT:    -6.255      2.280      7.024
REMARK INTER + INTRA:          -7.610
REMARK INTER:                  -7.312
REMARK INTRA:                  -0.298
REMARK UNBOUND:                -0.258
REMARK SMILES O=c1c(O)c(-c2ccc(O)cc2)oc2cc(O)cc(O)c12
REMARK SMILES IDX 5 1 3 2 2 3 1 4 21 5 19 6 18 7 16 8 15 9 14 10 13 11 6 12
REMARK SMILES IDX 7 13 8 14 9 15 12 16 11 17 10 18 4 20 20 22 17 24
REMARK H PARENT 10 19 4 21 20 23 17 25
REMARK Flexibility Score: inf
ROOT
ATOM      1  C   UNL     1     170.722 144.997 155.593  1.00  0.00     0.180 A 
ATOM      2  C   UNL     1     169.742 145.708 154.875  1.00  0.00     0.208 A 
ATOM      3  C   UNL     1     169.709 145.591 153.475  1.00  0.00     0.238 A 
ATOM      4  O   UNL     1     168.843 146.231 152.820  1.00  0.00    -0.285 OA
ATOM      5  C   UNL     1     170.639 144.755 152.824  1.00  0.00     0.111 A 
ATOM      6  C   UNL     1     170.671 144.579 151.419  1.00  0.00     0.134 A 
ATOM      7  C   UNL     1     171.622 143.720 150.847  1.00  0.00     0.093 A 
ATOM      8  C   UNL     1     172.540 143.036 151.652  1.00  0.00     0.123 A 
ATOM      9  C   UNL     1     172.512 143.207 153.037  1.00  0.00     0.094 A 
ATOM     10  C   UNL     1     171.573 144.059 153.626  1.00  0.00     0.146 A 
ATOM     11  O   UNL     1     171.573 144.206 154.946  1.00  0.00    -0.452 OA
ENDROOT
BRANCH   1  12
ATOM     12  C   UNL     1     170.834 145.084 157.068  1.00  0.00     0.021 A 
ATOM     13  C   UNL     1     170.176 144.133 157.867  1.00  0.00     0.016 A 
ATOM     14  C   UNL     1     170.286 144.183 159.260  1.00  0.00     0.047 A 
ATOM     15  C   UNL     1     171.065 145.174 159.871  1.00  0.00     0.115 A 
ATOM     16  C   UNL     1     171.631 146.063 157.687  1.00  0.00     0.016 A 
ATOM     17  C   UNL     1     171.739 146.110 159.080  1.00  0.00     0.047 A 
BRANCH  15  18
ATOM     18  O   UNL     1     171.181 145.233 161.258  1.00  0.00    -0.508 OA
ATOM     19  H   UNL     1     171.142 144.396 161.828  1.00  0.00     0.293 HD
ENDBRANCH  15  18
ENDBRANCH   1  12
BRANCH   2  20
ATOM     20  O   UNL     1     168.801 146.491 155.548  1.00  0.00    -0.502 OA
ATOM     21  H   UNL     1     169.055 147.114 156.304  1.00  0.00     0.293 HD
ENDBRANCH   2  20
BRANCH   6  22
ATOM     22  O   UNL     1     169.768 145.246 150.592  1.00  0.00    -0.507 OA
ATOM     23  H   UNL     1     169.831 146.244 150.429  1.00  0.00     0.293 HD
ENDBRANCH   6  22
BRANCH   8  24
ATOM     24  O   UNL     1     173.484 142.184 151.084  1.00  0.00    -0.508 OA
ATOM     25  H   UNL     1     173.333 141.754 150.178  1.00  0.00     0.293 HD
ENDBRANCH   8  24
TORSDOF 5
ENDMDL
MODEL 8
REMARK VINA RESULT:    -6.251      2.678      4.502
REMARK INTER + INTRA:          -7.605
REMARK INTER:                  -7.474
REMARK INTRA:                  -0.131
REMARK UNBOUND:                -0.258
REMARK SMILES O=c1c(O)c(-c2ccc(O)cc2)oc2cc(O)cc(O)c12
REMARK SMILES IDX 5 1 3 2 2 3 1 4 21 5 19 6 18 7 16 8 15 9 14 10 13 11 6 12
REMARK SMILES IDX 7 13 8 14 9 15 12 16 11 17 10 18 4 20 20 22 17 24
REMARK H PARENT 10 19 4 21 20 23 17 25
REMARK Flexibility Score: inf
ROOT
ATOM      1  C   UNL     1     171.082 145.238 155.812  1.00  0.00     0.180 A 
ATOM      2  C   UNL     1     170.162 144.761 156.765  1.00  0.00     0.208 A 
ATOM      3  C   UNL     1     170.543 144.723 158.116  1.00  0.00     0.238 A 
ATOM      4  O   UNL     1     169.732 144.289 158.978  1.00  0.00    -0.285 OA
ATOM      5  C   UNL     1     171.825 145.177 158.492  1.00  0.00     0.111 A 
ATOM      6  C   UNL     1     172.284 145.176 159.831  1.00  0.00     0.134 A 
ATOM      7  C   UNL     1     173.571 145.654 160.125  1.00  0.00     0.093 A 
ATOM      8  C   UNL     1     174.403 146.132 159.107  1.00  0.00     0.123 A 
ATOM      9  C   UNL     1     173.953 146.135 157.785  1.00  0.00     0.094 A 
ATOM     10  C   UNL     1     172.676 145.662 157.471  1.00  0.00     0.146 A 
ATOM     11  O   UNL     1     172.276 145.672 156.205  1.00  0.00    -0.452 OA
ENDROOT
BRANCH   1  12
ATOM     12  C   UNL     1     170.761 145.290 154.367  1.00  0.00     0.021 A 
ATOM     13  C   UNL     1     171.452 144.452 153.475  1.00  0.00     0.016 A 
ATOM     14  C   UNL     1     171.150 144.469 152.110  1.00  0.00     0.047 A 
ATOM     15  C   UNL     1     170.144 145.313 151.622  1.00  0.00     0.115 A 
ATOM     16  C   UNL     1     169.738 146.119 153.873  1.00  0.00     0.016 A 
ATOM     17  C   UNL     1     169.439 146.133 152.507  1.00  0.00     0.047 A 
BRANCH  15  18
ATOM     18  O   UNL     1     169.834 145.338 150.264  1.00  0.00    -0.508 OA
ATOM     19  H   UNL     1     170.498 145.028 149.564  1.00  0.00     0.293 HD
ENDBRANCH  15  18
ENDBRANCH   1  12
BRANCH   2  20
ATOM     20  O   UNL     1     168.881 144.364 156.374  1.00  0.00    -0.502 OA
ATOM     21  H   UNL     1     168.071 144.961 156.482  1.00  0.00     0.293 HD
ENDBRANCH   2  20
BRANCH   6  22
ATOM     22  O   UNL     1     171.477 144.706 160.867  1.00  0.00    -0.507 OA
ATOM     23  H   UNL     1     171.440 143.724 161.111  1.00  0.00     0.293 HD
ENDBRANCH   6  22
BRANCH   8  24
ATOM     24  O   UNL     1     175.680 146.608 159.398  1.00  0.00    -0.508 OA
ATOM     25  H   UNL     1     176.147 147.276 158.796  1.00  0.00     0.293 HD
ENDBRANCH   8  24
TORSDOF 5
ENDMDL
MODEL 9
REMARK VINA RESULT:    -6.201      2.291      3.201
REMARK INTER + INTRA:          -7.546
REMARK INTER:                  -7.290
REMARK INTRA:                  -0.256
REMARK UNBOUND:                -0.258
REMARK SMILES O=c1c(O)c(-c2ccc(O)cc2)oc2cc(O)cc(O)c12
REMARK SMILES IDX 5 1 3 2 2 3 1 4 21 5 19 6 18 7 16 8 15 9 14 10 13 11 6 12
REMARK SMILES IDX 7 13 8 14 9 15 12 16 11 17 10 18 4 20 20 22 17 24
REMARK H PARENT 10 19 4 21 20 23 17 25
REMARK Flexibility Score: inf
ROOT
ATOM      1  C   UNL     1     170.276 143.977 151.121  1.00  0.00     0.180 A 
ATOM      2  C   UNL     1     171.156 142.947 151.505  1.00  0.00     0.208 A 
ATOM      3  C   UNL     1     171.098 142.460 152.821  1.00  0.00     0.238 A 
ATOM      4  O   UNL     1     171.887 141.546 153.180  1.00  0.00    -0.285 OA
ATOM      5  C   UNL     1     170.152 142.995 153.720  1.00  0.00     0.111 A 
ATOM      6  C   UNL     1     170.026 142.558 155.061  1.00  0.00     0.134 A 
ATOM      7  C   UNL     1     169.053 143.135 155.892  1.00  0.00     0.093 A 
ATOM      8  C   UNL     1     168.206 144.138 155.407  1.00  0.00     0.123 A 
ATOM      9  C   UNL     1     168.328 144.572 154.086  1.00  0.00     0.094 A 
ATOM     10  C   UNL     1     169.291 144.011 153.243  1.00  0.00     0.146 A 
ATOM     11  O   UNL     1     169.388 144.447 151.992  1.00  0.00    -0.452 OA
ENDROOT
BRANCH   1  12
ATOM     12  C   UNL     1     170.290 144.555 149.758  1.00  0.00     0.021 A 
ATOM     13  C   UNL     1     171.283 145.490 149.415  1.00  0.00     0.016 A 
ATOM     14  C   UNL     1     171.329 146.032 148.126  1.00  0.00     0.047 A 
ATOM     15  C   UNL     1     170.393 145.637 147.162  1.00  0.00     0.115 A 
ATOM     16  C   UNL     1     169.367 144.147 148.778  1.00  0.00     0.016 A 
ATOM     17  C   UNL     1     169.417 144.692 147.491  1.00  0.00     0.047 A 
BRANCH  15  18
ATOM     18  O   UNL     1     170.429 146.170 145.875  1.00  0.00    -0.508 OA
ATOM     19  H   UNL     1     171.187 145.960 145.236  1.00  0.00     0.293 HD
ENDBRANCH  15  18
ENDBRANCH   1  12
BRANCH   2  20
ATOM     20  O   UNL     1     172.050 142.399 150.581  1.00  0.00    -0.502 OA
ATOM     21  H   UNL     1     173.006 142.721 150.494  1.00  0.00     0.293 HD
ENDBRANCH   2  20
BRANCH   6  22
ATOM     22  O   UNL     1     170.855 141.560 155.572  1.00  0.00    -0.507 OA
ATOM     23  H   UNL     1     170.673 140.577 155.405  1.00  0.00     0.293 HD
ENDBRANCH   6  22
BRANCH   8  24
ATOM     24  O   UNL     1     167.239 144.710 156.231  1.00  0.00    -0.508 OA
ATOM     25  H   UNL     1     166.829 145.612 156.019  1.00  0.00     0.293 HD
ENDBRANCH   8  24
TORSDOF 5
ENDMDL
