MODEL 1
REMARK VINA RESULT:    -4.211      0.000      0.000
REMARK INTER + INTRA:          -4.457
REMARK INTER:                  -4.457
REMARK INTRA:                   0.000
REMARK UNBOUND:                 0.000
REMARK SMILES O=c1ccc2cc(O)c(O)cc2o1
REMARK SMILES IDX 4 1 3 2 2 3 1 4 13 5 12 6 11 7 9 8 7 9 6 10 5 11 8 12 10 14
REMARK H PARENT 8 13 10 15
REMARK Flexibility Score: inf
ROOT
ATOM      1  C   UNL     1      13.886  57.321  15.807  1.00  0.00     0.019 A 
ATOM      2  C   UNL     1      13.695  57.725  17.128  1.00  0.00     0.094 A 
ATOM      3  C   UNL     1      13.861  59.075  17.455  1.00  0.00     0.336 A 
ATOM      4  O   UNL     1      13.693  59.460  18.642  1.00  0.00    -0.246 OA
ATOM      5  O   UNL     1      14.194  59.959  16.518  1.00  0.00    -0.423 OA
ATOM      6  C   UNL     1      14.385  59.616  15.246  1.00  0.00     0.142 A 
ATOM      7  C   UNL     1      14.733  60.589  14.304  1.00  0.00     0.098 A 
ATOM      8  C   UNL     1      14.936  60.237  12.965  1.00  0.00     0.161 A 
ATOM      9  C   UNL     1      14.789  58.897  12.560  1.00  0.00     0.158 A 
ATOM     10  C   UNL     1      14.439  57.917  13.502  1.00  0.00     0.062 A 
ATOM     11  C   UNL     1      14.236  58.272  14.842  1.00  0.00     0.022 A 
ENDROOT
BRANCH   9  12
ATOM     12  O   UNL     1      14.990  58.545  11.227  1.00  0.00    -0.504 OA
ATOM     13  H   UNL     1      15.814  58.845  10.718  1.00  0.00     0.293 HD
ENDBRANCH   9  12
BRANCH   8  14
ATOM     14  O   UNL     1      15.284  61.230  12.050  1.00  0.00    -0.504 OA
ATOM     15  H   UNL     1      15.329  61.053  11.054  1.00  0.00     0.293 HD
ENDBRANCH   8  14
TORSDOF 2
ENDMDL
MODEL 2
REMARK VINA RESULT:    -4.184      1.118      2.252
REMARK INTER + INTRA:          -4.428
REMARK INTER:                  -4.428
REMARK INTRA:                   0.000
REMARK UNBOUND:                 0.000
REMARK SMILES O=c1ccc2cc(O)c(O)cc2o1
REMARK SMILES IDX 4 1 3 2 2 3 1 4 13 5 12 6 11 7 9 8 7 9 6 10 5 11 8 12 10 14
REMARK H PARENT 8 13 10 15
REMARK Flexibility Score: inf
ROOT
ATOM      1  C   UNL     1      14.219  60.055  16.546  1.00  0.00     0.019 A 
ATOM      2  C   UNL     1      13.875  59.096  17.499  1.00  0.00     0.094 A 
ATOM      3  C   UNL     1      13.723  57.764  17.096  1.00  0.00     0.336 A 
ATOM      4  O   UNL     1      13.413  56.884  17.941  1.00  0.00    -0.246 OA
ATOM      5  O   UNL     1      13.906  57.420  15.824  1.00  0.00    -0.423 OA
ATOM      6  C   UNL     1      14.234  58.303  14.883  1.00  0.00     0.142 A 
ATOM      7  C   UNL     1      14.413  57.883  13.562  1.00  0.00     0.098 A 
ATOM      8  C   UNL     1      14.759  58.806  12.568  1.00  0.00     0.161 A 
ATOM      9  C   UNL     1      14.928  60.164  12.896  1.00  0.00     0.158 A 
ATOM     10  C   UNL     1      14.750  60.589  14.222  1.00  0.00     0.062 A 
ATOM     11  C   UNL     1      14.403  59.665  15.216  1.00  0.00     0.022 A 
ENDROOT
BRANCH   9  12
ATOM     12  O   UNL     1      15.272  61.083  11.907  1.00  0.00    -0.504 OA
ATOM     13  H   UNL     1      15.656  61.992  12.138  1.00  0.00     0.293 HD
ENDBRANCH   9  12
BRANCH   8  14
ATOM     14  O   UNL     1      14.930  58.356  11.259  1.00  0.00    -0.504 OA
ATOM     15  H   UNL     1      15.651  57.690  11.008  1.00  0.00     0.293 HD
ENDBRANCH   8  14
TORSDOF 2
ENDMDL
MODEL 3
REMARK VINA RESULT:    -4.131      7.270      9.437
REMARK INTER + INTRA:          -4.372
REMARK INTER:                  -4.372
REMARK INTRA:                   0.000
REMARK UNBOUND:                 0.000
REMARK SMILES O=c1ccc2cc(O)c(O)cc2o1
REMARK SMILES IDX 4 1 3 2 2 3 1 4 13 5 12 6 11 7 9 8 7 9 6 10 5 11 8 12 10 14
REMARK H PARENT 8 13 10 15
REMARK Flexibility Score: inf
ROOT
ATOM      1  C   UNL     1      17.681  53.902  19.382  1.00  0.00     0.019 A 
ATOM      2  C   UNL     1      18.535  52.807  19.517  1.00  0.00     0.094 A 
ATOM      3  C   UNL     1      18.288  51.877  20.532  1.00  0.00     0.336 A 
ATOM      4  O   UNL     1      19.046  50.882  20.670  1.00  0.00    -0.246 OA
ATOM      5  O   UNL     1      17.253  52.035  21.354  1.00  0.00    -0.423 OA
ATOM      6  C   UNL     1      16.415  53.064  21.260  1.00  0.00     0.142 A 
ATOM      7  C   UNL     1      15.345  53.178  22.152  1.00  0.00     0.098 A 
ATOM      8  C   UNL     1      14.459  54.258  22.059  1.00  0.00     0.161 A 
ATOM      9  C   UNL     1      14.643  55.236  21.064  1.00  0.00     0.158 A 
ATOM     10  C   UNL     1      15.716  55.125  20.166  1.00  0.00     0.062 A 
ATOM     11  C   UNL     1      16.602  54.044  20.260  1.00  0.00     0.022 A 
ENDROOT
BRANCH   9  12
ATOM     12  O   UNL     1      13.762  56.311  20.972  1.00  0.00    -0.504 OA
ATOM     13  H   UNL     1      13.832  57.110  21.592  1.00  0.00     0.293 HD
ENDBRANCH   9  12
BRANCH   8  14
ATOM     14  O   UNL     1      13.401  54.344  22.965  1.00  0.00    -0.504 OA
ATOM     15  H   UNL     1      12.533  54.813  22.736  1.00  0.00     0.293 HD
ENDBRANCH   8  14
TORSDOF 2
ENDMDL
MODEL 4
REMARK VINA RESULT:    -3.939      7.029      9.300
REMARK INTER + INTRA:          -4.169
REMARK INTER:                  -4.169
REMARK INTRA:                   0.000
REMARK UNBOUND:                 0.000
REMARK SMILES O=c1ccc2cc(O)c(O)cc2o1
REMARK SMILES IDX 4 1 3 2 2 3 1 4 13 5 12 6 11 7 9 8 7 9 6 10 5 11 8 12 10 14
REMARK H PARENT 8 13 10 15
REMARK Flexibility Score: inf
ROOT
ATOM      1  C   UNL     1      13.033  56.033  22.527  1.00  0.00     0.019 A 
ATOM      2  C   UNL     1      12.188  56.343  21.461  1.00  0.00     0.094 A 
ATOM      3  C   UNL     1      12.376  55.693  20.237  1.00  0.00     0.336 A 
ATOM      4  O   UNL     1      11.624  55.959  19.263  1.00  0.00    -0.246 OA
ATOM      5  O   UNL     1      13.344  54.791  20.095  1.00  0.00    -0.423 OA
ATOM      6  C   UNL     1      14.171  54.465  21.085  1.00  0.00     0.142 A 
ATOM      7  C   UNL     1      15.170  53.510  20.877  1.00  0.00     0.098 A 
ATOM      8  C   UNL     1      16.043  53.162  21.914  1.00  0.00     0.161 A 
ATOM      9  C   UNL     1      15.918  53.775  23.174  1.00  0.00     0.158 A 
ATOM     10  C   UNL     1      14.916  54.734  23.388  1.00  0.00     0.062 A 
ATOM     11  C   UNL     1      14.043  55.082  22.349  1.00  0.00     0.022 A 
ENDROOT
BRANCH   9  12
ATOM     12  O   UNL     1      16.787  53.430  24.207  1.00  0.00    -0.504 OA
ATOM     13  H   UNL     1      16.954  52.462  24.459  1.00  0.00     0.293 HD
ENDBRANCH   9  12
BRANCH   8  14
ATOM     14  O   UNL     1      17.030  52.206  21.674  1.00  0.00    -0.504 OA
ATOM     15  H   UNL     1      17.201  51.437  22.311  1.00  0.00     0.293 HD
ENDBRANCH   8  14
TORSDOF 2
ENDMDL
MODEL 5
REMARK VINA RESULT:    -3.927      6.378      8.956
REMARK INTER + INTRA:          -4.157
REMARK INTER:                  -4.157
REMARK INTRA:                   0.000
REMARK UNBOUND:                 0.000
REMARK SMILES O=c1ccc2cc(O)c(O)cc2o1
REMARK SMILES IDX 4 1 3 2 2 3 1 4 13 5 12 6 11 7 9 8 7 9 6 10 5 11 8 12 10 14
REMARK H PARENT 8 13 10 15
REMARK Flexibility Score: inf
ROOT
ATOM      1  C   UNL     1      18.652  53.485  19.308  1.00  0.00     0.019 A 
ATOM      2  C   UNL     1      18.930  54.514  18.408  1.00  0.00     0.094 A 
ATOM      3  C   UNL     1      18.017  55.566  18.280  1.00  0.00     0.336 A 
ATOM      4  O   UNL     1      18.249  56.504  17.473  1.00  0.00    -0.246 OA
ATOM      5  O   UNL     1      16.903  55.584  19.008  1.00  0.00    -0.423 OA
ATOM      6  C   UNL     1      16.600  54.623  19.877  1.00  0.00     0.142 A 
ATOM      7  C   UNL     1      15.415  54.696  20.615  1.00  0.00     0.098 A 
ATOM      8  C   UNL     1      15.090  53.689  21.532  1.00  0.00     0.161 A 
ATOM      9  C   UNL     1      15.958  52.598  21.715  1.00  0.00     0.158 A 
ATOM     10  C   UNL     1      17.150  52.521  20.977  1.00  0.00     0.062 A 
ATOM     11  C   UNL     1      17.474  53.529  20.059  1.00  0.00     0.022 A 
ENDROOT
BRANCH   9  12
ATOM     12  O   UNL     1      15.635  51.595  22.627  1.00  0.00    -0.504 OA
ATOM     13  H   UNL     1      16.347  51.132  23.181  1.00  0.00     0.293 HD
ENDBRANCH   9  12
BRANCH   8  14
ATOM     14  O   UNL     1      13.899  53.790  22.252  1.00  0.00    -0.504 OA
ATOM     15  H   UNL     1      13.131  53.145  22.114  1.00  0.00     0.293 HD
ENDBRANCH   8  14
TORSDOF 2
ENDMDL
MODEL 6
REMARK VINA RESULT:    -3.890      5.764      8.484
REMARK INTER + INTRA:          -4.118
REMARK INTER:                  -4.118
REMARK INTRA:                   0.000
REMARK UNBOUND:                 0.000
REMARK SMILES O=c1ccc2cc(O)c(O)cc2o1
REMARK SMILES IDX 4 1 3 2 2 3 1 4 13 5 12 6 11 7 9 8 7 9 6 10 5 11 8 12 10 14
REMARK H PARENT 8 13 10 15
REMARK Flexibility Score: inf
ROOT
ATOM      1  C   UNL     1      13.628  55.410  20.384  1.00  0.00     0.019 A 
ATOM      2  C   UNL     1      13.778  56.495  19.520  1.00  0.00     0.094 A 
ATOM      3  C   UNL     1      15.023  56.719  18.923  1.00  0.00     0.336 A 
ATOM      4  O   UNL     1      15.179  57.693  18.141  1.00  0.00    -0.246 OA
ATOM      5  O   UNL     1      16.047  55.908  19.176  1.00  0.00    -0.423 OA
ATOM      6  C   UNL     1      15.947  54.862  19.993  1.00  0.00     0.142 A 
ATOM      7  C   UNL     1      17.058  54.044  20.220  1.00  0.00     0.098 A 
ATOM      8  C   UNL     1      16.961  52.942  21.078  1.00  0.00     0.161 A 
ATOM      9  C   UNL     1      15.741  52.653  21.716  1.00  0.00     0.158 A 
ATOM     10  C   UNL     1      14.623  53.471  21.490  1.00  0.00     0.062 A 
ATOM     11  C   UNL     1      14.722  54.574  20.632  1.00  0.00     0.022 A 
ENDROOT
BRANCH   9  12
ATOM     12  O   UNL     1      15.643  51.556  22.570  1.00  0.00    -0.504 OA
ATOM     13  H   UNL     1      14.805  51.379  23.112  1.00  0.00     0.293 HD
ENDBRANCH   9  12
BRANCH   8  14
ATOM     14  O   UNL     1      18.087  52.145  21.285  1.00  0.00    -0.504 OA
ATOM     15  H   UNL     1      18.039  51.264  21.783  1.00  0.00     0.293 HD
ENDBRANCH   8  14
TORSDOF 2
ENDMDL
MODEL 7
REMARK VINA RESULT:    -3.798      5.647      8.344
REMARK INTER + INTRA:          -4.020
REMARK INTER:                  -4.020
REMARK INTRA:                   0.000
REMARK UNBOUND:                 0.000
REMARK SMILES O=c1ccc2cc(O)c(O)cc2o1
REMARK SMILES IDX 4 1 3 2 2 3 1 4 13 5 12 6 11 7 9 8 7 9 6 10 5 11 8 12 10 14
REMARK H PARENT 8 13 10 15
REMARK Flexibility Score: inf
ROOT
ATOM      1  C   UNL     1      16.806  56.075  18.991  1.00  0.00     0.019 A 
ATOM      2  C   UNL     1      15.803  56.985  18.656  1.00  0.00     0.094 A 
ATOM      3  C   UNL     1      14.504  56.764  19.123  1.00  0.00     0.336 A 
ATOM      4  O   UNL     1      13.585  57.573  18.832  1.00  0.00    -0.246 OA
ATOM      5  O   UNL     1      14.230  55.701  19.877  1.00  0.00    -0.423 OA
ATOM      6  C   UNL     1      15.156  54.809  20.219  1.00  0.00     0.142 A 
ATOM      7  C   UNL     1      14.810  53.712  21.014  1.00  0.00     0.098 A 
ATOM      8  C   UNL     1      15.779  52.769  21.378  1.00  0.00     0.161 A 
ATOM      9  C   UNL     1      17.109  52.924  20.944  1.00  0.00     0.158 A 
ATOM     10  C   UNL     1      17.460  54.024  20.147  1.00  0.00     0.062 A 
ATOM     11  C   UNL     1      16.490  54.966  19.783  1.00  0.00     0.022 A 
ENDROOT
BRANCH   9  12
ATOM     12  O   UNL     1      18.073  51.986  21.307  1.00  0.00    -0.504 OA
ATOM     13  H   UNL     1      18.369  51.255  20.670  1.00  0.00     0.293 HD
ENDBRANCH   9  12
BRANCH   8  14
ATOM     14  O   UNL     1      15.402  51.685  22.170  1.00  0.00    -0.504 OA
ATOM     15  H   UNL     1      15.705  51.590  23.133  1.00  0.00     0.293 HD
ENDBRANCH   8  14
TORSDOF 2
ENDMDL
MODEL 8
REMARK VINA RESULT:    -3.772      5.519      7.794
REMARK INTER + INTRA:          -3.993
REMARK INTER:                  -3.993
REMARK INTRA:                   0.000
REMARK UNBOUND:                 0.000
REMARK SMILES O=c1ccc2cc(O)c(O)cc2o1
REMARK SMILES IDX 4 1 3 2 2 3 1 4 13 5 12 6 11 7 9 8 7 9 6 10 5 11 8 12 10 14
REMARK H PARENT 8 13 10 15
REMARK Flexibility Score: inf
ROOT
ATOM      1  C   UNL     1      14.703  53.086  21.698  1.00  0.00     0.019 A 
ATOM      2  C   UNL     1      15.842  52.284  21.763  1.00  0.00     0.094 A 
ATOM      3  C   UNL     1      16.978  52.660  21.038  1.00  0.00     0.336 A 
ATOM      4  O   UNL     1      18.016  51.949  21.084  1.00  0.00    -0.246 OA
ATOM      5  O   UNL     1      16.969  53.766  20.299  1.00  0.00    -0.423 OA
ATOM      6  C   UNL     1      15.904  54.559  20.208  1.00  0.00     0.142 A 
ATOM      7  C   UNL     1      15.954  55.709  19.416  1.00  0.00     0.098 A 
ATOM      8  C   UNL     1      14.838  56.548  19.316  1.00  0.00     0.161 A 
ATOM      9  C   UNL     1      13.658  56.235  20.016  1.00  0.00     0.158 A 
ATOM     10  C   UNL     1      13.604  55.081  20.813  1.00  0.00     0.062 A 
ATOM     11  C   UNL     1      14.722  54.242  20.912  1.00  0.00     0.022 A 
ENDROOT
BRANCH   9  12
ATOM     12  O   UNL     1      12.546  57.069  19.917  1.00  0.00    -0.504 OA
ATOM     13  H   UNL     1      11.802  56.885  19.254  1.00  0.00     0.293 HD
ENDBRANCH   9  12
BRANCH   8  14
ATOM     14  O   UNL     1      14.918  57.688  18.516  1.00  0.00    -0.504 OA
ATOM     15  H   UNL     1      14.424  57.763  17.635  1.00  0.00     0.293 HD
ENDBRANCH   8  14
TORSDOF 2
ENDMDL
