MODEL 1
REMARK VINA RESULT:    -3.981      0.000      0.000
REMARK INTER + INTRA:          -4.476
REMARK INTER:                  -4.214
REMARK INTRA:                  -0.262
REMARK UNBOUND:                -0.262
REMARK SMILES CC1=CC[C@@H](C(C)C)C=C1
REMARK SMILES IDX 1 1 2 2 3 3 4 4 5 5 9 6 10 7 6 8 7 9 8 10
REMARK H PARENT
REMARK Flexibility Score: inf
ROOT
ATOM      1  C   UNL     1      -1.113  12.267  18.579  1.00  0.00     0.044 C 
ATOM      2  C   UNL     1       0.107  12.779  17.873  1.00  0.00    -0.055 C 
ATOM      3  C   UNL     1       0.218  12.667  16.540  1.00  0.00    -0.023 C 
ATOM      4  C   UNL     1       1.470  13.134  15.846  1.00  0.00     0.035 C 
ATOM      5  C   UNL     1       2.011  14.433  16.497  1.00  0.00     0.018 C 
ATOM      6  C   UNL     1       2.085  14.221  17.997  1.00  0.00    -0.023 C 
ATOM      7  C   UNL     1       1.157  13.497  18.635  1.00  0.00    -0.001 C 
ENDROOT
BRANCH   5   8
ATOM      8  C   UNL     1       1.152  15.695  16.161  1.00  0.00    -0.010 C 
ATOM      9  C   UNL     1       1.558  16.895  17.036  1.00  0.00     0.008 C 
ATOM     10  C   UNL     1       1.269  16.098  14.680  1.00  0.00     0.008 C 
ENDBRANCH   5   8
TORSDOF 1
ENDMDL
MODEL 2
REMARK VINA RESULT:    -3.974      2.242      4.108
REMARK INTER + INTRA:          -4.468
REMARK INTER:                  -4.207
REMARK INTRA:                  -0.261
REMARK UNBOUND:                -0.262
REMARK SMILES CC1=CC[C@@H](C(C)C)C=C1
REMARK SMILES IDX 1 1 2 2 3 3 4 4 5 5 9 6 10 7 6 8 7 9 8 10
REMARK H PARENT
REMARK Flexibility Score: inf
ROOT
ATOM      1  C   UNL     1       2.439  19.080  17.193  1.00  0.00     0.044 C 
ATOM      2  C   UNL     1       1.659  17.842  16.866  1.00  0.00    -0.055 C 
ATOM      3  C   UNL     1       0.871  17.802  15.780  1.00  0.00    -0.023 C 
ATOM      4  C   UNL     1       0.049  16.574  15.490  1.00  0.00     0.035 C 
ATOM      5  C   UNL     1       0.836  15.286  15.843  1.00  0.00     0.018 C 
ATOM      6  C   UNL     1       1.392  15.435  17.247  1.00  0.00    -0.023 C 
ATOM      7  C   UNL     1       1.828  16.622  17.690  1.00  0.00    -0.001 C 
ENDROOT
BRANCH   5   8
ATOM      8  C   UNL     1       1.981  14.966  14.829  1.00  0.00    -0.010 C 
ATOM      9  C   UNL     1       2.778  13.721  15.261  1.00  0.00     0.008 C 
ATOM     10  C   UNL     1       1.447  14.744  13.403  1.00  0.00     0.008 C 
ENDBRANCH   5   8
TORSDOF 1
ENDMDL
MODEL 3
REMARK VINA RESULT:    -3.876      0.984      4.095
REMARK INTER + INTRA:          -4.365
REMARK INTER:                  -4.175
REMARK INTRA:                  -0.190
REMARK UNBOUND:                -0.262
REMARK SMILES CC1=CC[C@@H](C(C)C)C=C1
REMARK SMILES IDX 1 1 2 2 3 3 4 4 5 5 9 6 10 7 6 8 7 9 8 10
REMARK H PARENT
REMARK Flexibility Score: inf
ROOT
ATOM      1  C   UNL     1       0.889  17.736  15.545  1.00  0.00     0.044 C 
ATOM      2  C   UNL     1       1.439  16.486  16.163  1.00  0.00    -0.055 C 
ATOM      3  C   UNL     1       1.495  16.356  17.499  1.00  0.00    -0.023 C 
ATOM      4  C   UNL     1       2.100  15.120  18.111  1.00  0.00     0.035 C 
ATOM      5  C   UNL     1       1.730  13.859  17.290  1.00  0.00     0.018 C 
ATOM      6  C   UNL     1       2.036  14.131  15.829  1.00  0.00    -0.023 C 
ATOM      7  C   UNL     1       1.839  15.347  15.302  1.00  0.00    -0.001 C 
ENDROOT
BRANCH   5   8
ATOM      8  C   UNL     1       0.240  13.422  17.468  1.00  0.00    -0.010 C 
ATOM      9  C   UNL     1      -0.292  12.723  16.203  1.00  0.00     0.008 C 
ATOM     10  C   UNL     1       0.051  12.482  18.672  1.00  0.00     0.008 C 
ENDBRANCH   5   8
TORSDOF 1
ENDMDL
MODEL 4
REMARK VINA RESULT:    -3.787      1.176      2.096
REMARK INTER + INTRA:          -4.270
REMARK INTER:                  -4.071
REMARK INTRA:                  -0.199
REMARK UNBOUND:                -0.262
REMARK SMILES CC1=CC[C@@H](C(C)C)C=C1
REMARK SMILES IDX 1 1 2 2 3 3 4 4 5 5 9 6 10 7 6 8 7 9 8 10
REMARK H PARENT
REMARK Flexibility Score: inf
ROOT
ATOM      1  C   UNL     1      -1.115  12.377  18.977  1.00  0.00     0.044 C 
ATOM      2  C   UNL     1      -0.204  13.498  18.575  1.00  0.00    -0.055 C 
ATOM      3  C   UNL     1       1.123  13.303  18.508  1.00  0.00    -0.023 C 
ATOM      4  C   UNL     1       2.035  14.449  18.156  1.00  0.00     0.035 C 
ATOM      5  C   UNL     1       1.395  15.353  17.072  1.00  0.00     0.018 C 
ATOM      6  C   UNL     1      -0.016  15.698  17.509  1.00  0.00    -0.023 C 
ATOM      7  C   UNL     1      -0.772  14.802  18.157  1.00  0.00    -0.001 C 
ENDROOT
BRANCH   5   8
ATOM      8  C   UNL     1       1.388  14.702  15.651  1.00  0.00    -0.010 C 
ATOM      9  C   UNL     1       1.206  15.764  14.551  1.00  0.00     0.008 C 
ATOM     10  C   UNL     1       2.677  13.910  15.369  1.00  0.00     0.008 C 
ENDBRANCH   5   8
TORSDOF 1
ENDMDL
MODEL 5
REMARK VINA RESULT:    -3.773      1.717      4.221
REMARK INTER + INTRA:          -4.256
REMARK INTER:                  -3.997
REMARK INTRA:                  -0.259
REMARK UNBOUND:                -0.262
REMARK SMILES CC1=CC[C@@H](C(C)C)C=C1
REMARK SMILES IDX 1 1 2 2 3 3 4 4 5 5 9 6 10 7 6 8 7 9 8 10
REMARK H PARENT
REMARK Flexibility Score: inf
ROOT
ATOM      1  C   UNL     1      -0.549  18.344  14.107  1.00  0.00     0.044 C 
ATOM      2  C   UNL     1      -0.225  17.477  15.287  1.00  0.00    -0.055 C 
ATOM      3  C   UNL     1      -1.125  16.593  15.748  1.00  0.00    -0.023 C 
ATOM      4  C   UNL     1      -0.811  15.766  16.966  1.00  0.00     0.035 C 
ATOM      5  C   UNL     1       0.677  15.332  16.973  1.00  0.00     0.018 C 
ATOM      6  C   UNL     1       1.534  16.560  16.728  1.00  0.00    -0.023 C 
ATOM      7  C   UNL     1       1.127  17.525  15.892  1.00  0.00    -0.001 C 
ENDROOT
BRANCH   5   8
ATOM      8  C   UNL     1       0.999  14.218  15.925  1.00  0.00    -0.010 C 
ATOM      9  C   UNL     1       2.518  14.073  15.714  1.00  0.00     0.008 C 
ATOM     10  C   UNL     1       0.422  12.852  16.336  1.00  0.00     0.008 C 
ENDBRANCH   5   8
TORSDOF 1
ENDMDL
MODEL 6
REMARK VINA RESULT:    -3.686      2.077      4.011
REMARK INTER + INTRA:          -4.164
REMARK INTER:                  -3.903
REMARK INTRA:                  -0.262
REMARK UNBOUND:                -0.262
REMARK SMILES CC1=CC[C@@H](C(C)C)C=C1
REMARK SMILES IDX 1 1 2 2 3 3 4 4 5 5 9 6 10 7 6 8 7 9 8 10
REMARK H PARENT
REMARK Flexibility Score: inf
ROOT
ATOM      1  C   UNL     1       4.134  14.156  13.052  1.00  0.00     0.044 C 
ATOM      2  C   UNL     1       2.938  14.254  13.951  1.00  0.00    -0.055 C 
ATOM      3  C   UNL     1       3.023  13.881  15.238  1.00  0.00    -0.023 C 
ATOM      4  C   UNL     1       1.802  13.932  16.118  1.00  0.00     0.035 C 
ATOM      5  C   UNL     1       0.938  15.178  15.796  1.00  0.00     0.018 C 
ATOM      6  C   UNL     1       0.715  15.230  14.297  1.00  0.00    -0.023 C 
ATOM      7  C   UNL     1       1.679  14.852  13.446  1.00  0.00    -0.001 C 
ENDROOT
BRANCH   5   8
ATOM      8  C   UNL     1       1.568  16.514  16.306  1.00  0.00    -0.010 C 
ATOM      9  C   UNL     1       0.744  17.731  15.846  1.00  0.00     0.008 C 
ATOM     10  C   UNL     1       1.692  16.549  17.840  1.00  0.00     0.008 C 
ENDBRANCH   5   8
TORSDOF 1
ENDMDL
MODEL 7
REMARK VINA RESULT:    -3.626      1.397      2.539
REMARK INTER + INTRA:          -4.100
REMARK INTER:                  -3.848
REMARK INTRA:                  -0.252
REMARK UNBOUND:                -0.262
REMARK SMILES CC1=CC[C@@H](C(C)C)C=C1
REMARK SMILES IDX 1 1 2 2 3 3 4 4 5 5 9 6 10 7 6 8 7 9 8 10
REMARK H PARENT
REMARK Flexibility Score: inf
ROOT
ATOM      1  C   UNL     1       1.043  11.711  14.479  1.00  0.00     0.044 C 
ATOM      2  C   UNL     1       1.120  12.763  15.544  1.00  0.00    -0.055 C 
ATOM      3  C   UNL     1       2.182  13.582  15.615  1.00  0.00    -0.023 C 
ATOM      4  C   UNL     1       2.276  14.600  16.721  1.00  0.00     0.035 C 
ATOM      5  C   UNL     1       0.886  15.212  17.029  1.00  0.00     0.018 C 
ATOM      6  C   UNL     1      -0.107  14.079  17.210  1.00  0.00    -0.023 C 
ATOM      7  C   UNL     1      -0.021  12.967  16.468  1.00  0.00    -0.001 C 
ENDROOT
BRANCH   5   8
ATOM      8  C   UNL     1       0.392  16.206  15.928  1.00  0.00    -0.010 C 
ATOM      9  C   UNL     1      -1.125  16.449  16.036  1.00  0.00     0.008 C 
ATOM     10  C   UNL     1       1.119  17.560  16.002  1.00  0.00     0.008 C 
ENDBRANCH   5   8
TORSDOF 1
ENDMDL
MODEL 8
REMARK VINA RESULT:    -3.520      1.718      3.680
REMARK INTER + INTRA:          -3.988
REMARK INTER:                  -3.761
REMARK INTRA:                  -0.227
REMARK UNBOUND:                -0.262
REMARK SMILES CC1=CC[C@@H](C(C)C)C=C1
REMARK SMILES IDX 1 1 2 2 3 3 4 4 5 5 9 6 10 7 6 8 7 9 8 10
REMARK H PARENT
REMARK Flexibility Score: inf
ROOT
ATOM      1  C   UNL     1      -0.286  16.608  15.908  1.00  0.00     0.044 C 
ATOM      2  C   UNL     1       0.420  15.294  16.061  1.00  0.00    -0.055 C 
ATOM      3  C   UNL     1      -0.274  14.178  16.336  1.00  0.00    -0.023 C 
ATOM      4  C   UNL     1       0.448  12.873  16.542  1.00  0.00     0.035 C 
ATOM      5  C   UNL     1       1.643  12.741  15.563  1.00  0.00     0.018 C 
ATOM      6  C   UNL     1       2.468  14.012  15.642  1.00  0.00    -0.023 C 
ATOM      7  C   UNL     1       1.879  15.203  15.815  1.00  0.00    -0.001 C 
ENDROOT
BRANCH   5   8
ATOM      8  C   UNL     1       1.205  12.461  14.089  1.00  0.00    -0.010 C 
ATOM      9  C   UNL     1       2.290  12.905  13.091  1.00  0.00     0.008 C 
ATOM     10  C   UNL     1       0.890  10.973  13.852  1.00  0.00     0.008 C 
ENDBRANCH   5   8
TORSDOF 1
ENDMDL
MODEL 9
REMARK VINA RESULT:    -3.489      1.525      2.879
REMARK INTER + INTRA:          -3.955
REMARK INTER:                  -3.723
REMARK INTRA:                  -0.232
REMARK UNBOUND:                -0.262
REMARK SMILES CC1=CC[C@@H](C(C)C)C=C1
REMARK SMILES IDX 1 1 2 2 3 3 4 4 5 5 9 6 10 7 6 8 7 9 8 10
REMARK H PARENT
REMARK Flexibility Score: inf
ROOT
ATOM      1  C   UNL     1       0.263  12.544  18.997  1.00  0.00     0.044 C 
ATOM      2  C   UNL     1       0.478  13.418  17.798  1.00  0.00    -0.055 C 
ATOM      3  C   UNL     1       1.547  14.228  17.730  1.00  0.00    -0.023 C 
ATOM      4  C   UNL     1       1.726  15.142  16.547  1.00  0.00     0.035 C 
ATOM      5  C   UNL     1       1.279  14.445  15.236  1.00  0.00     0.018 C 
ATOM      6  C   UNL     1      -0.101  13.853  15.456  1.00  0.00    -0.023 C 
ATOM      7  C   UNL     1      -0.441  13.324  16.638  1.00  0.00    -0.001 C 
ENDROOT
BRANCH   5   8
ATOM      8  C   UNL     1       2.278  13.345  14.751  1.00  0.00    -0.010 C 
ATOM      9  C   UNL     1       1.582  12.327  13.829  1.00  0.00     0.008 C 
ATOM     10  C   UNL     1       3.484  13.946  14.007  1.00  0.00     0.008 C 
ENDBRANCH   5   8
TORSDOF 1
ENDMDL
