MODEL 1
REMARK VINA RESULT:     1.545      0.000      0.000
REMARK INTER + INTRA:           2.281
REMARK INTER:                   3.533
REMARK INTRA:                  -1.251
REMARK UNBOUND:                -1.251
REMARK SMILES CCCCCCCCCCCCCCCCCCCCCCCC(=O)[O-]
REMARK SMILES IDX 13 1 14 2 15 3 16 4 17 5 18 6 19 7 20 8 21 9 22 10 23 11
REMARK SMILES IDX 24 12 25 13 26 14 12 15 11 16 10 17 9 18 8 19 7 20 6 21 5 22
REMARK SMILES IDX 4 23 3 24 2 25 1 26
REMARK H PARENT
REMARK Flexibility Score: inf
ROOT
ATOM      1  C   UNL     1       7.316  -7.264  -4.200  1.00  0.00     0.000 C 
ENDROOT
BRANCH   1   2
ATOM      2  C   UNL     1       8.674  -6.554  -4.305  1.00  0.00     0.000 C 
BRANCH   2   3
ATOM      3  C   UNL     1       8.782  -5.422  -3.274  1.00  0.00     0.000 C 
BRANCH   3   4
ATOM      4  C   UNL     1       9.372  -5.889  -1.932  1.00  0.00     0.000 C 
BRANCH   4   5
ATOM      5  C   UNL     1       9.605  -7.409  -1.814  1.00  0.00     0.000 C 
BRANCH   5   6
ATOM      6  C   UNL     1      10.125  -7.885  -0.446  1.00  0.00     0.000 C 
BRANCH   6   7
ATOM      7  C   UNL     1       9.991  -9.403  -0.250  1.00  0.00     0.000 C 
BRANCH   7   8
ATOM      8  C   UNL     1       8.916  -9.983  -1.181  1.00  0.00     0.000 C 
BRANCH   8   9
ATOM      9  C   UNL     1       7.542 -10.121  -0.498  1.00  0.00     0.000 C 
BRANCH   9  10
ATOM     10  C   UNL     1       6.333  -9.864  -1.415  1.00  0.00     0.006 C 
BRANCH  10  11
ATOM     11  C   UNL     1       5.391  -8.782  -0.872  1.00  0.00     0.053 C 
BRANCH  11  12
ATOM     12  C   UNL     1       4.148  -9.403  -0.316  1.00  0.00     0.041 C 
ATOM     13  O   UNL     1       3.393 -10.083  -1.059  1.00  0.00    -0.550 OA
ATOM     14  O   UNL     1       3.798  -9.189   1.011  1.00  0.00    -0.550 OA
ENDBRANCH  11  12
ENDBRANCH  10  11
ENDBRANCH   9  10
ENDBRANCH   8   9
ENDBRANCH   7   8
ENDBRANCH   6   7
ENDBRANCH   5   6
ENDBRANCH   4   5
ENDBRANCH   3   4
ENDBRANCH   2   3
ENDBRANCH   1   2
BRANCH   1  15
ATOM     15  C   UNL     1       7.447  -8.723  -3.733  1.00  0.00     0.000 C 
BRANCH  15  16
ATOM     16  C   UNL     1       7.991  -9.649  -4.836  1.00  0.00     0.000 C 
BRANCH  16  17
ATOM     17  C   UNL     1       9.526  -9.680  -4.876  1.00  0.00     0.000 C 
BRANCH  17  18
ATOM     18  C   UNL     1      10.094  -9.120  -6.189  1.00  0.00    -0.000 C 
BRANCH  18  19
ATOM     19  C   UNL     1       8.982  -8.913  -7.224  1.00  0.00    -0.000 C 
BRANCH  19  20
ATOM     20  C   UNL     1       8.873  -7.438  -7.629  1.00  0.00    -0.000 C 
BRANCH  20  21
ATOM     21  C   UNL     1       7.405  -6.992  -7.688  1.00  0.00    -0.000 C 
BRANCH  21  22
ATOM     22  C   UNL     1       7.033  -6.356  -9.038  1.00  0.00    -0.000 C 
BRANCH  22  23
ATOM     23  C   UNL     1       5.946  -7.145  -9.783  1.00  0.00    -0.000 C 
BRANCH  23  24
ATOM     24  C   UNL     1       5.826  -8.572  -9.227  1.00  0.00    -0.000 C 
BRANCH  24  25
ATOM     25  C   UNL     1       4.390  -8.923  -8.806  1.00  0.00    -0.003 C 
ATOM     26  C   UNL     1       3.742  -9.961  -9.721  1.00  0.00     0.004 C 
ENDBRANCH  24  25
ENDBRANCH  23  24
ENDBRANCH  22  23
ENDBRANCH  21  22
ENDBRANCH  20  21
ENDBRANCH  19  20
ENDBRANCH  18  19
ENDBRANCH  17  18
ENDBRANCH  16  17
ENDBRANCH  15  16
ENDBRANCH   1  15
TORSDOF 22
ENDMDL
MODEL 2
REMARK VINA RESULT:     2.700     12.969     17.972
REMARK INTER + INTRA:           4.920
REMARK INTER:                   5.146
REMARK INTRA:                  -0.226
REMARK UNBOUND:                -1.251
REMARK SMILES CCCCCCCCCCCCCCCCCCCCCCCC(=O)[O-]
REMARK SMILES IDX 13 1 14 2 15 3 16 4 17 5 18 6 19 7 20 8 21 9 22 10 23 11
REMARK SMILES IDX 24 12 25 13 26 14 12 15 11 16 10 17 9 18 8 19 7 20 6 21 5 22
REMARK SMILES IDX 4 23 3 24 2 25 1 26
REMARK H PARENT
REMARK Flexibility Score: inf
ROOT
ATOM      1  C   UNL     1      -7.828  -5.606  -4.570  1.00  0.00     0.000 C 
ENDROOT
BRANCH   1   2
ATOM      2  C   UNL     1      -8.834  -5.994  -5.664  1.00  0.00     0.000 C 
BRANCH   2   3
ATOM      3  C   UNL     1      -9.169  -7.491  -5.595  1.00  0.00     0.000 C 
BRANCH   3   4
ATOM      4  C   UNL     1     -10.083  -7.953  -6.743  1.00  0.00     0.000 C 
BRANCH   4   5
ATOM      5  C   UNL     1     -10.045  -9.465  -7.041  1.00  0.00     0.000 C 
BRANCH   5   6
ATOM      6  C   UNL     1      -8.999  -9.898  -8.085  1.00  0.00     0.000 C 
BRANCH   6   7
ATOM      7  C   UNL     1      -7.806  -8.935  -8.171  1.00  0.00     0.000 C 
BRANCH   7   8
ATOM      8  C   UNL     1      -6.557  -9.655  -8.698  1.00  0.00     0.000 C 
BRANCH   8   9
ATOM      9  C   UNL     1      -5.363  -9.574  -7.729  1.00  0.00     0.000 C 
BRANCH   9  10
ATOM     10  C   UNL     1      -5.246  -8.250  -6.952  1.00  0.00     0.006 C 
BRANCH  10  11
ATOM     11  C   UNL     1      -3.897  -7.551  -7.162  1.00  0.00     0.053 C 
BRANCH  11  12
ATOM     12  C   UNL     1      -3.738  -7.139  -8.591  1.00  0.00     0.041 C 
ATOM     13  O   UNL     1      -4.113  -5.997  -8.967  1.00  0.00    -0.550 OA
ATOM     14  O   UNL     1      -3.223  -8.035  -9.519  1.00  0.00    -0.550 OA
ENDBRANCH  11  12
ENDBRANCH  10  11
ENDBRANCH   9  10
ENDBRANCH   8   9
ENDBRANCH   7   8
ENDBRANCH   6   7
ENDBRANCH   5   6
ENDBRANCH   4   5
ENDBRANCH   3   4
ENDBRANCH   2   3
ENDBRANCH   1   2
BRANCH   1  15
ATOM     15  C   UNL     1      -8.492  -5.411  -3.198  1.00  0.00     0.000 C 
BRANCH  15  16
ATOM     16  C   UNL     1      -9.680  -6.364  -2.976  1.00  0.00     0.000 C 
BRANCH  16  17
ATOM     17  C   UNL     1      -9.718  -6.939  -1.552  1.00  0.00     0.000 C 
BRANCH  17  18
ATOM     18  C   UNL     1     -10.108  -5.888  -0.502  1.00  0.00    -0.000 C 
BRANCH  18  19
ATOM     19  C   UNL     1     -10.120  -6.498   0.905  1.00  0.00    -0.000 C 
BRANCH  19  20
ATOM     20  C   UNL     1      -9.213  -7.733   0.979  1.00  0.00    -0.000 C 
BRANCH  20  21
ATOM     21  C   UNL     1     -10.033  -9.024   0.850  1.00  0.00    -0.000 C 
BRANCH  21  22
ATOM     22  C   UNL     1      -9.900  -9.935   2.082  1.00  0.00    -0.000 C 
BRANCH  22  23
ATOM     23  C   UNL     1      -8.810  -9.460   3.054  1.00  0.00    -0.000 C 
BRANCH  23  24
ATOM     24  C   UNL     1      -9.353  -9.376   4.489  1.00  0.00    -0.000 C 
BRANCH  24  25
ATOM     25  C   UNL     1     -10.124  -8.073   4.753  1.00  0.00    -0.003 C 
ATOM     26  C   UNL     1      -9.485  -6.860   4.076  1.00  0.00     0.004 C 
ENDBRANCH  24  25
ENDBRANCH  23  24
ENDBRANCH  22  23
ENDBRANCH  21  22
ENDBRANCH  20  21
ENDBRANCH  19  20
ENDBRANCH  18  19
ENDBRANCH  17  18
ENDBRANCH  16  17
ENDBRANCH  15  16
ENDBRANCH   1  15
TORSDOF 22
ENDMDL
MODEL 3
REMARK VINA RESULT:     3.049      2.802      6.572
REMARK INTER + INTRA:           5.720
REMARK INTER:                   0.745
REMARK INTRA:                   4.974
REMARK UNBOUND:                -1.251
REMARK SMILES CCCCCCCCCCCCCCCCCCCCCCCC(=O)[O-]
REMARK SMILES IDX 13 1 14 2 15 3 16 4 17 5 18 6 19 7 20 8 21 9 22 10 23 11
REMARK SMILES IDX 24 12 25 13 26 14 12 15 11 16 10 17 9 18 8 19 7 20 6 21 5 22
REMARK SMILES IDX 4 23 3 24 2 25 1 26
REMARK H PARENT
REMARK Flexibility Score: inf
ROOT
ATOM      1  C   UNL     1       8.874  -7.996  -9.059  1.00  0.00     0.000 C 
ENDROOT
BRANCH   1   2
ATOM      2  C   UNL     1       8.518  -6.861 -10.031  1.00  0.00     0.000 C 
BRANCH   2   3
ATOM      3  C   UNL     1       9.538  -5.718  -9.936  1.00  0.00     0.000 C 
BRANCH   3   4
ATOM      4  C   UNL     1       9.954  -5.407  -8.488  1.00  0.00     0.000 C 
BRANCH   4   5
ATOM      5  C   UNL     1       9.396  -6.374  -7.425  1.00  0.00     0.000 C 
BRANCH   5   6
ATOM      6  C   UNL     1      10.081  -6.298  -6.048  1.00  0.00     0.000 C 
BRANCH   6   7
ATOM      7  C   UNL     1       9.133  -5.833  -4.933  1.00  0.00     0.000 C 
BRANCH   7   8
ATOM      8  C   UNL     1       7.704  -5.654  -5.467  1.00  0.00     0.000 C 
BRANCH   8   9
ATOM      9  C   UNL     1       6.731  -6.729  -4.948  1.00  0.00     0.000 C 
BRANCH   9  10
ATOM     10  C   UNL     1       6.061  -7.580  -6.043  1.00  0.00     0.006 C 
BRANCH  10  11
ATOM     11  C   UNL     1       5.967  -6.853  -7.390  1.00  0.00     0.053 C 
BRANCH  11  12
ATOM     12  C   UNL     1       5.141  -7.645  -8.354  1.00  0.00     0.041 C 
ATOM     13  O   UNL     1       4.786  -7.138  -9.451  1.00  0.00    -0.550 OA
ATOM     14  O   UNL     1       4.718  -8.925  -8.019  1.00  0.00    -0.550 OA
ENDBRANCH  11  12
ENDBRANCH  10  11
ENDBRANCH   9  10
ENDBRANCH   8   9
ENDBRANCH   7   8
ENDBRANCH   6   7
ENDBRANCH   5   6
ENDBRANCH   4   5
ENDBRANCH   3   4
ENDBRANCH   2   3
ENDBRANCH   1   2
BRANCH   1  15
ATOM     15  C   UNL     1       8.120  -9.299  -9.371  1.00  0.00     0.000 C 
BRANCH  15  16
ATOM     16  C   UNL     1       7.107  -9.671  -8.274  1.00  0.00     0.000 C 
BRANCH  16  17
ATOM     17  C   UNL     1       7.738  -9.705  -6.874  1.00  0.00     0.000 C 
BRANCH  17  18
ATOM     18  C   UNL     1       9.261  -9.503  -6.907  1.00  0.00    -0.000 C 
BRANCH  18  19
ATOM     19  C   UNL     1       9.895  -9.892  -5.566  1.00  0.00    -0.000 C 
BRANCH  19  20
ATOM     20  C   UNL     1       8.821 -10.121  -4.494  1.00  0.00    -0.000 C 
BRANCH  20  21
ATOM     21  C   UNL     1       8.235  -8.786  -4.012  1.00  0.00    -0.000 C 
BRANCH  21  22
ATOM     22  C   UNL     1       7.629  -8.880  -2.602  1.00  0.00    -0.000 C 
BRANCH  22  23
ATOM     23  C   UNL     1       8.516  -9.673  -1.630  1.00  0.00    -0.000 C 
BRANCH  23  24
ATOM     24  C   UNL     1       9.783  -8.882  -1.273  1.00  0.00    -0.000 C 
BRANCH  24  25
ATOM     25  C   UNL     1      10.033  -7.706  -2.231  1.00  0.00    -0.003 C 
ATOM     26  C   UNL     1      10.124  -6.363  -1.508  1.00  0.00     0.004 C 
ENDBRANCH  24  25
ENDBRANCH  23  24
ENDBRANCH  22  23
ENDBRANCH  21  22
ENDBRANCH  20  21
ENDBRANCH  19  20
ENDBRANCH  18  19
ENDBRANCH  17  18
ENDBRANCH  16  17
ENDBRANCH  15  16
ENDBRANCH   1  15
TORSDOF 22
ENDMDL
MODEL 4
REMARK VINA RESULT:     3.274     13.780     18.153
REMARK INTER + INTRA:           6.233
REMARK INTER:                   4.653
REMARK INTRA:                   1.580
REMARK UNBOUND:                -1.251
REMARK SMILES CCCCCCCCCCCCCCCCCCCCCCCC(=O)[O-]
REMARK SMILES IDX 13 1 14 2 15 3 16 4 17 5 18 6 19 7 20 8 21 9 22 10 23 11
REMARK SMILES IDX 24 12 25 13 26 14 12 15 11 16 10 17 9 18 8 19 7 20 6 21 5 22
REMARK SMILES IDX 4 23 3 24 2 25 1 26
REMARK H PARENT
REMARK Flexibility Score: inf
ROOT
ATOM      1  C   UNL     1      -7.920  -5.843  -4.318  1.00  0.00     0.000 C 
ENDROOT
BRANCH   1   2
ATOM      2  C   UNL     1      -8.760  -6.109  -5.576  1.00  0.00     0.000 C 
BRANCH   2   3
ATOM      3  C   UNL     1      -8.849  -7.614  -5.867  1.00  0.00     0.000 C 
BRANCH   3   4
ATOM      4  C   UNL     1      -9.743  -7.938  -7.076  1.00  0.00     0.000 C 
BRANCH   4   5
ATOM      5  C   UNL     1      -9.806  -9.429  -7.461  1.00  0.00     0.000 C 
BRANCH   5   6
ATOM      6  C   UNL     1      -9.636  -9.723  -8.963  1.00  0.00     0.000 C 
BRANCH   6   7
ATOM      7  C   UNL     1      -8.522  -8.888  -9.613  1.00  0.00     0.000 C 
BRANCH   7   8
ATOM      8  C   UNL     1      -7.151  -9.547  -9.408  1.00  0.00     0.000 C 
BRANCH   8   9
ATOM      9  C   UNL     1      -6.293  -8.831  -8.347  1.00  0.00     0.000 C 
BRANCH   9  10
ATOM     10  C   UNL     1      -6.004  -9.658  -7.081  1.00  0.00     0.006 C 
BRANCH  10  11
ATOM     11  C   UNL     1      -5.742  -8.787  -5.846  1.00  0.00     0.053 C 
BRANCH  11  12
ATOM     12  C   UNL     1      -6.318  -9.427  -4.623  1.00  0.00     0.041 C 
ATOM     13  O   UNL     1      -5.643  -9.490  -3.562  1.00  0.00    -0.550 OA
ATOM     14  O   UNL     1      -7.583 -10.001  -4.669  1.00  0.00    -0.550 OA
ENDBRANCH  11  12
ENDBRANCH  10  11
ENDBRANCH   9  10
ENDBRANCH   8   9
ENDBRANCH   7   8
ENDBRANCH   6   7
ENDBRANCH   5   6
ENDBRANCH   4   5
ENDBRANCH   3   4
ENDBRANCH   2   3
ENDBRANCH   1   2
BRANCH   1  15
ATOM     15  C   UNL     1      -8.784  -5.626  -3.065  1.00  0.00     0.000 C 
BRANCH  15  16
ATOM     16  C   UNL     1     -10.034  -6.523  -3.049  1.00  0.00     0.000 C 
BRANCH  16  17
ATOM     17  C   UNL     1     -10.125  -7.386  -1.781  1.00  0.00     0.000 C 
BRANCH  17  18
ATOM     18  C   UNL     1      -9.483  -6.710  -0.560  1.00  0.00    -0.000 C 
BRANCH  18  19
ATOM     19  C   UNL     1      -9.943  -7.378   0.742  1.00  0.00    -0.000 C 
BRANCH  19  20
ATOM     20  C   UNL     1      -8.861  -8.316   1.292  1.00  0.00    -0.000 C 
BRANCH  20  21
ATOM     21  C   UNL     1      -9.485  -9.446   2.124  1.00  0.00    -0.000 C 
BRANCH  21  22
ATOM     22  C   UNL     1      -8.881  -9.546   3.535  1.00  0.00    -0.000 C 
BRANCH  22  23
ATOM     23  C   UNL     1      -9.889  -9.184   4.636  1.00  0.00    -0.000 C 
BRANCH  23  24
ATOM     24  C   UNL     1     -10.093  -7.663   4.713  1.00  0.00    -0.000 C 
BRANCH  24  25
ATOM     25  C   UNL     1     -10.124  -7.001   3.327  1.00  0.00    -0.003 C 
ATOM     26  C   UNL     1      -9.745  -5.520   3.370  1.00  0.00     0.004 C 
ENDBRANCH  24  25
ENDBRANCH  23  24
ENDBRANCH  22  23
ENDBRANCH  21  22
ENDBRANCH  20  21
ENDBRANCH  19  20
ENDBRANCH  18  19
ENDBRANCH  17  18
ENDBRANCH  16  17
ENDBRANCH  15  16
ENDBRANCH   1  15
TORSDOF 22
ENDMDL
