MODEL 1
REMARK VINA RESULT:    -5.164      0.000      0.000
REMARK INTER + INTRA:         -14.103
REMARK INTER:                 -11.203
REMARK INTRA:                  -2.900
REMARK UNBOUND:                -2.900
REMARK SMILES CCCCCCCCCCCCCCCCCCCCCC(=O)[O-]
REMARK SMILES IDX 12 1 11 2 10 3 9 4 8 5 7 6 6 7 5 8 4 9 3 10 2 11 1 12 13 13
REMARK SMILES IDX 14 14 15 15 16 16 17 17 18 18 19 19 20 20 21 21 22 22 23 23
REMARK SMILES IDX 24 24
REMARK H PARENT
REMARK Flexibility Score: inf
ROOT
ATOM      1  C   UNL     1      19.052  27.776  31.151  1.00  0.00     0.000 C 
ENDROOT
BRANCH   1   2
ATOM      2  C   UNL     1      17.983  28.833  30.820  1.00  0.00     0.000 C 
BRANCH   2   3
ATOM      3  C   UNL     1      18.453  30.297  30.946  1.00  0.00     0.000 C 
BRANCH   3   4
ATOM      4  C   UNL     1      18.872  30.971  29.626  1.00  0.00    -0.000 C 
BRANCH   4   5
ATOM      5  C   UNL     1      18.306  30.264  28.384  1.00  0.00    -0.000 C 
BRANCH   5   6
ATOM      6  C   UNL     1      19.402  29.663  27.485  1.00  0.00    -0.000 C 
BRANCH   6   7
ATOM      7  C   UNL     1      19.035  28.330  26.806  1.00  0.00    -0.000 C 
BRANCH   7   8
ATOM      8  C   UNL     1      17.641  27.818  27.202  1.00  0.00    -0.000 C 
BRANCH   8   9
ATOM      9  C   UNL     1      17.745  26.528  28.027  1.00  0.00    -0.000 C 
BRANCH   9  10
ATOM     10  C   UNL     1      19.073  25.786  27.804  1.00  0.00    -0.000 C 
BRANCH  10  11
ATOM     11  C   UNL     1      19.216  24.547  28.699  1.00  0.00    -0.003 C 
ATOM     12  C   UNL     1      19.058  23.264  27.889  1.00  0.00     0.004 C 
ENDBRANCH  10  11
ENDBRANCH   9  10
ENDBRANCH   8   9
ENDBRANCH   7   8
ENDBRANCH   6   7
ENDBRANCH   5   6
ENDBRANCH   4   5
ENDBRANCH   3   4
ENDBRANCH   2   3
ENDBRANCH   1   2
BRANCH   1  13
ATOM     13  C   UNL     1      19.885  28.139  32.391  1.00  0.00     0.000 C 
BRANCH  13  14
ATOM     14  C   UNL     1      19.877  27.030  33.458  1.00  0.00     0.000 C 
BRANCH  14  15
ATOM     15  C   UNL     1      19.367  27.471  34.846  1.00  0.00     0.000 C 
BRANCH  15  16
ATOM     16  C   UNL     1      19.698  28.926  35.236  1.00  0.00     0.000 C 
BRANCH  16  17
ATOM     17  C   UNL     1      18.478  29.825  35.503  1.00  0.00     0.000 C 
BRANCH  17  18
ATOM     18  C   UNL     1      17.209  29.334  34.787  1.00  0.00     0.000 C 
BRANCH  18  19
ATOM     19  C   UNL     1      16.569  30.421  33.906  1.00  0.00     0.000 C 
BRANCH  19  20
ATOM     20  C   UNL     1      17.161  31.818  34.162  1.00  0.00     0.006 C 
BRANCH  20  21
ATOM     21  C   UNL     1      16.144  32.765  34.813  1.00  0.00     0.053 C 
BRANCH  21  22
ATOM     22  C   UNL     1      16.200  32.696  36.309  1.00  0.00     0.041 C 
ATOM     23  O   UNL     1      15.476  31.878  36.934  1.00  0.00    -0.550 OA
ATOM     24  O   UNL     1      17.079  33.513  37.010  1.00  0.00    -0.550 OA
ENDBRANCH  21  22
ENDBRANCH  20  21
ENDBRANCH  19  20
ENDBRANCH  18  19
ENDBRANCH  17  18
ENDBRANCH  16  17
ENDBRANCH  15  16
ENDBRANCH  14  15
ENDBRANCH  13  14
ENDBRANCH   1  13
TORSDOF 20
ENDMDL
MODEL 2
REMARK VINA RESULT:    -5.008      4.091      8.927
REMARK INTER + INTRA:         -13.764
REMARK INTER:                 -11.279
REMARK INTRA:                  -2.485
REMARK UNBOUND:                -2.900
REMARK SMILES CCCCCCCCCCCCCCCCCCCCCC(=O)[O-]
REMARK SMILES IDX 12 1 11 2 10 3 9 4 8 5 7 6 6 7 5 8 4 9 3 10 2 11 1 12 13 13
REMARK SMILES IDX 14 14 15 15 16 16 17 17 18 18 19 19 20 20 21 21 22 22 23 23
REMARK SMILES IDX 24 24
REMARK H PARENT
REMARK Flexibility Score: inf
ROOT
ATOM      1  C   UNL     1      17.979  28.843  31.368  1.00  0.00     0.000 C 
ENDROOT
BRANCH   1   2
ATOM      2  C   UNL     1      19.165  27.877  31.549  1.00  0.00     0.000 C 
BRANCH   2   3
ATOM      3  C   UNL     1      19.802  27.883  32.954  1.00  0.00     0.000 C 
BRANCH   3   4
ATOM      4  C   UNL     1      18.809  27.949  34.129  1.00  0.00    -0.000 C 
BRANCH   4   5
ATOM      5  C   UNL     1      19.254  28.918  35.237  1.00  0.00    -0.000 C 
BRANCH   5   6
ATOM      6  C   UNL     1      18.251  30.063  35.471  1.00  0.00    -0.000 C 
BRANCH   6   7
ATOM      7  C   UNL     1      16.852  29.842  34.866  1.00  0.00    -0.000 C 
BRANCH   7   8
ATOM      8  C   UNL     1      16.470  30.908  33.828  1.00  0.00    -0.000 C 
BRANCH   8   9
ATOM      9  C   UNL     1      17.504  32.043  33.801  1.00  0.00    -0.000 C 
BRANCH   9  10
ATOM     10  C   UNL     1      16.925  33.360  33.259  1.00  0.00    -0.000 C 
BRANCH  10  11
ATOM     11  C   UNL     1      15.751  33.880  34.100  1.00  0.00    -0.003 C 
ATOM     12  C   UNL     1      14.890  34.852  33.299  1.00  0.00     0.004 C 
ENDBRANCH  10  11
ENDBRANCH   9  10
ENDBRANCH   8   9
ENDBRANCH   7   8
ENDBRANCH   6   7
ENDBRANCH   5   6
ENDBRANCH   4   5
ENDBRANCH   3   4
ENDBRANCH   2   3
ENDBRANCH   1   2
BRANCH   1  13
ATOM     13  C   UNL     1      18.394  30.181  30.734  1.00  0.00     0.000 C 
BRANCH  13  14
ATOM     14  C   UNL     1      19.231  29.999  29.455  1.00  0.00     0.000 C 
BRANCH  14  15
ATOM     15  C   UNL     1      18.414  29.967  28.147  1.00  0.00     0.000 C 
BRANCH  15  16
ATOM     16  C   UNL     1      18.543  28.669  27.324  1.00  0.00     0.000 C 
BRANCH  16  17
ATOM     17  C   UNL     1      17.695  27.487  27.828  1.00  0.00     0.000 C 
BRANCH  17  18
ATOM     18  C   UNL     1      18.366  26.125  27.582  1.00  0.00     0.000 C 
BRANCH  18  19
ATOM     19  C   UNL     1      19.615  25.915  28.454  1.00  0.00     0.000 C 
BRANCH  19  20
ATOM     20  C   UNL     1      19.810  24.446  28.869  1.00  0.00     0.006 C 
BRANCH  20  21
ATOM     21  C   UNL     1      19.003  23.484  27.986  1.00  0.00     0.053 C 
BRANCH  21  22
ATOM     22  C   UNL     1      19.079  22.075  28.489  1.00  0.00     0.041 C 
ATOM     23  O   UNL     1      19.782  21.222  27.886  1.00  0.00    -0.550 OA
ATOM     24  O   UNL     1      18.399  21.712  29.645  1.00  0.00    -0.550 OA
ENDBRANCH  21  22
ENDBRANCH  20  21
ENDBRANCH  19  20
ENDBRANCH  18  19
ENDBRANCH  17  18
ENDBRANCH  16  17
ENDBRANCH  15  16
ENDBRANCH  14  15
ENDBRANCH  13  14
ENDBRANCH   1  13
TORSDOF 20
ENDMDL
MODEL 3
REMARK VINA RESULT:    -4.988      1.102      2.743
REMARK INTER + INTRA:         -13.720
REMARK INTER:                 -10.833
REMARK INTRA:                  -2.887
REMARK UNBOUND:                -2.900
REMARK SMILES CCCCCCCCCCCCCCCCCCCCCC(=O)[O-]
REMARK SMILES IDX 12 1 11 2 10 3 9 4 8 5 7 6 6 7 5 8 4 9 3 10 2 11 1 12 13 13
REMARK SMILES IDX 14 14 15 15 16 16 17 17 18 18 19 19 20 20 21 21 22 22 23 23
REMARK SMILES IDX 24 24
REMARK H PARENT
REMARK Flexibility Score: inf
ROOT
ATOM      1  C   UNL     1      18.893  30.597  30.905  1.00  0.00     0.000 C 
ENDROOT
BRANCH   1   2
ATOM      2  C   UNL     1      18.374  31.526  29.792  1.00  0.00     0.000 C 
BRANCH   2   3
ATOM      3  C   UNL     1      18.516  30.970  28.360  1.00  0.00     0.000 C 
BRANCH   3   4
ATOM      4  C   UNL     1      19.833  30.230  28.066  1.00  0.00    -0.000 C 
BRANCH   4   5
ATOM      5  C   UNL     1      19.621  28.889  27.344  1.00  0.00    -0.000 C 
BRANCH   5   6
ATOM      6  C   UNL     1      18.144  28.621  26.998  1.00  0.00    -0.000 C 
BRANCH   6   7
ATOM      7  C   UNL     1      17.581  27.287  27.520  1.00  0.00    -0.000 C 
BRANCH   7   8
ATOM      8  C   UNL     1      18.512  26.095  27.253  1.00  0.00    -0.000 C 
BRANCH   8   9
ATOM      9  C   UNL     1      18.551  25.148  28.461  1.00  0.00    -0.000 C 
BRANCH   9  10
ATOM     10  C   UNL     1      19.877  24.376  28.565  1.00  0.00    -0.000 C 
BRANCH  10  11
ATOM     11  C   UNL     1      19.778  22.953  27.998  1.00  0.00    -0.003 C 
ATOM     12  C   UNL     1      18.761  22.122  28.775  1.00  0.00     0.004 C 
ENDBRANCH  10  11
ENDBRANCH   9  10
ENDBRANCH   8   9
ENDBRANCH   7   8
ENDBRANCH   6   7
ENDBRANCH   5   6
ENDBRANCH   4   5
ENDBRANCH   3   4
ENDBRANCH   2   3
ENDBRANCH   1   2
BRANCH   1  13
ATOM     13  C   UNL     1      17.871  29.519  31.304  1.00  0.00     0.000 C 
BRANCH  13  14
ATOM     14  C   UNL     1      18.201  28.139  30.708  1.00  0.00     0.000 C 
BRANCH  14  15
ATOM     15  C   UNL     1      19.663  27.686  30.895  1.00  0.00     0.000 C 
BRANCH  15  16
ATOM     16  C   UNL     1      19.907  26.719  32.071  1.00  0.00     0.000 C 
BRANCH  16  17
ATOM     17  C   UNL     1      20.357  27.387  33.383  1.00  0.00     0.000 C 
BRANCH  17  18
ATOM     18  C   UNL     1      19.179  27.741  34.306  1.00  0.00     0.000 C 
BRANCH  18  19
ATOM     19  C   UNL     1      19.614  28.560  35.532  1.00  0.00     0.000 C 
BRANCH  19  20
ATOM     20  C   UNL     1      18.691  29.760  35.805  1.00  0.00     0.006 C 
BRANCH  20  21
ATOM     21  C   UNL     1      17.443  29.744  34.911  1.00  0.00     0.053 C 
BRANCH  21  22
ATOM     22  C   UNL     1      16.822  31.103  34.802  1.00  0.00     0.041 C 
ATOM     23  O   UNL     1      16.475  31.555  33.679  1.00  0.00    -0.550 OA
ATOM     24  O   UNL     1      16.596  31.858  35.947  1.00  0.00    -0.550 OA
ENDBRANCH  21  22
ENDBRANCH  20  21
ENDBRANCH  19  20
ENDBRANCH  18  19
ENDBRANCH  17  18
ENDBRANCH  16  17
ENDBRANCH  15  16
ENDBRANCH  14  15
ENDBRANCH  13  14
ENDBRANCH   1  13
TORSDOF 20
ENDMDL
MODEL 4
REMARK VINA RESULT:    -4.866      1.763      3.298
REMARK INTER + INTRA:         -13.455
REMARK INTER:                 -10.968
REMARK INTRA:                  -2.487
REMARK UNBOUND:                -2.900
REMARK SMILES CCCCCCCCCCCCCCCCCCCCCC(=O)[O-]
REMARK SMILES IDX 12 1 11 2 10 3 9 4 8 5 7 6 6 7 5 8 4 9 3 10 2 11 1 12 13 13
REMARK SMILES IDX 14 14 15 15 16 16 17 17 18 18 19 19 20 20 21 21 22 22 23 23
REMARK SMILES IDX 24 24
REMARK H PARENT
REMARK Flexibility Score: inf
ROOT
ATOM      1  C   UNL     1      18.232  29.885  29.925  1.00  0.00     0.000 C 
ENDROOT
BRANCH   1   2
ATOM      2  C   UNL     1      18.505  29.837  28.411  1.00  0.00     0.000 C 
BRANCH   2   3
ATOM      3  C   UNL     1      17.927  28.606  27.682  1.00  0.00     0.000 C 
BRANCH   3   4
ATOM      4  C   UNL     1      18.919  27.846  26.782  1.00  0.00    -0.000 C 
BRANCH   4   5
ATOM      5  C   UNL     1      20.207  27.440  27.518  1.00  0.00    -0.000 C 
BRANCH   5   6
ATOM      6  C   UNL     1      20.131  26.027  28.125  1.00  0.00    -0.000 C 
BRANCH   6   7
ATOM      7  C   UNL     1      18.731  25.386  28.119  1.00  0.00    -0.000 C 
BRANCH   7   8
ATOM      8  C   UNL     1      18.709  23.985  28.750  1.00  0.00    -0.000 C 
BRANCH   8   9
ATOM      9  C   UNL     1      19.472  22.978  27.878  1.00  0.00    -0.000 C 
BRANCH   9  10
ATOM     10  C   UNL     1      19.079  21.522  28.172  1.00  0.00    -0.000 C 
BRANCH  10  11
ATOM     11  C   UNL     1      19.050  21.209  29.674  1.00  0.00    -0.003 C 
ATOM     12  C   UNL     1      18.477  19.819  29.935  1.00  0.00     0.004 C 
ENDBRANCH  10  11
ENDBRANCH   9  10
ENDBRANCH   8   9
ENDBRANCH   7   8
ENDBRANCH   6   7
ENDBRANCH   5   6
ENDBRANCH   4   5
ENDBRANCH   3   4
ENDBRANCH   2   3
ENDBRANCH   1   2
BRANCH   1  13
ATOM     13  C   UNL     1      18.282  28.496  30.583  1.00  0.00     0.000 C 
BRANCH  13  14
ATOM     14  C   UNL     1      19.664  28.170  31.179  1.00  0.00     0.000 C 
BRANCH  14  15
ATOM     15  C   UNL     1      19.706  26.904  32.060  1.00  0.00     0.000 C 
BRANCH  15  16
ATOM     16  C   UNL     1      19.723  27.162  33.580  1.00  0.00     0.000 C 
BRANCH  16  17
ATOM     17  C   UNL     1      20.147  28.581  33.998  1.00  0.00     0.000 C 
BRANCH  17  18
ATOM     18  C   UNL     1      19.193  29.208  35.028  1.00  0.00     0.000 C 
BRANCH  18  19
ATOM     19  C   UNL     1      17.742  28.727  34.860  1.00  0.00     0.000 C 
BRANCH  19  20
ATOM     20  C   UNL     1      16.739  29.888  34.748  1.00  0.00     0.006 C 
BRANCH  20  21
ATOM     21  C   UNL     1      16.686  30.471  33.328  1.00  0.00     0.053 C 
BRANCH  21  22
ATOM     22  C   UNL     1      17.154  31.894  33.296  1.00  0.00     0.041 C 
ATOM     23  O   UNL     1      16.409  32.817  33.716  1.00  0.00    -0.550 OA
ATOM     24  O   UNL     1      18.428  32.196  32.831  1.00  0.00    -0.550 OA
ENDBRANCH  21  22
ENDBRANCH  20  21
ENDBRANCH  19  20
ENDBRANCH  18  19
ENDBRANCH  17  18
ENDBRANCH  16  17
ENDBRANCH  15  16
ENDBRANCH  14  15
ENDBRANCH  13  14
ENDBRANCH   1  13
TORSDOF 20
ENDMDL
MODEL 5
REMARK VINA RESULT:    -4.790      1.194      2.052
REMARK INTER + INTRA:         -13.290
REMARK INTER:                 -10.388
REMARK INTRA:                  -2.901
REMARK UNBOUND:                -2.900
REMARK SMILES CCCCCCCCCCCCCCCCCCCCCC(=O)[O-]
REMARK SMILES IDX 12 1 11 2 10 3 9 4 8 5 7 6 6 7 5 8 4 9 3 10 2 11 1 12 13 13
REMARK SMILES IDX 14 14 15 15 16 16 17 17 18 18 19 19 20 20 21 21 22 22 23 23
REMARK SMILES IDX 24 24
REMARK H PARENT
REMARK Flexibility Score: inf
ROOT
ATOM      1  C   UNL     1      17.650  29.056  31.258  1.00  0.00     0.000 C 
ENDROOT
BRANCH   1   2
ATOM      2  C   UNL     1      17.869  30.164  32.304  1.00  0.00     0.000 C 
BRANCH   2   3
ATOM      3  C   UNL     1      18.086  31.577  31.723  1.00  0.00     0.000 C 
BRANCH   3   4
ATOM      4  C   UNL     1      19.080  31.662  30.549  1.00  0.00    -0.000 C 
BRANCH   4   5
ATOM      5  C   UNL     1      18.439  32.198  29.258  1.00  0.00    -0.000 C 
BRANCH   5   6
ATOM      6  C   UNL     1      18.751  31.327  28.027  1.00  0.00    -0.000 C 
BRANCH   6   7
ATOM      7  C   UNL     1      19.744  30.176  28.274  1.00  0.00    -0.000 C 
BRANCH   7   8
ATOM      8  C   UNL     1      19.434  28.926  27.437  1.00  0.00    -0.000 C 
BRANCH   8   9
ATOM      9  C   UNL     1      17.950  28.546  27.547  1.00  0.00    -0.000 C 
BRANCH   9  10
ATOM     10  C   UNL     1      17.733  27.027  27.651  1.00  0.00    -0.000 C 
BRANCH  10  11
ATOM     11  C   UNL     1      19.036  26.261  27.918  1.00  0.00    -0.003 C 
ATOM     12  C   UNL     1      18.800  24.754  27.902  1.00  0.00     0.004 C 
ENDBRANCH  10  11
ENDBRANCH   9  10
ENDBRANCH   8   9
ENDBRANCH   7   8
ENDBRANCH   6   7
ENDBRANCH   5   6
ENDBRANCH   4   5
ENDBRANCH   3   4
ENDBRANCH   2   3
ENDBRANCH   1   2
BRANCH   1  13
ATOM     13  C   UNL     1      18.839  28.085  31.162  1.00  0.00     0.000 C 
BRANCH  13  14
ATOM     14  C   UNL     1      19.831  28.243  32.329  1.00  0.00     0.000 C 
BRANCH  14  15
ATOM     15  C   UNL     1      19.902  27.036  33.286  1.00  0.00     0.000 C 
BRANCH  15  16
ATOM     16  C   UNL     1      19.379  27.298  34.714  1.00  0.00     0.000 C 
BRANCH  16  17
ATOM     17  C   UNL     1      20.427  27.834  35.705  1.00  0.00     0.000 C 
BRANCH  17  18
ATOM     18  C   UNL     1      20.141  29.278  36.151  1.00  0.00     0.000 C 
BRANCH  18  19
ATOM     19  C   UNL     1      18.744  29.761  35.727  1.00  0.00     0.000 C 
BRANCH  19  20
ATOM     20  C   UNL     1      18.592  31.290  35.812  1.00  0.00     0.006 C 
BRANCH  20  21
ATOM     21  C   UNL     1      17.639  31.715  36.938  1.00  0.00     0.053 C 
BRANCH  21  22
ATOM     22  C   UNL     1      16.289  32.090  36.409  1.00  0.00     0.041 C 
ATOM     23  O   UNL     1      15.305  32.186  37.189  1.00  0.00    -0.550 OA
ATOM     24  O   UNL     1      16.124  32.368  35.057  1.00  0.00    -0.550 OA
ENDBRANCH  21  22
ENDBRANCH  20  21
ENDBRANCH  19  20
ENDBRANCH  18  19
ENDBRANCH  17  18
ENDBRANCH  16  17
ENDBRANCH  15  16
ENDBRANCH  14  15
ENDBRANCH  13  14
ENDBRANCH   1  13
TORSDOF 20
ENDMDL
MODEL 6
REMARK VINA RESULT:    -4.747      3.443      7.615
REMARK INTER + INTRA:         -13.198
REMARK INTER:                  -9.424
REMARK INTRA:                  -3.774
REMARK UNBOUND:                -2.900
REMARK SMILES CCCCCCCCCCCCCCCCCCCCCC(=O)[O-]
REMARK SMILES IDX 12 1 11 2 10 3 9 4 8 5 7 6 6 7 5 8 4 9 3 10 2 11 1 12 13 13
REMARK SMILES IDX 14 14 15 15 16 16 17 17 18 18 19 19 20 20 21 21 22 22 23 23
REMARK SMILES IDX 24 24
REMARK H PARENT
REMARK Flexibility Score: inf
ROOT
ATOM      1  C   UNL     1      19.875  26.733  33.475  1.00  0.00     0.000 C 
ENDROOT
BRANCH   1   2
ATOM      2  C   UNL     1      20.056  27.257  34.911  1.00  0.00     0.000 C 
BRANCH   2   3
ATOM      3  C   UNL     1      19.177  28.471  35.278  1.00  0.00     0.000 C 
BRANCH   3   4
ATOM      4  C   UNL     1      19.837  29.506  36.208  1.00  0.00    -0.000 C 
BRANCH   4   5
ATOM      5  C   UNL     1      20.016  30.882  35.544  1.00  0.00    -0.000 C 
BRANCH   5   6
ATOM      6  C   UNL     1      20.087  30.802  34.008  1.00  0.00    -0.000 C 
BRANCH   6   7
ATOM      7  C   UNL     1      19.624  32.068  33.264  1.00  0.00    -0.000 C 
BRANCH   7   8
ATOM      8  C   UNL     1      18.396  31.826  32.372  1.00  0.00    -0.000 C 
BRANCH   8   9
ATOM      9  C   UNL     1      17.103  31.856  33.199  1.00  0.00    -0.000 C 
BRANCH   9  10
ATOM     10  C   UNL     1      16.625  30.452  33.603  1.00  0.00    -0.000 C 
BRANCH  10  11
ATOM     11  C   UNL     1      16.118  30.394  35.051  1.00  0.00    -0.003 C 
ATOM     12  C   UNL     1      16.514  31.650  35.822  1.00  0.00     0.004 C 
ENDBRANCH  10  11
ENDBRANCH   9  10
ENDBRANCH   8   9
ENDBRANCH   7   8
ENDBRANCH   6   7
ENDBRANCH   5   6
ENDBRANCH   4   5
ENDBRANCH   3   4
ENDBRANCH   2   3
ENDBRANCH   1   2
BRANCH   1  13
ATOM     13  C   UNL     1      20.871  27.357  32.484  1.00  0.00     0.000 C 
BRANCH  13  14
ATOM     14  C   UNL     1      20.187  28.265  31.446  1.00  0.00     0.000 C 
BRANCH  14  15
ATOM     15  C   UNL     1      18.646  28.280  31.515  1.00  0.00     0.000 C 
BRANCH  15  16
ATOM     16  C   UNL     1      17.931  28.571  30.180  1.00  0.00     0.000 C 
BRANCH  16  17
ATOM     17  C   UNL     1      18.643  29.584  29.265  1.00  0.00     0.000 C 
BRANCH  17  18
ATOM     18  C   UNL     1      18.402  29.308  27.771  1.00  0.00     0.000 C 
BRANCH  18  19
ATOM     19  C   UNL     1      17.605  28.015  27.530  1.00  0.00     0.000 C 
BRANCH  19  20
ATOM     20  C   UNL     1      18.439  26.922  26.839  1.00  0.00     0.006 C 
BRANCH  20  21
ATOM     21  C   UNL     1      18.679  25.712  27.754  1.00  0.00     0.053 C 
BRANCH  21  22
ATOM     22  C   UNL     1      19.916  25.880  28.581  1.00  0.00     0.041 C 
ATOM     23  O   UNL     1      20.804  26.704  28.237  1.00  0.00    -0.550 OA
ATOM     24  O   UNL     1      20.074  25.149  29.752  1.00  0.00    -0.550 OA
ENDBRANCH  21  22
ENDBRANCH  20  21
ENDBRANCH  19  20
ENDBRANCH  18  19
ENDBRANCH  17  18
ENDBRANCH  16  17
ENDBRANCH  15  16
ENDBRANCH  14  15
ENDBRANCH  13  14
ENDBRANCH   1  13
TORSDOF 20
ENDMDL
MODEL 7
REMARK VINA RESULT:    -4.736      4.227      8.592
REMARK INTER + INTRA:         -13.174
REMARK INTER:                  -9.850
REMARK INTRA:                  -3.324
REMARK UNBOUND:                -2.900
REMARK SMILES CCCCCCCCCCCCCCCCCCCCCC(=O)[O-]
REMARK SMILES IDX 12 1 11 2 10 3 9 4 8 5 7 6 6 7 5 8 4 9 3 10 2 11 1 12 13 13
REMARK SMILES IDX 14 14 15 15 16 16 17 17 18 18 19 19 20 20 21 21 22 22 23 23
REMARK SMILES IDX 24 24
REMARK H PARENT
REMARK Flexibility Score: inf
ROOT
ATOM      1  C   UNL     1      18.366  29.649  27.995  1.00  0.00     0.000 C 
ENDROOT
BRANCH   1   2
ATOM      2  C   UNL     1      18.414  29.602  29.533  1.00  0.00     0.000 C 
BRANCH   2   3
ATOM      3  C   UNL     1      17.995  28.255  30.159  1.00  0.00     0.000 C 
BRANCH   3   4
ATOM      4  C   UNL     1      18.867  27.773  31.332  1.00  0.00    -0.000 C 
BRANCH   4   5
ATOM      5  C   UNL     1      19.879  28.831  31.804  1.00  0.00    -0.000 C 
BRANCH   5   6
ATOM      6  C   UNL     1      20.063  28.845  33.332  1.00  0.00    -0.000 C 
BRANCH   6   7
ATOM      7  C   UNL     1      18.909  28.221  34.137  1.00  0.00    -0.000 C 
BRANCH   7   8
ATOM      8  C   UNL     1      18.285  29.194  35.149  1.00  0.00    -0.000 C 
BRANCH   8   9
ATOM      9  C   UNL     1      16.869  29.602  34.718  1.00  0.00    -0.000 C 
BRANCH   9  10
ATOM     10  C   UNL     1      16.850  30.340  33.369  1.00  0.00    -0.000 C 
BRANCH  10  11
ATOM     11  C   UNL     1      17.459  31.747  33.457  1.00  0.00    -0.003 C 
ATOM     12  C   UNL     1      17.977  32.207  32.098  1.00  0.00     0.004 C 
ENDBRANCH  10  11
ENDBRANCH   9  10
ENDBRANCH   8   9
ENDBRANCH   7   8
ENDBRANCH   6   7
ENDBRANCH   5   6
ENDBRANCH   4   5
ENDBRANCH   3   4
ENDBRANCH   2   3
ENDBRANCH   1   2
BRANCH   1  13
ATOM     13  C   UNL     1      18.101  28.271  27.366  1.00  0.00     0.000 C 
BRANCH  13  14
ATOM     14  C   UNL     1      19.268  27.786  26.486  1.00  0.00     0.000 C 
BRANCH  14  15
ATOM     15  C   UNL     1      20.669  28.180  26.994  1.00  0.00     0.000 C 
BRANCH  15  16
ATOM     16  C   UNL     1      21.155  27.415  28.242  1.00  0.00     0.000 C 
BRANCH  16  17
ATOM     17  C   UNL     1      21.660  25.985  27.978  1.00  0.00     0.000 C 
BRANCH  17  18
ATOM     18  C   UNL     1      21.000  24.942  28.895  1.00  0.00     0.000 C 
BRANCH  18  19
ATOM     19  C   UNL     1      19.472  25.099  28.966  1.00  0.00     0.000 C 
BRANCH  19  20
ATOM     20  C   UNL     1      18.730  24.131  28.028  1.00  0.00     0.006 C 
BRANCH  20  21
ATOM     21  C   UNL     1      19.572  22.893  27.690  1.00  0.00     0.053 C 
BRANCH  21  22
ATOM     22  C   UNL     1      19.046  21.665  28.367  1.00  0.00     0.041 C 
ATOM     23  O   UNL     1      19.225  20.530  27.851  1.00  0.00    -0.550 OA
ATOM     24  O   UNL     1      18.387  21.770  29.585  1.00  0.00    -0.550 OA
ENDBRANCH  21  22
ENDBRANCH  20  21
ENDBRANCH  19  20
ENDBRANCH  18  19
ENDBRANCH  17  18
ENDBRANCH  16  17
ENDBRANCH  15  16
ENDBRANCH  14  15
ENDBRANCH  13  14
ENDBRANCH   1  13
TORSDOF 20
ENDMDL
MODEL 8
REMARK VINA RESULT:    -4.724      1.428      2.095
REMARK INTER + INTRA:         -13.148
REMARK INTER:                 -10.300
REMARK INTRA:                  -2.848
REMARK UNBOUND:                -2.900
REMARK SMILES CCCCCCCCCCCCCCCCCCCCCC(=O)[O-]
REMARK SMILES IDX 12 1 11 2 10 3 9 4 8 5 7 6 6 7 5 8 4 9 3 10 2 11 1 12 13 13
REMARK SMILES IDX 14 14 15 15 16 16 17 17 18 18 19 19 20 20 21 21 22 22 23 23
REMARK SMILES IDX 24 24
REMARK H PARENT
REMARK Flexibility Score: inf
ROOT
ATOM      1  C   UNL     1      19.888  27.958  32.214  1.00  0.00     0.000 C 
ENDROOT
BRANCH   1   2
ATOM      2  C   UNL     1      18.982  27.772  30.982  1.00  0.00     0.000 C 
BRANCH   2   3
ATOM      3  C   UNL     1      17.914  28.868  30.786  1.00  0.00     0.000 C 
BRANCH   3   4
ATOM      4  C   UNL     1      18.392  30.309  31.042  1.00  0.00    -0.000 C 
BRANCH   4   5
ATOM      5  C   UNL     1      18.578  31.119  29.748  1.00  0.00    -0.000 C 
BRANCH   5   6
ATOM      6  C   UNL     1      18.308  30.291  28.478  1.00  0.00    -0.000 C 
BRANCH   6   7
ATOM      7  C   UNL     1      19.555  29.942  27.647  1.00  0.00    -0.000 C 
BRANCH   7   8
ATOM      8  C   UNL     1      19.364  28.695  26.770  1.00  0.00    -0.000 C 
BRANCH   8   9
ATOM      9  C   UNL     1      18.088  27.937  27.165  1.00  0.00    -0.000 C 
BRANCH   9  10
ATOM     10  C   UNL     1      18.205  26.421  26.941  1.00  0.00    -0.000 C 
BRANCH  10  11
ATOM     11  C   UNL     1      18.485  25.651  28.240  1.00  0.00    -0.003 C 
ATOM     12  C   UNL     1      19.969  25.322  28.374  1.00  0.00     0.004 C 
ENDBRANCH  10  11
ENDBRANCH   9  10
ENDBRANCH   8   9
ENDBRANCH   7   8
ENDBRANCH   6   7
ENDBRANCH   5   6
ENDBRANCH   4   5
ENDBRANCH   3   4
ENDBRANCH   2   3
ENDBRANCH   1   2
BRANCH   1  13
ATOM     13  C   UNL     1      19.797  26.783  33.202  1.00  0.00     0.000 C 
BRANCH  13  14
ATOM     14  C   UNL     1      19.778  27.242  34.671  1.00  0.00     0.000 C 
BRANCH  14  15
ATOM     15  C   UNL     1      19.843  28.770  34.872  1.00  0.00     0.000 C 
BRANCH  15  16
ATOM     16  C   UNL     1      18.580  29.406  35.488  1.00  0.00     0.000 C 
BRANCH  16  17
ATOM     17  C   UNL     1      17.398  29.585  34.518  1.00  0.00     0.000 C 
BRANCH  17  18
ATOM     18  C   UNL     1      16.258  30.426  35.118  1.00  0.00     0.000 C 
BRANCH  18  19
ATOM     19  C   UNL     1      16.644  31.905  35.292  1.00  0.00     0.000 C 
BRANCH  19  20
ATOM     20  C   UNL     1      16.252  32.768  34.080  1.00  0.00     0.006 C 
BRANCH  20  21
ATOM     21  C   UNL     1      17.439  33.015  33.138  1.00  0.00     0.053 C 
BRANCH  21  22
ATOM     22  C   UNL     1      18.708  33.254  33.898  1.00  0.00     0.041 C 
ATOM     23  O   UNL     1      19.638  32.407  33.861  1.00  0.00    -0.550 OA
ATOM     24  O   UNL     1      18.875  34.429  34.620  1.00  0.00    -0.550 OA
ENDBRANCH  21  22
ENDBRANCH  20  21
ENDBRANCH  19  20
ENDBRANCH  18  19
ENDBRANCH  17  18
ENDBRANCH  16  17
ENDBRANCH  15  16
ENDBRANCH  14  15
ENDBRANCH  13  14
ENDBRANCH   1  13
TORSDOF 20
ENDMDL
MODEL 9
REMARK VINA RESULT:    -4.715      1.658      4.053
REMARK INTER + INTRA:         -13.127
REMARK INTER:                 -10.134
REMARK INTRA:                  -2.993
REMARK UNBOUND:                -2.900
REMARK SMILES CCCCCCCCCCCCCCCCCCCCCC(=O)[O-]
REMARK SMILES IDX 12 1 11 2 10 3 9 4 8 5 7 6 6 7 5 8 4 9 3 10 2 11 1 12 13 13
REMARK SMILES IDX 14 14 15 15 16 16 17 17 18 18 19 19 20 20 21 21 22 22 23 23
REMARK SMILES IDX 24 24
REMARK H PARENT
REMARK Flexibility Score: inf
ROOT
ATOM      1  C   UNL     1      18.477  29.729  35.350  1.00  0.00     0.000 C 
ENDROOT
BRANCH   1   2
ATOM      2  C   UNL     1      19.416  28.536  35.096  1.00  0.00     0.000 C 
BRANCH   2   3
ATOM      3  C   UNL     1      19.141  27.756  33.793  1.00  0.00     0.000 C 
BRANCH   3   4
ATOM      4  C   UNL     1      19.649  28.427  32.503  1.00  0.00    -0.000 C 
BRANCH   4   5
ATOM      5  C   UNL     1      18.780  28.103  31.276  1.00  0.00    -0.000 C 
BRANCH   5   6
ATOM      6  C   UNL     1      18.022  29.331  30.737  1.00  0.00    -0.000 C 
BRANCH   6   7
ATOM      7  C   UNL     1      18.896  30.563  30.444  1.00  0.00    -0.000 C 
BRANCH   7   8
ATOM      8  C   UNL     1      18.738  31.084  29.007  1.00  0.00    -0.000 C 
BRANCH   8   9
ATOM      9  C   UNL     1      18.334  29.951  28.054  1.00  0.00    -0.000 C 
BRANCH   9  10
ATOM     10  C   UNL     1      19.535  29.115  27.583  1.00  0.00    -0.000 C 
BRANCH  10  11
ATOM     11  C   UNL     1      19.127  27.723  27.082  1.00  0.00    -0.003 C 
ATOM     12  C   UNL     1      17.628  27.496  27.253  1.00  0.00     0.004 C 
ENDBRANCH  10  11
ENDBRANCH   9  10
ENDBRANCH   8   9
ENDBRANCH   7   8
ENDBRANCH   6   7
ENDBRANCH   5   6
ENDBRANCH   4   5
ENDBRANCH   3   4
ENDBRANCH   2   3
ENDBRANCH   1   2
BRANCH   1  13
ATOM     13  C   UNL     1      17.073  29.518  34.761  1.00  0.00     0.000 C 
BRANCH  13  14
ATOM     14  C   UNL     1      16.615  30.694  33.880  1.00  0.00     0.000 C 
BRANCH  14  15
ATOM     15  C   UNL     1      17.697  31.760  33.610  1.00  0.00     0.000 C 
BRANCH  15  16
ATOM     16  C   UNL     1      17.168  33.126  33.127  1.00  0.00     0.000 C 
BRANCH  16  17
ATOM     17  C   UNL     1      15.764  33.500  33.635  1.00  0.00     0.000 C 
BRANCH  17  18
ATOM     18  C   UNL     1      15.800  34.501  34.802  1.00  0.00     0.000 C 
BRANCH  18  19
ATOM     19  C   UNL     1      15.748  33.809  36.175  1.00  0.00     0.000 C 
BRANCH  19  20
ATOM     20  C   UNL     1      17.146  33.495  36.736  1.00  0.00     0.006 C 
BRANCH  20  21
ATOM     21  C   UNL     1      17.137  32.267  37.657  1.00  0.00     0.053 C 
BRANCH  21  22
ATOM     22  C   UNL     1      17.048  32.659  39.100  1.00  0.00     0.041 C 
ATOM     23  O   UNL     1      16.873  31.782  39.987  1.00  0.00    -0.550 OA
ATOM     24  O   UNL     1      17.191  33.991  39.469  1.00  0.00    -0.550 OA
ENDBRANCH  21  22
ENDBRANCH  20  21
ENDBRANCH  19  20
ENDBRANCH  18  19
ENDBRANCH  17  18
ENDBRANCH  16  17
ENDBRANCH  15  16
ENDBRANCH  14  15
ENDBRANCH  13  14
ENDBRANCH   1  13
TORSDOF 20
ENDMDL
