MODEL 1
REMARK VINA RESULT:    -4.215      0.000      0.000
REMARK INTER + INTRA:          -4.462
REMARK INTER:                  -4.462
REMARK INTRA:                   0.000
REMARK UNBOUND:                 0.000
REMARK SMILES O=c1ccc2cc(O)c(O)cc2o1
REMARK SMILES IDX 4 1 3 2 2 3 1 4 13 5 12 6 11 7 9 8 7 9 6 10 5 11 8 12 10 14
REMARK H PARENT 8 13 10 15
REMARK Flexibility Score: inf
ROOT
ATOM      1  C   UNL     1     105.854  96.853  24.114  1.00  0.00     0.019 A 
ATOM      2  C   UNL     1     104.668  96.141  23.942  1.00  0.00     0.094 A 
ATOM      3  C   UNL     1     104.684  94.751  24.095  1.00  0.00     0.336 A 
ATOM      4  O   UNL     1     103.623  94.090  23.944  1.00  0.00    -0.246 OA
ATOM      5  O   UNL     1     105.815  94.119  24.399  1.00  0.00    -0.423 OA
ATOM      6  C   UNL     1     106.969  94.760  24.572  1.00  0.00     0.142 A 
ATOM      7  C   UNL     1     108.126  94.044  24.890  1.00  0.00     0.098 A 
ATOM      8  C   UNL     1     109.345  94.714  25.074  1.00  0.00     0.161 A 
ATOM      9  C   UNL     1     109.403  96.113  24.936  1.00  0.00     0.158 A 
ATOM     10  C   UNL     1     108.246  96.833  24.616  1.00  0.00     0.062 A 
ATOM     11  C   UNL     1     107.028  96.165  24.434  1.00  0.00     0.022 A 
ENDROOT
BRANCH   9  12
ATOM     12  O   UNL     1     110.602  96.804  25.113  1.00  0.00    -0.504 OA
ATOM     13  H   UNL     1     111.156  97.129  24.329  1.00  0.00     0.293 HD
ENDBRANCH   9  12
BRANCH   8  14
ATOM     14  O   UNL     1     110.497  93.996  25.390  1.00  0.00    -0.504 OA
ATOM     15  H   UNL     1     110.574  93.004  25.198  1.00  0.00     0.293 HD
ENDBRANCH   8  14
TORSDOF 2
ENDMDL
MODEL 2
REMARK VINA RESULT:    -4.200      1.270      2.310
REMARK INTER + INTRA:          -4.445
REMARK INTER:                  -4.445
REMARK INTRA:                   0.000
REMARK UNBOUND:                 0.000
REMARK SMILES O=c1ccc2cc(O)c(O)cc2o1
REMARK SMILES IDX 4 1 3 2 2 3 1 4 13 5 12 6 11 7 9 8 7 9 6 10 5 11 8 12 10 14
REMARK H PARENT 8 13 10 15
REMARK Flexibility Score: inf
ROOT
ATOM      1  C   UNL     1     105.608  94.364  24.538  1.00  0.00     0.019 A 
ATOM      2  C   UNL     1     104.513  95.164  24.214  1.00  0.00     0.094 A 
ATOM      3  C   UNL     1     104.709  96.535  24.017  1.00  0.00     0.336 A 
ATOM      4  O   UNL     1     103.733  97.273  23.723  1.00  0.00    -0.246 OA
ATOM      5  O   UNL     1     105.923  97.066  24.139  1.00  0.00    -0.423 OA
ATOM      6  C   UNL     1     106.995  96.339  24.446  1.00  0.00     0.142 A 
ATOM      7  C   UNL     1     108.246  96.952  24.561  1.00  0.00     0.098 A 
ATOM      8  C   UNL     1     109.380  96.191  24.885  1.00  0.00     0.161 A 
ATOM      9  C   UNL     1     109.257  94.805  25.097  1.00  0.00     0.158 A 
ATOM     10  C   UNL     1     108.005  94.189  24.983  1.00  0.00     0.062 A 
ATOM     11  C   UNL     1     106.873  94.948  24.659  1.00  0.00     0.022 A 
ENDROOT
BRANCH   9  12
ATOM     12  O   UNL     1     110.367  94.026  25.420  1.00  0.00    -0.504 OA
ATOM     13  H   UNL     1     110.388  93.026  25.259  1.00  0.00     0.293 HD
ENDBRANCH   9  12
BRANCH   8  14
ATOM     14  O   UNL     1     110.626  96.806  24.999  1.00  0.00    -0.504 OA
ATOM     15  H   UNL     1     111.310  96.761  24.252  1.00  0.00     0.293 HD
ENDBRANCH   8  14
TORSDOF 2
ENDMDL
MODEL 3
REMARK VINA RESULT:    -3.912      2.340      3.049
REMARK INTER + INTRA:          -4.141
REMARK INTER:                  -4.141
REMARK INTRA:                   0.000
REMARK UNBOUND:                 0.000
REMARK SMILES O=c1ccc2cc(O)c(O)cc2o1
REMARK SMILES IDX 4 1 3 2 2 3 1 4 13 5 12 6 11 7 9 8 7 9 6 10 5 11 8 12 10 14
REMARK H PARENT 8 13 10 15
REMARK Flexibility Score: inf
ROOT
ATOM      1  C   UNL     1     107.251  93.694  25.148  1.00  0.00     0.019 A 
ATOM      2  C   UNL     1     106.274  94.161  26.028  1.00  0.00     0.094 A 
ATOM      3  C   UNL     1     106.369  95.471  26.512  1.00  0.00     0.336 A 
ATOM      4  O   UNL     1     105.497  95.910  27.307  1.00  0.00    -0.246 OA
ATOM      5  O   UNL     1     107.375  96.257  26.137  1.00  0.00    -0.423 OA
ATOM      6  C   UNL     1     108.327  95.851  25.300  1.00  0.00     0.142 A 
ATOM      7  C   UNL     1     109.361  96.720  24.942  1.00  0.00     0.098 A 
ATOM      8  C   UNL     1     110.367  96.298  24.059  1.00  0.00     0.161 A 
ATOM      9  C   UNL     1     110.336  94.994  23.533  1.00  0.00     0.158 A 
ATOM     10  C   UNL     1     109.302  94.120  23.890  1.00  0.00     0.062 A 
ATOM     11  C   UNL     1     108.297  94.541  24.771  1.00  0.00     0.022 A 
ENDROOT
BRANCH   9  12
ATOM     12  O   UNL     1     111.323  94.549  22.654  1.00  0.00    -0.504 OA
ATOM     13  H   UNL     1     112.164  95.085  22.473  1.00  0.00     0.293 HD
ENDBRANCH   9  12
BRANCH   8  14
ATOM     14  O   UNL     1     111.397  97.169  23.705  1.00  0.00    -0.504 OA
ATOM     15  H   UNL     1     112.279  97.179  24.204  1.00  0.00     0.293 HD
ENDBRANCH   8  14
TORSDOF 2
ENDMDL
MODEL 4
REMARK VINA RESULT:    -3.828     13.727     15.475
REMARK INTER + INTRA:          -4.052
REMARK INTER:                  -4.052
REMARK INTRA:                   0.000
REMARK UNBOUND:                 0.000
REMARK SMILES O=c1ccc2cc(O)c(O)cc2o1
REMARK SMILES IDX 4 1 3 2 2 3 1 4 13 5 12 6 11 7 9 8 7 9 6 10 5 11 8 12 10 14
REMARK H PARENT 8 13 10 15
REMARK Flexibility Score: inf
ROOT
ATOM      1  C   UNL     1     102.202  81.775  19.932  1.00  0.00     0.019 A 
ATOM      2  C   UNL     1     101.808  82.888  20.675  1.00  0.00     0.094 A 
ATOM      3  C   UNL     1     101.850  84.152  20.077  1.00  0.00     0.336 A 
ATOM      4  O   UNL     1     101.499  85.168  20.732  1.00  0.00    -0.246 OA
ATOM      5  O   UNL     1     102.261  84.289  18.819  1.00  0.00    -0.423 OA
ATOM      6  C   UNL     1     102.645  83.254  18.074  1.00  0.00     0.142 A 
ATOM      7  C   UNL     1     103.067  83.459  16.758  1.00  0.00     0.098 A 
ATOM      8  C   UNL     1     103.473  82.372  15.968  1.00  0.00     0.161 A 
ATOM      9  C   UNL     1     103.456  81.072  16.503  1.00  0.00     0.158 A 
ATOM     10  C   UNL     1     103.035  80.864  17.822  1.00  0.00     0.062 A 
ATOM     11  C   UNL     1     102.629  81.948  18.611  1.00  0.00     0.022 A 
ENDROOT
BRANCH   9  12
ATOM     12  O   UNL     1     103.855  79.974  15.741  1.00  0.00    -0.504 OA
ATOM     13  H   UNL     1     104.098  80.060  14.761  1.00  0.00     0.293 HD
ENDBRANCH   9  12
BRANCH   8  14
ATOM     14  O   UNL     1     103.893  82.580  14.655  1.00  0.00    -0.504 OA
ATOM     15  H   UNL     1     103.330  83.102  13.994  1.00  0.00     0.293 HD
ENDBRANCH   8  14
TORSDOF 2
ENDMDL
MODEL 5
REMARK VINA RESULT:    -3.772      1.825      2.050
REMARK INTER + INTRA:          -3.992
REMARK INTER:                  -3.992
REMARK INTRA:                   0.000
REMARK UNBOUND:                 0.000
REMARK SMILES O=c1ccc2cc(O)c(O)cc2o1
REMARK SMILES IDX 4 1 3 2 2 3 1 4 13 5 12 6 11 7 9 8 7 9 6 10 5 11 8 12 10 14
REMARK H PARENT 8 13 10 15
REMARK Flexibility Score: inf
ROOT
ATOM      1  C   UNL     1     106.950  95.672  21.684  1.00  0.00     0.019 A 
ATOM      2  C   UNL     1     105.637  95.946  22.067  1.00  0.00     0.094 A 
ATOM      3  C   UNL     1     105.268  95.756  23.403  1.00  0.00     0.336 A 
ATOM      4  O   UNL     1     104.088  95.999  23.769  1.00  0.00    -0.246 OA
ATOM      5  O   UNL     1     106.157  95.320  24.293  1.00  0.00    -0.423 OA
ATOM      6  C   UNL     1     107.419  95.047  23.969  1.00  0.00     0.142 A 
ATOM      7  C   UNL     1     108.308  94.591  24.946  1.00  0.00     0.098 A 
ATOM      8  C   UNL     1     109.640  94.301  24.611  1.00  0.00     0.161 A 
ATOM      9  C   UNL     1     110.081  94.469  23.286  1.00  0.00     0.158 A 
ATOM     10  C   UNL     1     109.192  94.925  22.305  1.00  0.00     0.062 A 
ATOM     11  C   UNL     1     107.863  95.215  22.639  1.00  0.00     0.022 A 
ENDROOT
BRANCH   9  12
ATOM     12  O   UNL     1     111.399  94.188  22.926  1.00  0.00    -0.504 OA
ATOM     13  H   UNL     1     111.950  93.485  23.404  1.00  0.00     0.293 HD
ENDBRANCH   9  12
BRANCH   8  14
ATOM     14  O   UNL     1     110.524  93.847  25.588  1.00  0.00    -0.504 OA
ATOM     15  H   UNL     1     111.237  94.451  25.981  1.00  0.00     0.293 HD
ENDBRANCH   8  14
TORSDOF 2
ENDMDL
MODEL 6
REMARK VINA RESULT:    -3.756     13.425     14.991
REMARK INTER + INTRA:          -3.976
REMARK INTER:                  -3.976
REMARK INTRA:                   0.000
REMARK UNBOUND:                 0.000
REMARK SMILES O=c1ccc2cc(O)c(O)cc2o1
REMARK SMILES IDX 4 1 3 2 2 3 1 4 13 5 12 6 11 7 9 8 7 9 6 10 5 11 8 12 10 14
REMARK H PARENT 8 13 10 15
REMARK Flexibility Score: inf
ROOT
ATOM      1  C   UNL     1     104.381  84.629  19.020  1.00  0.00     0.019 A 
ATOM      2  C   UNL     1     104.300  84.501  20.406  1.00  0.00     0.094 A 
ATOM      3  C   UNL     1     103.917  83.271  20.952  1.00  0.00     0.336 A 
ATOM      4  O   UNL     1     103.839  83.135  22.201  1.00  0.00    -0.246 OA
ATOM      5  O   UNL     1     103.633  82.241  20.158  1.00  0.00    -0.423 OA
ATOM      6  C   UNL     1     103.697  82.321  18.831  1.00  0.00     0.142 A 
ATOM      7  C   UNL     1     103.387  81.205  18.047  1.00  0.00     0.098 A 
ATOM      8  C   UNL     1     103.453  81.283  16.648  1.00  0.00     0.161 A 
ATOM      9  C   UNL     1     103.832  82.489  16.030  1.00  0.00     0.158 A 
ATOM     10  C   UNL     1     104.142  83.608  16.812  1.00  0.00     0.062 A 
ATOM     11  C   UNL     1     104.077  83.531  18.210  1.00  0.00     0.022 A 
ENDROOT
BRANCH   9  12
ATOM     12  O   UNL     1     103.905  82.594  14.642  1.00  0.00    -0.504 OA
ATOM     13  H   UNL     1     104.784  82.518  14.142  1.00  0.00     0.293 HD
ENDBRANCH   9  12
BRANCH   8  14
ATOM     14  O   UNL     1     103.143  80.169  15.870  1.00  0.00    -0.504 OA
ATOM     15  H   UNL     1     103.862  79.638  15.393  1.00  0.00     0.293 HD
ENDBRANCH   8  14
TORSDOF 2
ENDMDL
MODEL 7
REMARK VINA RESULT:    -3.698     13.512     14.969
REMARK INTER + INTRA:          -3.914
REMARK INTER:                  -3.914
REMARK INTRA:                   0.000
REMARK UNBOUND:                 0.000
REMARK SMILES O=c1ccc2cc(O)c(O)cc2o1
REMARK SMILES IDX 4 1 3 2 2 3 1 4 13 5 12 6 11 7 9 8 7 9 6 10 5 11 8 12 10 14
REMARK H PARENT 8 13 10 15
REMARK Flexibility Score: inf
ROOT
ATOM      1  C   UNL     1     103.166  81.997  18.963  1.00  0.00     0.019 A 
ATOM      2  C   UNL     1     103.735  82.131  20.229  1.00  0.00     0.094 A 
ATOM      3  C   UNL     1     104.961  82.793  20.354  1.00  0.00     0.336 A 
ATOM      4  O   UNL     1     105.490  82.924  21.489  1.00  0.00    -0.246 OA
ATOM      5  O   UNL     1     105.573  83.288  19.281  1.00  0.00    -0.423 OA
ATOM      6  C   UNL     1     105.064  83.183  18.055  1.00  0.00     0.142 A 
ATOM      7  C   UNL     1     105.752  83.722  16.964  1.00  0.00     0.098 A 
ATOM      8  C   UNL     1     105.221  83.614  15.670  1.00  0.00     0.161 A 
ATOM      9  C   UNL     1     103.992  82.961  15.469  1.00  0.00     0.158 A 
ATOM     10  C   UNL     1     103.301  82.419  16.559  1.00  0.00     0.062 A 
ATOM     11  C   UNL     1     103.830  82.527  17.852  1.00  0.00     0.022 A 
ENDROOT
BRANCH   9  12
ATOM     12  O   UNL     1     103.442  82.840  14.193  1.00  0.00    -0.504 OA
ATOM     13  H   UNL     1     103.022  83.626  13.710  1.00  0.00     0.293 HD
ENDBRANCH   9  12
BRANCH   8  14
ATOM     14  O   UNL     1     105.910  84.153  14.585  1.00  0.00    -0.504 OA
ATOM     15  H   UNL     1     106.109  83.603  13.756  1.00  0.00     0.293 HD
ENDBRANCH   8  14
TORSDOF 2
ENDMDL
MODEL 8
REMARK VINA RESULT:    -3.679     14.006     15.545
REMARK INTER + INTRA:          -3.894
REMARK INTER:                  -3.894
REMARK INTRA:                   0.000
REMARK UNBOUND:                 0.000
REMARK SMILES O=c1ccc2cc(O)c(O)cc2o1
REMARK SMILES IDX 4 1 3 2 2 3 1 4 13 5 12 6 11 7 9 8 7 9 6 10 5 11 8 12 10 14
REMARK H PARENT 8 13 10 15
REMARK Flexibility Score: inf
ROOT
ATOM      1  C   UNL     1     103.629  80.961  20.620  1.00  0.00     0.019 A 
ATOM      2  C   UNL     1     104.223  81.668  21.665  1.00  0.00     0.094 A 
ATOM      3  C   UNL     1     105.169  82.654  21.363  1.00  0.00     0.336 A 
ATOM      4  O   UNL     1     105.716  83.304  22.293  1.00  0.00    -0.246 OA
ATOM      5  O   UNL     1     105.496  82.912  20.099  1.00  0.00    -0.423 OA
ATOM      6  C   UNL     1     104.952  82.260  19.073  1.00  0.00     0.142 A 
ATOM      7  C   UNL     1     105.335  82.573  17.765  1.00  0.00     0.098 A 
ATOM      8  C   UNL     1     104.765  81.890  16.679  1.00  0.00     0.161 A 
ATOM      9  C   UNL     1     103.807  80.886  16.907  1.00  0.00     0.158 A 
ATOM     10  C   UNL     1     103.423  80.570  18.216  1.00  0.00     0.062 A 
ATOM     11  C   UNL     1     103.990  81.252  19.301  1.00  0.00     0.022 A 
ENDROOT
BRANCH   9  12
ATOM     12  O   UNL     1     103.226  80.192  15.846  1.00  0.00    -0.504 OA
ATOM     13  H   UNL     1     102.774  79.294  15.974  1.00  0.00     0.293 HD
ENDBRANCH   9  12
BRANCH   8  14
ATOM     14  O   UNL     1     105.150  82.205  15.377  1.00  0.00    -0.504 OA
ATOM     15  H   UNL     1     105.186  81.500  14.649  1.00  0.00     0.293 HD
ENDBRANCH   8  14
TORSDOF 2
ENDMDL
MODEL 9
REMARK VINA RESULT:    -3.614      3.573      4.201
REMARK INTER + INTRA:          -3.825
REMARK INTER:                  -3.825
REMARK INTRA:                   0.000
REMARK UNBOUND:                 0.000
REMARK SMILES O=c1ccc2cc(O)c(O)cc2o1
REMARK SMILES IDX 4 1 3 2 2 3 1 4 13 5 12 6 11 7 9 8 7 9 6 10 5 11 8 12 10 14
REMARK H PARENT 8 13 10 15
REMARK Flexibility Score: inf
ROOT
ATOM      1  C   UNL     1     107.568  95.249  21.035  1.00  0.00     0.019 A 
ATOM      2  C   UNL     1     108.097  94.922  19.787  1.00  0.00     0.094 A 
ATOM      3  C   UNL     1     109.325  94.255  19.724  1.00  0.00     0.336 A 
ATOM      4  O   UNL     1     109.818  93.952  18.607  1.00  0.00    -0.246 OA
ATOM      5  O   UNL     1     109.978  93.939  20.840  1.00  0.00    -0.423 OA
ATOM      6  C   UNL     1     109.509  94.231  22.051  1.00  0.00     0.142 A 
ATOM      7  C   UNL     1     110.238  93.874  23.189  1.00  0.00     0.098 A 
ATOM      8  C   UNL     1     109.749  94.180  24.468  1.00  0.00     0.161 A 
ATOM      9  C   UNL     1     108.520  94.849  24.607  1.00  0.00     0.158 A 
ATOM     10  C   UNL     1     107.787  95.209  23.469  1.00  0.00     0.062 A 
ATOM     11  C   UNL     1     108.275  94.904  22.192  1.00  0.00     0.022 A 
ENDROOT
BRANCH   9  12
ATOM     12  O   UNL     1     108.011  95.165  25.866  1.00  0.00    -0.504 OA
ATOM     13  H   UNL     1     107.273  94.623  26.300  1.00  0.00     0.293 HD
ENDBRANCH   9  12
BRANCH   8  14
ATOM     14  O   UNL     1     110.480  93.822  25.600  1.00  0.00    -0.504 OA
ATOM     15  H   UNL     1     111.487  93.710  25.568  1.00  0.00     0.293 HD
ENDBRANCH   8  14
TORSDOF 2
ENDMDL
