MODEL 1
REMARK VINA RESULT:    -5.395      0.000      0.000
REMARK INTER + INTRA:         -15.323
REMARK INTER:                 -12.334
REMARK INTRA:                  -2.989
REMARK UNBOUND:                -2.989
REMARK SMILES CCCCCCCCCCCCCCCCCCCCCCCC(=O)[O-]
REMARK SMILES IDX 13 1 14 2 15 3 16 4 17 5 18 6 19 7 20 8 21 9 22 10 23 11
REMARK SMILES IDX 24 12 25 13 26 14 12 15 11 16 10 17 9 18 8 19 7 20 6 21 5 22
REMARK SMILES IDX 4 23 3 24 2 25 1 26
REMARK H PARENT
REMARK Flexibility Score: inf
ROOT
ATOM      1  C   UNL     1      14.825  30.532  59.506  1.00  0.00     0.000 C 
ENDROOT
BRANCH   1   2
ATOM      2  C   UNL     1      16.260  30.513  60.056  1.00  0.00     0.000 C 
BRANCH   2   3
ATOM      3  C   UNL     1      16.477  29.424  61.119  1.00  0.00     0.000 C 
BRANCH   3   4
ATOM      4  C   UNL     1      16.495  29.982  62.553  1.00  0.00     0.000 C 
BRANCH   4   5
ATOM      5  C   UNL     1      15.370  29.472  63.473  1.00  0.00     0.000 C 
BRANCH   5   6
ATOM      6  C   UNL     1      14.823  28.100  63.044  1.00  0.00     0.000 C 
BRANCH   6   7
ATOM      7  C   UNL     1      13.460  28.199  62.338  1.00  0.00     0.000 C 
BRANCH   7   8
ATOM      8  C   UNL     1      12.889  29.627  62.348  1.00  0.00     0.000 C 
BRANCH   8   9
ATOM      9  C   UNL     1      11.529  29.676  61.635  1.00  0.00     0.000 C 
BRANCH   9  10
ATOM     10  C   UNL     1      11.530  28.917  60.299  1.00  0.00     0.006 C 
BRANCH  10  11
ATOM     11  C   UNL     1      10.729  29.635  59.207  1.00  0.00     0.053 C 
BRANCH  11  12
ATOM     12  C   UNL     1       9.269  29.620  59.533  1.00  0.00     0.041 C 
ATOM     13  O   UNL     1       8.714  28.555  59.912  1.00  0.00    -0.550 OA
ATOM     14  O   UNL     1       8.530  30.795  59.466  1.00  0.00    -0.550 OA
ENDBRANCH  11  12
ENDBRANCH  10  11
ENDBRANCH   9  10
ENDBRANCH   8   9
ENDBRANCH   7   8
ENDBRANCH   6   7
ENDBRANCH   5   6
ENDBRANCH   4   5
ENDBRANCH   3   4
ENDBRANCH   2   3
ENDBRANCH   1   2
BRANCH   1  15
ATOM     15  C   UNL     1      14.679  29.756  58.188  1.00  0.00     0.000 C 
BRANCH  15  16
ATOM     16  C   UNL     1      14.103  30.654  57.082  1.00  0.00     0.000 C 
BRANCH  16  17
ATOM     17  C   UNL     1      14.666  30.320  55.689  1.00  0.00     0.000 C 
BRANCH  17  18
ATOM     18  C   UNL     1      16.168  30.615  55.507  1.00  0.00    -0.000 C 
BRANCH  18  19
ATOM     19  C   UNL     1      16.546  32.110  55.497  1.00  0.00    -0.000 C 
BRANCH  19  20
ATOM     20  C   UNL     1      17.166  32.628  56.807  1.00  0.00    -0.000 C 
BRANCH  20  21
ATOM     21  C   UNL     1      16.297  33.696  57.495  1.00  0.00    -0.000 C 
BRANCH  21  22
ATOM     22  C   UNL     1      15.231  34.294  56.558  1.00  0.00    -0.000 C 
BRANCH  22  23
ATOM     23  C   UNL     1      15.546  35.706  56.031  1.00  0.00    -0.000 C 
BRANCH  23  24
ATOM     24  C   UNL     1      16.919  36.226  56.491  1.00  0.00    -0.000 C 
BRANCH  24  25
ATOM     25  C   UNL     1      16.810  37.503  57.338  1.00  0.00    -0.003 C 
ATOM     26  C   UNL     1      17.717  38.624  56.835  1.00  0.00     0.004 C 
ENDBRANCH  24  25
ENDBRANCH  23  24
ENDBRANCH  22  23
ENDBRANCH  21  22
ENDBRANCH  20  21
ENDBRANCH  19  20
ENDBRANCH  18  19
ENDBRANCH  17  18
ENDBRANCH  16  17
ENDBRANCH  15  16
ENDBRANCH   1  15
TORSDOF 22
ENDMDL
MODEL 2
REMARK VINA RESULT:    -5.047      1.359      2.950
REMARK INTER + INTRA:         -14.528
REMARK INTER:                 -10.978
REMARK INTRA:                  -3.550
REMARK UNBOUND:                -2.989
REMARK SMILES CCCCCCCCCCCCCCCCCCCCCCCC(=O)[O-]
REMARK SMILES IDX 13 1 14 2 15 3 16 4 17 5 18 6 19 7 20 8 21 9 22 10 23 11
REMARK SMILES IDX 24 12 25 13 26 14 12 15 11 16 10 17 9 18 8 19 7 20 6 21 5 22
REMARK SMILES IDX 4 23 3 24 2 25 1 26
REMARK H PARENT
REMARK Flexibility Score: inf
ROOT
ATOM      1  C   UNL     1      17.481  32.143  57.208  1.00  0.00     0.000 C 
ENDROOT
BRANCH   1   2
ATOM      2  C   UNL     1      16.309  33.086  57.518  1.00  0.00     0.000 C 
BRANCH   2   3
ATOM      3  C   UNL     1      15.225  32.426  58.387  1.00  0.00     0.000 C 
BRANCH   3   4
ATOM      4  C   UNL     1      14.691  31.114  57.784  1.00  0.00     0.000 C 
BRANCH   4   5
ATOM      5  C   UNL     1      14.860  29.865  58.669  1.00  0.00     0.000 C 
BRANCH   5   6
ATOM      6  C   UNL     1      15.725  30.127  59.914  1.00  0.00     0.000 C 
BRANCH   6   7
ATOM      7  C   UNL     1      15.004  29.767  61.223  1.00  0.00     0.000 C 
BRANCH   7   8
ATOM      8  C   UNL     1      13.492  30.039  61.164  1.00  0.00     0.000 C 
BRANCH   8   9
ATOM      9  C   UNL     1      12.694  28.759  61.449  1.00  0.00     0.000 C 
BRANCH   9  10
ATOM     10  C   UNL     1      11.645  28.459  60.366  1.00  0.00     0.006 C 
BRANCH  10  11
ATOM     11  C   UNL     1      11.230  29.708  59.579  1.00  0.00     0.053 C 
BRANCH  11  12
ATOM     12  C   UNL     1       9.763  29.680  59.288  1.00  0.00     0.041 C 
ATOM     13  O   UNL     1       9.352  29.513  58.109  1.00  0.00    -0.550 OA
ATOM     14  O   UNL     1       8.846  29.791  60.327  1.00  0.00    -0.550 OA
ENDBRANCH  11  12
ENDBRANCH  10  11
ENDBRANCH   9  10
ENDBRANCH   8   9
ENDBRANCH   7   8
ENDBRANCH   6   7
ENDBRANCH   5   6
ENDBRANCH   4   5
ENDBRANCH   3   4
ENDBRANCH   2   3
ENDBRANCH   1   2
BRANCH   1  15
ATOM     15  C   UNL     1      18.366  32.646  56.056  1.00  0.00     0.000 C 
BRANCH  15  16
ATOM     16  C   UNL     1      17.735  32.315  54.695  1.00  0.00     0.000 C 
BRANCH  16  17
ATOM     17  C   UNL     1      17.098  30.915  54.657  1.00  0.00     0.000 C 
BRANCH  17  18
ATOM     18  C   UNL     1      15.636  30.879  54.169  1.00  0.00    -0.000 C 
BRANCH  18  19
ATOM     19  C   UNL     1      15.035  32.249  53.796  1.00  0.00    -0.000 C 
BRANCH  19  20
ATOM     20  C   UNL     1      13.866  32.705  54.686  1.00  0.00    -0.000 C 
BRANCH  20  21
ATOM     21  C   UNL     1      13.742  34.236  54.765  1.00  0.00    -0.000 C 
BRANCH  21  22
ATOM     22  C   UNL     1      15.104  34.951  54.706  1.00  0.00    -0.000 C 
BRANCH  22  23
ATOM     23  C   UNL     1      15.250  36.155  55.655  1.00  0.00    -0.000 C 
BRANCH  23  24
ATOM     24  C   UNL     1      16.704  36.398  56.098  1.00  0.00    -0.000 C 
BRANCH  24  25
ATOM     25  C   UNL     1      16.813  37.474  57.189  1.00  0.00    -0.003 C 
ATOM     26  C   UNL     1      17.931  38.479  56.916  1.00  0.00     0.004 C 
ENDBRANCH  24  25
ENDBRANCH  23  24
ENDBRANCH  22  23
ENDBRANCH  21  22
ENDBRANCH  20  21
ENDBRANCH  19  20
ENDBRANCH  18  19
ENDBRANCH  17  18
ENDBRANCH  16  17
ENDBRANCH  15  16
ENDBRANCH   1  15
TORSDOF 22
ENDMDL
MODEL 3
REMARK VINA RESULT:    -5.041      1.019      1.668
REMARK INTER + INTRA:         -14.513
REMARK INTER:                 -11.528
REMARK INTRA:                  -2.985
REMARK UNBOUND:                -2.989
REMARK SMILES CCCCCCCCCCCCCCCCCCCCCCCC(=O)[O-]
REMARK SMILES IDX 13 1 14 2 15 3 16 4 17 5 18 6 19 7 20 8 21 9 22 10 23 11
REMARK SMILES IDX 24 12 25 13 26 14 12 15 11 16 10 17 9 18 8 19 7 20 6 21 5 22
REMARK SMILES IDX 4 23 3 24 2 25 1 26
REMARK H PARENT
REMARK Flexibility Score: inf
ROOT
ATOM      1  C   UNL     1      14.001  31.085  58.372  1.00  0.00     0.000 C 
ENDROOT
BRANCH   1   2
ATOM      2  C   UNL     1      15.507  30.903  58.618  1.00  0.00     0.000 C 
BRANCH   2   3
ATOM      3  C   UNL     1      15.811  30.104  59.896  1.00  0.00     0.000 C 
BRANCH   3   4
ATOM      4  C   UNL     1      17.000  30.673  60.690  1.00  0.00     0.000 C 
BRANCH   4   5
ATOM      5  C   UNL     1      17.240  30.030  62.068  1.00  0.00     0.000 C 
BRANCH   5   6
ATOM      6  C   UNL     1      16.546  28.666  62.221  1.00  0.00     0.000 C 
BRANCH   6   7
ATOM      7  C   UNL     1      15.361  28.711  63.200  1.00  0.00     0.000 C 
BRANCH   7   8
ATOM      8  C   UNL     1      14.053  28.198  62.575  1.00  0.00     0.000 C 
BRANCH   8   9
ATOM      9  C   UNL     1      13.191  29.366  62.073  1.00  0.00     0.000 C 
BRANCH   9  10
ATOM     10  C   UNL     1      12.278  28.970  60.903  1.00  0.00     0.006 C 
BRANCH  10  11
ATOM     11  C   UNL     1      10.875  29.580  61.011  1.00  0.00     0.053 C 
BRANCH  11  12
ATOM     12  C   UNL     1      10.133  29.419  59.722  1.00  0.00     0.041 C 
ATOM     13  O   UNL     1       9.142  28.646  59.651  1.00  0.00    -0.550 OA
ATOM     14  O   UNL     1      10.509  30.161  58.608  1.00  0.00    -0.550 OA
ENDBRANCH  11  12
ENDBRANCH  10  11
ENDBRANCH   9  10
ENDBRANCH   8   9
ENDBRANCH   7   8
ENDBRANCH   6   7
ENDBRANCH   5   6
ENDBRANCH   4   5
ENDBRANCH   3   4
ENDBRANCH   2   3
ENDBRANCH   1   2
BRANCH   1  15
ATOM     15  C   UNL     1      13.651  31.222  56.882  1.00  0.00     0.000 C 
BRANCH  15  16
ATOM     16  C   UNL     1      14.501  30.269  56.028  1.00  0.00     0.000 C 
BRANCH  16  17
ATOM     17  C   UNL     1      14.700  30.777  54.589  1.00  0.00     0.000 C 
BRANCH  17  18
ATOM     18  C   UNL     1      16.141  31.201  54.242  1.00  0.00    -0.000 C 
BRANCH  18  19
ATOM     19  C   UNL     1      17.234  30.627  55.167  1.00  0.00    -0.000 C 
BRANCH  19  20
ATOM     20  C   UNL     1      17.924  31.663  56.072  1.00  0.00    -0.000 C 
BRANCH  20  21
ATOM     21  C   UNL     1      17.624  33.113  55.652  1.00  0.00    -0.000 C 
BRANCH  21  22
ATOM     22  C   UNL     1      16.787  33.877  56.694  1.00  0.00    -0.000 C 
BRANCH  22  23
ATOM     23  C   UNL     1      15.488  34.502  56.154  1.00  0.00    -0.000 C 
BRANCH  23  24
ATOM     24  C   UNL     1      15.476  36.038  56.247  1.00  0.00    -0.000 C 
BRANCH  24  25
ATOM     25  C   UNL     1      16.886  36.626  56.410  1.00  0.00    -0.003 C 
ATOM     26  C   UNL     1      16.919  37.827  57.355  1.00  0.00     0.004 C 
ENDBRANCH  24  25
ENDBRANCH  23  24
ENDBRANCH  22  23
ENDBRANCH  21  22
ENDBRANCH  20  21
ENDBRANCH  19  20
ENDBRANCH  18  19
ENDBRANCH  17  18
ENDBRANCH  16  17
ENDBRANCH  15  16
ENDBRANCH   1  15
TORSDOF 22
ENDMDL
MODEL 4
REMARK VINA RESULT:    -4.986      2.575      4.255
REMARK INTER + INTRA:         -14.387
REMARK INTER:                 -10.748
REMARK INTRA:                  -3.639
REMARK UNBOUND:                -2.989
REMARK SMILES CCCCCCCCCCCCCCCCCCCCCCCC(=O)[O-]
REMARK SMILES IDX 13 1 14 2 15 3 16 4 17 5 18 6 19 7 20 8 21 9 22 10 23 11
REMARK SMILES IDX 24 12 25 13 26 14 12 15 11 16 10 17 9 18 8 19 7 20 6 21 5 22
REMARK SMILES IDX 4 23 3 24 2 25 1 26
REMARK H PARENT
REMARK Flexibility Score: inf
ROOT
ATOM      1  C   UNL     1      17.496  32.409  57.489  1.00  0.00     0.000 C 
ENDROOT
BRANCH   1   2
ATOM      2  C   UNL     1      16.315  33.346  57.786  1.00  0.00     0.000 C 
BRANCH   2   3
ATOM      3  C   UNL     1      15.023  32.588  58.131  1.00  0.00     0.000 C 
BRANCH   3   4
ATOM      4  C   UNL     1      15.278  31.128  58.548  1.00  0.00     0.000 C 
BRANCH   4   5
ATOM      5  C   UNL     1      14.270  30.101  58.002  1.00  0.00     0.000 C 
BRANCH   5   6
ATOM      6  C   UNL     1      12.819  30.611  58.037  1.00  0.00     0.000 C 
BRANCH   6   7
ATOM      7  C   UNL     1      12.208  30.565  59.447  1.00  0.00     0.000 C 
BRANCH   7   8
ATOM      8  C   UNL     1      11.408  29.278  59.706  1.00  0.00     0.000 C 
BRANCH   8   9
ATOM      9  C   UNL     1      12.182  28.329  60.633  1.00  0.00     0.000 C 
BRANCH   9  10
ATOM     10  C   UNL     1      13.192  29.066  61.528  1.00  0.00     0.006 C 
BRANCH  10  11
ATOM     11  C   UNL     1      13.884  28.137  62.532  1.00  0.00     0.053 C 
BRANCH  11  12
ATOM     12  C   UNL     1      15.248  28.652  62.868  1.00  0.00     0.041 C 
ATOM     13  O   UNL     1      15.529  28.984  64.050  1.00  0.00    -0.550 OA
ATOM     14  O   UNL     1      16.226  28.721  61.882  1.00  0.00    -0.550 OA
ENDBRANCH  11  12
ENDBRANCH  10  11
ENDBRANCH   9  10
ENDBRANCH   8   9
ENDBRANCH   7   8
ENDBRANCH   6   7
ENDBRANCH   5   6
ENDBRANCH   4   5
ENDBRANCH   3   4
ENDBRANCH   2   3
ENDBRANCH   1   2
BRANCH   1  15
ATOM     15  C   UNL     1      17.867  32.367  55.998  1.00  0.00     0.000 C 
BRANCH  15  16
ATOM     16  C   UNL     1      17.112  31.241  55.276  1.00  0.00     0.000 C 
BRANCH  16  17
ATOM     17  C   UNL     1      16.147  31.766  54.198  1.00  0.00     0.000 C 
BRANCH  17  18
ATOM     18  C   UNL     1      14.654  31.500  54.476  1.00  0.00    -0.000 C 
BRANCH  18  19
ATOM     19  C   UNL     1      13.830  32.742  54.872  1.00  0.00    -0.000 C 
BRANCH  19  20
ATOM     20  C   UNL     1      14.004  33.956  53.943  1.00  0.00    -0.000 C 
BRANCH  20  21
ATOM     21  C   UNL     1      13.593  35.280  54.611  1.00  0.00    -0.000 C 
BRANCH  21  22
ATOM     22  C   UNL     1      14.769  35.989  55.308  1.00  0.00    -0.000 C 
BRANCH  22  23
ATOM     23  C   UNL     1      16.164  35.611  54.777  1.00  0.00    -0.000 C 
BRANCH  23  24
ATOM     24  C   UNL     1      17.308  36.201  55.621  1.00  0.00    -0.000 C 
BRANCH  24  25
ATOM     25  C   UNL     1      16.794  37.004  56.826  1.00  0.00    -0.003 C 
ATOM     26  C   UNL     1      17.527  38.333  57.004  1.00  0.00     0.004 C 
ENDBRANCH  24  25
ENDBRANCH  23  24
ENDBRANCH  22  23
ENDBRANCH  21  22
ENDBRANCH  20  21
ENDBRANCH  19  20
ENDBRANCH  18  19
ENDBRANCH  17  18
ENDBRANCH  16  17
ENDBRANCH  15  16
ENDBRANCH   1  15
TORSDOF 22
ENDMDL
MODEL 5
REMARK VINA RESULT:    -4.961      1.580      3.313
REMARK INTER + INTRA:         -14.330
REMARK INTER:                 -10.690
REMARK INTRA:                  -3.640
REMARK UNBOUND:                -2.989
REMARK SMILES CCCCCCCCCCCCCCCCCCCCCCCC(=O)[O-]
REMARK SMILES IDX 13 1 14 2 15 3 16 4 17 5 18 6 19 7 20 8 21 9 22 10 23 11
REMARK SMILES IDX 24 12 25 13 26 14 12 15 11 16 10 17 9 18 8 19 7 20 6 21 5 22
REMARK SMILES IDX 4 23 3 24 2 25 1 26
REMARK H PARENT
REMARK Flexibility Score: inf
ROOT
ATOM      1  C   UNL     1      14.578  30.318  56.755  1.00  0.00     0.000 C 
ENDROOT
BRANCH   1   2
ATOM      2  C   UNL     1      13.764  31.180  57.732  1.00  0.00     0.000 C 
BRANCH   2   3
ATOM      3  C   UNL     1      14.205  31.004  59.195  1.00  0.00     0.000 C 
BRANCH   3   4
ATOM      4  C   UNL     1      15.371  30.010  59.353  1.00  0.00     0.000 C 
BRANCH   4   5
ATOM      5  C   UNL     1      15.893  29.831  60.790  1.00  0.00     0.000 C 
BRANCH   5   6
ATOM      6  C   UNL     1      14.785  29.959  61.849  1.00  0.00     0.000 C 
BRANCH   6   7
ATOM      7  C   UNL     1      14.514  28.637  62.586  1.00  0.00     0.000 C 
BRANCH   7   8
ATOM      8  C   UNL     1      13.178  27.994  62.179  1.00  0.00     0.000 C 
BRANCH   8   9
ATOM      9  C   UNL     1      12.241  29.032  61.544  1.00  0.00     0.000 C 
BRANCH   9  10
ATOM     10  C   UNL     1      11.638  28.554  60.214  1.00  0.00     0.006 C 
BRANCH  10  11
ATOM     11  C   UNL     1      10.902  29.669  59.461  1.00  0.00     0.053 C 
BRANCH  11  12
ATOM     12  C   UNL     1       9.441  29.638  59.779  1.00  0.00     0.041 C 
ATOM     13  O   UNL     1       8.929  28.621  60.318  1.00  0.00    -0.550 OA
ATOM     14  O   UNL     1       8.650  30.753  59.523  1.00  0.00    -0.550 OA
ENDBRANCH  11  12
ENDBRANCH  10  11
ENDBRANCH   9  10
ENDBRANCH   8   9
ENDBRANCH   7   8
ENDBRANCH   6   7
ENDBRANCH   5   6
ENDBRANCH   4   5
ENDBRANCH   3   4
ENDBRANCH   2   3
ENDBRANCH   1   2
BRANCH   1  15
ATOM     15  C   UNL     1      14.104  30.453  55.300  1.00  0.00     0.000 C 
BRANCH  15  16
ATOM     16  C   UNL     1      15.287  30.734  54.360  1.00  0.00     0.000 C 
BRANCH  16  17
ATOM     17  C   UNL     1      15.371  32.210  53.932  1.00  0.00     0.000 C 
BRANCH  17  18
ATOM     18  C   UNL     1      14.278  33.121  54.524  1.00  0.00    -0.000 C 
BRANCH  18  19
ATOM     19  C   UNL     1      14.794  34.392  55.228  1.00  0.00    -0.000 C 
BRANCH  19  20
ATOM     20  C   UNL     1      15.246  34.186  56.684  1.00  0.00    -0.000 C 
BRANCH  20  21
ATOM     21  C   UNL     1      16.764  33.971  56.811  1.00  0.00    -0.000 C 
BRANCH  21  22
ATOM     22  C   UNL     1      17.127  32.590  57.388  1.00  0.00    -0.000 C 
BRANCH  22  23
ATOM     23  C   UNL     1      18.527  32.074  57.009  1.00  0.00    -0.000 C 
BRANCH  23  24
ATOM     24  C   UNL     1      19.017  32.607  55.651  1.00  0.00    -0.000 C 
BRANCH  24  25
ATOM     25  C   UNL     1      18.886  31.565  54.530  1.00  0.00    -0.003 C 
ATOM     26  C   UNL     1      19.497  30.216  54.905  1.00  0.00     0.004 C 
ENDBRANCH  24  25
ENDBRANCH  23  24
ENDBRANCH  22  23
ENDBRANCH  21  22
ENDBRANCH  20  21
ENDBRANCH  19  20
ENDBRANCH  18  19
ENDBRANCH  17  18
ENDBRANCH  16  17
ENDBRANCH  15  16
ENDBRANCH   1  15
TORSDOF 22
ENDMDL
MODEL 6
REMARK VINA RESULT:    -4.918      1.385      2.535
REMARK INTER + INTRA:         -14.233
REMARK INTER:                 -10.630
REMARK INTRA:                  -3.603
REMARK UNBOUND:                -2.989
REMARK SMILES CCCCCCCCCCCCCCCCCCCCCCCC(=O)[O-]
REMARK SMILES IDX 13 1 14 2 15 3 16 4 17 5 18 6 19 7 20 8 21 9 22 10 23 11
REMARK SMILES IDX 24 12 25 13 26 14 12 15 11 16 10 17 9 18 8 19 7 20 6 21 5 22
REMARK SMILES IDX 4 23 3 24 2 25 1 26
REMARK H PARENT
REMARK Flexibility Score: inf
ROOT
ATOM      1  C   UNL     1      15.520  30.718  59.345  1.00  0.00     0.000 C 
ENDROOT
BRANCH   1   2
ATOM      2  C   UNL     1      16.129  29.627  60.240  1.00  0.00     0.000 C 
BRANCH   2   3
ATOM      3  C   UNL     1      16.589  30.163  61.606  1.00  0.00     0.000 C 
BRANCH   3   4
ATOM      4  C   UNL     1      15.629  29.788  62.749  1.00  0.00     0.000 C 
BRANCH   4   5
ATOM      5  C   UNL     1      14.637  28.654  62.432  1.00  0.00     0.000 C 
BRANCH   5   6
ATOM      6  C   UNL     1      13.206  29.162  62.187  1.00  0.00     0.000 C 
BRANCH   6   7
ATOM      7  C   UNL     1      12.303  28.099  61.540  1.00  0.00     0.000 C 
BRANCH   7   8
ATOM      8  C   UNL     1      12.034  28.375  60.052  1.00  0.00     0.000 C 
BRANCH   8   9
ATOM      9  C   UNL     1      11.467  29.789  59.851  1.00  0.00     0.000 C 
BRANCH   9  10
ATOM     10  C   UNL     1      10.107  29.787  59.135  1.00  0.00     0.006 C 
BRANCH  10  11
ATOM     11  C   UNL     1       9.067  28.905  59.837  1.00  0.00     0.053 C 
BRANCH  11  12
ATOM     12  C   UNL     1       8.438  29.643  60.976  1.00  0.00     0.041 C 
ATOM     13  O   UNL     1       7.475  30.427  60.769  1.00  0.00    -0.550 OA
ATOM     14  O   UNL     1       8.885  29.428  62.275  1.00  0.00    -0.550 OA
ENDBRANCH  11  12
ENDBRANCH  10  11
ENDBRANCH   9  10
ENDBRANCH   8   9
ENDBRANCH   7   8
ENDBRANCH   6   7
ENDBRANCH   5   6
ENDBRANCH   4   5
ENDBRANCH   3   4
ENDBRANCH   2   3
ENDBRANCH   1   2
BRANCH   1  15
ATOM     15  C   UNL     1      14.702  30.147  58.177  1.00  0.00     0.000 C 
BRANCH  15  16
ATOM     16  C   UNL     1      13.862  31.244  57.505  1.00  0.00     0.000 C 
BRANCH  16  17
ATOM     17  C   UNL     1      13.377  30.847  56.100  1.00  0.00     0.000 C 
BRANCH  17  18
ATOM     18  C   UNL     1      13.352  31.995  55.071  1.00  0.00    -0.000 C 
BRANCH  18  19
ATOM     19  C   UNL     1      14.206  31.762  53.808  1.00  0.00    -0.000 C 
BRANCH  19  20
ATOM     20  C   UNL     1      15.367  30.769  53.987  1.00  0.00    -0.000 C 
BRANCH  20  21
ATOM     21  C   UNL     1      16.705  31.467  54.289  1.00  0.00    -0.000 C 
BRANCH  21  22
ATOM     22  C   UNL     1      17.323  31.022  55.628  1.00  0.00    -0.000 C 
BRANCH  22  23
ATOM     23  C   UNL     1      17.503  32.145  56.666  1.00  0.00    -0.000 C 
BRANCH  23  24
ATOM     24  C   UNL     1      17.182  33.541  56.103  1.00  0.00    -0.000 C 
BRANCH  24  25
ATOM     25  C   UNL     1      15.903  34.139  56.711  1.00  0.00    -0.003 C 
ATOM     26  C   UNL     1      15.634  35.564  56.231  1.00  0.00     0.004 C 
ENDBRANCH  24  25
ENDBRANCH  23  24
ENDBRANCH  22  23
ENDBRANCH  21  22
ENDBRANCH  20  21
ENDBRANCH  19  20
ENDBRANCH  18  19
ENDBRANCH  17  18
ENDBRANCH  16  17
ENDBRANCH  15  16
ENDBRANCH   1  15
TORSDOF 22
ENDMDL
MODEL 7
REMARK VINA RESULT:    -4.912      1.342      2.168
REMARK INTER + INTRA:         -14.218
REMARK INTER:                 -11.074
REMARK INTRA:                  -3.144
REMARK UNBOUND:                -2.989
REMARK SMILES CCCCCCCCCCCCCCCCCCCCCCCC(=O)[O-]
REMARK SMILES IDX 13 1 14 2 15 3 16 4 17 5 18 6 19 7 20 8 21 9 22 10 23 11
REMARK SMILES IDX 24 12 25 13 26 14 12 15 11 16 10 17 9 18 8 19 7 20 6 21 5 22
REMARK SMILES IDX 4 23 3 24 2 25 1 26
REMARK H PARENT
REMARK Flexibility Score: inf
ROOT
ATOM      1  C   UNL     1      15.721  30.078  60.006  1.00  0.00     0.000 C 
ENDROOT
BRANCH   1   2
ATOM      2  C   UNL     1      16.991  30.709  60.599  1.00  0.00     0.000 C 
BRANCH   2   3
ATOM      3  C   UNL     1      17.344  30.147  61.987  1.00  0.00     0.000 C 
BRANCH   3   4
ATOM      4  C   UNL     1      16.940  28.672  62.156  1.00  0.00     0.000 C 
BRANCH   4   5
ATOM      5  C   UNL     1      16.422  28.287  63.554  1.00  0.00     0.000 C 
BRANCH   5   6
ATOM      6  C   UNL     1      14.944  27.859  63.547  1.00  0.00     0.000 C 
BRANCH   6   7
ATOM      7  C   UNL     1      14.025  28.913  62.908  1.00  0.00     0.000 C 
BRANCH   7   8
ATOM      8  C   UNL     1      13.006  28.302  61.933  1.00  0.00     0.000 C 
BRANCH   8   9
ATOM      9  C   UNL     1      12.390  29.385  61.035  1.00  0.00     0.000 C 
BRANCH   9  10
ATOM     10  C   UNL     1      11.407  28.811  60.002  1.00  0.00     0.006 C 
BRANCH  10  11
ATOM     11  C   UNL     1      10.643  29.901  59.240  1.00  0.00     0.053 C 
BRANCH  11  12
ATOM     12  C   UNL     1       9.269  30.070  59.807  1.00  0.00     0.041 C 
ATOM     13  O   UNL     1       8.947  29.489  60.877  1.00  0.00    -0.550 OA
ATOM     14  O   UNL     1       8.356  30.910  59.178  1.00  0.00    -0.550 OA
ENDBRANCH  11  12
ENDBRANCH  10  11
ENDBRANCH   9  10
ENDBRANCH   8   9
ENDBRANCH   7   8
ENDBRANCH   6   7
ENDBRANCH   5   6
ENDBRANCH   4   5
ENDBRANCH   3   4
ENDBRANCH   2   3
ENDBRANCH   1   2
BRANCH   1  15
ATOM     15  C   UNL     1      15.460  30.512  58.555  1.00  0.00     0.000 C 
BRANCH  15  16
ATOM     16  C   UNL     1      14.130  31.273  58.441  1.00  0.00     0.000 C 
BRANCH  16  17
ATOM     17  C   UNL     1      13.475  31.123  57.056  1.00  0.00     0.000 C 
BRANCH  17  18
ATOM     18  C   UNL     1      14.323  30.368  56.014  1.00  0.00    -0.000 C 
BRANCH  18  19
ATOM     19  C   UNL     1      14.728  31.194  54.776  1.00  0.00    -0.000 C 
BRANCH  19  20
ATOM     20  C   UNL     1      13.560  31.886  54.051  1.00  0.00    -0.000 C 
BRANCH  20  21
ATOM     21  C   UNL     1      13.831  33.375  53.774  1.00  0.00    -0.000 C 
BRANCH  21  22
ATOM     22  C   UNL     1      13.825  34.232  55.052  1.00  0.00    -0.000 C 
BRANCH  22  23
ATOM     23  C   UNL     1      14.767  35.449  55.025  1.00  0.00    -0.000 C 
BRANCH  23  24
ATOM     24  C   UNL     1      15.803  35.433  56.163  1.00  0.00    -0.000 C 
BRANCH  24  25
ATOM     25  C   UNL     1      15.737  34.145  56.998  1.00  0.00    -0.003 C 
ATOM     26  C   UNL     1      16.999  33.293  56.869  1.00  0.00     0.004 C 
ENDBRANCH  24  25
ENDBRANCH  23  24
ENDBRANCH  22  23
ENDBRANCH  21  22
ENDBRANCH  20  21
ENDBRANCH  19  20
ENDBRANCH  18  19
ENDBRANCH  17  18
ENDBRANCH  16  17
ENDBRANCH  15  16
ENDBRANCH   1  15
TORSDOF 22
ENDMDL
MODEL 8
REMARK VINA RESULT:    -4.904      3.411      8.108
REMARK INTER + INTRA:         -14.200
REMARK INTER:                 -10.772
REMARK INTRA:                  -3.428
REMARK UNBOUND:                -2.989
REMARK SMILES CCCCCCCCCCCCCCCCCCCCCCCC(=O)[O-]
REMARK SMILES IDX 13 1 14 2 15 3 16 4 17 5 18 6 19 7 20 8 21 9 22 10 23 11
REMARK SMILES IDX 24 12 25 13 26 14 12 15 11 16 10 17 9 18 8 19 7 20 6 21 5 22
REMARK SMILES IDX 4 23 3 24 2 25 1 26
REMARK H PARENT
REMARK Flexibility Score: inf
ROOT
ATOM      1  C   UNL     1      17.255  32.371  57.881  1.00  0.00     0.000 C 
ENDROOT
BRANCH   1   2
ATOM      2  C   UNL     1      17.656  32.479  56.402  1.00  0.00     0.000 C 
BRANCH   2   3
ATOM      3  C   UNL     1      17.734  31.111  55.703  1.00  0.00     0.000 C 
BRANCH   3   4
ATOM      4  C   UNL     1      16.801  31.008  54.483  1.00  0.00     0.000 C 
BRANCH   4   5
ATOM      5  C   UNL     1      15.475  30.265  54.729  1.00  0.00     0.000 C 
BRANCH   5   6
ATOM      6  C   UNL     1      14.249  31.190  54.654  1.00  0.00     0.000 C 
BRANCH   6   7
ATOM      7  C   UNL     1      14.620  32.637  54.291  1.00  0.00     0.000 C 
BRANCH   7   8
ATOM      8  C   UNL     1      14.214  33.645  55.378  1.00  0.00     0.000 C 
BRANCH   8   9
ATOM      9  C   UNL     1      13.778  34.979  54.753  1.00  0.00     0.000 C 
BRANCH   9  10
ATOM     10  C   UNL     1      14.728  36.136  55.099  1.00  0.00     0.006 C 
BRANCH  10  11
ATOM     11  C   UNL     1      15.680  35.798  56.252  1.00  0.00     0.053 C 
BRANCH  11  12
ATOM     12  C   UNL     1      16.697  36.882  56.426  1.00  0.00     0.041 C 
ATOM     13  O   UNL     1      17.398  37.258  55.449  1.00  0.00    -0.550 OA
ATOM     14  O   UNL     1      16.837  37.512  57.657  1.00  0.00    -0.550 OA
ENDBRANCH  11  12
ENDBRANCH  10  11
ENDBRANCH   9  10
ENDBRANCH   8   9
ENDBRANCH   7   8
ENDBRANCH   6   7
ENDBRANCH   5   6
ENDBRANCH   4   5
ENDBRANCH   3   4
ENDBRANCH   2   3
ENDBRANCH   1   2
BRANCH   1  15
ATOM     15  C   UNL     1      15.758  32.082  58.076  1.00  0.00     0.000 C 
BRANCH  15  16
ATOM     16  C   UNL     1      15.547  30.751  58.814  1.00  0.00     0.000 C 
BRANCH  16  17
ATOM     17  C   UNL     1      14.341  29.959  58.279  1.00  0.00     0.000 C 
BRANCH  17  18
ATOM     18  C   UNL     1      13.129  30.817  57.868  1.00  0.00    -0.000 C 
BRANCH  18  19
ATOM     19  C   UNL     1      11.937  30.780  58.845  1.00  0.00    -0.000 C 
BRANCH  19  20
ATOM     20  C   UNL     1      11.584  29.381  59.380  1.00  0.00    -0.000 C 
BRANCH  20  21
ATOM     21  C   UNL     1      10.823  29.430  60.716  1.00  0.00    -0.000 C 
BRANCH  21  22
ATOM     22  C   UNL     1      11.757  29.564  61.933  1.00  0.00    -0.000 C 
BRANCH  22  23
ATOM     23  C   UNL     1      13.154  28.942  61.752  1.00  0.00    -0.000 C 
BRANCH  23  24
ATOM     24  C   UNL     1      14.292  29.891  62.169  1.00  0.00    -0.000 C 
BRANCH  24  25
ATOM     25  C   UNL     1      15.477  29.144  62.801  1.00  0.00    -0.003 C 
ATOM     26  C   UNL     1      16.668  29.018  61.851  1.00  0.00     0.004 C 
ENDBRANCH  24  25
ENDBRANCH  23  24
ENDBRANCH  22  23
ENDBRANCH  21  22
ENDBRANCH  20  21
ENDBRANCH  19  20
ENDBRANCH  18  19
ENDBRANCH  17  18
ENDBRANCH  16  17
ENDBRANCH  15  16
ENDBRANCH   1  15
TORSDOF 22
ENDMDL
MODEL 9
REMARK VINA RESULT:    -4.899      1.427      2.631
REMARK INTER + INTRA:         -14.190
REMARK INTER:                 -10.490
REMARK INTRA:                  -3.700
REMARK UNBOUND:                -2.989
REMARK SMILES CCCCCCCCCCCCCCCCCCCCCCCC(=O)[O-]
REMARK SMILES IDX 13 1 14 2 15 3 16 4 17 5 18 6 19 7 20 8 21 9 22 10 23 11
REMARK SMILES IDX 24 12 25 13 26 14 12 15 11 16 10 17 9 18 8 19 7 20 6 21 5 22
REMARK SMILES IDX 4 23 3 24 2 25 1 26
REMARK H PARENT
REMARK Flexibility Score: inf
ROOT
ATOM      1  C   UNL     1      14.159  30.802  57.712  1.00  0.00     0.000 C 
ENDROOT
BRANCH   1   2
ATOM      2  C   UNL     1      14.960  29.849  58.612  1.00  0.00     0.000 C 
BRANCH   2   3
ATOM      3  C   UNL     1      15.407  30.505  59.929  1.00  0.00     0.000 C 
BRANCH   3   4
ATOM      4  C   UNL     1      16.462  29.677  60.683  1.00  0.00     0.000 C 
BRANCH   4   5
ATOM      5  C   UNL     1      16.577  29.970  62.190  1.00  0.00     0.000 C 
BRANCH   5   6
ATOM      6  C   UNL     1      16.089  28.803  63.066  1.00  0.00     0.000 C 
BRANCH   6   7
ATOM      7  C   UNL     1      14.590  28.899  63.398  1.00  0.00     0.000 C 
BRANCH   7   8
ATOM      8  C   UNL     1      13.706  28.172  62.372  1.00  0.00     0.000 C 
BRANCH   8   9
ATOM      9  C   UNL     1      12.597  29.098  61.852  1.00  0.00     0.000 C 
BRANCH   9  10
ATOM     10  C   UNL     1      11.903  28.547  60.596  1.00  0.00     0.006 C 
BRANCH  10  11
ATOM     11  C   UNL     1      11.320  29.652  59.707  1.00  0.00     0.053 C 
BRANCH  11  12
ATOM     12  C   UNL     1       9.836  29.734  59.880  1.00  0.00     0.041 C 
ATOM     13  O   UNL     1       9.195  30.708  59.405  1.00  0.00    -0.550 OA
ATOM     14  O   UNL     1       9.154  28.709  60.525  1.00  0.00    -0.550 OA
ENDBRANCH  11  12
ENDBRANCH  10  11
ENDBRANCH   9  10
ENDBRANCH   8   9
ENDBRANCH   7   8
ENDBRANCH   6   7
ENDBRANCH   5   6
ENDBRANCH   4   5
ENDBRANCH   3   4
ENDBRANCH   2   3
ENDBRANCH   1   2
BRANCH   1  15
ATOM     15  C   UNL     1      14.045  30.304  56.263  1.00  0.00     0.000 C 
BRANCH  15  16
ATOM     16  C   UNL     1      15.431  30.201  55.607  1.00  0.00     0.000 C 
BRANCH  16  17
ATOM     17  C   UNL     1      15.368  30.268  54.070  1.00  0.00     0.000 C 
BRANCH  17  18
ATOM     18  C   UNL     1      15.293  31.692  53.484  1.00  0.00    -0.000 C 
BRANCH  18  19
ATOM     19  C   UNL     1      13.872  32.190  53.151  1.00  0.00    -0.000 C 
BRANCH  19  20
ATOM     20  C   UNL     1      13.349  33.310  54.067  1.00  0.00    -0.000 C 
BRANCH  20  21
ATOM     21  C   UNL     1      14.476  34.195  54.627  1.00  0.00    -0.000 C 
BRANCH  21  22
ATOM     22  C   UNL     1      14.643  34.059  56.151  1.00  0.00    -0.000 C 
BRANCH  22  23
ATOM     23  C   UNL     1      16.055  34.367  56.682  1.00  0.00    -0.000 C 
BRANCH  23  24
ATOM     24  C   UNL     1      16.456  33.476  57.871  1.00  0.00    -0.000 C 
BRANCH  24  25
ATOM     25  C   UNL     1      17.552  32.464  57.502  1.00  0.00    -0.003 C 
ATOM     26  C   UNL     1      18.075  32.654  56.078  1.00  0.00     0.004 C 
ENDBRANCH  24  25
ENDBRANCH  23  24
ENDBRANCH  22  23
ENDBRANCH  21  22
ENDBRANCH  20  21
ENDBRANCH  19  20
ENDBRANCH  18  19
ENDBRANCH  17  18
ENDBRANCH  16  17
ENDBRANCH  15  16
ENDBRANCH   1  15
TORSDOF 22
ENDMDL
