MODEL 1
REMARK VINA RESULT:    -3.202      0.000      0.000
REMARK INTER + INTRA:          -8.797
REMARK INTER:                  -6.197
REMARK INTRA:                  -2.600
REMARK UNBOUND:                -2.600
REMARK SMILES CCCCCCCCCCCCCCCCCC(=O)[O-]
REMARK SMILES IDX 10 1 11 2 12 3 13 4 14 5 15 6 16 7 17 8 18 9 19 10 20 11
REMARK SMILES IDX 9 12 8 13 7 14 6 15 5 16 4 17 3 18 2 19 1 20
REMARK H PARENT
REMARK Flexibility Score: inf
ROOT
ATOM      1  C   UNL     1      10.466   8.225  31.743  1.00  0.00     0.000 C 
ENDROOT
BRANCH   1   2
ATOM      2  C   UNL     1       8.946   8.307  31.938  1.00  0.00     0.000 C 
BRANCH   2   3
ATOM      3  C   UNL     1       8.206   7.519  30.849  1.00  0.00     0.000 C 
BRANCH   3   4
ATOM      4  C   UNL     1       8.195   6.018  31.173  1.00  0.00     0.000 C 
BRANCH   4   5
ATOM      5  C   UNL     1       8.547   5.146  29.957  1.00  0.00     0.000 C 
BRANCH   5   6
ATOM      6  C   UNL     1       9.802   5.638  29.219  1.00  0.00     0.000 C 
BRANCH   6   7
ATOM      7  C   UNL     1      10.975   4.673  29.427  1.00  0.00     0.006 C 
BRANCH   7   8
ATOM      8  C   UNL     1      12.307   5.428  29.464  1.00  0.00     0.053 C 
BRANCH   8   9
ATOM      9  C   UNL     1      12.942   5.439  28.110  1.00  0.00     0.041 C 
ATOM     10  O   UNL     1      12.563   4.624  27.226  1.00  0.00    -0.550 OA
ATOM     11  O   UNL     1      13.980   6.319  27.834  1.00  0.00    -0.550 OA
ENDBRANCH   8   9
ENDBRANCH   7   8
ENDBRANCH   6   7
ENDBRANCH   5   6
ENDBRANCH   4   5
ENDBRANCH   3   4
ENDBRANCH   2   3
ENDBRANCH   1   2
BRANCH   1  12
ATOM     12  C   UNL     1      11.153   7.713  33.018  1.00  0.00     0.000 C 
BRANCH  12  13
ATOM     13  C   UNL     1      11.786   6.323  32.833  1.00  0.00    -0.000 C 
BRANCH  13  14
ATOM     14  C   UNL     1      12.094   5.633  34.174  1.00  0.00    -0.000 C 
BRANCH  14  15
ATOM     15  C   UNL     1      11.383   4.279  34.319  1.00  0.00    -0.000 C 
BRANCH  15  16
ATOM     16  C   UNL     1      10.592   3.884  33.061  1.00  0.00    -0.000 C 
BRANCH  16  17
ATOM     17  C   UNL     1       9.836   2.568  33.278  1.00  0.00    -0.000 C 
BRANCH  17  18
ATOM     18  C   UNL     1       8.694   2.415  32.261  1.00  0.00    -0.000 C 
BRANCH  18  19
ATOM     19  C   UNL     1       8.841   1.156  31.394  1.00  0.00    -0.003 C 
ATOM     20  C   UNL     1       8.964   1.474  29.904  1.00  0.00     0.004 C 
ENDBRANCH  18  19
ENDBRANCH  17  18
ENDBRANCH  16  17
ENDBRANCH  15  16
ENDBRANCH  14  15
ENDBRANCH  13  14
ENDBRANCH  12  13
ENDBRANCH   1  12
TORSDOF 16
ENDMDL
MODEL 2
REMARK VINA RESULT:    -3.157      1.153      3.161
REMARK INTER + INTRA:          -8.709
REMARK INTER:                  -5.601
REMARK INTRA:                  -3.109
REMARK UNBOUND:                -2.600
REMARK SMILES CCCCCCCCCCCCCCCCCC(=O)[O-]
REMARK SMILES IDX 10 1 11 2 12 3 13 4 14 5 15 6 16 7 17 8 18 9 19 10 20 11
REMARK SMILES IDX 9 12 8 13 7 14 6 15 5 16 4 17 3 18 2 19 1 20
REMARK H PARENT
REMARK Flexibility Score: inf
ROOT
ATOM      1  C   UNL     1      11.238   7.878  33.290  1.00  0.00     0.000 C 
ENDROOT
BRANCH   1   2
ATOM      2  C   UNL     1      11.097   6.525  34.001  1.00  0.00     0.000 C 
BRANCH   2   3
ATOM      3  C   UNL     1      12.383   5.700  33.879  1.00  0.00     0.000 C 
BRANCH   3   4
ATOM      4  C   UNL     1      12.066   4.244  33.508  1.00  0.00     0.000 C 
BRANCH   4   5
ATOM      5  C   UNL     1      12.622   3.847  32.131  1.00  0.00     0.000 C 
BRANCH   5   6
ATOM      6  C   UNL     1      12.799   5.053  31.195  1.00  0.00     0.000 C 
BRANCH   6   7
ATOM      7  C   UNL     1      12.314   4.724  29.778  1.00  0.00     0.006 C 
BRANCH   7   8
ATOM      8  C   UNL     1      12.379   5.960  28.875  1.00  0.00     0.053 C 
BRANCH   8   9
ATOM      9  C   UNL     1      13.476   5.817  27.868  1.00  0.00     0.041 C 
ATOM     10  O   UNL     1      14.600   6.345  28.077  1.00  0.00    -0.550 OA
ATOM     11  O   UNL     1      13.245   5.136  26.680  1.00  0.00    -0.550 OA
ENDBRANCH   8   9
ENDBRANCH   7   8
ENDBRANCH   6   7
ENDBRANCH   5   6
ENDBRANCH   4   5
ENDBRANCH   3   4
ENDBRANCH   2   3
ENDBRANCH   1   2
BRANCH   1  12
ATOM     12  C   UNL     1       9.941   8.245  32.552  1.00  0.00     0.000 C 
BRANCH  12  13
ATOM     13  C   UNL     1       9.941   7.780  31.086  1.00  0.00    -0.000 C 
BRANCH  13  14
ATOM     14  C   UNL     1       8.628   7.081  30.690  1.00  0.00    -0.000 C 
BRANCH  14  15
ATOM     15  C   UNL     1       8.784   5.558  30.563  1.00  0.00    -0.000 C 
BRANCH  15  16
ATOM     16  C   UNL     1       8.636   4.830  31.909  1.00  0.00    -0.000 C 
BRANCH  16  17
ATOM     17  C   UNL     1       9.018   3.351  31.778  1.00  0.00    -0.000 C 
BRANCH  17  18
ATOM     18  C   UNL     1       9.140   2.941  30.303  1.00  0.00    -0.000 C 
BRANCH  18  19
ATOM     19  C   UNL     1      10.005   1.686  30.108  1.00  0.00    -0.003 C 
ATOM     20  C   UNL     1      10.273   0.943  31.417  1.00  0.00     0.004 C 
ENDBRANCH  18  19
ENDBRANCH  17  18
ENDBRANCH  16  17
ENDBRANCH  15  16
ENDBRANCH  14  15
ENDBRANCH  13  14
ENDBRANCH  12  13
ENDBRANCH   1  12
TORSDOF 16
ENDMDL
MODEL 3
REMARK VINA RESULT:    -3.124      1.352      2.591
REMARK INTER + INTRA:          -8.646
REMARK INTER:                  -5.697
REMARK INTRA:                  -2.949
REMARK UNBOUND:                -2.600
REMARK SMILES CCCCCCCCCCCCCCCCCC(=O)[O-]
REMARK SMILES IDX 10 1 11 2 12 3 13 4 14 5 15 6 16 7 17 8 18 9 19 10 20 11
REMARK SMILES IDX 9 12 8 13 7 14 6 15 5 16 4 17 3 18 2 19 1 20
REMARK H PARENT
REMARK Flexibility Score: inf
ROOT
ATOM      1  C   UNL     1       8.794   7.564  31.178  1.00  0.00     0.000 C 
ENDROOT
BRANCH   1   2
ATOM      2  C   UNL     1       8.448   6.198  30.570  1.00  0.00     0.000 C 
BRANCH   2   3
ATOM      3  C   UNL     1       8.835   5.057  31.519  1.00  0.00     0.000 C 
BRANCH   3   4
ATOM      4  C   UNL     1       9.241   3.803  30.729  1.00  0.00     0.000 C 
BRANCH   4   5
ATOM      5  C   UNL     1      10.649   3.304  31.090  1.00  0.00     0.000 C 
BRANCH   5   6
ATOM      6  C   UNL     1      11.751   4.296  30.683  1.00  0.00     0.000 C 
BRANCH   6   7
ATOM      7  C   UNL     1      11.686   4.603  29.182  1.00  0.00     0.006 C 
BRANCH   7   8
ATOM      8  C   UNL     1      12.388   5.926  28.862  1.00  0.00     0.053 C 
BRANCH   8   9
ATOM      9  C   UNL     1      13.398   5.734  27.776  1.00  0.00     0.041 C 
ATOM     10  O   UNL     1      14.548   6.236  27.885  1.00  0.00    -0.550 OA
ATOM     11  O   UNL     1      13.057   5.037  26.624  1.00  0.00    -0.550 OA
ENDBRANCH   8   9
ENDBRANCH   7   8
ENDBRANCH   6   7
ENDBRANCH   5   6
ENDBRANCH   4   5
ENDBRANCH   3   4
ENDBRANCH   2   3
ENDBRANCH   1   2
BRANCH   1  12
ATOM     12  C   UNL     1      10.316   7.774  31.218  1.00  0.00     0.000 C 
BRANCH  12  13
ATOM     13  C   UNL     1      10.785   8.463  32.510  1.00  0.00    -0.000 C 
BRANCH  13  14
ATOM     14  C   UNL     1      10.787   7.511  33.720  1.00  0.00    -0.000 C 
BRANCH  14  15
ATOM     15  C   UNL     1      11.779   6.349  33.555  1.00  0.00    -0.000 C 
BRANCH  15  16
ATOM     16  C   UNL     1      11.377   5.104  34.361  1.00  0.00    -0.000 C 
BRANCH  16  17
ATOM     17  C   UNL     1      10.039   5.321  35.077  1.00  0.00    -0.000 C 
BRANCH  17  18
ATOM     18  C   UNL     1       9.475   3.993  35.606  1.00  0.00    -0.000 C 
BRANCH  18  19
ATOM     19  C   UNL     1       9.506   2.877  34.551  1.00  0.00    -0.003 C 
ATOM     20  C   UNL     1       8.110   2.459  34.090  1.00  0.00     0.004 C 
ENDBRANCH  18  19
ENDBRANCH  17  18
ENDBRANCH  16  17
ENDBRANCH  15  16
ENDBRANCH  14  15
ENDBRANCH  13  14
ENDBRANCH  12  13
ENDBRANCH   1  12
TORSDOF 16
ENDMDL
MODEL 4
REMARK VINA RESULT:    -3.114      4.093      6.463
REMARK INTER + INTRA:          -8.628
REMARK INTER:                  -5.659
REMARK INTRA:                  -2.969
REMARK UNBOUND:                -2.600
REMARK SMILES CCCCCCCCCCCCCCCCCC(=O)[O-]
REMARK SMILES IDX 10 1 11 2 12 3 13 4 14 5 15 6 16 7 17 8 18 9 19 10 20 11
REMARK SMILES IDX 9 12 8 13 7 14 6 15 5 16 4 17 3 18 2 19 1 20
REMARK H PARENT
REMARK Flexibility Score: inf
ROOT
ATOM      1  C   UNL     1       9.707   4.801  29.871  1.00  0.00     0.000 C 
ENDROOT
BRANCH   1   2
ATOM      2  C   UNL     1       9.288   3.549  30.654  1.00  0.00     0.000 C 
BRANCH   2   3
ATOM      3  C   UNL     1      10.415   3.071  31.578  1.00  0.00     0.000 C 
BRANCH   3   4
ATOM      4  C   UNL     1       9.939   3.009  33.036  1.00  0.00     0.000 C 
BRANCH   4   5
ATOM      5  C   UNL     1       8.497   3.514  33.212  1.00  0.00     0.000 C 
BRANCH   5   6
ATOM      6  C   UNL     1       8.153   3.818  34.679  1.00  0.00     0.000 C 
BRANCH   6   7
ATOM      7  C   UNL     1       9.423   4.064  35.502  1.00  0.00     0.006 C 
BRANCH   7   8
ATOM      8  C   UNL     1       9.284   5.325  36.361  1.00  0.00     0.053 C 
BRANCH   8   9
ATOM      9  C   UNL     1       9.209   4.966  37.811  1.00  0.00     0.041 C 
ATOM     10  O   UNL     1       9.891   5.602  38.658  1.00  0.00    -0.550 OA
ATOM     11  O   UNL     1       8.417   3.902  38.224  1.00  0.00    -0.550 OA
ENDBRANCH   8   9
ENDBRANCH   7   8
ENDBRANCH   6   7
ENDBRANCH   5   6
ENDBRANCH   4   5
ENDBRANCH   3   4
ENDBRANCH   2   3
ENDBRANCH   1   2
BRANCH   1  12
ATOM     12  C   UNL     1       8.541   5.795  29.764  1.00  0.00     0.000 C 
BRANCH  12  13
ATOM     13  C   UNL     1       8.186   6.440  31.113  1.00  0.00    -0.000 C 
BRANCH  13  14
ATOM     14  C   UNL     1       8.606   7.919  31.188  1.00  0.00    -0.000 C 
BRANCH  14  15
ATOM     15  C   UNL     1       9.719   8.166  32.218  1.00  0.00    -0.000 C 
BRANCH  15  16
ATOM     16  C   UNL     1      10.134   6.888  32.964  1.00  0.00    -0.000 C 
BRANCH  16  17
ATOM     17  C   UNL     1      11.580   6.503  32.631  1.00  0.00    -0.000 C 
BRANCH  17  18
ATOM     18  C   UNL     1      12.239   5.765  33.807  1.00  0.00    -0.000 C 
BRANCH  18  19
ATOM     19  C   UNL     1      13.484   4.971  33.382  1.00  0.00    -0.003 C 
ATOM     20  C   UNL     1      13.628   4.863  31.864  1.00  0.00     0.004 C 
ENDBRANCH  18  19
ENDBRANCH  17  18
ENDBRANCH  16  17
ENDBRANCH  15  16
ENDBRANCH  14  15
ENDBRANCH  13  14
ENDBRANCH  12  13
ENDBRANCH   1  12
TORSDOF 16
ENDMDL
MODEL 5
REMARK VINA RESULT:    -3.089      1.726      4.237
REMARK INTER + INTRA:          -8.579
REMARK INTER:                  -6.300
REMARK INTRA:                  -2.279
REMARK UNBOUND:                -2.600
REMARK SMILES CCCCCCCCCCCCCCCCCC(=O)[O-]
REMARK SMILES IDX 10 1 11 2 12 3 13 4 14 5 15 6 16 7 17 8 18 9 19 10 20 11
REMARK SMILES IDX 9 12 8 13 7 14 6 15 5 16 4 17 3 18 2 19 1 20
REMARK H PARENT
REMARK Flexibility Score: inf
ROOT
ATOM      1  C   UNL     1       8.741   5.378  29.839  1.00  0.00     0.000 C 
ENDROOT
BRANCH   1   2
ATOM      2  C   UNL     1       9.340   4.091  30.423  1.00  0.00     0.000 C 
BRANCH   2   3
ATOM      3  C   UNL     1      10.816   3.943  30.035  1.00  0.00     0.000 C 
BRANCH   3   4
ATOM      4  C   UNL     1      11.201   4.958  28.949  1.00  0.00     0.000 C 
BRANCH   4   5
ATOM      5  C   UNL     1      12.551   5.640  29.224  1.00  0.00     0.000 C 
BRANCH   5   6
ATOM      6  C   UNL     1      13.747   4.711  28.962  1.00  0.00     0.000 C 
BRANCH   6   7
ATOM      7  C   UNL     1      15.009   5.519  28.637  1.00  0.00     0.006 C 
BRANCH   7   8
ATOM      8  C   UNL     1      14.749   6.507  27.496  1.00  0.00     0.053 C 
BRANCH   8   9
ATOM      9  C   UNL     1      14.598   5.780  26.197  1.00  0.00     0.041 C 
ATOM     10  O   UNL     1      15.459   4.932  25.841  1.00  0.00    -0.550 OA
ATOM     11  O   UNL     1      13.528   6.068  25.359  1.00  0.00    -0.550 OA
ENDBRANCH   8   9
ENDBRANCH   7   8
ENDBRANCH   6   7
ENDBRANCH   5   6
ENDBRANCH   4   5
ENDBRANCH   3   4
ENDBRANCH   2   3
ENDBRANCH   1   2
BRANCH   1  12
ATOM     12  C   UNL     1       8.156   6.261  30.951  1.00  0.00     0.000 C 
BRANCH  12  13
ATOM     13  C   UNL     1       8.602   7.729  30.840  1.00  0.00    -0.000 C 
BRANCH  13  14
ATOM     14  C   UNL     1      10.086   7.922  31.199  1.00  0.00    -0.000 C 
BRANCH  14  15
ATOM     15  C   UNL     1      10.288   8.382  32.651  1.00  0.00    -0.000 C 
BRANCH  15  16
ATOM     16  C   UNL     1      11.354   7.560  33.393  1.00  0.00    -0.000 C 
BRANCH  16  17
ATOM     17  C   UNL     1      11.267   6.077  33.014  1.00  0.00    -0.000 C 
BRANCH  17  18
ATOM     18  C   UNL     1      11.749   5.183  34.167  1.00  0.00    -0.000 C 
BRANCH  18  19
ATOM     19  C   UNL     1      13.258   4.901  34.104  1.00  0.00    -0.003 C 
ATOM     20  C   UNL     1      13.805   4.923  32.678  1.00  0.00     0.004 C 
ENDBRANCH  18  19
ENDBRANCH  17  18
ENDBRANCH  16  17
ENDBRANCH  15  16
ENDBRANCH  14  15
ENDBRANCH  13  14
ENDBRANCH  12  13
ENDBRANCH   1  12
TORSDOF 16
ENDMDL
MODEL 6
REMARK VINA RESULT:    -3.083      1.736      4.367
REMARK INTER + INTRA:          -8.568
REMARK INTER:                  -5.669
REMARK INTRA:                  -2.899
REMARK UNBOUND:                -2.600
REMARK SMILES CCCCCCCCCCCCCCCCCC(=O)[O-]
REMARK SMILES IDX 10 1 11 2 12 3 13 4 14 5 15 6 16 7 17 8 18 9 19 10 20 11
REMARK SMILES IDX 9 12 8 13 7 14 6 15 5 16 4 17 3 18 2 19 1 20
REMARK H PARENT
REMARK Flexibility Score: inf
ROOT
ATOM      1  C   UNL     1      11.450   5.406  33.781  1.00  0.00     0.000 C 
ENDROOT
BRANCH   1   2
ATOM      2  C   UNL     1      10.648   4.100  33.859  1.00  0.00     0.000 C 
BRANCH   2   3
ATOM      3  C   UNL     1       9.140   4.378  33.877  1.00  0.00     0.000 C 
BRANCH   3   4
ATOM      4  C   UNL     1       8.365   3.237  33.202  1.00  0.00     0.000 C 
BRANCH   4   5
ATOM      5  C   UNL     1       9.271   2.313  32.372  1.00  0.00     0.000 C 
BRANCH   5   6
ATOM      6  C   UNL     1       8.479   1.429  31.396  1.00  0.00     0.000 C 
BRANCH   6   7
ATOM      7  C   UNL     1       9.029   1.557  29.970  1.00  0.00     0.006 C 
BRANCH   7   8
ATOM      8  C   UNL     1       9.984   0.405  29.644  1.00  0.00     0.053 C 
BRANCH   8   9
ATOM      9  C   UNL     1      11.363   0.924  29.389  1.00  0.00     0.041 C 
ATOM     10  O   UNL     1      12.236   0.878  30.296  1.00  0.00    -0.550 OA
ATOM     11  O   UNL     1      11.675   1.497  28.163  1.00  0.00    -0.550 OA
ENDBRANCH   8   9
ENDBRANCH   7   8
ENDBRANCH   6   7
ENDBRANCH   5   6
ENDBRANCH   4   5
ENDBRANCH   3   4
ENDBRANCH   2   3
ENDBRANCH   1   2
BRANCH   1  12
ATOM     12  C   UNL     1      10.514   6.624  33.796  1.00  0.00     0.000 C 
BRANCH  12  13
ATOM     13  C   UNL     1      11.153   7.871  33.163  1.00  0.00    -0.000 C 
BRANCH  13  14
ATOM     14  C   UNL     1      10.511   8.243  31.814  1.00  0.00    -0.000 C 
BRANCH  14  15
ATOM     15  C   UNL     1       9.095   7.666  31.655  1.00  0.00    -0.000 C 
BRANCH  15  16
ATOM     16  C   UNL     1       8.552   7.808  30.225  1.00  0.00    -0.000 C 
BRANCH  16  17
ATOM     17  C   UNL     1       8.105   6.450  29.670  1.00  0.00    -0.000 C 
BRANCH  17  18
ATOM     18  C   UNL     1       9.000   5.318  30.196  1.00  0.00    -0.000 C 
BRANCH  18  19
ATOM     19  C   UNL     1      10.292   5.158  29.380  1.00  0.00    -0.003 C 
ATOM     20  C   UNL     1      11.410   4.477  30.168  1.00  0.00     0.004 C 
ENDBRANCH  18  19
ENDBRANCH  17  18
ENDBRANCH  16  17
ENDBRANCH  15  16
ENDBRANCH  14  15
ENDBRANCH  13  14
ENDBRANCH  12  13
ENDBRANCH   1  12
TORSDOF 16
ENDMDL
MODEL 7
REMARK VINA RESULT:    -3.075      1.242      2.657
REMARK INTER + INTRA:          -8.551
REMARK INTER:                  -6.365
REMARK INTRA:                  -2.186
REMARK UNBOUND:                -2.600
REMARK SMILES CCCCCCCCCCCCCCCCCC(=O)[O-]
REMARK SMILES IDX 10 1 11 2 12 3 13 4 14 5 15 6 16 7 17 8 18 9 19 10 20 11
REMARK SMILES IDX 9 12 8 13 7 14 6 15 5 16 4 17 3 18 2 19 1 20
REMARK H PARENT
REMARK Flexibility Score: inf
ROOT
ATOM      1  C   UNL     1      11.528   6.589  33.677  1.00  0.00     0.000 C 
ENDROOT
BRANCH   1   2
ATOM      2  C   UNL     1      10.969   7.988  33.383  1.00  0.00     0.000 C 
BRANCH   2   3
ATOM      3  C   UNL     1      10.511   8.104  31.924  1.00  0.00     0.000 C 
BRANCH   3   4
ATOM      4  C   UNL     1       8.992   8.313  31.843  1.00  0.00     0.000 C 
BRANCH   4   5
ATOM      5  C   UNL     1       8.342   7.511  30.704  1.00  0.00     0.000 C 
BRANCH   5   6
ATOM      6  C   UNL     1       7.895   6.109  31.147  1.00  0.00     0.000 C 
BRANCH   6   7
ATOM      7  C   UNL     1       8.689   5.022  30.413  1.00  0.00     0.006 C 
BRANCH   7   8
ATOM      8  C   UNL     1       9.544   5.626  29.296  1.00  0.00     0.053 C 
BRANCH   8   9
ATOM      9  C   UNL     1      10.960   5.159  29.408  1.00  0.00     0.041 C 
ATOM     10  O   UNL     1      11.213   3.996  29.822  1.00  0.00    -0.550 OA
ATOM     11  O   UNL     1      12.004   6.021  29.096  1.00  0.00    -0.550 OA
ENDBRANCH   8   9
ENDBRANCH   7   8
ENDBRANCH   6   7
ENDBRANCH   5   6
ENDBRANCH   4   5
ENDBRANCH   3   4
ENDBRANCH   2   3
ENDBRANCH   1   2
BRANCH   1  12
ATOM     12  C   UNL     1      10.449   5.689  34.297  1.00  0.00     0.000 C 
BRANCH  12  13
ATOM     13  C   UNL     1      10.263   4.370  33.529  1.00  0.00    -0.000 C 
BRANCH  13  14
ATOM     14  C   UNL     1       8.941   3.664  33.881  1.00  0.00    -0.000 C 
BRANCH  14  15
ATOM     15  C   UNL     1       9.089   2.136  33.958  1.00  0.00    -0.000 C 
BRANCH  15  16
ATOM     16  C   UNL     1       7.875   1.391  33.382  1.00  0.00    -0.000 C 
BRANCH  16  17
ATOM     17  C   UNL     1       8.303   0.409  32.285  1.00  0.00    -0.000 C 
BRANCH  17  18
ATOM     18  C   UNL     1       9.467   0.978  31.459  1.00  0.00    -0.000 C 
BRANCH  18  19
ATOM     19  C   UNL     1       9.055   1.326  30.021  1.00  0.00    -0.003 C 
ATOM     20  C   UNL     1       9.694   0.403  28.983  1.00  0.00     0.004 C 
ENDBRANCH  18  19
ENDBRANCH  17  18
ENDBRANCH  16  17
ENDBRANCH  15  16
ENDBRANCH  14  15
ENDBRANCH  13  14
ENDBRANCH  12  13
ENDBRANCH   1  12
TORSDOF 16
ENDMDL
MODEL 8
REMARK VINA RESULT:    -3.052      2.995      5.905
REMARK INTER + INTRA:          -8.507
REMARK INTER:                  -5.914
REMARK INTRA:                  -2.593
REMARK UNBOUND:                -2.600
REMARK SMILES CCCCCCCCCCCCCCCCCC(=O)[O-]
REMARK SMILES IDX 10 1 11 2 12 3 13 4 14 5 15 6 16 7 17 8 18 9 19 10 20 11
REMARK SMILES IDX 9 12 8 13 7 14 6 15 5 16 4 17 3 18 2 19 1 20
REMARK H PARENT
REMARK Flexibility Score: inf
ROOT
ATOM      1  C   UNL     1       8.403   5.675  31.448  1.00  0.00     0.000 C 
ENDROOT
BRANCH   1   2
ATOM      2  C   UNL     1       8.593   7.196  31.369  1.00  0.00     0.000 C 
BRANCH   2   3
ATOM      3  C   UNL     1      10.058   7.556  31.093  1.00  0.00     0.000 C 
BRANCH   3   4
ATOM      4  C   UNL     1      10.640   8.394  32.241  1.00  0.00     0.000 C 
BRANCH   4   5
ATOM      5  C   UNL     1      10.881   7.569  33.516  1.00  0.00     0.000 C 
BRANCH   5   6
ATOM      6  C   UNL     1      11.898   6.436  33.304  1.00  0.00     0.000 C 
BRANCH   6   7
ATOM      7  C   UNL     1      11.442   5.151  34.004  1.00  0.00     0.006 C 
BRANCH   7   8
ATOM      8  C   UNL     1      10.116   5.367  34.740  1.00  0.00     0.053 C 
BRANCH   8   9
ATOM      9  C   UNL     1       9.314   4.105  34.758  1.00  0.00     0.041 C 
ATOM     10  O   UNL     1       8.194   4.073  35.333  1.00  0.00    -0.550 OA
ATOM     11  O   UNL     1       9.821   2.950  34.175  1.00  0.00    -0.550 OA
ENDBRANCH   8   9
ENDBRANCH   7   8
ENDBRANCH   6   7
ENDBRANCH   5   6
ENDBRANCH   4   5
ENDBRANCH   3   4
ENDBRANCH   2   3
ENDBRANCH   1   2
BRANCH   1  12
ATOM     12  C   UNL     1       9.130   4.973  30.291  1.00  0.00     0.000 C 
BRANCH  12  13
ATOM     13  C   UNL     1      10.020   3.812  30.768  1.00  0.00    -0.000 C 
BRANCH  13  14
ATOM     14  C   UNL     1      11.282   3.643  29.902  1.00  0.00    -0.000 C 
BRANCH  14  15
ATOM     15  C   UNL     1      12.317   4.753  30.145  1.00  0.00    -0.000 C 
BRANCH  15  16
ATOM     16  C   UNL     1      12.496   5.676  28.929  1.00  0.00    -0.000 C 
BRANCH  16  17
ATOM     17  C   UNL     1      12.770   4.864  27.658  1.00  0.00    -0.000 C 
BRANCH  17  18
ATOM     18  C   UNL     1      14.043   5.357  26.953  1.00  0.00    -0.000 C 
BRANCH  18  19
ATOM     19  C   UNL     1      14.893   6.276  27.844  1.00  0.00    -0.003 C 
ATOM     20  C   UNL     1      16.166   5.598  28.350  1.00  0.00     0.004 C 
ENDBRANCH  18  19
ENDBRANCH  17  18
ENDBRANCH  16  17
ENDBRANCH  15  16
ENDBRANCH  14  15
ENDBRANCH  13  14
ENDBRANCH  12  13
ENDBRANCH   1  12
TORSDOF 16
ENDMDL
MODEL 9
REMARK VINA RESULT:    -3.023      2.999      4.034
REMARK INTER + INTRA:          -8.451
REMARK INTER:                  -5.316
REMARK INTRA:                  -3.134
REMARK UNBOUND:                -2.600
REMARK SMILES CCCCCCCCCCCCCCCCCC(=O)[O-]
REMARK SMILES IDX 10 1 11 2 12 3 13 4 14 5 15 6 16 7 17 8 18 9 19 10 20 11
REMARK SMILES IDX 9 12 8 13 7 14 6 15 5 16 4 17 3 18 2 19 1 20
REMARK H PARENT
REMARK Flexibility Score: inf
ROOT
ATOM      1  C   UNL     1      10.590   7.437  33.669  1.00  0.00     0.000 C 
ENDROOT
BRANCH   1   2
ATOM      2  C   UNL     1       9.770   8.252  32.661  1.00  0.00     0.000 C 
BRANCH   2   3
ATOM      3  C   UNL     1      10.142   7.883  31.219  1.00  0.00     0.000 C 
BRANCH   3   4
ATOM      4  C   UNL     1       8.896   7.862  30.321  1.00  0.00     0.000 C 
BRANCH   4   5
ATOM      5  C   UNL     1       8.215   6.484  30.281  1.00  0.00     0.000 C 
BRANCH   5   6
ATOM      6  C   UNL     1       9.214   5.337  30.062  1.00  0.00     0.000 C 
BRANCH   6   7
ATOM      7  C   UNL     1       9.073   4.270  31.153  1.00  0.00     0.006 C 
BRANCH   7   8
ATOM      8  C   UNL     1       8.281   4.807  32.348  1.00  0.00     0.053 C 
BRANCH   8   9
ATOM      9  C   UNL     1       8.266   3.808  33.461  1.00  0.00     0.041 C 
ATOM     10  O   UNL     1       8.644   4.139  34.616  1.00  0.00    -0.550 OA
ATOM     11  O   UNL     1       7.875   2.498  33.214  1.00  0.00    -0.550 OA
ENDBRANCH   8   9
ENDBRANCH   7   8
ENDBRANCH   6   7
ENDBRANCH   5   6
ENDBRANCH   4   5
ENDBRANCH   3   4
ENDBRANCH   2   3
ENDBRANCH   1   2
BRANCH   1  12
ATOM     12  C   UNL     1      11.650   6.587  32.951  1.00  0.00     0.000 C 
BRANCH  12  13
ATOM     13  C   UNL     1      11.833   5.201  33.593  1.00  0.00    -0.000 C 
BRANCH  13  14
ATOM     14  C   UNL     1      12.430   4.173  32.615  1.00  0.00    -0.000 C 
BRANCH  14  15
ATOM     15  C   UNL     1      12.755   4.783  31.242  1.00  0.00    -0.000 C 
BRANCH  15  16
ATOM     16  C   UNL     1      12.970   3.719  30.154  1.00  0.00    -0.000 C 
BRANCH  16  17
ATOM     17  C   UNL     1      12.163   2.452  30.458  1.00  0.00    -0.000 C 
BRANCH  17  18
ATOM     18  C   UNL     1      11.359   2.003  29.228  1.00  0.00    -0.000 C 
BRANCH  18  19
ATOM     19  C   UNL     1      10.286   0.959  29.574  1.00  0.00    -0.003 C 
ATOM     20  C   UNL     1      10.118   0.758  31.080  1.00  0.00     0.004 C 
ENDBRANCH  18  19
ENDBRANCH  17  18
ENDBRANCH  16  17
ENDBRANCH  15  16
ENDBRANCH  14  15
ENDBRANCH  13  14
ENDBRANCH  12  13
ENDBRANCH   1  12
TORSDOF 16
ENDMDL
