MODEL 1
REMARK VINA RESULT:    -8.247      0.000      0.000
REMARK INTER + INTRA:         -11.552
REMARK INTER:                 -10.899
REMARK INTRA:                  -0.653
REMARK UNBOUND:                -0.653
REMARK SMILES CC[C@@H](C=C[C@H](C)[C@@H]1CC[C@H]2C3=CC[C@@H]4C[C@@H](O)CC[C@@]4(C)[C@@H]3CC[C@]21C)C(C)C
REMARK SMILES IDX 6 1 7 2 5 3 4 4 3 5 2 6 1 7 28 8 29 9 30 10 8 11 9 12 26 13
REMARK SMILES IDX 10 14 11 15 25 16 27 17 12 18 24 19 23 20 13 21 21 22 14 23
REMARK SMILES IDX 15 24 20 25 22 26 16 27 19 28 17 29 18 30
REMARK H PARENT 18 31
REMARK Flexibility Score: inf
ROOT
ATOM      1  C   UNL     1     115.080 122.293 128.605  1.00  0.00     0.012 C 
ATOM      2  C   UNL     1     113.663 122.239 128.005  1.00  0.00     0.012 C 
ENDROOT
BRANCH   1   3
ATOM      3  C   UNL     1     115.616 123.715 128.591  1.00  0.00    -0.028 C 
ATOM      4  C   UNL     1     116.671 124.104 127.849  1.00  0.00    -0.027 C 
BRANCH   4   5
ATOM      5  C   UNL     1     117.244 125.509 127.871  1.00  0.00     0.014 C 
BRANCH   5   6
ATOM      6  C   UNL     1     118.732 125.558 127.440  1.00  0.00     0.004 C 
ATOM      7  C   UNL     1     119.272 124.181 127.052  1.00  0.00     0.004 C 
ENDBRANCH   5   6
BRANCH   5   8
ATOM      8  C   UNL     1     116.946 126.237 129.220  1.00  0.00    -0.011 C 
ATOM      9  C   UNL     1     118.109 127.088 129.753  1.00  0.00     0.008 C 
ATOM     10  C   UNL     1     115.679 127.105 129.121  1.00  0.00     0.008 C 
ENDBRANCH   5   8
ENDBRANCH   4   5
ENDBRANCH   1   3
BRANCH   1  11
ATOM     11  C   UNL     1     115.146 121.550 129.983  1.00  0.00     0.002 C 
ATOM     12  C   UNL     1     113.935 120.703 130.356  1.00  0.00     0.005 C 
ATOM     13  C   UNL     1     115.435 122.400 131.257  1.00  0.00    -0.023 C 
ATOM     14  C   UNL     1     114.150 120.347 131.820  1.00  0.00     0.009 C 
ATOM     15  C   UNL     1     115.066 121.436 132.421  1.00  0.00     0.021 C 
ATOM     16  C   UNL     1     116.899 122.892 131.365  1.00  0.00     0.008 C 
ATOM     17  C   UNL     1     114.522 123.653 131.329  1.00  0.00     0.012 C 
ATOM     18  C   UNL     1     116.258 120.799 133.133  1.00  0.00    -0.067 C 
ATOM     19  C   UNL     1     117.933 121.767 131.406  1.00  0.00     0.009 C 
ATOM     20  C   UNL     1     117.615 120.638 132.433  1.00  0.00     0.021 C 
ATOM     21  C   UNL     1     116.016 120.199 134.323  1.00  0.00    -0.027 C 
ATOM     22  C   UNL     1     118.783 120.365 133.453  1.00  0.00    -0.023 C 
ATOM     23  C   UNL     1     117.066 119.502 135.150  1.00  0.00     0.031 C 
ATOM     24  C   UNL     1     118.328 119.162 134.341  1.00  0.00     0.002 C 
ATOM     25  C   UNL     1     120.078 119.944 132.688  1.00  0.00     0.010 C 
ATOM     26  C   UNL     1     119.061 121.641 134.306  1.00  0.00     0.012 C 
ATOM     27  C   UNL     1     119.442 118.629 135.269  1.00  0.00     0.036 C 
ATOM     28  C   UNL     1     121.184 119.420 133.619  1.00  0.00     0.032 C 
ATOM     29  C   UNL     1     120.705 118.246 134.482  1.00  0.00     0.114 C 
BRANCH  29  30
ATOM     30  O   UNL     1     120.457 117.130 133.664  1.00  0.00    -0.393 OA
ATOM     31  H   UNL     1     120.022 116.446 134.238  1.00  0.00     0.210 HD
ENDBRANCH  29  30
ENDBRANCH   1  11
TORSDOF 6
ENDMDL
MODEL 2
REMARK VINA RESULT:    -7.918      3.230      5.834
REMARK INTER + INTRA:         -11.117
REMARK INTER:                 -10.225
REMARK INTRA:                  -0.892
REMARK UNBOUND:                -0.653
REMARK SMILES CC[C@@H](C=C[C@H](C)[C@@H]1CC[C@H]2C3=CC[C@@H]4C[C@@H](O)CC[C@@]4(C)[C@@H]3CC[C@]21C)C(C)C
REMARK SMILES IDX 6 1 7 2 5 3 4 4 3 5 2 6 1 7 28 8 29 9 30 10 8 11 9 12 26 13
REMARK SMILES IDX 10 14 11 15 25 16 27 17 12 18 24 19 23 20 13 21 21 22 14 23
REMARK SMILES IDX 15 24 20 25 22 26 16 27 19 28 17 29 18 30
REMARK H PARENT 18 31
REMARK Flexibility Score: inf
ROOT
ATOM      1  C   UNL     1     118.970 126.691 129.195  1.00  0.00     0.012 C 
ATOM      2  C   UNL     1     119.718 126.578 127.854  1.00  0.00     0.012 C 
ENDROOT
BRANCH   1   3
ATOM      3  C   UNL     1     118.828 128.146 129.610  1.00  0.00    -0.028 C 
ATOM      4  C   UNL     1     119.748 128.804 130.340  1.00  0.00    -0.027 C 
BRANCH   4   5
ATOM      5  C   UNL     1     119.587 130.240 130.804  1.00  0.00     0.014 C 
BRANCH   5   6
ATOM      6  C   UNL     1     118.167 130.541 131.347  1.00  0.00     0.004 C 
ATOM      7  C   UNL     1     117.848 129.748 132.615  1.00  0.00     0.004 C 
ENDBRANCH   5   6
BRANCH   5   8
ATOM      8  C   UNL     1     120.089 131.257 129.729  1.00  0.00    -0.011 C 
ATOM      9  C   UNL     1     119.323 132.589 129.710  1.00  0.00     0.008 C 
ATOM     10  C   UNL     1     121.595 131.532 129.878  1.00  0.00     0.008 C 
ENDBRANCH   5   8
ENDBRANCH   4   5
ENDBRANCH   1   3
BRANCH   1  11
ATOM     11  C   UNL     1     117.650 125.849 129.185  1.00  0.00     0.002 C 
ATOM     12  C   UNL     1     116.403 126.547 128.655  1.00  0.00     0.005 C 
ATOM     13  C   UNL     1     117.191 125.196 130.524  1.00  0.00    -0.023 C 
ATOM     14  C   UNL     1     115.254 125.617 129.022  1.00  0.00     0.009 C 
ATOM     15  C   UNL     1     115.719 124.780 130.234  1.00  0.00     0.021 C 
ATOM     16  C   UNL     1     118.051 123.984 130.959  1.00  0.00     0.008 C 
ATOM     17  C   UNL     1     117.207 126.215 131.695  1.00  0.00     0.012 C 
ATOM     18  C   UNL     1     115.511 123.290 129.966  1.00  0.00    -0.067 C 
ATOM     19  C   UNL     1     118.064 122.835 129.951  1.00  0.00     0.009 C 
ATOM     20  C   UNL     1     116.652 122.404 129.449  1.00  0.00     0.021 C 
ATOM     21  C   UNL     1     114.238 122.830 130.005  1.00  0.00    -0.027 C 
ATOM     22  C   UNL     1     116.353 120.871 129.649  1.00  0.00    -0.023 C 
ATOM     23  C   UNL     1     113.846 121.399 129.743  1.00  0.00     0.031 C 
ATOM     24  C   UNL     1     114.947 120.605 129.020  1.00  0.00     0.002 C 
ATOM     25  C   UNL     1     117.402 120.012 128.874  1.00  0.00     0.010 C 
ATOM     26  C   UNL     1     116.387 120.509 131.166  1.00  0.00     0.012 C 
ATOM     27  C   UNL     1     114.580 119.107 128.949  1.00  0.00     0.036 C 
ATOM     28  C   UNL     1     117.033 118.521 128.811  1.00  0.00     0.032 C 
ATOM     29  C   UNL     1     115.646 118.294 128.198  1.00  0.00     0.114 C 
BRANCH  29  30
ATOM     30  O   UNL     1     115.669 118.647 126.838  1.00  0.00    -0.393 OA
ATOM     31  H   UNL     1     116.297 118.021 126.391  1.00  0.00     0.210 HD
ENDBRANCH  29  30
ENDBRANCH   1  11
TORSDOF 6
ENDMDL
MODEL 3
REMARK VINA RESULT:    -7.855      2.650      7.241
REMARK INTER + INTRA:         -11.034
REMARK INTER:                 -10.319
REMARK INTRA:                  -0.716
REMARK UNBOUND:                -0.653
REMARK SMILES CC[C@@H](C=C[C@H](C)[C@@H]1CC[C@H]2C3=CC[C@@H]4C[C@@H](O)CC[C@@]4(C)[C@@H]3CC[C@]21C)C(C)C
REMARK SMILES IDX 6 1 7 2 5 3 4 4 3 5 2 6 1 7 28 8 29 9 30 10 8 11 9 12 26 13
REMARK SMILES IDX 10 14 11 15 25 16 27 17 12 18 24 19 23 20 13 21 21 22 14 23
REMARK SMILES IDX 15 24 20 25 22 26 16 27 19 28 17 29 18 30
REMARK H PARENT 18 31
REMARK Flexibility Score: inf
ROOT
ATOM      1  C   UNL     1     114.353 121.368 133.217  1.00  0.00     0.012 C 
ATOM      2  C   UNL     1     113.767 119.980 132.898  1.00  0.00     0.012 C 
ENDROOT
BRANCH   1   3
ATOM      3  C   UNL     1     115.540 121.247 134.157  1.00  0.00    -0.028 C 
ATOM      4  C   UNL     1     116.270 120.123 134.291  1.00  0.00    -0.027 C 
BRANCH   4   5
ATOM      5  C   UNL     1     117.424 119.978 135.267  1.00  0.00     0.014 C 
BRANCH   5   6
ATOM      6  C   UNL     1     117.818 121.320 135.935  1.00  0.00     0.004 C 
ATOM      7  C   UNL     1     119.332 121.470 136.093  1.00  0.00     0.004 C 
ENDBRANCH   5   6
BRANCH   5   8
ATOM      8  C   UNL     1     118.624 119.201 134.637  1.00  0.00    -0.011 C 
ATOM      9  C   UNL     1     118.686 117.714 135.018  1.00  0.00     0.008 C 
ATOM     10  C   UNL     1     118.637 119.339 133.105  1.00  0.00     0.008 C 
ENDBRANCH   5   8
ENDBRANCH   4   5
ENDBRANCH   1   3
BRANCH   1  11
ATOM     11  C   UNL     1     114.594 122.200 131.912  1.00  0.00     0.002 C 
ATOM     12  C   UNL     1     113.369 122.483 131.051  1.00  0.00     0.005 C 
ATOM     13  C   UNL     1     115.666 121.683 130.905  1.00  0.00    -0.023 C 
ATOM     14  C   UNL     1     113.931 123.039 129.750  1.00  0.00     0.009 C 
ATOM     15  C   UNL     1     115.376 122.507 129.618  1.00  0.00     0.021 C 
ATOM     16  C   UNL     1     117.125 121.874 131.389  1.00  0.00     0.008 C 
ATOM     17  C   UNL     1     115.479 120.174 130.592  1.00  0.00     0.012 C 
ATOM     18  C   UNL     1     116.346 123.658 129.356  1.00  0.00    -0.067 C 
ATOM     19  C   UNL     1     117.508 123.330 131.651  1.00  0.00     0.009 C 
ATOM     20  C   UNL     1     117.138 124.311 130.497  1.00  0.00     0.021 C 
ATOM     21  C   UNL     1     116.326 124.212 128.120  1.00  0.00    -0.027 C 
ATOM     22  C   UNL     1     118.359 125.153 129.969  1.00  0.00    -0.023 C 
ATOM     23  C   UNL     1     117.196 125.366 127.695  1.00  0.00     0.031 C 
ATOM     24  C   UNL     1     117.793 126.129 128.888  1.00  0.00     0.002 C 
ATOM     25  C   UNL     1     118.964 126.008 131.128  1.00  0.00     0.010 C 
ATOM     26  C   UNL     1     119.451 124.207 129.381  1.00  0.00     0.012 C 
ATOM     27  C   UNL     1     118.823 127.174 128.405  1.00  0.00     0.036 C 
ATOM     28  C   UNL     1     119.994 127.042 130.640  1.00  0.00     0.032 C 
ATOM     29  C   UNL     1     119.411 127.978 129.575  1.00  0.00     0.114 C 
BRANCH  29  30
ATOM     30  O   UNL     1     118.426 128.796 130.155  1.00  0.00    -0.393 OA
ATOM     31  H   UNL     1     118.164 129.461 129.465  1.00  0.00     0.210 HD
ENDBRANCH  29  30
ENDBRANCH   1  11
TORSDOF 6
ENDMDL
MODEL 4
REMARK VINA RESULT:    -7.702      2.549      4.127
REMARK INTER + INTRA:         -10.831
REMARK INTER:                 -10.226
REMARK INTRA:                  -0.605
REMARK UNBOUND:                -0.653
REMARK SMILES CC[C@@H](C=C[C@H](C)[C@@H]1CC[C@H]2C3=CC[C@@H]4C[C@@H](O)CC[C@@]4(C)[C@@H]3CC[C@]21C)C(C)C
REMARK SMILES IDX 6 1 7 2 5 3 4 4 3 5 2 6 1 7 28 8 29 9 30 10 8 11 9 12 26 13
REMARK SMILES IDX 10 14 11 15 25 16 27 17 12 18 24 19 23 20 13 21 21 22 14 23
REMARK SMILES IDX 15 24 20 25 22 26 16 27 19 28 17 29 18 30
REMARK H PARENT 18 31
REMARK Flexibility Score: inf
ROOT
ATOM      1  C   UNL     1     113.976 120.647 129.869  1.00  0.00     0.012 C 
ATOM      2  C   UNL     1     113.857 122.122 129.443  1.00  0.00     0.012 C 
ENDROOT
BRANCH   1   3
ATOM      3  C   UNL     1     114.655 119.828 128.785  1.00  0.00    -0.028 C 
ATOM      4  C   UNL     1     115.659 118.963 129.027  1.00  0.00    -0.027 C 
BRANCH   4   5
ATOM      5  C   UNL     1     116.378 118.182 127.942  1.00  0.00     0.014 C 
BRANCH   5   6
ATOM      6  C   UNL     1     116.068 116.664 127.988  1.00  0.00     0.004 C 
ATOM      7  C   UNL     1     116.180 116.004 126.614  1.00  0.00     0.004 C 
ENDBRANCH   5   6
BRANCH   5   8
ATOM      8  C   UNL     1     117.902 118.521 127.896  1.00  0.00    -0.011 C 
ATOM      9  C   UNL     1     118.216 120.025 127.846  1.00  0.00     0.008 C 
ATOM     10  C   UNL     1     118.655 117.878 129.073  1.00  0.00     0.008 C 
ENDBRANCH   5   8
ENDBRANCH   4   5
ENDBRANCH   1   3
BRANCH   1  11
ATOM     11  C   UNL     1     114.581 120.516 131.308  1.00  0.00     0.002 C 
ATOM     12  C   UNL     1     113.598 120.215 132.434  1.00  0.00     0.005 C 
ATOM     13  C   UNL     1     115.441 121.698 131.849  1.00  0.00    -0.023 C 
ATOM     14  C   UNL     1     114.399 120.422 133.712  1.00  0.00     0.009 C 
ATOM     15  C   UNL     1     115.550 121.395 133.371  1.00  0.00     0.021 C 
ATOM     16  C   UNL     1     116.837 121.812 131.188  1.00  0.00     0.008 C 
ATOM     17  C   UNL     1     114.728 123.063 131.654  1.00  0.00     0.012 C 
ATOM     18  C   UNL     1     116.890 120.815 133.819  1.00  0.00    -0.067 C 
ATOM     19  C   UNL     1     117.716 120.575 131.373  1.00  0.00     0.009 C 
ATOM     20  C   UNL     1     117.801 120.060 132.842  1.00  0.00     0.021 C 
ATOM     21  C   UNL     1     117.147 120.813 135.150  1.00  0.00    -0.027 C 
ATOM     22  C   UNL     1     119.275 119.930 133.381  1.00  0.00    -0.023 C 
ATOM     23  C   UNL     1     118.404 120.261 135.769  1.00  0.00     0.031 C 
ATOM     24  C   UNL     1     119.173 119.328 134.820  1.00  0.00     0.002 C 
ATOM     25  C   UNL     1     120.087 118.934 132.493  1.00  0.00     0.010 C 
ATOM     26  C   UNL     1     119.971 121.325 133.386  1.00  0.00     0.012 C 
ATOM     27  C   UNL     1     120.541 118.944 135.424  1.00  0.00     0.036 C 
ATOM     28  C   UNL     1     121.451 118.561 133.098  1.00  0.00     0.032 C 
ATOM     29  C   UNL     1     121.317 117.982 134.511  1.00  0.00     0.114 C 
BRANCH  29  30
ATOM     30  O   UNL     1     120.673 116.733 134.450  1.00  0.00    -0.393 OA
ATOM     31  H   UNL     1     119.802 116.884 133.996  1.00  0.00     0.210 HD
ENDBRANCH  29  30
ENDBRANCH   1  11
TORSDOF 6
ENDMDL
MODEL 5
REMARK VINA RESULT:    -7.684      0.985      2.016
REMARK INTER + INTRA:         -10.807
REMARK INTER:                 -10.193
REMARK INTRA:                  -0.615
REMARK UNBOUND:                -0.653
REMARK SMILES CC[C@@H](C=C[C@H](C)[C@@H]1CC[C@H]2C3=CC[C@@H]4C[C@@H](O)CC[C@@]4(C)[C@@H]3CC[C@]21C)C(C)C
REMARK SMILES IDX 6 1 7 2 5 3 4 4 3 5 2 6 1 7 28 8 29 9 30 10 8 11 9 12 26 13
REMARK SMILES IDX 10 14 11 15 25 16 27 17 12 18 24 19 23 20 13 21 21 22 14 23
REMARK SMILES IDX 15 24 20 25 22 26 16 27 19 28 17 29 18 30
REMARK H PARENT 18 31
REMARK Flexibility Score: inf
ROOT
ATOM      1  C   UNL     1     114.985 122.687 128.764  1.00  0.00     0.012 C 
ATOM      2  C   UNL     1     113.718 123.561 128.754  1.00  0.00     0.012 C 
ENDROOT
BRANCH   1   3
ATOM      3  C   UNL     1     116.216 123.523 128.456  1.00  0.00    -0.028 C 
ATOM      4  C   UNL     1     117.428 122.994 128.201  1.00  0.00    -0.027 C 
BRANCH   4   5
ATOM      5  C   UNL     1     118.674 123.823 127.945  1.00  0.00     0.014 C 
BRANCH   5   6
ATOM      6  C   UNL     1     118.399 125.060 127.052  1.00  0.00     0.004 C 
ATOM      7  C   UNL     1     118.610 126.377 127.800  1.00  0.00     0.004 C 
ENDBRANCH   5   6
BRANCH   5   8
ATOM      8  C   UNL     1     119.870 122.941 127.465  1.00  0.00    -0.011 C 
ATOM      9  C   UNL     1     120.095 121.670 128.299  1.00  0.00     0.008 C 
ATOM     10  C   UNL     1     119.728 122.563 125.981  1.00  0.00     0.008 C 
ENDBRANCH   5   8
ENDBRANCH   4   5
ENDBRANCH   1   3
BRANCH   1  11
ATOM     11  C   UNL     1     115.062 121.806 130.058  1.00  0.00     0.002 C 
ATOM     12  C   UNL     1     113.888 120.867 130.310  1.00  0.00     0.005 C 
ATOM     13  C   UNL     1     115.281 122.530 131.421  1.00  0.00    -0.023 C 
ATOM     14  C   UNL     1     114.091 120.368 131.734  1.00  0.00     0.009 C 
ATOM     15  C   UNL     1     114.939 121.431 132.468  1.00  0.00     0.021 C 
ATOM     16  C   UNL     1     116.717 123.078 131.616  1.00  0.00     0.008 C 
ATOM     17  C   UNL     1     114.305 123.722 131.601  1.00  0.00     0.012 C 
ATOM     18  C   UNL     1     116.148 120.780 133.139  1.00  0.00    -0.067 C 
ATOM     19  C   UNL     1     117.805 122.006 131.565  1.00  0.00     0.009 C 
ATOM     20  C   UNL     1     117.524 120.760 132.460  1.00  0.00     0.021 C 
ATOM     21  C   UNL     1     115.913 120.047 134.253  1.00  0.00    -0.027 C 
ATOM     22  C   UNL     1     118.684 120.438 133.475  1.00  0.00    -0.023 C 
ATOM     23  C   UNL     1     116.980 119.318 135.028  1.00  0.00     0.031 C 
ATOM     24  C   UNL     1     118.274 119.127 134.220  1.00  0.00     0.002 C 
ATOM     25  C   UNL     1     120.014 120.163 132.703  1.00  0.00     0.010 C 
ATOM     26  C   UNL     1     118.881 121.628 134.463  1.00  0.00     0.012 C 
ATOM     27  C   UNL     1     119.395 118.553 135.114  1.00  0.00     0.036 C 
ATOM     28  C   UNL     1     121.127 119.597 133.601  1.00  0.00     0.032 C 
ATOM     29  C   UNL     1     120.691 118.317 134.324  1.00  0.00     0.114 C 
BRANCH  29  30
ATOM     30  O   UNL     1     120.516 117.284 133.387  1.00  0.00    -0.393 OA
ATOM     31  H   UNL     1     121.423 117.024 133.075  1.00  0.00     0.210 HD
ENDBRANCH  29  30
ENDBRANCH   1  11
TORSDOF 6
ENDMDL
MODEL 6
REMARK VINA RESULT:    -7.631      3.428      5.058
REMARK INTER + INTRA:         -10.738
REMARK INTER:                  -9.673
REMARK INTRA:                  -1.065
REMARK UNBOUND:                -0.653
REMARK SMILES CC[C@@H](C=C[C@H](C)[C@@H]1CC[C@H]2C3=CC[C@@H]4C[C@@H](O)CC[C@@]4(C)[C@@H]3CC[C@]21C)C(C)C
REMARK SMILES IDX 6 1 7 2 5 3 4 4 3 5 2 6 1 7 28 8 29 9 30 10 8 11 9 12 26 13
REMARK SMILES IDX 10 14 11 15 25 16 27 17 12 18 24 19 23 20 13 21 21 22 14 23
REMARK SMILES IDX 15 24 20 25 22 26 16 27 19 28 17 29 18 30
REMARK H PARENT 18 31
REMARK Flexibility Score: inf
ROOT
ATOM      1  C   UNL     1     114.024 122.859 129.906  1.00  0.00     0.012 C 
ATOM      2  C   UNL     1     113.077 122.516 131.070  1.00  0.00     0.012 C 
ENDROOT
BRANCH   1   3
ATOM      3  C   UNL     1     114.869 124.077 130.240  1.00  0.00    -0.028 C 
ATOM      4  C   UNL     1     115.303 124.956 129.317  1.00  0.00    -0.027 C 
BRANCH   4   5
ATOM      5  C   UNL     1     116.192 126.144 129.637  1.00  0.00     0.014 C 
BRANCH   5   6
ATOM      6  C   UNL     1     117.251 126.416 128.538  1.00  0.00     0.004 C 
ATOM      7  C   UNL     1     117.337 125.281 127.518  1.00  0.00     0.004 C 
ENDBRANCH   5   6
BRANCH   5   8
ATOM      8  C   UNL     1     116.778 126.058 131.082  1.00  0.00    -0.011 C 
ATOM      9  C   UNL     1     118.282 125.749 131.139  1.00  0.00     0.008 C 
ATOM     10  C   UNL     1     116.487 127.340 131.882  1.00  0.00     0.008 C 
ENDBRANCH   5   8
ENDBRANCH   4   5
ENDBRANCH   1   3
BRANCH   1  11
ATOM     11  C   UNL     1     114.810 121.594 129.417  1.00  0.00     0.002 C 
ATOM     12  C   UNL     1     113.985 120.337 129.169  1.00  0.00     0.005 C 
ATOM     13  C   UNL     1     116.014 121.106 130.278  1.00  0.00    -0.023 C 
ATOM     14  C   UNL     1     115.013 119.229 128.989  1.00  0.00     0.009 C 
ATOM     15  C   UNL     1     116.296 119.680 129.722  1.00  0.00     0.021 C 
ATOM     16  C   UNL     1     117.264 122.015 130.180  1.00  0.00     0.008 C 
ATOM     17  C   UNL     1     115.639 120.998 131.780  1.00  0.00     0.012 C 
ATOM     18  C   UNL     1     117.506 119.577 128.795  1.00  0.00    -0.067 C 
ATOM     19  C   UNL     1     117.827 122.150 128.766  1.00  0.00     0.009 C 
ATOM     20  C   UNL     1     118.025 120.796 128.019  1.00  0.00     0.021 C 
ATOM     21  C   UNL     1     117.972 118.334 128.526  1.00  0.00    -0.027 C 
ATOM     22  C   UNL     1     119.489 120.580 127.481  1.00  0.00    -0.023 C 
ATOM     23  C   UNL     1     119.138 118.045 127.617  1.00  0.00     0.031 C 
ATOM     24  C   UNL     1     119.482 119.228 126.698  1.00  0.00     0.002 C 
ATOM     25  C   UNL     1     119.868 121.719 126.482  1.00  0.00     0.010 C 
ATOM     26  C   UNL     1     120.501 120.556 128.668  1.00  0.00     0.012 C 
ATOM     27  C   UNL     1     120.793 118.957 125.928  1.00  0.00     0.036 C 
ATOM     28  C   UNL     1     121.178 121.446 125.724  1.00  0.00     0.032 C 
ATOM     29  C   UNL     1     121.143 120.109 124.974  1.00  0.00     0.114 C 
BRANCH  29  30
ATOM     30  O   UNL     1     120.208 120.182 123.926  1.00  0.00    -0.393 OA
ATOM     31  H   UNL     1     120.727 120.294 123.087  1.00  0.00     0.210 HD
ENDBRANCH  29  30
ENDBRANCH   1  11
TORSDOF 6
ENDMDL
MODEL 7
REMARK VINA RESULT:    -7.607      3.273      6.189
REMARK INTER + INTRA:         -10.706
REMARK INTER:                  -9.962
REMARK INTRA:                  -0.744
REMARK UNBOUND:                -0.653
REMARK SMILES CC[C@@H](C=C[C@H](C)[C@@H]1CC[C@H]2C3=CC[C@@H]4C[C@@H](O)CC[C@@]4(C)[C@@H]3CC[C@]21C)C(C)C
REMARK SMILES IDX 6 1 7 2 5 3 4 4 3 5 2 6 1 7 28 8 29 9 30 10 8 11 9 12 26 13
REMARK SMILES IDX 10 14 11 15 25 16 27 17 12 18 24 19 23 20 13 21 21 22 14 23
REMARK SMILES IDX 15 24 20 25 22 26 16 27 19 28 17 29 18 30
REMARK H PARENT 18 31
REMARK Flexibility Score: inf
ROOT
ATOM      1  C   UNL     1     116.571 119.603 129.395  1.00  0.00     0.012 C 
ATOM      2  C   UNL     1     115.205 119.003 129.015  1.00  0.00     0.012 C 
ENDROOT
BRANCH   1   3
ATOM      3  C   UNL     1     117.472 119.705 128.175  1.00  0.00    -0.028 C 
ATOM      4  C   UNL     1     118.680 120.300 128.191  1.00  0.00    -0.027 C 
BRANCH   4   5
ATOM      5  C   UNL     1     119.560 120.453 126.964  1.00  0.00     0.014 C 
BRANCH   5   6
ATOM      6  C   UNL     1     120.986 119.883 127.173  1.00  0.00     0.004 C 
ATOM      7  C   UNL     1     121.165 119.250 128.553  1.00  0.00     0.004 C 
ENDBRANCH   5   6
BRANCH   5   8
ATOM      8  C   UNL     1     119.531 121.913 126.407  1.00  0.00    -0.011 C 
ATOM      9  C   UNL     1     120.401 122.908 127.191  1.00  0.00     0.008 C 
ATOM     10  C   UNL     1     119.919 121.952 124.919  1.00  0.00     0.008 C 
ENDBRANCH   5   8
ENDBRANCH   4   5
ENDBRANCH   1   3
BRANCH   1  11
ATOM     11  C   UNL     1     116.406 120.914 130.236  1.00  0.00     0.002 C 
ATOM     12  C   UNL     1     116.138 120.737 131.726  1.00  0.00     0.005 C 
ATOM     13  C   UNL     1     115.338 121.950 129.769  1.00  0.00    -0.023 C 
ATOM     14  C   UNL     1     115.747 122.124 132.216  1.00  0.00     0.009 C 
ATOM     15  C   UNL     1     115.197 122.896 130.996  1.00  0.00     0.021 C 
ATOM     16  C   UNL     1     115.736 122.728 128.490  1.00  0.00     0.008 C 
ATOM     17  C   UNL     1     113.968 121.276 129.490  1.00  0.00     0.012 C 
ATOM     18  C   UNL     1     115.902 124.244 130.855  1.00  0.00    -0.067 C 
ATOM     19  C   UNL     1     117.026 123.535 128.629  1.00  0.00     0.009 C 
ATOM     20  C   UNL     1     117.093 124.428 129.905  1.00  0.00     0.021 C 
ATOM     21  C   UNL     1     115.570 125.209 131.747  1.00  0.00    -0.027 C 
ATOM     22  C   UNL     1     117.382 125.945 129.599  1.00  0.00    -0.023 C 
ATOM     23  C   UNL     1     116.180 126.586 131.771  1.00  0.00     0.031 C 
ATOM     24  C   UNL     1     117.497 126.665 130.982  1.00  0.00     0.002 C 
ATOM     25  C   UNL     1     118.749 126.094 128.858  1.00  0.00     0.010 C 
ATOM     26  C   UNL     1     116.237 126.547 128.727  1.00  0.00     0.012 C 
ATOM     27  C   UNL     1     117.980 128.129 130.874  1.00  0.00     0.036 C 
ATOM     28  C   UNL     1     119.220 127.554 128.749  1.00  0.00     0.032 C 
ATOM     29  C   UNL     1     119.315 128.234 130.120  1.00  0.00     0.114 C 
BRANCH  29  30
ATOM     30  O   UNL     1     120.351 127.647 130.867  1.00  0.00    -0.393 OA
ATOM     31  H   UNL     1     120.248 126.663 130.773  1.00  0.00     0.210 HD
ENDBRANCH  29  30
ENDBRANCH   1  11
TORSDOF 6
ENDMDL
MODEL 8
REMARK VINA RESULT:    -7.551      6.906     10.757
REMARK INTER + INTRA:         -10.632
REMARK INTER:                  -9.540
REMARK INTRA:                  -1.092
REMARK UNBOUND:                -0.653
REMARK SMILES CC[C@@H](C=C[C@H](C)[C@@H]1CC[C@H]2C3=CC[C@@H]4C[C@@H](O)CC[C@@]4(C)[C@@H]3CC[C@]21C)C(C)C
REMARK SMILES IDX 6 1 7 2 5 3 4 4 3 5 2 6 1 7 28 8 29 9 30 10 8 11 9 12 26 13
REMARK SMILES IDX 10 14 11 15 25 16 27 17 12 18 24 19 23 20 13 21 21 22 14 23
REMARK SMILES IDX 15 24 20 25 22 26 16 27 19 28 17 29 18 30
REMARK H PARENT 18 31
REMARK Flexibility Score: inf
ROOT
ATOM      1  C   UNL     1     121.411 121.783 127.017  1.00  0.00     0.012 C 
ATOM      2  C   UNL     1     122.687 122.532 127.444  1.00  0.00     0.012 C 
ENDROOT
BRANCH   1   3
ATOM      3  C   UNL     1     120.174 122.473 127.567  1.00  0.00    -0.028 C 
ATOM      4  C   UNL     1     120.116 123.791 127.838  1.00  0.00    -0.027 C 
BRANCH   4   5
ATOM      5  C   UNL     1     118.902 124.476 128.438  1.00  0.00     0.014 C 
BRANCH   5   6
ATOM      6  C   UNL     1     117.740 124.636 127.425  1.00  0.00     0.004 C 
ATOM      7  C   UNL     1     116.398 124.180 128.000  1.00  0.00     0.004 C 
ENDBRANCH   5   6
BRANCH   5   8
ATOM      8  C   UNL     1     119.288 125.795 129.181  1.00  0.00    -0.011 C 
ATOM      9  C   UNL     1     118.896 127.080 128.436  1.00  0.00     0.008 C 
ATOM     10  C   UNL     1     118.704 125.828 130.604  1.00  0.00     0.008 C 
ENDBRANCH   5   8
ENDBRANCH   4   5
ENDBRANCH   1   3
BRANCH   1  11
ATOM     11  C   UNL     1     121.407 121.495 125.477  1.00  0.00     0.002 C 
ATOM     12  C   UNL     1     120.109 121.792 124.734  1.00  0.00     0.005 C 
ATOM     13  C   UNL     1     121.809 120.066 125.001  1.00  0.00    -0.023 C 
ATOM     14  C   UNL     1     120.299 121.166 123.359  1.00  0.00     0.009 C 
ATOM     15  C   UNL     1     121.345 120.039 123.516  1.00  0.00     0.021 C 
ATOM     16  C   UNL     1     123.322 119.764 125.132  1.00  0.00     0.008 C 
ATOM     17  C   UNL     1     121.050 118.965 125.789  1.00  0.00     0.012 C 
ATOM     18  C   UNL     1     122.463 120.200 122.488  1.00  0.00    -0.067 C 
ATOM     19  C   UNL     1     124.217 120.708 124.329  1.00  0.00     0.009 C 
ATOM     20  C   UNL     1     123.782 120.899 122.844  1.00  0.00     0.021 C 
ATOM     21  C   UNL     1     122.167 119.889 121.203  1.00  0.00    -0.027 C 
ATOM     22  C   UNL     1     124.923 120.582 121.806  1.00  0.00    -0.023 C 
ATOM     23  C   UNL     1     123.138 120.009 120.057  1.00  0.00     0.031 C 
ATOM     24  C   UNL     1     124.342 120.905 120.392  1.00  0.00     0.002 C 
ATOM     25  C   UNL     1     126.150 121.517 122.053  1.00  0.00     0.010 C 
ATOM     26  C   UNL     1     125.360 119.090 121.925  1.00  0.00     0.012 C 
ATOM     27  C   UNL     1     125.397 120.842 119.265  1.00  0.00     0.036 C 
ATOM     28  C   UNL     1     127.199 121.444 120.931  1.00  0.00     0.032 C 
ATOM     29  C   UNL     1     126.596 121.758 119.556  1.00  0.00     0.114 C 
BRANCH  29  30
ATOM     30  O   UNL     1     126.209 123.108 119.508  1.00  0.00    -0.393 OA
ATOM     31  H   UNL     1     125.675 123.223 118.679  1.00  0.00     0.210 HD
ENDBRANCH  29  30
ENDBRANCH   1  11
TORSDOF 6
ENDMDL
MODEL 9
REMARK VINA RESULT:    -7.493      3.381      5.355
REMARK INTER + INTRA:         -10.555
REMARK INTER:                  -9.403
REMARK INTRA:                  -1.152
REMARK UNBOUND:                -0.653
REMARK SMILES CC[C@@H](C=C[C@H](C)[C@@H]1CC[C@H]2C3=CC[C@@H]4C[C@@H](O)CC[C@@]4(C)[C@@H]3CC[C@]21C)C(C)C
REMARK SMILES IDX 6 1 7 2 5 3 4 4 3 5 2 6 1 7 28 8 29 9 30 10 8 11 9 12 26 13
REMARK SMILES IDX 10 14 11 15 25 16 27 17 12 18 24 19 23 20 13 21 21 22 14 23
REMARK SMILES IDX 15 24 20 25 22 26 16 27 19 28 17 29 18 30
REMARK H PARENT 18 31
REMARK Flexibility Score: inf
ROOT
ATOM      1  C   UNL     1     118.639 125.932 128.984  1.00  0.00     0.012 C 
ATOM      2  C   UNL     1     119.324 125.973 127.605  1.00  0.00     0.012 C 
ENDROOT
BRANCH   1   3
ATOM      3  C   UNL     1     118.149 127.314 129.382  1.00  0.00    -0.028 C 
ATOM      4  C   UNL     1     118.542 127.948 130.503  1.00  0.00    -0.027 C 
BRANCH   4   5
ATOM      5  C   UNL     1     118.016 129.305 130.934  1.00  0.00     0.014 C 
BRANCH   5   6
ATOM      6  C   UNL     1     119.137 130.363 131.092  1.00  0.00     0.004 C 
ATOM      7  C   UNL     1     120.412 129.976 130.342  1.00  0.00     0.004 C 
ENDBRANCH   5   6
BRANCH   5   8
ATOM      8  C   UNL     1     117.065 129.193 132.169  1.00  0.00    -0.011 C 
ATOM      9  C   UNL     1     116.484 127.788 132.396  1.00  0.00     0.008 C 
ATOM     10  C   UNL     1     117.756 129.677 133.455  1.00  0.00     0.008 C 
ENDBRANCH   5   8
ENDBRANCH   4   5
ENDBRANCH   1   3
BRANCH   1  11
ATOM     11  C   UNL     1     117.579 124.781 129.061  1.00  0.00     0.002 C 
ATOM     12  C   UNL     1     116.115 125.198 128.972  1.00  0.00     0.005 C 
ATOM     13  C   UNL     1     117.635 123.818 130.285  1.00  0.00    -0.023 C 
ATOM     14  C   UNL     1     115.334 123.949 129.352  1.00  0.00     0.009 C 
ATOM     15  C   UNL     1     116.268 123.078 130.222  1.00  0.00     0.021 C 
ATOM     16  C   UNL     1     118.824 122.826 130.248  1.00  0.00     0.008 C 
ATOM     17  C   UNL     1     117.728 124.597 131.624  1.00  0.00     0.012 C 
ATOM     18  C   UNL     1     116.331 121.652 129.676  1.00  0.00    -0.067 C 
ATOM     19  C   UNL     1     118.829 121.905 129.029  1.00  0.00     0.009 C 
ATOM     20  C   UNL     1     117.467 121.200 128.748  1.00  0.00     0.021 C 
ATOM     21  C   UNL     1     115.244 120.868 129.875  1.00  0.00    -0.027 C 
ATOM     22  C   UNL     1     117.574 119.632 128.657  1.00  0.00    -0.023 C 
ATOM     23  C   UNL     1     115.124 119.448 129.387  1.00  0.00     0.031 C 
ATOM     24  C   UNL     1     116.148 119.108 128.292  1.00  0.00     0.002 C 
ATOM     25  C   UNL     1     118.551 119.225 127.509  1.00  0.00     0.010 C 
ATOM     26  C   UNL     1     118.076 119.048 130.013  1.00  0.00     0.012 C 
ATOM     27  C   UNL     1     116.113 117.599 127.965  1.00  0.00     0.036 C 
ATOM     28  C   UNL     1     118.516 117.721 127.192  1.00  0.00     0.032 C 
ATOM     29  C   UNL     1     117.103 117.236 126.846  1.00  0.00     0.114 C 
BRANCH  29  30
ATOM     30  O   UNL     1     116.696 117.802 125.625  1.00  0.00    -0.393 OA
ATOM     31  H   UNL     1     115.821 117.391 125.397  1.00  0.00     0.210 HD
ENDBRANCH  29  30
ENDBRANCH   1  11
TORSDOF 6
ENDMDL
