MODEL 1
REMARK VINA RESULT:    -4.632      0.000      0.000
REMARK INTER + INTRA:          -8.763
REMARK INTER:                  -7.340
REMARK INTRA:                  -1.423
REMARK UNBOUND:                -1.423
REMARK SMILES CCCCCCCCCCCC(=O)[O-]
REMARK SMILES IDX 7 1 8 2 9 3 10 4 11 5 12 6 13 7 14 8 6 9 5 10 4 11 3 12 2 13
REMARK SMILES IDX 1 14
REMARK H PARENT
REMARK Flexibility Score: inf
ROOT
ATOM      1  C   UNL     1     -14.985   3.026 -21.342  1.00  0.00     0.000 C 
ENDROOT
BRANCH   1   2
ATOM      2  C   UNL     1     -14.262   1.824 -20.718  1.00  0.00     0.000 C 
BRANCH   2   3
ATOM      3  C   UNL     1     -15.069   1.244 -19.550  1.00  0.00     0.000 C 
BRANCH   3   4
ATOM      4  C   UNL     1     -14.710  -0.228 -19.309  1.00  0.00     0.006 C 
BRANCH   4   5
ATOM      5  C   UNL     1     -14.192  -0.883 -20.592  1.00  0.00     0.053 C 
BRANCH   5   6
ATOM      6  C   UNL     1     -13.837  -2.315 -20.341  1.00  0.00     0.041 C 
ATOM      7  O   UNL     1     -13.999  -3.175 -21.246  1.00  0.00    -0.550 OA
ATOM      8  O   UNL     1     -13.284  -2.692 -19.124  1.00  0.00    -0.550 OA
ENDBRANCH   5   6
ENDBRANCH   4   5
ENDBRANCH   3   4
ENDBRANCH   2   3
ENDBRANCH   1   2
BRANCH   1   9
ATOM      9  C   UNL     1     -16.376   3.269 -20.729  1.00  0.00     0.000 C 
BRANCH   9  10
ATOM     10  C   UNL     1     -17.550   3.175 -21.723  1.00  0.00    -0.000 C 
BRANCH  10  11
ATOM     11  C   UNL     1     -17.349   2.182 -22.885  1.00  0.00    -0.000 C 
BRANCH  11  12
ATOM     12  C   UNL     1     -17.855   0.754 -22.613  1.00  0.00    -0.000 C 
BRANCH  12  13
ATOM     13  C   UNL     1     -16.797  -0.318 -22.911  1.00  0.00    -0.003 C 
ATOM     14  C   UNL     1     -15.650   0.257 -23.737  1.00  0.00     0.004 C 
ENDBRANCH  12  13
ENDBRANCH  11  12
ENDBRANCH  10  11
ENDBRANCH   9  10
ENDBRANCH   1   9
TORSDOF 10
ENDMDL
MODEL 2
REMARK VINA RESULT:    -4.572      5.311      6.798
REMARK INTER + INTRA:          -8.668
REMARK INTER:                  -7.366
REMARK INTRA:                  -1.302
REMARK UNBOUND:                -1.423
REMARK SMILES CCCCCCCCCCCC(=O)[O-]
REMARK SMILES IDX 7 1 8 2 9 3 10 4 11 5 12 6 13 7 14 8 6 9 5 10 4 11 3 12 2 13
REMARK SMILES IDX 1 14
REMARK H PARENT
REMARK Flexibility Score: inf
ROOT
ATOM      1  C   UNL     1     -15.268   5.156 -23.957  1.00  0.00     0.000 C 
ENDROOT
BRANCH   1   2
ATOM      2  C   UNL     1     -15.077   5.977 -22.674  1.00  0.00     0.000 C 
BRANCH   2   3
ATOM      3  C   UNL     1     -13.873   5.469 -21.871  1.00  0.00     0.000 C 
BRANCH   3   4
ATOM      4  C   UNL     1     -13.776   6.177 -20.514  1.00  0.00     0.006 C 
BRANCH   4   5
ATOM      5  C   UNL     1     -13.058   7.523 -20.648  1.00  0.00     0.053 C 
BRANCH   5   6
ATOM      6  C   UNL     1     -13.877   8.616 -20.037  1.00  0.00     0.041 C 
ATOM      7  O   UNL     1     -15.119   8.468 -19.887  1.00  0.00    -0.550 OA
ATOM      8  O   UNL     1     -13.263   9.779 -19.590  1.00  0.00    -0.550 OA
ENDBRANCH   5   6
ENDBRANCH   4   5
ENDBRANCH   3   4
ENDBRANCH   2   3
ENDBRANCH   1   2
BRANCH   1   9
ATOM      9  C   UNL     1     -16.220   3.961 -23.765  1.00  0.00     0.000 C 
BRANCH   9  10
ATOM     10  C   UNL     1     -17.333   4.178 -22.721  1.00  0.00    -0.000 C 
BRANCH  10  11
ATOM     11  C   UNL     1     -17.380   3.137 -21.586  1.00  0.00    -0.000 C 
BRANCH  11  12
ATOM     12  C   UNL     1     -16.753   3.596 -20.256  1.00  0.00    -0.000 C 
BRANCH  12  13
ATOM     13  C   UNL     1     -15.534   2.755 -19.852  1.00  0.00    -0.003 C 
ATOM     14  C   UNL     1     -15.267   1.651 -20.871  1.00  0.00     0.004 C 
ENDBRANCH  12  13
ENDBRANCH  11  12
ENDBRANCH  10  11
ENDBRANCH   9  10
ENDBRANCH   1   9
TORSDOF 10
ENDMDL
MODEL 3
REMARK VINA RESULT:    -4.548      2.239      3.701
REMARK INTER + INTRA:          -8.630
REMARK INTER:                  -7.071
REMARK INTRA:                  -1.558
REMARK UNBOUND:                -1.423
REMARK SMILES CCCCCCCCCCCC(=O)[O-]
REMARK SMILES IDX 7 1 8 2 9 3 10 4 11 5 12 6 13 7 14 8 6 9 5 10 4 11 3 12 2 13
REMARK SMILES IDX 1 14
REMARK H PARENT
REMARK Flexibility Score: inf
ROOT
ATOM      1  C   UNL     1     -17.480   4.432 -20.200  1.00  0.00     0.000 C 
ENDROOT
BRANCH   1   2
ATOM      2  C   UNL     1     -16.712   3.235 -20.778  1.00  0.00     0.000 C 
BRANCH   2   3
ATOM      3  C   UNL     1     -15.933   2.501 -19.680  1.00  0.00     0.000 C 
BRANCH   3   4
ATOM      4  C   UNL     1     -14.465   2.307 -20.080  1.00  0.00     0.006 C 
BRANCH   4   5
ATOM      5  C   UNL     1     -14.331   1.248 -21.177  1.00  0.00     0.053 C 
BRANCH   5   6
ATOM      6  C   UNL     1     -14.782  -0.087 -20.674  1.00  0.00     0.041 C 
ATOM      7  O   UNL     1     -15.635  -0.752 -21.318  1.00  0.00    -0.550 OA
ATOM      8  O   UNL     1     -14.224  -0.619 -19.517  1.00  0.00    -0.550 OA
ENDBRANCH   5   6
ENDBRANCH   4   5
ENDBRANCH   3   4
ENDBRANCH   2   3
ENDBRANCH   1   2
BRANCH   1   9
ATOM      9  C   UNL     1     -16.901   5.786 -20.650  1.00  0.00     0.000 C 
BRANCH   9  10
ATOM     10  C   UNL     1     -15.637   6.237 -19.893  1.00  0.00    -0.000 C 
BRANCH  10  11
ATOM     11  C   UNL     1     -14.309   6.023 -20.647  1.00  0.00    -0.000 C 
BRANCH  11  12
ATOM     12  C   UNL     1     -14.431   5.991 -22.181  1.00  0.00    -0.000 C 
BRANCH  12  13
ATOM     13  C   UNL     1     -13.861   4.705 -22.797  1.00  0.00    -0.003 C 
ATOM     14  C   UNL     1     -14.885   4.031 -23.705  1.00  0.00     0.004 C 
ENDBRANCH  12  13
ENDBRANCH  11  12
ENDBRANCH  10  11
ENDBRANCH   9  10
ENDBRANCH   1   9
TORSDOF 10
ENDMDL
MODEL 4
REMARK VINA RESULT:    -4.547      5.003      6.577
REMARK INTER + INTRA:          -8.629
REMARK INTER:                  -7.179
REMARK INTRA:                  -1.450
REMARK UNBOUND:                -1.423
REMARK SMILES CCCCCCCCCCCC(=O)[O-]
REMARK SMILES IDX 7 1 8 2 9 3 10 4 11 5 12 6 13 7 14 8 6 9 5 10 4 11 3 12 2 13
REMARK SMILES IDX 1 14
REMARK H PARENT
REMARK Flexibility Score: inf
ROOT
ATOM      1  C   UNL     1     -16.306   3.148 -20.292  1.00  0.00     0.000 C 
ENDROOT
BRANCH   1   2
ATOM      2  C   UNL     1     -15.949   4.641 -20.312  1.00  0.00     0.000 C 
BRANCH   2   3
ATOM      3  C   UNL     1     -14.432   4.844 -20.207  1.00  0.00     0.000 C 
BRANCH   3   4
ATOM      4  C   UNL     1     -13.960   5.967 -21.138  1.00  0.00     0.006 C 
BRANCH   4   5
ATOM      5  C   UNL     1     -15.125   6.878 -21.534  1.00  0.00     0.053 C 
BRANCH   5   6
ATOM      6  C   UNL     1     -15.063   8.166 -20.775  1.00  0.00     0.041 C 
ATOM      7  O   UNL     1     -15.225   8.173 -19.526  1.00  0.00    -0.550 OA
ATOM      8  O   UNL     1     -14.778   9.352 -21.440  1.00  0.00    -0.550 OA
ENDBRANCH   5   6
ENDBRANCH   4   5
ENDBRANCH   3   4
ENDBRANCH   2   3
ENDBRANCH   1   2
BRANCH   1   9
ATOM      9  C   UNL     1     -15.274   2.298 -19.528  1.00  0.00     0.000 C 
BRANCH   9  10
ATOM     10  C   UNL     1     -14.863   0.988 -20.229  1.00  0.00    -0.000 C 
BRANCH  10  11
ATOM     11  C   UNL     1     -13.779   1.138 -21.315  1.00  0.00    -0.000 C 
BRANCH  11  12
ATOM     12  C   UNL     1     -14.314   1.403 -22.734  1.00  0.00    -0.000 C 
BRANCH  12  13
ATOM     13  C   UNL     1     -13.920   2.787 -23.269  1.00  0.00    -0.003 C 
ATOM     14  C   UNL     1     -15.140   3.542 -23.791  1.00  0.00     0.004 C 
ENDBRANCH  12  13
ENDBRANCH  11  12
ENDBRANCH  10  11
ENDBRANCH   9  10
ENDBRANCH   1   9
TORSDOF 10
ENDMDL
MODEL 5
REMARK VINA RESULT:    -4.537      1.994      3.601
REMARK INTER + INTRA:          -8.613
REMARK INTER:                  -7.204
REMARK INTRA:                  -1.408
REMARK UNBOUND:                -1.423
REMARK SMILES CCCCCCCCCCCC(=O)[O-]
REMARK SMILES IDX 7 1 8 2 9 3 10 4 11 5 12 6 13 7 14 8 6 9 5 10 4 11 3 12 2 13
REMARK SMILES IDX 1 14
REMARK H PARENT
REMARK Flexibility Score: inf
ROOT
ATOM      1  C   UNL     1     -14.707   4.260 -23.739  1.00  0.00     0.000 C 
ENDROOT
BRANCH   1   2
ATOM      2  C   UNL     1     -13.775   3.238 -23.073  1.00  0.00     0.000 C 
BRANCH   2   3
ATOM      3  C   UNL     1     -14.572   2.053 -22.512  1.00  0.00     0.000 C 
BRANCH   3   4
ATOM      4  C   UNL     1     -13.803   1.358 -21.382  1.00  0.00     0.006 C 
BRANCH   4   5
ATOM      5  C   UNL     1     -14.753   0.900 -20.272  1.00  0.00     0.053 C 
BRANCH   5   6
ATOM      6  C   UNL     1     -14.789  -0.594 -20.197  1.00  0.00     0.041 C 
ATOM      7  O   UNL     1     -15.505  -1.251 -20.998  1.00  0.00    -0.550 OA
ATOM      8  O   UNL     1     -13.995  -1.263 -19.274  1.00  0.00    -0.550 OA
ENDBRANCH   5   6
ENDBRANCH   4   5
ENDBRANCH   3   4
ENDBRANCH   2   3
ENDBRANCH   1   2
BRANCH   1   9
ATOM      9  C   UNL     1     -14.932   5.514 -22.874  1.00  0.00     0.000 C 
BRANCH   9  10
ATOM     10  C   UNL     1     -14.025   5.619 -21.632  1.00  0.00    -0.000 C 
BRANCH  10  11
ATOM     11  C   UNL     1     -14.759   5.572 -20.277  1.00  0.00    -0.000 C 
BRANCH  11  12
ATOM     12  C   UNL     1     -16.294   5.492 -20.372  1.00  0.00    -0.000 C 
BRANCH  12  13
ATOM     13  C   UNL     1     -16.826   4.061 -20.208  1.00  0.00    -0.003 C 
ATOM     14  C   UNL     1     -17.723   3.672 -21.380  1.00  0.00     0.004 C 
ENDBRANCH  12  13
ENDBRANCH  11  12
ENDBRANCH  10  11
ENDBRANCH   9  10
ENDBRANCH   1   9
TORSDOF 10
ENDMDL
MODEL 6
REMARK VINA RESULT:    -4.535      4.147      6.359
REMARK INTER + INTRA:          -8.610
REMARK INTER:                  -7.233
REMARK INTRA:                  -1.377
REMARK UNBOUND:                -1.423
REMARK SMILES CCCCCCCCCCCC(=O)[O-]
REMARK SMILES IDX 7 1 8 2 9 3 10 4 11 5 12 6 13 7 14 8 6 9 5 10 4 11 3 12 2 13
REMARK SMILES IDX 1 14
REMARK H PARENT
REMARK Flexibility Score: inf
ROOT
ATOM      1  C   UNL     1     -14.091   5.145 -22.220  1.00  0.00     0.000 C 
ENDROOT
BRANCH   1   2
ATOM      2  C   UNL     1     -15.485   5.299 -22.845  1.00  0.00     0.000 C 
BRANCH   2   3
ATOM      3  C   UNL     1     -16.538   5.598 -21.770  1.00  0.00     0.000 C 
BRANCH   3   4
ATOM      4  C   UNL     1     -17.371   4.351 -21.452  1.00  0.00     0.006 C 
BRANCH   4   5
ATOM      5  C   UNL     1     -16.973   3.756 -20.099  1.00  0.00     0.053 C 
BRANCH   5   6
ATOM      6  C   UNL     1     -15.974   2.657 -20.284  1.00  0.00     0.041 C 
ATOM      7  O   UNL     1     -15.078   2.463 -19.421  1.00  0.00    -0.550 OA
ATOM      8  O   UNL     1     -16.062   1.816 -21.386  1.00  0.00    -0.550 OA
ENDBRANCH   5   6
ENDBRANCH   4   5
ENDBRANCH   3   4
ENDBRANCH   2   3
ENDBRANCH   1   2
BRANCH   1   9
ATOM      9  C   UNL     1     -13.979   5.814 -20.839  1.00  0.00     0.000 C 
BRANCH   9  10
ATOM     10  C   UNL     1     -12.964   6.971 -20.757  1.00  0.00    -0.000 C 
BRANCH  10  11
ATOM     11  C   UNL     1     -13.547   8.325 -20.307  1.00  0.00    -0.000 C 
BRANCH  11  12
ATOM     12  C   UNL     1     -14.992   8.267 -19.780  1.00  0.00    -0.000 C 
BRANCH  12  13
ATOM     13  C   UNL     1     -15.963   9.116 -20.613  1.00  0.00    -0.003 C 
ATOM     14  C   UNL     1     -15.620   9.045 -22.098  1.00  0.00     0.004 C 
ENDBRANCH  12  13
ENDBRANCH  11  12
ENDBRANCH  10  11
ENDBRANCH   9  10
ENDBRANCH   1   9
TORSDOF 10
ENDMDL
MODEL 7
REMARK VINA RESULT:    -4.527      5.250      6.663
REMARK INTER + INTRA:          -8.596
REMARK INTER:                  -7.282
REMARK INTRA:                  -1.315
REMARK UNBOUND:                -1.423
REMARK SMILES CCCCCCCCCCCC(=O)[O-]
REMARK SMILES IDX 7 1 8 2 9 3 10 4 11 5 12 6 13 7 14 8 6 9 5 10 4 11 3 12 2 13
REMARK SMILES IDX 1 14
REMARK H PARENT
REMARK Flexibility Score: inf
ROOT
ATOM      1  C   UNL     1     -16.327   5.479 -20.611  1.00  0.00     0.000 C 
ENDROOT
BRANCH   1   2
ATOM      2  C   UNL     1     -15.675   5.544 -21.999  1.00  0.00     0.000 C 
BRANCH   2   3
ATOM      3  C   UNL     1     -14.153   5.698 -21.884  1.00  0.00     0.000 C 
BRANCH   3   4
ATOM      4  C   UNL     1     -13.756   6.232 -20.503  1.00  0.00     0.006 C 
BRANCH   4   5
ATOM      5  C   UNL     1     -12.987   7.551 -20.625  1.00  0.00     0.053 C 
BRANCH   5   6
ATOM      6  C   UNL     1     -13.733   8.656 -19.946  1.00  0.00     0.041 C 
ATOM      7  O   UNL     1     -13.156   9.746 -19.690  1.00  0.00    -0.550 OA
ATOM      8  O   UNL     1     -15.079   8.501 -19.639  1.00  0.00    -0.550 OA
ENDBRANCH   5   6
ENDBRANCH   4   5
ENDBRANCH   3   4
ENDBRANCH   2   3
ENDBRANCH   1   2
BRANCH   1   9
ATOM      9  C   UNL     1     -17.052   4.145 -20.354  1.00  0.00     0.000 C 
BRANCH   9  10
ATOM     10  C   UNL     1     -17.435   3.359 -21.623  1.00  0.00    -0.000 C 
BRANCH  10  11
ATOM     11  C   UNL     1     -16.625   2.071 -21.867  1.00  0.00    -0.000 C 
BRANCH  11  12
ATOM     12  C   UNL     1     -15.544   1.774 -20.812  1.00  0.00    -0.000 C 
BRANCH  12  13
ATOM     13  C   UNL     1     -14.118   1.907 -21.367  1.00  0.00    -0.003 C 
ATOM     14  C   UNL     1     -14.133   2.073 -22.884  1.00  0.00     0.004 C 
ENDBRANCH  12  13
ENDBRANCH  11  12
ENDBRANCH  10  11
ENDBRANCH   9  10
ENDBRANCH   1   9
TORSDOF 10
ENDMDL
MODEL 8
REMARK VINA RESULT:    -4.500      2.322      4.008
REMARK INTER + INTRA:          -8.553
REMARK INTER:                  -7.586
REMARK INTRA:                  -0.967
REMARK UNBOUND:                -1.423
REMARK SMILES CCCCCCCCCCCC(=O)[O-]
REMARK SMILES IDX 7 1 8 2 9 3 10 4 11 5 12 6 13 7 14 8 6 9 5 10 4 11 3 12 2 13
REMARK SMILES IDX 1 14
REMARK H PARENT
REMARK Flexibility Score: inf
ROOT
ATOM      1  C   UNL     1     -17.584   3.486 -21.484  1.00  0.00     0.000 C 
ENDROOT
BRANCH   1   2
ATOM      2  C   UNL     1     -16.410   2.497 -21.504  1.00  0.00     0.000 C 
BRANCH   2   3
ATOM      3  C   UNL     1     -15.600   2.580 -20.204  1.00  0.00     0.000 C 
BRANCH   3   4
ATOM      4  C   UNL     1     -14.478   1.536 -20.186  1.00  0.00     0.006 C 
BRANCH   4   5
ATOM      5  C   UNL     1     -14.894   0.296 -19.391  1.00  0.00     0.053 C 
BRANCH   5   6
ATOM      6  C   UNL     1     -14.765  -0.934 -20.233  1.00  0.00     0.041 C 
ATOM      7  O   UNL     1     -13.864  -1.779 -19.987  1.00  0.00    -0.550 OA
ATOM      8  O   UNL     1     -15.670  -1.171 -21.261  1.00  0.00    -0.550 OA
ENDBRANCH   5   6
ENDBRANCH   4   5
ENDBRANCH   3   4
ENDBRANCH   2   3
ENDBRANCH   1   2
BRANCH   1   9
ATOM      9  C   UNL     1     -17.524   4.460 -20.293  1.00  0.00     0.000 C 
BRANCH   9  10
ATOM     10  C   UNL     1     -17.559   5.954 -20.672  1.00  0.00    -0.000 C 
BRANCH  10  11
ATOM     11  C   UNL     1     -16.223   6.704 -20.512  1.00  0.00    -0.000 C 
BRANCH  11  12
ATOM     12  C   UNL     1     -15.363   6.781 -21.787  1.00  0.00    -0.000 C 
BRANCH  12  13
ATOM     13  C   UNL     1     -14.116   5.887 -21.719  1.00  0.00    -0.003 C 
ATOM     14  C   UNL     1     -13.066   6.482 -20.785  1.00  0.00     0.004 C 
ENDBRANCH  12  13
ENDBRANCH  11  12
ENDBRANCH  10  11
ENDBRANCH   9  10
ENDBRANCH   1   9
TORSDOF 10
ENDMDL
MODEL 9
REMARK VINA RESULT:    -4.490      3.850      5.427
REMARK INTER + INTRA:          -8.538
REMARK INTER:                  -7.082
REMARK INTRA:                  -1.457
REMARK UNBOUND:                -1.423
REMARK SMILES CCCCCCCCCCCC(=O)[O-]
REMARK SMILES IDX 7 1 8 2 9 3 10 4 11 5 12 6 13 7 14 8 6 9 5 10 4 11 3 12 2 13
REMARK SMILES IDX 1 14
REMARK H PARENT
REMARK Flexibility Score: inf
ROOT
ATOM      1  C   UNL     1     -15.086   2.753 -19.852  1.00  0.00     0.000 C 
ENDROOT
BRANCH   1   2
ATOM      2  C   UNL     1     -16.443   3.280 -20.340  1.00  0.00     0.000 C 
BRANCH   2   3
ATOM      3  C   UNL     1     -16.361   3.737 -21.801  1.00  0.00     0.000 C 
BRANCH   3   4
ATOM      4  C   UNL     1     -14.960   4.261 -22.138  1.00  0.00     0.006 C 
BRANCH   4   5
ATOM      5  C   UNL     1     -14.922   5.791 -22.102  1.00  0.00     0.053 C 
BRANCH   5   6
ATOM      6  C   UNL     1     -14.369   6.270 -20.797  1.00  0.00     0.041 C 
ATOM      7  O   UNL     1     -13.126   6.260 -20.594  1.00  0.00    -0.550 OA
ATOM      8  O   UNL     1     -15.222   6.772 -19.822  1.00  0.00    -0.550 OA
ENDBRANCH   5   6
ENDBRANCH   4   5
ENDBRANCH   3   4
ENDBRANCH   2   3
ENDBRANCH   1   2
BRANCH   1   9
ATOM      9  C   UNL     1     -15.186   1.368 -19.189  1.00  0.00     0.000 C 
BRANCH   9  10
ATOM     10  C   UNL     1     -14.679   0.195 -20.051  1.00  0.00    -0.000 C 
BRANCH  10  11
ATOM     11  C   UNL     1     -14.075   0.595 -21.412  1.00  0.00    -0.000 C 
BRANCH  11  12
ATOM     12  C   UNL     1     -14.983   0.336 -22.628  1.00  0.00    -0.000 C 
BRANCH  12  13
ATOM     13  C   UNL     1     -16.206  -0.527 -22.283  1.00  0.00    -0.003 C 
ATOM     14  C   UNL     1     -17.496   0.132 -22.764  1.00  0.00     0.004 C 
ENDBRANCH  12  13
ENDBRANCH  11  12
ENDBRANCH  10  11
ENDBRANCH   9  10
ENDBRANCH   1   9
TORSDOF 10
ENDMDL
