MODEL 1
REMARK VINA RESULT:    -0.729      0.000      0.000
REMARK INTER + INTRA:          -1.092
REMARK INTER:                  -1.326
REMARK INTRA:                   0.234
REMARK UNBOUND:                 0.234
REMARK SMILES CCCCCCCCCCCCCCCC(=O)[O-]
REMARK SMILES IDX 9 1 10 2 11 3 12 4 13 5 14 6 15 7 16 8 17 9 18 10 8 11 7 12
REMARK SMILES IDX 6 13 5 14 4 15 3 16 2 17 1 18
REMARK H PARENT
REMARK Flexibility Score: inf
ROOT
ATOM      1  C   UNL     1      32.778  36.548   1.246  1.00  0.00     0.000 C 
ENDROOT
BRANCH   1   2
ATOM      2  C   UNL     1      32.338  37.720   2.147  1.00  0.00     0.000 C 
BRANCH   2   3
ATOM      3  C   UNL     1      32.408  39.111   1.491  1.00  0.00     0.000 C 
BRANCH   3   4
ATOM      4  C   UNL     1      32.482  39.043  -0.042  1.00  0.00     0.000 C 
BRANCH   4   5
ATOM      5  C   UNL     1      33.938  39.125  -0.526  1.00  0.00     0.000 C 
BRANCH   5   6
ATOM      6  C   UNL     1      34.178  38.370  -1.846  1.00  0.00     0.006 C 
BRANCH   6   7
ATOM      7  C   UNL     1      32.896  37.812  -2.489  1.00  0.00     0.053 C 
BRANCH   7   8
ATOM      8  C   UNL     1      32.900  37.934  -3.981  1.00  0.00     0.041 C 
ATOM      9  O   UNL     1      33.423  38.940  -4.533  1.00  0.00    -0.550 OA
ATOM     10  O   UNL     1      32.298  36.959  -4.766  1.00  0.00    -0.550 OA
ENDBRANCH   7   8
ENDBRANCH   6   7
ENDBRANCH   5   6
ENDBRANCH   4   5
ENDBRANCH   3   4
ENDBRANCH   2   3
ENDBRANCH   1   2
BRANCH   1  11
ATOM     11  C   UNL     1      33.654  35.486   1.937  1.00  0.00     0.000 C 
BRANCH  11  12
ATOM     12  C   UNL     1      34.809  36.097   2.743  1.00  0.00    -0.000 C 
BRANCH  12  13
ATOM     13  C   UNL     1      35.124  37.520   2.257  1.00  0.00    -0.000 C 
BRANCH  13  14
ATOM     14  C   UNL     1      35.113  38.551   3.401  1.00  0.00    -0.000 C 
BRANCH  14  15
ATOM     15  C   UNL     1      34.793  37.939   4.779  1.00  0.00    -0.000 C 
BRANCH  15  16
ATOM     16  C   UNL     1      34.273  38.976   5.799  1.00  0.00    -0.000 C 
BRANCH  16  17
ATOM     17  C   UNL     1      34.822  38.765   7.219  1.00  0.00    -0.003 C 
ATOM     18  C   UNL     1      33.736  38.828   8.292  1.00  0.00     0.004 C 
ENDBRANCH  16  17
ENDBRANCH  15  16
ENDBRANCH  14  15
ENDBRANCH  13  14
ENDBRANCH  12  13
ENDBRANCH  11  12
ENDBRANCH   1  11
TORSDOF 14
ENDMDL
MODEL 2
REMARK VINA RESULT:     1.426      2.516      4.027
REMARK INTER + INTRA:           2.827
REMARK INTER:                   2.828
REMARK INTRA:                  -0.000
REMARK UNBOUND:                 0.234
REMARK SMILES CCCCCCCCCCCCCCCC(=O)[O-]
REMARK SMILES IDX 9 1 10 2 11 3 12 4 13 5 14 6 15 7 16 8 17 9 18 10 8 11 7 12
REMARK SMILES IDX 6 13 5 14 4 15 3 16 2 17 1 18
REMARK H PARENT
REMARK Flexibility Score: inf
ROOT
ATOM      1  C   UNL     1      33.889  35.523   2.726  1.00  0.00     0.000 C 
ENDROOT
BRANCH   1   2
ATOM      2  C   UNL     1      34.583  36.868   2.429  1.00  0.00     0.000 C 
BRANCH   2   3
ATOM      3  C   UNL     1      34.068  37.608   1.181  1.00  0.00     0.000 C 
BRANCH   3   4
ATOM      4  C   UNL     1      35.125  38.533   0.558  1.00  0.00     0.000 C 
BRANCH   4   5
ATOM      5  C   UNL     1      34.800  38.824  -0.915  1.00  0.00     0.000 C 
BRANCH   5   6
ATOM      6  C   UNL     1      33.861  37.780  -1.544  1.00  0.00     0.006 C 
BRANCH   6   7
ATOM      7  C   UNL     1      33.075  38.299  -2.762  1.00  0.00     0.053 C 
BRANCH   7   8
ATOM      8  C   UNL     1      32.508  37.192  -3.595  1.00  0.00     0.041 C 
ATOM      9  O   UNL     1      32.639  37.211  -4.848  1.00  0.00    -0.550 OA
ATOM     10  O   UNL     1      31.802  36.155  -2.996  1.00  0.00    -0.550 OA
ENDBRANCH   7   8
ENDBRANCH   6   7
ENDBRANCH   5   6
ENDBRANCH   4   5
ENDBRANCH   3   4
ENDBRANCH   2   3
ENDBRANCH   1   2
BRANCH   1  11
ATOM     11  C   UNL     1      33.144  34.896   1.533  1.00  0.00     0.000 C 
BRANCH  11  12
ATOM     12  C   UNL     1      32.056  35.814   0.957  1.00  0.00    -0.000 C 
BRANCH  12  13
ATOM     13  C   UNL     1      30.932  36.038   1.981  1.00  0.00    -0.000 C 
BRANCH  13  14
ATOM     14  C   UNL     1      31.121  37.334   2.791  1.00  0.00    -0.000 C 
BRANCH  14  15
ATOM     15  C   UNL     1      30.559  38.587   2.090  1.00  0.00    -0.000 C 
BRANCH  15  16
ATOM     16  C   UNL     1      29.264  39.121   2.744  1.00  0.00    -0.000 C 
BRANCH  16  17
ATOM     17  C   UNL     1      27.989  38.444   2.217  1.00  0.00    -0.003 C 
ATOM     18  C   UNL     1      26.733  38.873   2.973  1.00  0.00     0.004 C 
ENDBRANCH  16  17
ENDBRANCH  15  16
ENDBRANCH  14  15
ENDBRANCH  13  14
ENDBRANCH  12  13
ENDBRANCH  11  12
ENDBRANCH   1  11
TORSDOF 14
ENDMDL
MODEL 3
REMARK VINA RESULT:     1.450     17.703     19.693
REMARK INTER + INTRA:           2.872
REMARK INTER:                   3.377
REMARK INTRA:                  -0.505
REMARK UNBOUND:                 0.234
REMARK SMILES CCCCCCCCCCCCCCCC(=O)[O-]
REMARK SMILES IDX 9 1 10 2 11 3 12 4 13 5 14 6 15 7 16 8 17 9 18 10 8 11 7 12
REMARK SMILES IDX 6 13 5 14 4 15 3 16 2 17 1 18
REMARK H PARENT
REMARK Flexibility Score: inf
ROOT
ATOM      1  C   UNL     1      20.875  27.579  12.089  1.00  0.00     0.000 C 
ENDROOT
BRANCH   1   2
ATOM      2  C   UNL     1      22.057  28.087  11.238  1.00  0.00     0.000 C 
BRANCH   2   3
ATOM      3  C   UNL     1      23.242  28.656  12.040  1.00  0.00     0.000 C 
BRANCH   3   4
ATOM      4  C   UNL     1      24.462  28.970  11.161  1.00  0.00     0.000 C 
BRANCH   4   5
ATOM      5  C   UNL     1      25.254  30.159  11.724  1.00  0.00     0.000 C 
BRANCH   5   6
ATOM      6  C   UNL     1      26.747  30.120  11.352  1.00  0.00     0.006 C 
BRANCH   6   7
ATOM      7  C   UNL     1      27.018  29.674   9.904  1.00  0.00     0.053 C 
BRANCH   7   8
ATOM      8  C   UNL     1      28.480  29.633   9.579  1.00  0.00     0.041 C 
ATOM      9  O   UNL     1      29.094  28.532   9.561  1.00  0.00    -0.550 OA
ATOM     10  O   UNL     1      29.175  30.810   9.330  1.00  0.00    -0.550 OA
ENDBRANCH   7   8
ENDBRANCH   6   7
ENDBRANCH   5   6
ENDBRANCH   4   5
ENDBRANCH   3   4
ENDBRANCH   2   3
ENDBRANCH   1   2
BRANCH   1  11
ATOM     11  C   UNL     1      19.492  27.702  11.424  1.00  0.00     0.000 C 
BRANCH  11  12
ATOM     12  C   UNL     1      18.495  26.643  11.917  1.00  0.00    -0.000 C 
BRANCH  12  13
ATOM     13  C   UNL     1      17.871  27.060  13.258  1.00  0.00    -0.000 C 
BRANCH  13  14
ATOM     14  C   UNL     1      16.616  26.239  13.606  1.00  0.00    -0.000 C 
BRANCH  14  15
ATOM     15  C   UNL     1      15.586  26.171  12.461  1.00  0.00    -0.000 C 
BRANCH  15  16
ATOM     16  C   UNL     1      15.307  27.546  11.812  1.00  0.00    -0.000 C 
BRANCH  16  17
ATOM     17  C   UNL     1      14.875  27.450  10.340  1.00  0.00    -0.003 C 
ATOM     18  C   UNL     1      15.004  26.037   9.774  1.00  0.00     0.004 C 
ENDBRANCH  16  17
ENDBRANCH  15  16
ENDBRANCH  14  15
ENDBRANCH  13  14
ENDBRANCH  12  13
ENDBRANCH  11  12
ENDBRANCH   1  11
TORSDOF 14
ENDMDL
MODEL 4
REMARK VINA RESULT:     1.533     18.171     20.072
REMARK INTER + INTRA:           3.023
REMARK INTER:                   3.612
REMARK INTRA:                  -0.589
REMARK UNBOUND:                 0.234
REMARK SMILES CCCCCCCCCCCCCCCC(=O)[O-]
REMARK SMILES IDX 9 1 10 2 11 3 12 4 13 5 14 6 15 7 16 8 17 9 18 10 8 11 7 12
REMARK SMILES IDX 6 13 5 14 4 15 3 16 2 17 1 18
REMARK H PARENT
REMARK Flexibility Score: inf
ROOT
ATOM      1  C   UNL     1      20.926  27.752  11.950  1.00  0.00     0.000 C 
ENDROOT
BRANCH   1   2
ATOM      2  C   UNL     1      19.711  27.467  11.043  1.00  0.00     0.000 C 
BRANCH   2   3
ATOM      3  C   UNL     1      18.574  26.669  11.707  1.00  0.00     0.000 C 
BRANCH   3   4
ATOM      4  C   UNL     1      18.031  27.347  12.974  1.00  0.00     0.000 C 
BRANCH   4   5
ATOM      5  C   UNL     1      17.152  26.379  13.781  1.00  0.00     0.000 C 
BRANCH   5   6
ATOM      6  C   UNL     1      15.913  25.899  13.004  1.00  0.00     0.006 C 
BRANCH   6   7
ATOM      7  C   UNL     1      15.017  27.040  12.491  1.00  0.00     0.053 C 
BRANCH   7   8
ATOM      8  C   UNL     1      15.003  27.132  10.996  1.00  0.00     0.041 C 
ATOM      9  O   UNL     1      15.139  26.093  10.296  1.00  0.00    -0.550 OA
ATOM     10  O   UNL     1      14.875  28.367  10.371  1.00  0.00    -0.550 OA
ENDBRANCH   7   8
ENDBRANCH   6   7
ENDBRANCH   5   6
ENDBRANCH   4   5
ENDBRANCH   3   4
ENDBRANCH   2   3
ENDBRANCH   1   2
BRANCH   1  11
ATOM     11  C   UNL     1      22.269  27.909  11.213  1.00  0.00     0.000 C 
BRANCH  11  12
ATOM     12  C   UNL     1      23.333  28.627  12.055  1.00  0.00    -0.000 C 
BRANCH  12  13
ATOM     13  C   UNL     1      24.297  29.420  11.160  1.00  0.00    -0.000 C 
BRANCH  13  14
ATOM     14  C   UNL     1      25.306  30.254  11.971  1.00  0.00    -0.000 C 
BRANCH  14  15
ATOM     15  C   UNL     1      26.765  30.084  11.504  1.00  0.00    -0.000 C 
BRANCH  15  16
ATOM     16  C   UNL     1      26.885  29.687  10.015  1.00  0.00    -0.000 C 
BRANCH  16  17
ATOM     17  C   UNL     1      28.322  29.357   9.584  1.00  0.00    -0.003 C 
ATOM     18  C   UNL     1      29.097  30.585   9.108  1.00  0.00     0.004 C 
ENDBRANCH  16  17
ENDBRANCH  15  16
ENDBRANCH  14  15
ENDBRANCH  13  14
ENDBRANCH  12  13
ENDBRANCH  11  12
ENDBRANCH   1  11
TORSDOF 14
ENDMDL
MODEL 5
REMARK VINA RESULT:     1.592      1.634      2.370
REMARK INTER + INTRA:           3.130
REMARK INTER:                   1.845
REMARK INTRA:                   1.285
REMARK UNBOUND:                 0.234
REMARK SMILES CCCCCCCCCCCCCCCC(=O)[O-]
REMARK SMILES IDX 9 1 10 2 11 3 12 4 13 5 14 6 15 7 16 8 17 9 18 10 8 11 7 12
REMARK SMILES IDX 6 13 5 14 4 15 3 16 2 17 1 18
REMARK H PARENT
REMARK Flexibility Score: inf
ROOT
ATOM      1  C   UNL     1      32.897  35.421   1.349  1.00  0.00     0.000 C 
ENDROOT
BRANCH   1   2
ATOM      2  C   UNL     1      31.437  34.960   1.532  1.00  0.00     0.000 C 
BRANCH   2   3
ATOM      3  C   UNL     1      30.516  35.970   2.242  1.00  0.00     0.000 C 
BRANCH   3   4
ATOM      4  C   UNL     1      30.711  37.409   1.740  1.00  0.00     0.000 C 
BRANCH   4   5
ATOM      5  C   UNL     1      31.858  37.484   0.721  1.00  0.00     0.000 C 
BRANCH   5   6
ATOM      6  C   UNL     1      32.235  38.928   0.343  1.00  0.00     0.006 C 
BRANCH   6   7
ATOM      7  C   UNL     1      32.770  39.078  -1.093  1.00  0.00     0.053 C 
BRANCH   7   8
ATOM      8  C   UNL     1      33.620  37.918  -1.513  1.00  0.00     0.041 C 
ATOM      9  O   UNL     1      33.144  37.022  -2.260  1.00  0.00    -0.550 OA
ATOM     10  O   UNL     1      34.927  37.805  -1.055  1.00  0.00    -0.550 OA
ENDBRANCH   7   8
ENDBRANCH   6   7
ENDBRANCH   5   6
ENDBRANCH   4   5
ENDBRANCH   3   4
ENDBRANCH   2   3
ENDBRANCH   1   2
BRANCH   1  11
ATOM     11  C   UNL     1      33.918  34.743   2.282  1.00  0.00     0.000 C 
BRANCH  11  12
ATOM     12  C   UNL     1      34.871  35.743   2.952  1.00  0.00    -0.000 C 
BRANCH  12  13
ATOM     13  C   UNL     1      35.125  36.954   2.040  1.00  0.00    -0.000 C 
BRANCH  13  14
ATOM     14  C   UNL     1      34.353  38.207   2.493  1.00  0.00    -0.000 C 
BRANCH  14  15
ATOM     15  C   UNL     1      33.920  38.163   3.972  1.00  0.00    -0.000 C 
BRANCH  15  16
ATOM     16  C   UNL     1      35.090  37.876   4.940  1.00  0.00    -0.000 C 
BRANCH  16  17
ATOM     17  C   UNL     1      34.929  38.550   6.311  1.00  0.00    -0.003 C 
ATOM     18  C   UNL     1      33.490  38.514   6.825  1.00  0.00     0.004 C 
ENDBRANCH  16  17
ENDBRANCH  15  16
ENDBRANCH  14  15
ENDBRANCH  13  14
ENDBRANCH  12  13
ENDBRANCH  11  12
ENDBRANCH   1  11
TORSDOF 14
ENDMDL
MODEL 6
REMARK VINA RESULT:     1.685     18.581     20.469
REMARK INTER + INTRA:           3.298
REMARK INTER:                   4.028
REMARK INTRA:                  -0.730
REMARK UNBOUND:                 0.234
REMARK SMILES CCCCCCCCCCCCCCCC(=O)[O-]
REMARK SMILES IDX 9 1 10 2 11 3 12 4 13 5 14 6 15 7 16 8 17 9 18 10 8 11 7 12
REMARK SMILES IDX 6 13 5 14 4 15 3 16 2 17 1 18
REMARK H PARENT
REMARK Flexibility Score: inf
ROOT
ATOM      1  C   UNL     1      20.052  27.496  10.910  1.00  0.00     0.000 C 
ENDROOT
BRANCH   1   2
ATOM      2  C   UNL     1      18.713  27.127  11.581  1.00  0.00     0.000 C 
BRANCH   2   3
ATOM      3  C   UNL     1      18.719  27.170  13.120  1.00  0.00     0.000 C 
BRANCH   3   4
ATOM      4  C   UNL     1      17.306  27.198  13.721  1.00  0.00     0.000 C 
BRANCH   4   5
ATOM      5  C   UNL     1      16.617  25.833  13.570  1.00  0.00     0.000 C 
BRANCH   5   6
ATOM      6  C   UNL     1      15.175  25.940  13.043  1.00  0.00     0.006 C 
BRANCH   6   7
ATOM      7  C   UNL     1      14.886  27.241  12.274  1.00  0.00     0.053 C 
BRANCH   7   8
ATOM      8  C   UNL     1      15.108  27.100  10.799  1.00  0.00     0.041 C 
ATOM      9  O   UNL     1      15.178  28.124  10.068  1.00  0.00    -0.550 OA
ATOM     10  O   UNL     1      15.203  25.839  10.223  1.00  0.00    -0.550 OA
ENDBRANCH   7   8
ENDBRANCH   6   7
ENDBRANCH   5   6
ENDBRANCH   4   5
ENDBRANCH   3   4
ENDBRANCH   2   3
ENDBRANCH   1   2
BRANCH   1  11
ATOM     11  C   UNL     1      21.184  27.880  11.881  1.00  0.00     0.000 C 
BRANCH  11  12
ATOM     12  C   UNL     1      22.494  28.235  11.161  1.00  0.00    -0.000 C 
BRANCH  12  13
ATOM     13  C   UNL     1      23.557  28.713  12.163  1.00  0.00    -0.000 C 
BRANCH  13  14
ATOM     14  C   UNL     1      24.232  30.026  11.725  1.00  0.00    -0.000 C 
BRANCH  14  15
ATOM     15  C   UNL     1      25.772  29.971  11.768  1.00  0.00    -0.000 C 
BRANCH  15  16
ATOM     16  C   UNL     1      26.412  29.754  10.379  1.00  0.00    -0.000 C 
BRANCH  16  17
ATOM     17  C   UNL     1      27.949  29.777  10.403  1.00  0.00    -0.003 C 
ATOM     18  C   UNL     1      28.560  30.129   9.048  1.00  0.00     0.004 C 
ENDBRANCH  16  17
ENDBRANCH  15  16
ENDBRANCH  14  15
ENDBRANCH  13  14
ENDBRANCH  12  13
ENDBRANCH  11  12
ENDBRANCH   1  11
TORSDOF 14
ENDMDL
