MODEL 1
REMARK VINA RESULT:    -3.019      0.000      0.000
REMARK INTER + INTRA:          -8.933
REMARK INTER:                  -6.901
REMARK INTRA:                  -2.031
REMARK UNBOUND:                -2.031
REMARK SMILES CCCCCCCCCCCCCCCCCCCCCCCC(=O)[O-]
REMARK SMILES IDX 13 1 14 2 15 3 16 4 17 5 18 6 19 7 20 8 21 9 22 10 23 11
REMARK SMILES IDX 24 12 25 13 26 14 12 15 11 16 10 17 9 18 8 19 7 20 6 21 5 22
REMARK SMILES IDX 4 23 3 24 2 25 1 26
REMARK H PARENT
REMARK Flexibility Score: inf
ROOT
ATOM      1  C   UNL     1       8.184  12.800   8.082  1.00  0.00     0.000 C 
ENDROOT
BRANCH   1   2
ATOM      2  C   UNL     1       7.463  12.984   9.429  1.00  0.00     0.000 C 
BRANCH   2   3
ATOM      3  C   UNL     1       6.106  12.264   9.475  1.00  0.00     0.000 C 
BRANCH   3   4
ATOM      4  C   UNL     1       5.052  12.931   8.573  1.00  0.00     0.000 C 
BRANCH   4   5
ATOM      5  C   UNL     1       3.656  12.957   9.212  1.00  0.00     0.000 C 
BRANCH   5   6
ATOM      6  C   UNL     1       3.169  11.560   9.634  1.00  0.00     0.000 C 
BRANCH   6   7
ATOM      7  C   UNL     1       1.665  11.543   9.981  1.00  0.00     0.000 C 
BRANCH   7   8
ATOM      8  C   UNL     1       0.767  12.150   8.885  1.00  0.00     0.000 C 
BRANCH   8   9
ATOM      9  C   UNL     1      -0.488  12.880   9.395  1.00  0.00     0.000 C 
BRANCH   9  10
ATOM     10  C   UNL     1      -1.585  13.123   8.338  1.00  0.00     0.006 C 
BRANCH  10  11
ATOM     11  C   UNL     1      -2.948  12.502   8.695  1.00  0.00     0.053 C 
BRANCH  11  12
ATOM     12  C   UNL     1      -3.678  11.982   7.493  1.00  0.00     0.041 C 
ATOM     13  O   UNL     1      -3.811  10.742   7.315  1.00  0.00    -0.550 OA
ATOM     14  O   UNL     1      -4.181  12.869   6.550  1.00  0.00    -0.550 OA
ENDBRANCH  11  12
ENDBRANCH  10  11
ENDBRANCH   9  10
ENDBRANCH   8   9
ENDBRANCH   7   8
ENDBRANCH   6   7
ENDBRANCH   5   6
ENDBRANCH   4   5
ENDBRANCH   3   4
ENDBRANCH   2   3
ENDBRANCH   1   2
BRANCH   1  15
ATOM     15  C   UNL     1       8.536  11.332   7.794  1.00  0.00     0.000 C 
BRANCH  15  16
ATOM     16  C   UNL     1       9.191  11.139   6.417  1.00  0.00     0.000 C 
BRANCH  16  17
ATOM     17  C   UNL     1       9.109  12.421   5.580  1.00  0.00     0.000 C 
BRANCH  17  18
ATOM     18  C   UNL     1       8.952  12.093   4.088  1.00  0.00    -0.000 C 
BRANCH  18  19
ATOM     19  C   UNL     1       7.684  12.710   3.476  1.00  0.00    -0.000 C 
BRANCH  19  20
ATOM     20  C   UNL     1       6.594  11.659   3.201  1.00  0.00    -0.000 C 
BRANCH  20  21
ATOM     21  C   UNL     1       5.477  11.674   4.258  1.00  0.00    -0.000 C 
BRANCH  21  22
ATOM     22  C   UNL     1       5.940  11.123   5.619  1.00  0.00    -0.000 C 
BRANCH  22  23
ATOM     23  C   UNL     1       4.810  10.416   6.384  1.00  0.00    -0.000 C 
BRANCH  23  24
ATOM     24  C   UNL     1       5.313   9.215   7.200  1.00  0.00    -0.000 C 
BRANCH  24  25
ATOM     25  C   UNL     1       4.413   8.964   8.416  1.00  0.00    -0.003 C 
ATOM     26  C   UNL     1       3.069   8.377   7.997  1.00  0.00     0.004 C 
ENDBRANCH  24  25
ENDBRANCH  23  24
ENDBRANCH  22  23
ENDBRANCH  21  22
ENDBRANCH  20  21
ENDBRANCH  19  20
ENDBRANCH  18  19
ENDBRANCH  17  18
ENDBRANCH  16  17
ENDBRANCH  15  16
ENDBRANCH   1  15
TORSDOF 22
ENDMDL
MODEL 2
REMARK VINA RESULT:    -2.208      1.119      3.970
REMARK INTER + INTRA:          -7.079
REMARK INTER:                  -5.045
REMARK INTRA:                  -2.034
REMARK UNBOUND:                -2.031
REMARK SMILES CCCCCCCCCCCCCCCCCCCCCCCC(=O)[O-]
REMARK SMILES IDX 13 1 14 2 15 3 16 4 17 5 18 6 19 7 20 8 21 9 22 10 23 11
REMARK SMILES IDX 24 12 25 13 26 14 12 15 11 16 10 17 9 18 8 19 7 20 6 21 5 22
REMARK SMILES IDX 4 23 3 24 2 25 1 26
REMARK H PARENT
REMARK Flexibility Score: inf
ROOT
ATOM      1  C   UNL     1       4.035   9.414   6.985  1.00  0.00     0.000 C 
ENDROOT
BRANCH   1   2
ATOM      2  C   UNL     1       3.578   8.281   7.919  1.00  0.00     0.000 C 
BRANCH   2   3
ATOM      3  C   UNL     1       2.522   8.744   8.936  1.00  0.00     0.000 C 
BRANCH   3   4
ATOM      4  C   UNL     1       3.143   9.203  10.267  1.00  0.00     0.000 C 
BRANCH   4   5
ATOM      5  C   UNL     1       2.779  10.653  10.620  1.00  0.00     0.000 C 
BRANCH   5   6
ATOM      6  C   UNL     1       2.728  11.571   9.387  1.00  0.00     0.000 C 
BRANCH   6   7
ATOM      7  C   UNL     1       2.244  12.995   9.735  1.00  0.00     0.000 C 
BRANCH   7   8
ATOM      8  C   UNL     1       0.711  13.124   9.831  1.00  0.00     0.000 C 
BRANCH   8   9
ATOM      9  C   UNL     1      -0.075  12.481   8.674  1.00  0.00     0.000 C 
BRANCH   9  10
ATOM     10  C   UNL     1      -1.530  12.968   8.515  1.00  0.00     0.006 C 
BRANCH  10  11
ATOM     11  C   UNL     1      -2.521  11.861   8.110  1.00  0.00     0.053 C 
BRANCH  11  12
ATOM     12  C   UNL     1      -3.757  12.403   7.456  1.00  0.00     0.041 C 
ATOM     13  O   UNL     1      -4.587  13.077   8.124  1.00  0.00    -0.550 OA
ATOM     14  O   UNL     1      -4.011  12.132   6.118  1.00  0.00    -0.550 OA
ENDBRANCH  11  12
ENDBRANCH  10  11
ENDBRANCH   9  10
ENDBRANCH   8   9
ENDBRANCH   7   8
ENDBRANCH   6   7
ENDBRANCH   5   6
ENDBRANCH   4   5
ENDBRANCH   3   4
ENDBRANCH   2   3
ENDBRANCH   1   2
BRANCH   1  15
ATOM     15  C   UNL     1       5.525   9.754   7.152  1.00  0.00     0.000 C 
BRANCH  15  16
ATOM     16  C   UNL     1       5.815  10.526   8.448  1.00  0.00     0.000 C 
BRANCH  16  17
ATOM     17  C   UNL     1       5.623  12.034   8.249  1.00  0.00     0.000 C 
BRANCH  17  18
ATOM     18  C   UNL     1       6.798  12.821   8.850  1.00  0.00    -0.000 C 
BRANCH  18  19
ATOM     19  C   UNL     1       7.929  13.062   7.838  1.00  0.00    -0.000 C 
BRANCH  19  20
ATOM     20  C   UNL     1       9.160  12.181   8.115  1.00  0.00    -0.000 C 
BRANCH  20  21
ATOM     21  C   UNL     1       9.615  11.393   6.876  1.00  0.00    -0.000 C 
BRANCH  21  22
ATOM     22  C   UNL     1      10.111  12.307   5.740  1.00  0.00    -0.000 C 
BRANCH  22  23
ATOM     23  C   UNL     1       9.191  12.271   4.510  1.00  0.00    -0.000 C 
BRANCH  23  24
ATOM     24  C   UNL     1       7.912  11.454   4.753  1.00  0.00    -0.000 C 
BRANCH  24  25
ATOM     25  C   UNL     1       6.675  12.208   4.248  1.00  0.00    -0.003 C 
ATOM     26  C   UNL     1       5.410  11.375   4.425  1.00  0.00     0.004 C 
ENDBRANCH  24  25
ENDBRANCH  23  24
ENDBRANCH  22  23
ENDBRANCH  21  22
ENDBRANCH  20  21
ENDBRANCH  19  20
ENDBRANCH  18  19
ENDBRANCH  17  18
ENDBRANCH  16  17
ENDBRANCH  15  16
ENDBRANCH   1  15
TORSDOF 22
ENDMDL
MODEL 3
REMARK VINA RESULT:    -1.652      3.010      8.286
REMARK INTER + INTRA:          -5.808
REMARK INTER:                  -4.634
REMARK INTRA:                  -1.173
REMARK UNBOUND:                -2.031
REMARK SMILES CCCCCCCCCCCCCCCCCCCCCCCC(=O)[O-]
REMARK SMILES IDX 13 1 14 2 15 3 16 4 17 5 18 6 19 7 20 8 21 9 22 10 23 11
REMARK SMILES IDX 24 12 25 13 26 14 12 15 11 16 10 17 9 18 8 19 7 20 6 21 5 22
REMARK SMILES IDX 4 23 3 24 2 25 1 26
REMARK H PARENT
REMARK Flexibility Score: inf
ROOT
ATOM      1  C   UNL     1       5.161   9.930   6.688  1.00  0.00     0.000 C 
ENDROOT
BRANCH   1   2
ATOM      2  C   UNL     1       6.091   9.724   7.896  1.00  0.00     0.000 C 
BRANCH   2   3
ATOM      3  C   UNL     1       7.252  10.730   7.925  1.00  0.00     0.000 C 
BRANCH   3   4
ATOM      4  C   UNL     1       6.812  12.128   8.396  1.00  0.00     0.000 C 
BRANCH   4   5
ATOM      5  C   UNL     1       8.001  13.052   8.696  1.00  0.00     0.000 C 
BRANCH   5   6
ATOM      6  C   UNL     1       9.302  12.279   8.972  1.00  0.00     0.000 C 
BRANCH   6   7
ATOM      7  C   UNL     1      10.102  11.997   7.683  1.00  0.00     0.000 C 
BRANCH   7   8
ATOM      8  C   UNL     1       9.983  13.107   6.622  1.00  0.00     0.000 C 
BRANCH   8   9
ATOM      9  C   UNL     1       9.779  12.616   5.178  1.00  0.00     0.000 C 
BRANCH   9  10
ATOM     10  C   UNL     1       8.365  12.832   4.601  1.00  0.00     0.006 C 
BRANCH  10  11
ATOM     11  C   UNL     1       7.622  11.528   4.255  1.00  0.00     0.053 C 
BRANCH  11  12
ATOM     12  C   UNL     1       6.144  11.729   4.099  1.00  0.00     0.041 C 
ATOM     13  O   UNL     1       5.411  10.782   3.707  1.00  0.00    -0.550 OA
ATOM     14  O   UNL     1       5.582  12.973   4.351  1.00  0.00    -0.550 OA
ENDBRANCH  11  12
ENDBRANCH  10  11
ENDBRANCH   9  10
ENDBRANCH   8   9
ENDBRANCH   7   8
ENDBRANCH   6   7
ENDBRANCH   5   6
ENDBRANCH   4   5
ENDBRANCH   3   4
ENDBRANCH   2   3
ENDBRANCH   1   2
BRANCH   1  15
ATOM     15  C   UNL     1       4.118  11.033   6.925  1.00  0.00     0.000 C 
BRANCH  15  16
ATOM     16  C   UNL     1       2.953  10.566   7.813  1.00  0.00     0.000 C 
BRANCH  16  17
ATOM     17  C   UNL     1       3.060  11.158   9.222  1.00  0.00     0.000 C 
BRANCH  17  18
ATOM     18  C   UNL     1       2.066  10.481  10.179  1.00  0.00    -0.000 C 
BRANCH  18  19
ATOM     19  C   UNL     1       0.819  11.340  10.442  1.00  0.00    -0.000 C 
BRANCH  19  20
ATOM     20  C   UNL     1       0.726  12.545   9.489  1.00  0.00    -0.000 C 
BRANCH  20  21
ATOM     21  C   UNL     1      -0.695  13.125   9.406  1.00  0.00    -0.000 C 
BRANCH  21  22
ATOM     22  C   UNL     1      -1.584  12.378   8.394  1.00  0.00    -0.000 C 
BRANCH  22  23
ATOM     23  C   UNL     1      -3.080  12.662   8.600  1.00  0.00    -0.000 C 
BRANCH  23  24
ATOM     24  C   UNL     1      -3.941  12.168   7.427  1.00  0.00    -0.000 C 
BRANCH  24  25
ATOM     25  C   UNL     1      -3.770  13.075   6.202  1.00  0.00    -0.003 C 
ATOM     26  C   UNL     1      -4.329  12.416   4.944  1.00  0.00     0.004 C 
ENDBRANCH  24  25
ENDBRANCH  23  24
ENDBRANCH  22  23
ENDBRANCH  21  22
ENDBRANCH  20  21
ENDBRANCH  19  20
ENDBRANCH  18  19
ENDBRANCH  17  18
ENDBRANCH  16  17
ENDBRANCH  15  16
ENDBRANCH   1  15
TORSDOF 22
ENDMDL
MODEL 4
REMARK VINA RESULT:    -1.634      2.445      7.672
REMARK INTER + INTRA:          -5.768
REMARK INTER:                  -4.224
REMARK INTRA:                  -1.543
REMARK UNBOUND:                -2.031
REMARK SMILES CCCCCCCCCCCCCCCCCCCCCCCC(=O)[O-]
REMARK SMILES IDX 13 1 14 2 15 3 16 4 17 5 18 6 19 7 20 8 21 9 22 10 23 11
REMARK SMILES IDX 24 12 25 13 26 14 12 15 11 16 10 17 9 18 8 19 7 20 6 21 5 22
REMARK SMILES IDX 4 23 3 24 2 25 1 26
REMARK H PARENT
REMARK Flexibility Score: inf
ROOT
ATOM      1  C   UNL     1       7.044  10.761   8.485  1.00  0.00     0.000 C 
ENDROOT
BRANCH   1   2
ATOM      2  C   UNL     1       7.010  12.247   8.881  1.00  0.00     0.000 C 
BRANCH   2   3
ATOM      3  C   UNL     1       7.882  13.122   7.966  1.00  0.00     0.000 C 
BRANCH   3   4
ATOM      4  C   UNL     1       9.378  13.036   8.316  1.00  0.00     0.000 C 
BRANCH   4   5
ATOM      5  C   UNL     1      10.125  11.995   7.470  1.00  0.00     0.000 C 
BRANCH   5   6
ATOM      6  C   UNL     1      10.089  12.314   5.966  1.00  0.00     0.000 C 
BRANCH   6   7
ATOM      7  C   UNL     1       9.860  11.055   5.103  1.00  0.00     0.000 C 
BRANCH   7   8
ATOM      8  C   UNL     1       8.409  10.896   4.609  1.00  0.00     0.000 C 
BRANCH   8   9
ATOM      9  C   UNL     1       7.558  12.177   4.649  1.00  0.00     0.000 C 
BRANCH   9  10
ATOM     10  C   UNL     1       6.034  11.962   4.542  1.00  0.00     0.006 C 
BRANCH  10  11
ATOM     11  C   UNL     1       5.416  11.239   5.753  1.00  0.00     0.053 C 
BRANCH  11  12
ATOM     12  C   UNL     1       4.108  10.581   5.427  1.00  0.00     0.041 C 
ATOM     13  O   UNL     1       3.815  10.303   4.234  1.00  0.00    -0.550 OA
ATOM     14  O   UNL     1       3.197  10.309   6.440  1.00  0.00    -0.550 OA
ENDBRANCH  11  12
ENDBRANCH  10  11
ENDBRANCH   9  10
ENDBRANCH   8   9
ENDBRANCH   7   8
ENDBRANCH   6   7
ENDBRANCH   5   6
ENDBRANCH   4   5
ENDBRANCH   3   4
ENDBRANCH   2   3
ENDBRANCH   1   2
BRANCH   1  15
ATOM     15  C   UNL     1       5.689  10.064   8.686  1.00  0.00     0.000 C 
BRANCH  15  16
ATOM     16  C   UNL     1       4.686  10.931   9.463  1.00  0.00     0.000 C 
BRANCH  16  17
ATOM     17  C   UNL     1       3.360  10.192   9.671  1.00  0.00     0.000 C 
BRANCH  17  18
ATOM     18  C   UNL     1       2.166  11.141   9.484  1.00  0.00    -0.000 C 
BRANCH  18  19
ATOM     19  C   UNL     1       1.202  11.121  10.681  1.00  0.00    -0.000 C 
BRANCH  19  20
ATOM     20  C   UNL     1      -0.064  11.959  10.428  1.00  0.00    -0.000 C 
BRANCH  20  21
ATOM     21  C   UNL     1       0.173  13.102   9.427  1.00  0.00    -0.000 C 
BRANCH  21  22
ATOM     22  C   UNL     1      -0.756  13.022   8.202  1.00  0.00    -0.000 C 
BRANCH  22  23
ATOM     23  C   UNL     1      -2.242  13.101   8.582  1.00  0.00    -0.000 C 
BRANCH  23  24
ATOM     24  C   UNL     1      -3.104  12.088   7.811  1.00  0.00    -0.000 C 
BRANCH  24  25
ATOM     25  C   UNL     1      -4.242  12.795   7.064  1.00  0.00    -0.003 C 
ATOM     26  C   UNL     1      -4.106  12.618   5.555  1.00  0.00     0.004 C 
ENDBRANCH  24  25
ENDBRANCH  23  24
ENDBRANCH  22  23
ENDBRANCH  21  22
ENDBRANCH  20  21
ENDBRANCH  19  20
ENDBRANCH  18  19
ENDBRANCH  17  18
ENDBRANCH  16  17
ENDBRANCH  15  16
ENDBRANCH   1  15
TORSDOF 22
ENDMDL
MODEL 5
REMARK VINA RESULT:    -0.855      3.664      8.663
REMARK INTER + INTRA:          -3.987
REMARK INTER:                  -2.761
REMARK INTRA:                  -1.226
REMARK UNBOUND:                -2.031
REMARK SMILES CCCCCCCCCCCCCCCCCCCCCCCC(=O)[O-]
REMARK SMILES IDX 13 1 14 2 15 3 16 4 17 5 18 6 19 7 20 8 21 9 22 10 23 11
REMARK SMILES IDX 24 12 25 13 26 14 12 15 11 16 10 17 9 18 8 19 7 20 6 21 5 22
REMARK SMILES IDX 4 23 3 24 2 25 1 26
REMARK H PARENT
REMARK Flexibility Score: inf
ROOT
ATOM      1  C   UNL     1       3.299   8.747   8.530  1.00  0.00     0.000 C 
ENDROOT
BRANCH   1   2
ATOM      2  C   UNL     1       4.762   8.738   8.057  1.00  0.00     0.000 C 
BRANCH   2   3
ATOM      3  C   UNL     1       5.212  10.100   7.504  1.00  0.00     0.000 C 
BRANCH   3   4
ATOM      4  C   UNL     1       4.175  11.210   7.752  1.00  0.00     0.000 C 
BRANCH   4   5
ATOM      5  C   UNL     1       4.799  12.613   7.748  1.00  0.00     0.000 C 
BRANCH   5   6
ATOM      6  C   UNL     1       5.639  12.894   9.006  1.00  0.00     0.000 C 
BRANCH   6   7
ATOM      7  C   UNL     1       6.685  11.791   9.271  1.00  0.00     0.000 C 
BRANCH   7   8
ATOM      8  C   UNL     1       8.091  12.125   8.735  1.00  0.00     0.000 C 
BRANCH   8   9
ATOM      9  C   UNL     1       8.123  13.062   7.515  1.00  0.00     0.000 C 
BRANCH   9  10
ATOM     10  C   UNL     1       9.380  12.949   6.629  1.00  0.00     0.006 C 
BRANCH  10  11
ATOM     11  C   UNL     1       9.455  11.648   5.809  1.00  0.00     0.053 C 
BRANCH  11  12
ATOM     12  C   UNL     1       8.573  11.676   4.597  1.00  0.00     0.041 C 
ATOM     13  O   UNL     1       7.439  11.127   4.621  1.00  0.00    -0.550 OA
ATOM     14  O   UNL     1       9.020  12.277   3.427  1.00  0.00    -0.550 OA
ENDBRANCH  11  12
ENDBRANCH  10  11
ENDBRANCH   9  10
ENDBRANCH   8   9
ENDBRANCH   7   8
ENDBRANCH   6   7
ENDBRANCH   5   6
ENDBRANCH   4   5
ENDBRANCH   3   4
ENDBRANCH   2   3
ENDBRANCH   1   2
BRANCH   1  15
ATOM     15  C   UNL     1       3.171   8.738  10.062  1.00  0.00     0.000 C 
BRANCH  15  16
ATOM     16  C   UNL     1       3.075  10.152  10.656  1.00  0.00     0.000 C 
BRANCH  16  17
ATOM     17  C   UNL     1       1.663  10.726  10.493  1.00  0.00     0.000 C 
BRANCH  17  18
ATOM     18  C   UNL     1       1.705  12.253  10.335  1.00  0.00    -0.000 C 
BRANCH  18  19
ATOM     19  C   UNL     1       0.345  12.844   9.929  1.00  0.00    -0.000 C 
BRANCH  19  20
ATOM     20  C   UNL     1       0.048  12.655   8.431  1.00  0.00    -0.000 C 
BRANCH  20  21
ATOM     21  C   UNL     1      -1.364  13.124   8.044  1.00  0.00    -0.000 C 
BRANCH  21  22
ATOM     22  C   UNL     1      -2.338  13.124   9.238  1.00  0.00    -0.000 C 
BRANCH  22  23
ATOM     23  C   UNL     1      -3.768  12.737   8.831  1.00  0.00    -0.000 C 
BRANCH  23  24
ATOM     24  C   UNL     1      -3.828  12.066   7.450  1.00  0.00    -0.000 C 
BRANCH  24  25
ATOM     25  C   UNL     1      -4.363  13.037   6.391  1.00  0.00    -0.003 C 
ATOM     26  C   UNL     1      -4.006  12.571   4.983  1.00  0.00     0.004 C 
ENDBRANCH  24  25
ENDBRANCH  23  24
ENDBRANCH  22  23
ENDBRANCH  21  22
ENDBRANCH  20  21
ENDBRANCH  19  20
ENDBRANCH  18  19
ENDBRANCH  17  18
ENDBRANCH  16  17
ENDBRANCH  15  16
ENDBRANCH   1  15
TORSDOF 22
ENDMDL
MODEL 6
REMARK VINA RESULT:    -0.661      2.637      6.883
REMARK INTER + INTRA:          -3.543
REMARK INTER:                  -2.892
REMARK INTRA:                  -0.651
REMARK UNBOUND:                -2.031
REMARK SMILES CCCCCCCCCCCCCCCCCCCCCCCC(=O)[O-]
REMARK SMILES IDX 13 1 14 2 15 3 16 4 17 5 18 6 19 7 20 8 21 9 22 10 23 11
REMARK SMILES IDX 24 12 25 13 26 14 12 15 11 16 10 17 9 18 8 19 7 20 6 21 5 22
REMARK SMILES IDX 4 23 3 24 2 25 1 26
REMARK H PARENT
REMARK Flexibility Score: inf
ROOT
ATOM      1  C   UNL     1       7.151  10.546   6.183  1.00  0.00     0.000 C 
ENDROOT
BRANCH   1   2
ATOM      2  C   UNL     1       8.420  10.174   5.397  1.00  0.00     0.000 C 
BRANCH   2   3
ATOM      3  C   UNL     1       8.868  11.289   4.439  1.00  0.00     0.000 C 
BRANCH   3   4
ATOM      4  C   UNL     1       8.865  12.678   5.103  1.00  0.00     0.000 C 
BRANCH   4   5
ATOM      5  C   UNL     1      10.111  12.923   5.967  1.00  0.00     0.000 C 
BRANCH   5   6
ATOM      6  C   UNL     1       9.773  13.124   7.454  1.00  0.00     0.000 C 
BRANCH   6   7
ATOM      7  C   UNL     1       8.257  13.038   7.729  1.00  0.00     0.000 C 
BRANCH   7   8
ATOM      8  C   UNL     1       7.895  12.172   8.952  1.00  0.00     0.000 C 
BRANCH   8   9
ATOM      9  C   UNL     1       6.428  12.260   9.408  1.00  0.00     0.000 C 
BRANCH   9  10
ATOM     10  C   UNL     1       5.531  11.084   8.975  1.00  0.00     0.006 C 
BRANCH  10  11
ATOM     11  C   UNL     1       4.464  10.692  10.013  1.00  0.00     0.053 C 
BRANCH  11  12
ATOM     12  C   UNL     1       3.739   9.430   9.651  1.00  0.00     0.041 C 
ATOM     13  O   UNL     1       2.727   9.066  10.307  1.00  0.00    -0.550 OA
ATOM     14  O   UNL     1       4.205   8.637   8.611  1.00  0.00    -0.550 OA
ENDBRANCH  11  12
ENDBRANCH  10  11
ENDBRANCH   9  10
ENDBRANCH   8   9
ENDBRANCH   7   8
ENDBRANCH   6   7
ENDBRANCH   5   6
ENDBRANCH   4   5
ENDBRANCH   3   4
ENDBRANCH   2   3
ENDBRANCH   1   2
BRANCH   1  15
ATOM     15  C   UNL     1       5.876  10.447   5.331  1.00  0.00     0.000 C 
BRANCH  15  16
ATOM     16  C   UNL     1       4.858  11.551   5.658  1.00  0.00     0.000 C 
BRANCH  16  17
ATOM     17  C   UNL     1       3.474  11.213   5.093  1.00  0.00     0.000 C 
BRANCH  17  18
ATOM     18  C   UNL     1       2.649  10.405   6.107  1.00  0.00    -0.000 C 
BRANCH  18  19
ATOM     19  C   UNL     1       2.558  11.095   7.478  1.00  0.00    -0.000 C 
BRANCH  19  20
ATOM     20  C   UNL     1       1.143  11.021   8.078  1.00  0.00    -0.000 C 
BRANCH  20  21
ATOM     21  C   UNL     1       1.033  11.751   9.426  1.00  0.00    -0.000 C 
BRANCH  21  22
ATOM     22  C   UNL     1       0.344  13.123   9.306  1.00  0.00    -0.000 C 
BRANCH  22  23
ATOM     23  C   UNL     1      -0.857  13.097   8.347  1.00  0.00    -0.000 C 
BRANCH  23  24
ATOM     24  C   UNL     1      -2.151  12.633   9.034  1.00  0.00    -0.000 C 
BRANCH  24  25
ATOM     25  C   UNL     1      -3.369  12.895   8.141  1.00  0.00    -0.003 C 
ATOM     26  C   UNL     1      -3.734  11.658   7.327  1.00  0.00     0.004 C 
ENDBRANCH  24  25
ENDBRANCH  23  24
ENDBRANCH  22  23
ENDBRANCH  21  22
ENDBRANCH  20  21
ENDBRANCH  19  20
ENDBRANCH  18  19
ENDBRANCH  17  18
ENDBRANCH  16  17
ENDBRANCH  15  16
ENDBRANCH   1  15
TORSDOF 22
ENDMDL
MODEL 7
REMARK VINA RESULT:    -0.522      2.580      6.601
REMARK INTER + INTRA:          -3.225
REMARK INTER:                  -3.340
REMARK INTRA:                   0.115
REMARK UNBOUND:                -2.031
REMARK SMILES CCCCCCCCCCCCCCCCCCCCCCCC(=O)[O-]
REMARK SMILES IDX 13 1 14 2 15 3 16 4 17 5 18 6 19 7 20 8 21 9 22 10 23 11
REMARK SMILES IDX 24 12 25 13 26 14 12 15 11 16 10 17 9 18 8 19 7 20 6 21 5 22
REMARK SMILES IDX 4 23 3 24 2 25 1 26
REMARK H PARENT
REMARK Flexibility Score: inf
ROOT
ATOM      1  C   UNL     1       7.962  11.251   7.257  1.00  0.00     0.000 C 
ENDROOT
BRANCH   1   2
ATOM      2  C   UNL     1       8.897  10.586   6.232  1.00  0.00     0.000 C 
BRANCH   2   3
ATOM      3  C   UNL     1       9.972  11.548   5.703  1.00  0.00     0.000 C 
BRANCH   3   4
ATOM      4  C   UNL     1       9.453  12.989   5.550  1.00  0.00     0.000 C 
BRANCH   4   5
ATOM      5  C   UNL     1       8.222  13.081   4.636  1.00  0.00     0.000 C 
BRANCH   5   6
ATOM      6  C   UNL     1       8.356  12.219   3.369  1.00  0.00     0.000 C 
BRANCH   6   7
ATOM      7  C   UNL     1       6.999  11.652   2.899  1.00  0.00     0.000 C 
BRANCH   7   8
ATOM      8  C   UNL     1       6.262  10.830   3.975  1.00  0.00     0.000 C 
BRANCH   8   9
ATOM      9  C   UNL     1       4.900  11.395   4.413  1.00  0.00     0.000 C 
BRANCH   9  10
ATOM     10  C   UNL     1       3.930  10.370   5.035  1.00  0.00     0.006 C 
BRANCH  10  11
ATOM     11  C   UNL     1       3.779  10.494   6.562  1.00  0.00     0.053 C 
BRANCH  11  12
ATOM     12  C   UNL     1       4.433   9.364   7.301  1.00  0.00     0.041 C 
ATOM     13  O   UNL     1       5.689   9.274   7.344  1.00  0.00    -0.550 OA
ATOM     14  O   UNL     1       3.653   8.391   7.912  1.00  0.00    -0.550 OA
ENDBRANCH  11  12
ENDBRANCH  10  11
ENDBRANCH   9  10
ENDBRANCH   8   9
ENDBRANCH   7   8
ENDBRANCH   6   7
ENDBRANCH   5   6
ENDBRANCH   4   5
ENDBRANCH   3   4
ENDBRANCH   2   3
ENDBRANCH   1   2
BRANCH   1  15
ATOM     15  C   UNL     1       8.535  12.563   7.816  1.00  0.00     0.000 C 
BRANCH  15  16
ATOM     16  C   UNL     1       7.977  12.909   9.205  1.00  0.00     0.000 C 
BRANCH  16  17
ATOM     17  C   UNL     1       6.675  12.150   9.484  1.00  0.00     0.000 C 
BRANCH  17  18
ATOM     18  C   UNL     1       5.532  13.121   9.817  1.00  0.00    -0.000 C 
BRANCH  18  19
ATOM     19  C   UNL     1       4.420  13.113   8.755  1.00  0.00    -0.000 C 
BRANCH  19  20
ATOM     20  C   UNL     1       3.087  12.580   9.307  1.00  0.00    -0.000 C 
BRANCH  20  21
ATOM     21  C   UNL     1       3.222  11.181   9.932  1.00  0.00    -0.000 C 
BRANCH  21  22
ATOM     22  C   UNL     1       1.876  10.620  10.429  1.00  0.00    -0.000 C 
BRANCH  22  23
ATOM     23  C   UNL     1       0.724  11.625  10.271  1.00  0.00    -0.000 C 
BRANCH  23  24
ATOM     24  C   UNL     1       0.113  11.604   8.861  1.00  0.00    -0.000 C 
BRANCH  24  25
ATOM     25  C   UNL     1      -0.428  12.987   8.478  1.00  0.00    -0.003 C 
ATOM     26  C   UNL     1      -1.921  13.097   8.768  1.00  0.00     0.004 C 
ENDBRANCH  24  25
ENDBRANCH  23  24
ENDBRANCH  22  23
ENDBRANCH  21  22
ENDBRANCH  20  21
ENDBRANCH  19  20
ENDBRANCH  18  19
ENDBRANCH  17  18
ENDBRANCH  16  17
ENDBRANCH  15  16
ENDBRANCH   1  15
TORSDOF 22
ENDMDL
