MODEL 1
REMARK VINA RESULT:    -2.684      0.000      0.000
REMARK INTER + INTRA:          -5.661
REMARK INTER:                  -4.881
REMARK INTRA:                  -0.780
REMARK UNBOUND:                -0.780
REMARK SMILES CCCCCCCCCCCCCCCC(=O)[O-]
REMARK SMILES IDX 9 1 10 2 11 3 12 4 13 5 14 6 15 7 16 8 17 9 18 10 8 11 7 12
REMARK SMILES IDX 6 13 5 14 4 15 3 16 2 17 1 18
REMARK H PARENT
REMARK Flexibility Score: inf
ROOT
ATOM      1  C   UNL     1       9.023   9.702  19.607  1.00  0.00     0.000 C 
ENDROOT
BRANCH   1   2
ATOM      2  C   UNL     1      10.415   9.510  18.968  1.00  0.00     0.000 C 
BRANCH   2   3
ATOM      3  C   UNL     1      11.001  10.834  18.446  1.00  0.00     0.000 C 
BRANCH   3   4
ATOM      4  C   UNL     1      12.043  11.436  19.402  1.00  0.00     0.000 C 
BRANCH   4   5
ATOM      5  C   UNL     1      11.761  12.913  19.729  1.00  0.00     0.000 C 
BRANCH   5   6
ATOM      6  C   UNL     1      11.226  13.110  21.156  1.00  0.00     0.006 C 
BRANCH   6   7
ATOM      7  C   UNL     1       9.812  12.543  21.339  1.00  0.00     0.053 C 
BRANCH   7   8
ATOM      8  C   UNL     1       9.491  12.399  22.793  1.00  0.00     0.041 C 
ATOM      9  O   UNL     1      10.417  12.354  23.644  1.00  0.00    -0.550 OA
ATOM     10  O   UNL     1       8.167  12.365  23.212  1.00  0.00    -0.550 OA
ENDBRANCH   7   8
ENDBRANCH   6   7
ENDBRANCH   5   6
ENDBRANCH   4   5
ENDBRANCH   3   4
ENDBRANCH   2   3
ENDBRANCH   1   2
BRANCH   1  11
ATOM     11  C   UNL     1       7.892   9.874  18.579  1.00  0.00     0.000 C 
BRANCH  11  12
ATOM     12  C   UNL     1       7.927  11.241  17.877  1.00  0.00    -0.000 C 
BRANCH  12  13
ATOM     13  C   UNL     1       7.414  12.380  18.772  1.00  0.00    -0.000 C 
BRANCH  13  14
ATOM     14  C   UNL     1       6.076  12.961  18.282  1.00  0.00    -0.000 C 
BRANCH  14  15
ATOM     15  C   UNL     1       4.985  12.922  19.364  1.00  0.00    -0.000 C 
BRANCH  15  16
ATOM     16  C   UNL     1       3.662  12.330  18.852  1.00  0.00    -0.000 C 
BRANCH  16  17
ATOM     17  C   UNL     1       2.497  12.717  19.770  1.00  0.00    -0.003 C 
ATOM     18  C   UNL     1       2.306  11.689  20.883  1.00  0.00     0.004 C 
ENDBRANCH  16  17
ENDBRANCH  15  16
ENDBRANCH  14  15
ENDBRANCH  13  14
ENDBRANCH  12  13
ENDBRANCH  11  12
ENDBRANCH   1  11
TORSDOF 14
ENDMDL
MODEL 2
REMARK VINA RESULT:    -2.655      2.582      3.714
REMARK INTER + INTRA:          -5.608
REMARK INTER:                  -4.447
REMARK INTRA:                  -1.161
REMARK UNBOUND:                -0.780
REMARK SMILES CCCCCCCCCCCCCCCC(=O)[O-]
REMARK SMILES IDX 9 1 10 2 11 3 12 4 13 5 14 6 15 7 16 8 17 9 18 10 8 11 7 12
REMARK SMILES IDX 6 13 5 14 4 15 3 16 2 17 1 18
REMARK H PARENT
REMARK Flexibility Score: inf
ROOT
ATOM      1  C   UNL     1       8.518  11.862  21.508  1.00  0.00     0.000 C 
ENDROOT
BRANCH   1   2
ATOM      2  C   UNL     1      10.059  11.785  21.555  1.00  0.00     0.000 C 
BRANCH   2   3
ATOM      3  C   UNL     1      10.705  12.309  20.261  1.00  0.00     0.000 C 
BRANCH   3   4
ATOM      4  C   UNL     1      11.336  11.188  19.420  1.00  0.00     0.000 C 
BRANCH   4   5
ATOM      5  C   UNL     1      10.292  10.390  18.620  1.00  0.00     0.000 C 
BRANCH   5   6
ATOM      6  C   UNL     1      10.078   8.973  19.177  1.00  0.00     0.006 C 
BRANCH   6   7
ATOM      7  C   UNL     1       8.623   8.716  19.592  1.00  0.00     0.053 C 
BRANCH   7   8
ATOM      8  C   UNL     1       8.282   7.268  19.430  1.00  0.00     0.041 C 
ATOM      9  O   UNL     1       7.199   6.930  18.885  1.00  0.00    -0.550 OA
ATOM     10  O   UNL     1       9.183   6.292  19.837  1.00  0.00    -0.550 OA
ENDBRANCH   7   8
ENDBRANCH   6   7
ENDBRANCH   5   6
ENDBRANCH   4   5
ENDBRANCH   3   4
ENDBRANCH   2   3
ENDBRANCH   1   2
BRANCH   1  11
ATOM     11  C   UNL     1       7.982  12.812  20.424  1.00  0.00     0.000 C 
BRANCH  11  12
ATOM     12  C   UNL     1       7.405  12.066  19.210  1.00  0.00    -0.000 C 
BRANCH  12  13
ATOM     13  C   UNL     1       6.652  12.996  18.246  1.00  0.00    -0.000 C 
BRANCH  13  14
ATOM     14  C   UNL     1       5.252  12.466  17.885  1.00  0.00    -0.000 C 
BRANCH  14  15
ATOM     15  C   UNL     1       4.140  13.125  18.715  1.00  0.00    -0.000 C 
BRANCH  15  16
ATOM     16  C   UNL     1       3.011  12.148  19.078  1.00  0.00    -0.000 C 
BRANCH  16  17
ATOM     17  C   UNL     1       2.368  12.526  20.416  1.00  0.00    -0.003 C 
ATOM     18  C   UNL     1       2.028  11.284  21.237  1.00  0.00     0.004 C 
ENDBRANCH  16  17
ENDBRANCH  15  16
ENDBRANCH  14  15
ENDBRANCH  13  14
ENDBRANCH  12  13
ENDBRANCH  11  12
ENDBRANCH   1  11
TORSDOF 14
ENDMDL
MODEL 3
REMARK VINA RESULT:    -1.928      2.688      6.337
REMARK INTER + INTRA:          -4.285
REMARK INTER:                  -3.707
REMARK INTRA:                  -0.578
REMARK UNBOUND:                -0.780
REMARK SMILES CCCCCCCCCCCCCCCC(=O)[O-]
REMARK SMILES IDX 9 1 10 2 11 3 12 4 13 5 14 6 15 7 16 8 17 9 18 10 8 11 7 12
REMARK SMILES IDX 6 13 5 14 4 15 3 16 2 17 1 18
REMARK H PARENT
REMARK Flexibility Score: inf
ROOT
ATOM      1  C   UNL     1       8.313  12.536  22.190  1.00  0.00     0.000 C 
ENDROOT
BRANCH   1   2
ATOM      2  C   UNL     1       7.382  13.030  21.063  1.00  0.00     0.000 C 
BRANCH   2   3
ATOM      3  C   UNL     1       8.094  13.070  19.699  1.00  0.00     0.000 C 
BRANCH   3   4
ATOM      4  C   UNL     1       7.111  13.124  18.520  1.00  0.00     0.000 C 
BRANCH   4   5
ATOM      5  C   UNL     1       5.928  12.155  18.692  1.00  0.00     0.000 C 
BRANCH   5   6
ATOM      6  C   UNL     1       4.566  12.855  18.554  1.00  0.00     0.006 C 
BRANCH   6   7
ATOM      7  C   UNL     1       3.839  13.000  19.898  1.00  0.00     0.053 C 
BRANCH   7   8
ATOM      8  C   UNL     1       2.754  11.977  20.016  1.00  0.00     0.041 C 
ATOM      9  O   UNL     1       2.319  11.644  21.150  1.00  0.00    -0.550 OA
ATOM     10  O   UNL     1       2.189  11.427  18.873  1.00  0.00    -0.550 OA
ENDBRANCH   7   8
ENDBRANCH   6   7
ENDBRANCH   5   6
ENDBRANCH   4   5
ENDBRANCH   3   4
ENDBRANCH   2   3
ENDBRANCH   1   2
BRANCH   1  11
ATOM     11  C   UNL     1       9.650  11.971  21.682  1.00  0.00     0.000 C 
BRANCH  11  12
ATOM     12  C   UNL     1      10.651  13.071  21.291  1.00  0.00    -0.000 C 
BRANCH  12  13
ATOM     13  C   UNL     1      10.978  13.067  19.789  1.00  0.00    -0.000 C 
BRANCH  13  14
ATOM     14  C   UNL     1      12.193  12.184  19.451  1.00  0.00    -0.000 C 
BRANCH  14  15
ATOM     15  C   UNL     1      11.824  10.996  18.548  1.00  0.00    -0.000 C 
BRANCH  15  16
ATOM     16  C   UNL     1      10.329  10.957  18.199  1.00  0.00    -0.000 C 
BRANCH  16  17
ATOM     17  C   UNL     1       9.652   9.733  18.826  1.00  0.00    -0.003 C 
ATOM     18  C   UNL     1      10.682   8.778  19.425  1.00  0.00     0.004 C 
ENDBRANCH  16  17
ENDBRANCH  15  16
ENDBRANCH  14  15
ENDBRANCH  13  14
ENDBRANCH  12  13
ENDBRANCH  11  12
ENDBRANCH   1  11
TORSDOF 14
ENDMDL
MODEL 4
REMARK VINA RESULT:    -1.637      3.604      5.521
REMARK INTER + INTRA:          -3.757
REMARK INTER:                  -2.086
REMARK INTRA:                  -1.671
REMARK UNBOUND:                -0.780
REMARK SMILES CCCCCCCCCCCCCCCC(=O)[O-]
REMARK SMILES IDX 9 1 10 2 11 3 12 4 13 5 14 6 15 7 16 8 17 9 18 10 8 11 7 12
REMARK SMILES IDX 6 13 5 14 4 15 3 16 2 17 1 18
REMARK H PARENT
REMARK Flexibility Score: inf
ROOT
ATOM      1  C   UNL     1      11.896  10.701  19.617  1.00  0.00     0.000 C 
ENDROOT
BRANCH   1   2
ATOM      2  C   UNL     1      11.196   9.723  18.650  1.00  0.00     0.000 C 
BRANCH   2   3
ATOM      3  C   UNL     1      10.427   8.620  19.398  1.00  0.00     0.000 C 
BRANCH   3   4
ATOM      4  C   UNL     1       9.060   9.098  19.913  1.00  0.00     0.000 C 
BRANCH   4   5
ATOM      5  C   UNL     1       7.955   8.987  18.848  1.00  0.00     0.000 C 
BRANCH   5   6
ATOM      6  C   UNL     1       7.573   7.530  18.544  1.00  0.00     0.006 C 
BRANCH   6   7
ATOM      7  C   UNL     1       7.552   6.651  19.801  1.00  0.00     0.053 C 
BRANCH   7   8
ATOM      8  C   UNL     1       8.355   5.408  19.583  1.00  0.00     0.041 C 
ATOM      9  O   UNL     1       8.055   4.616  18.650  1.00  0.00    -0.550 OA
ATOM     10  O   UNL     1       9.464   5.148  20.377  1.00  0.00    -0.550 OA
ENDBRANCH   7   8
ENDBRANCH   6   7
ENDBRANCH   5   6
ENDBRANCH   4   5
ENDBRANCH   3   4
ENDBRANCH   2   3
ENDBRANCH   1   2
BRANCH   1  11
ATOM     11  C   UNL     1      11.858  12.165  19.147  1.00  0.00     0.000 C 
BRANCH  11  12
ATOM     12  C   UNL     1      10.999  12.364  17.888  1.00  0.00    -0.000 C 
BRANCH  12  13
ATOM     13  C   UNL     1       9.695  13.125  18.176  1.00  0.00    -0.000 C 
BRANCH  13  14
ATOM     14  C   UNL     1       8.531  12.186  18.541  1.00  0.00    -0.000 C 
BRANCH  14  15
ATOM     15  C   UNL     1       7.817  12.608  19.835  1.00  0.00    -0.000 C 
BRANCH  15  16
ATOM     16  C   UNL     1       8.794  13.063  20.930  1.00  0.00    -0.000 C 
BRANCH  16  17
ATOM     17  C   UNL     1       8.842  12.048  22.077  1.00  0.00    -0.003 C 
ATOM     18  C   UNL     1       8.865  12.748  23.434  1.00  0.00     0.004 C 
ENDBRANCH  16  17
ENDBRANCH  15  16
ENDBRANCH  14  15
ENDBRANCH  13  14
ENDBRANCH  12  13
ENDBRANCH  11  12
ENDBRANCH   1  11
TORSDOF 14
ENDMDL
MODEL 5
REMARK VINA RESULT:    -1.441      3.668      4.955
REMARK INTER + INTRA:          -3.401
REMARK INTER:                  -2.667
REMARK INTRA:                  -0.734
REMARK UNBOUND:                -0.780
REMARK SMILES CCCCCCCCCCCCCCCC(=O)[O-]
REMARK SMILES IDX 9 1 10 2 11 3 12 4 13 5 14 6 15 7 16 8 17 9 18 10 8 11 7 12
REMARK SMILES IDX 6 13 5 14 4 15 3 16 2 17 1 18
REMARK H PARENT
REMARK Flexibility Score: inf
ROOT
ATOM      1  C   UNL     1       8.512  12.036  20.046  1.00  0.00     0.000 C 
ENDROOT
BRANCH   1   2
ATOM      2  C   UNL     1       9.823  11.268  20.316  1.00  0.00     0.000 C 
BRANCH   2   3
ATOM      3  C   UNL     1      10.043  10.124  19.310  1.00  0.00     0.000 C 
BRANCH   3   4
ATOM      4  C   UNL     1       8.841   9.171  19.228  1.00  0.00     0.000 C 
BRANCH   4   5
ATOM      5  C   UNL     1       9.229   7.706  19.493  1.00  0.00     0.000 C 
BRANCH   5   6
ATOM      6  C   UNL     1       8.036   6.853  19.952  1.00  0.00     0.006 C 
BRANCH   6   7
ATOM      7  C   UNL     1       7.767   5.665  19.018  1.00  0.00     0.053 C 
BRANCH   7   8
ATOM      8  C   UNL     1       8.697   4.535  19.329  1.00  0.00     0.041 C 
ATOM      9  O   UNL     1       9.050   3.738  18.420  1.00  0.00    -0.550 OA
ATOM     10  O   UNL     1       9.212   4.392  20.610  1.00  0.00    -0.550 OA
ENDBRANCH   7   8
ENDBRANCH   6   7
ENDBRANCH   5   6
ENDBRANCH   4   5
ENDBRANCH   3   4
ENDBRANCH   2   3
ENDBRANCH   1   2
BRANCH   1  11
ATOM     11  C   UNL     1       8.473  12.724  18.670  1.00  0.00     0.000 C 
BRANCH  11  12
ATOM     12  C   UNL     1       7.108  12.592  17.976  1.00  0.00    -0.000 C 
BRANCH  12  13
ATOM     13  C   UNL     1       5.939  13.003  18.885  1.00  0.00    -0.000 C 
BRANCH  13  14
ATOM     14  C   UNL     1       4.608  13.122  18.121  1.00  0.00    -0.000 C 
BRANCH  14  15
ATOM     15  C   UNL     1       3.750  11.853  18.230  1.00  0.00    -0.000 C 
BRANCH  15  16
ATOM     16  C   UNL     1       2.246  12.157  18.309  1.00  0.00    -0.000 C 
BRANCH  16  17
ATOM     17  C   UNL     1       1.876  12.738  19.678  1.00  0.00    -0.003 C 
ATOM     18  C   UNL     1       2.696  12.092  20.793  1.00  0.00     0.004 C 
ENDBRANCH  16  17
ENDBRANCH  15  16
ENDBRANCH  14  15
ENDBRANCH  13  14
ENDBRANCH  12  13
ENDBRANCH  11  12
ENDBRANCH   1  11
TORSDOF 14
ENDMDL
MODEL 6
REMARK VINA RESULT:    -1.424      1.770      5.372
REMARK INTER + INTRA:          -3.369
REMARK INTER:                  -1.621
REMARK INTRA:                  -1.748
REMARK UNBOUND:                -0.780
REMARK SMILES CCCCCCCCCCCCCCCC(=O)[O-]
REMARK SMILES IDX 9 1 10 2 11 3 12 4 13 5 14 6 15 7 16 8 17 9 18 10 8 11 7 12
REMARK SMILES IDX 6 13 5 14 4 15 3 16 2 17 1 18
REMARK H PARENT
REMARK Flexibility Score: inf
ROOT
ATOM      1  C   UNL     1       6.746   9.646  17.885  1.00  0.00     0.000 C 
ENDROOT
BRANCH   1   2
ATOM      2  C   UNL     1       6.887  11.183  17.877  1.00  0.00     0.000 C 
BRANCH   2   3
ATOM      3  C   UNL     1       5.882  11.861  18.825  1.00  0.00     0.000 C 
BRANCH   3   4
ATOM      4  C   UNL     1       6.453  13.125  19.486  1.00  0.00     0.000 C 
BRANCH   4   5
ATOM      5  C   UNL     1       7.906  12.940  19.958  1.00  0.00     0.000 C 
BRANCH   5   6
ATOM      6  C   UNL     1       8.045  13.017  21.487  1.00  0.00     0.006 C 
BRANCH   6   7
ATOM      7  C   UNL     1       8.942  11.909  22.054  1.00  0.00     0.053 C 
BRANCH   7   8
ATOM      8  C   UNL     1       9.595  12.364  23.321  1.00  0.00     0.041 C 
ATOM      9  O   UNL     1      10.806  12.099  23.539  1.00  0.00    -0.550 OA
ATOM     10  O   UNL     1       8.879  13.121  24.239  1.00  0.00    -0.550 OA
ENDBRANCH   7   8
ENDBRANCH   6   7
ENDBRANCH   5   6
ENDBRANCH   4   5
ENDBRANCH   3   4
ENDBRANCH   2   3
ENDBRANCH   1   2
BRANCH   1  11
ATOM     11  C   UNL     1       8.075   8.906  18.114  1.00  0.00     0.000 C 
BRANCH  11  12
ATOM     12  C   UNL     1       8.751   9.293  19.440  1.00  0.00    -0.000 C 
BRANCH  12  13
ATOM     13  C   UNL     1      10.138   8.653  19.606  1.00  0.00    -0.000 C 
BRANCH  13  14
ATOM     14  C   UNL     1      11.266   9.698  19.688  1.00  0.00    -0.000 C 
BRANCH  14  15
ATOM     15  C   UNL     1      11.372  10.552  18.415  1.00  0.00    -0.000 C 
BRANCH  15  16
ATOM     16  C   UNL     1      11.145  12.048  18.682  1.00  0.00    -0.000 C 
BRANCH  16  17
ATOM     17  C   UNL     1      12.380  12.682  19.331  1.00  0.00    -0.003 C 
ATOM     18  C   UNL     1      13.472  12.947  18.297  1.00  0.00     0.004 C 
ENDBRANCH  16  17
ENDBRANCH  15  16
ENDBRANCH  14  15
ENDBRANCH  13  14
ENDBRANCH  12  13
ENDBRANCH  11  12
ENDBRANCH   1  11
TORSDOF 14
ENDMDL
MODEL 7
REMARK VINA RESULT:    -1.398      3.523      6.795
REMARK INTER + INTRA:          -3.322
REMARK INTER:                  -2.392
REMARK INTRA:                  -0.930
REMARK UNBOUND:                -0.780
REMARK SMILES CCCCCCCCCCCCCCCC(=O)[O-]
REMARK SMILES IDX 9 1 10 2 11 3 12 4 13 5 14 6 15 7 16 8 17 9 18 10 8 11 7 12
REMARK SMILES IDX 6 13 5 14 4 15 3 16 2 17 1 18
REMARK H PARENT
REMARK Flexibility Score: inf
ROOT
ATOM      1  C   UNL     1       7.299  11.676  18.775  1.00  0.00     0.000 C 
ENDROOT
BRANCH   1   2
ATOM      2  C   UNL     1       8.421  11.111  17.877  1.00  0.00     0.000 C 
BRANCH   2   3
ATOM      3  C   UNL     1       9.214   9.992  18.576  1.00  0.00     0.000 C 
BRANCH   3   4
ATOM      4  C   UNL     1       8.302   8.949  19.240  1.00  0.00     0.000 C 
BRANCH   4   5
ATOM      5  C   UNL     1       7.351   8.271  18.238  1.00  0.00     0.000 C 
BRANCH   5   6
ATOM      6  C   UNL     1       6.945   6.854  18.675  1.00  0.00     0.006 C 
BRANCH   6   7
ATOM      7  C   UNL     1       7.700   6.384  19.925  1.00  0.00     0.053 C 
BRANCH   7   8
ATOM      8  C   UNL     1       8.628   5.261  19.582  1.00  0.00     0.041 C 
ATOM      9  O   UNL     1       9.638   5.033  20.299  1.00  0.00    -0.550 OA
ATOM     10  O   UNL     1       8.350   4.436  18.501  1.00  0.00    -0.550 OA
ENDBRANCH   7   8
ENDBRANCH   6   7
ENDBRANCH   5   6
ENDBRANCH   4   5
ENDBRANCH   3   4
ENDBRANCH   2   3
ENDBRANCH   1   2
BRANCH   1  11
ATOM     11  C   UNL     1       7.611  13.069  19.347  1.00  0.00     0.000 C 
BRANCH  11  12
ATOM     12  C   UNL     1       7.563  13.107  20.883  1.00  0.00    -0.000 C 
BRANCH  12  13
ATOM     13  C   UNL     1       8.746  12.369  21.530  1.00  0.00    -0.000 C 
BRANCH  13  14
ATOM     14  C   UNL     1      10.078  13.122  21.360  1.00  0.00    -0.000 C 
BRANCH  14  15
ATOM     15  C   UNL     1      10.742  12.846  20.002  1.00  0.00    -0.000 C 
BRANCH  15  16
ATOM     16  C   UNL     1      12.272  12.970  20.053  1.00  0.00    -0.000 C 
BRANCH  16  17
ATOM     17  C   UNL     1      12.921  12.217  18.887  1.00  0.00    -0.003 C 
ATOM     18  C   UNL     1      14.289  12.803  18.544  1.00  0.00     0.004 C 
ENDBRANCH  16  17
ENDBRANCH  15  16
ENDBRANCH  14  15
ENDBRANCH  13  14
ENDBRANCH  12  13
ENDBRANCH  11  12
ENDBRANCH   1  11
TORSDOF 14
ENDMDL
