MODEL 1
REMARK VINA RESULT:    -6.240      0.000      0.000
REMARK INTER + INTRA:         -10.088
REMARK INTER:                  -8.612
REMARK INTRA:                  -1.476
REMARK UNBOUND:                -1.476
REMARK SMILES CC[C@H](CC[C@H](C)[C@H]1CC[C@H]2[C@H]3CC=C4C[C@H](O)CC[C@@]4(C)[C@H]3CC[C@]12C)C(C)C
REMARK SMILES IDX 5 1 4 2 3 3 2 4 1 5 28 6 29 7 30 8 6 9 7 10 8 11 9 12 26 13
REMARK SMILES IDX 10 14 11 15 25 16 27 17 12 18 24 19 23 20 13 21 21 22 14 23
REMARK SMILES IDX 15 24 20 25 22 26 16 27 19 28 17 29 18 30
REMARK H PARENT 18 31
REMARK Flexibility Score: inf
ROOT
ATOM      1  C   UNL     1       9.656  -4.641  -6.870  1.00  0.00     0.004 C 
ENDROOT
BRANCH   1   2
ATOM      2  C   UNL     1       8.696  -5.865  -6.847  1.00  0.00     0.004 C 
BRANCH   2   3
ATOM      3  C   UNL     1       7.184  -5.605  -7.156  1.00  0.00    -0.009 C 
BRANCH   3   4
ATOM      4  C   UNL     1       6.688  -6.249  -8.480  1.00  0.00     0.000 C 
ATOM      5  C   UNL     1       7.563  -5.904  -9.689  1.00  0.00     0.004 C 
ENDBRANCH   3   4
BRANCH   3   6
ATOM      6  C   UNL     1       6.235  -5.878  -5.928  1.00  0.00    -0.014 C 
ATOM      7  C   UNL     1       4.889  -5.146  -6.091  1.00  0.00     0.007 C 
ATOM      8  C   UNL     1       5.963  -7.372  -5.635  1.00  0.00     0.007 C 
ENDBRANCH   3   6
ENDBRANCH   2   3
ENDBRANCH   1   2
BRANCH   1   9
ATOM      9  C   UNL     1       8.977  -3.284  -7.209  1.00  0.00    -0.011 C 
ATOM     10  C   UNL     1       9.338  -2.882  -8.657  1.00  0.00     0.008 C 
BRANCH   9  11
ATOM     11  C   UNL     1       9.347  -2.204  -6.121  1.00  0.00    -0.002 C 
ATOM     12  C   UNL     1       8.881  -0.753  -6.409  1.00  0.00     0.005 C 
ATOM     13  C   UNL     1       8.936  -2.468  -4.641  1.00  0.00    -0.026 C 
ATOM     14  C   UNL     1       8.730  -0.061  -5.041  1.00  0.00     0.005 C 
ATOM     15  C   UNL     1       9.246  -1.090  -4.036  1.00  0.00    -0.001 C 
ATOM     16  C   UNL     1       9.820  -3.490  -3.898  1.00  0.00     0.007 C 
ATOM     17  C   UNL     1       7.443  -2.888  -4.537  1.00  0.00     0.012 C 
ATOM     18  C   UNL     1       8.933  -0.924  -2.532  1.00  0.00     0.000 C 
ATOM     19  C   UNL     1       9.572  -3.463  -2.369  1.00  0.00     0.005 C 
ATOM     20  C   UNL     1       9.652  -2.044  -1.699  1.00  0.00     0.003 C 
ATOM     21  C   UNL     1       7.433  -0.700  -2.183  1.00  0.00     0.031 C 
ATOM     22  C   UNL     1       9.176  -2.016  -0.190  1.00  0.00    -0.008 C 
ATOM     23  C   UNL     1       6.886  -1.569  -1.079  1.00  0.00    -0.027 C 
ATOM     24  C   UNL     1       7.653  -2.154  -0.136  1.00  0.00    -0.065 C 
ATOM     25  C   UNL     1       9.869  -3.150   0.641  1.00  0.00     0.014 C 
ATOM     26  C   UNL     1       9.564  -0.655   0.454  1.00  0.00     0.016 C 
ATOM     27  C   UNL     1       6.965  -2.670   1.116  1.00  0.00     0.063 C 
ATOM     28  C   UNL     1       9.204  -3.413   1.997  1.00  0.00     0.033 C 
ATOM     29  C   UNL     1       7.738  -3.808   1.790  1.00  0.00     0.118 C 
BRANCH  29  30
ATOM     30  O   UNL     1       7.139  -4.093   3.025  1.00  0.00    -0.393 OA
ATOM     31  H   UNL     1       7.104  -5.081   3.113  1.00  0.00     0.210 HD
ENDBRANCH  29  30
ENDBRANCH   9  11
ENDBRANCH   1   9
TORSDOF 7
ENDMDL
MODEL 2
REMARK VINA RESULT:    -6.003      2.253      7.273
REMARK INTER + INTRA:          -9.760
REMARK INTER:                  -8.041
REMARK INTRA:                  -1.719
REMARK UNBOUND:                -1.476
REMARK SMILES CC[C@H](CC[C@H](C)[C@H]1CC[C@H]2[C@H]3CC=C4C[C@H](O)CC[C@@]4(C)[C@H]3CC[C@]12C)C(C)C
REMARK SMILES IDX 5 1 4 2 3 3 2 4 1 5 28 6 29 7 30 8 6 9 7 10 8 11 9 12 26 13
REMARK SMILES IDX 10 14 11 15 25 16 27 17 12 18 24 19 23 20 13 21 21 22 14 23
REMARK SMILES IDX 15 24 20 25 22 26 16 27 19 28 17 29 18 30
REMARK H PARENT 18 31
REMARK Flexibility Score: inf
ROOT
ATOM      1  C   UNL     1       7.756   0.271  -2.196  1.00  0.00     0.004 C 
ENDROOT
BRANCH   1   2
ATOM      2  C   UNL     1       7.621  -0.106  -0.693  1.00  0.00     0.004 C 
BRANCH   2   3
ATOM      3  C   UNL     1       8.319  -1.421  -0.210  1.00  0.00    -0.009 C 
BRANCH   3   4
ATOM      4  C   UNL     1       9.344  -1.212   0.939  1.00  0.00     0.000 C 
ATOM      5  C   UNL     1       9.133   0.094   1.710  1.00  0.00     0.004 C 
ENDBRANCH   3   4
BRANCH   3   6
ATOM      6  C   UNL     1       7.314  -2.607   0.050  1.00  0.00    -0.014 C 
ATOM      7  C   UNL     1       7.543  -3.237   1.436  1.00  0.00     0.007 C 
ATOM      8  C   UNL     1       5.820  -2.238  -0.096  1.00  0.00     0.007 C 
ENDBRANCH   3   6
ENDBRANCH   2   3
ENDBRANCH   1   2
BRANCH   1   9
ATOM      9  C   UNL     1       9.061  -0.227  -2.880  1.00  0.00    -0.011 C 
ATOM     10  C   UNL     1      10.118   0.899  -2.838  1.00  0.00     0.008 C 
BRANCH   9  11
ATOM     11  C   UNL     1       8.744  -0.770  -4.326  1.00  0.00    -0.002 C 
ATOM     12  C   UNL     1       9.939  -0.834  -5.312  1.00  0.00     0.005 C 
ATOM     13  C   UNL     1       8.041  -2.155  -4.462  1.00  0.00    -0.026 C 
ATOM     14  C   UNL     1       9.610  -1.942  -6.330  1.00  0.00     0.005 C 
ATOM     15  C   UNL     1       8.187  -2.371  -5.977  1.00  0.00    -0.001 C 
ATOM     16  C   UNL     1       6.529  -2.143  -4.157  1.00  0.00     0.007 C 
ATOM     17  C   UNL     1       8.747  -3.233  -3.594  1.00  0.00     0.012 C 
ATOM     18  C   UNL     1       7.621  -3.699  -6.529  1.00  0.00     0.000 C 
ATOM     19  C   UNL     1       5.838  -3.450  -4.621  1.00  0.00     0.005 C 
ATOM     20  C   UNL     1       6.117  -3.867  -6.111  1.00  0.00     0.003 C 
ATOM     21  C   UNL     1       8.516  -4.951  -6.300  1.00  0.00     0.031 C 
ATOM     22  C   UNL     1       5.586  -5.309  -6.486  1.00  0.00    -0.008 C 
ATOM     23  C   UNL     1       7.811  -6.159  -5.733  1.00  0.00    -0.027 C 
ATOM     24  C   UNL     1       6.482  -6.365  -5.833  1.00  0.00    -0.065 C 
ATOM     25  C   UNL     1       4.094  -5.494  -6.045  1.00  0.00     0.014 C 
ATOM     26  C   UNL     1       5.651  -5.504  -8.027  1.00  0.00     0.016 C 
ATOM     27  C   UNL     1       5.962  -7.768  -5.572  1.00  0.00     0.063 C 
ATOM     28  C   UNL     1       3.628  -6.955  -6.047  1.00  0.00     0.033 C 
ATOM     29  C   UNL     1       4.504  -7.782  -5.102  1.00  0.00     0.118 C 
BRANCH  29  30
ATOM     30  O   UNL     1       4.052  -9.109  -5.068  1.00  0.00    -0.393 OA
ATOM     31  H   UNL     1       3.244  -9.128  -4.491  1.00  0.00     0.210 HD
ENDBRANCH  29  30
ENDBRANCH   9  11
ENDBRANCH   1   9
TORSDOF 7
ENDMDL
MODEL 3
REMARK VINA RESULT:    -5.857      9.460     12.922
REMARK INTER + INTRA:          -9.559
REMARK INTER:                  -7.583
REMARK INTRA:                  -1.976
REMARK UNBOUND:                -1.476
REMARK SMILES CC[C@H](CC[C@H](C)[C@H]1CC[C@H]2[C@H]3CC=C4C[C@H](O)CC[C@@]4(C)[C@H]3CC[C@]12C)C(C)C
REMARK SMILES IDX 5 1 4 2 3 3 2 4 1 5 28 6 29 7 30 8 6 9 7 10 8 11 9 12 26 13
REMARK SMILES IDX 10 14 11 15 25 16 27 17 12 18 24 19 23 20 13 21 21 22 14 23
REMARK SMILES IDX 15 24 20 25 22 26 16 27 19 28 17 29 18 30
REMARK H PARENT 18 31
REMARK Flexibility Score: inf
ROOT
ATOM      1  C   UNL     1      -4.118  -5.466   1.781  1.00  0.00     0.004 C 
ENDROOT
BRANCH   1   2
ATOM      2  C   UNL     1      -5.041  -6.709   1.930  1.00  0.00     0.004 C 
BRANCH   2   3
ATOM      3  C   UNL     1      -4.762  -7.935   0.998  1.00  0.00    -0.009 C 
BRANCH   3   4
ATOM      4  C   UNL     1      -4.122  -9.151   1.722  1.00  0.00     0.000 C 
ATOM      5  C   UNL     1      -2.919  -9.738   0.978  1.00  0.00     0.004 C 
ENDBRANCH   3   4
BRANCH   3   6
ATOM      6  C   UNL     1      -5.984  -8.318   0.081  1.00  0.00    -0.014 C 
ATOM      7  C   UNL     1      -7.222  -7.465   0.416  1.00  0.00     0.007 C 
ATOM      8  C   UNL     1      -5.710  -8.232  -1.439  1.00  0.00     0.007 C 
ENDBRANCH   3   6
ENDBRANCH   2   3
ENDBRANCH   1   2
BRANCH   1   9
ATOM      9  C   UNL     1      -4.657  -4.361   0.830  1.00  0.00    -0.011 C 
ATOM     10  C   UNL     1      -6.084  -3.964   1.269  1.00  0.00     0.008 C 
BRANCH   9  11
ATOM     11  C   UNL     1      -4.543  -4.830  -0.671  1.00  0.00    -0.002 C 
ATOM     12  C   UNL     1      -5.260  -3.946  -1.723  1.00  0.00     0.005 C 
ATOM     13  C   UNL     1      -3.125  -5.085  -1.265  1.00  0.00    -0.026 C 
ATOM     14  C   UNL     1      -4.512  -4.151  -3.053  1.00  0.00     0.005 C 
ATOM     15  C   UNL     1      -3.491  -5.246  -2.749  1.00  0.00    -0.001 C 
ATOM     16  C   UNL     1      -2.468  -6.408  -0.822  1.00  0.00     0.007 C 
ATOM     17  C   UNL     1      -2.169  -3.896  -0.970  1.00  0.00     0.012 C 
ATOM     18  C   UNL     1      -2.310  -5.490  -3.715  1.00  0.00     0.000 C 
ATOM     19  C   UNL     1      -1.229  -6.754  -1.686  1.00  0.00     0.005 C 
ATOM     20  C   UNL     1      -1.463  -6.725  -3.240  1.00  0.00     0.003 C 
ATOM     21  C   UNL     1      -1.484  -4.227  -4.092  1.00  0.00     0.031 C 
ATOM     22  C   UNL     1      -0.138  -6.860  -4.093  1.00  0.00    -0.008 C 
ATOM     23  C   UNL     1       0.013  -4.370  -3.974  1.00  0.00    -0.027 C 
ATOM     24  C   UNL     1       0.657  -5.555  -4.006  1.00  0.00    -0.065 C 
ATOM     25  C   UNL     1       0.727  -8.072  -3.606  1.00  0.00     0.014 C 
ATOM     26  C   UNL     1      -0.501  -7.108  -5.585  1.00  0.00     0.016 C 
ATOM     27  C   UNL     1       2.154  -5.539  -4.264  1.00  0.00     0.063 C 
ATOM     28  C   UNL     1       2.166  -8.053  -4.132  1.00  0.00     0.033 C 
ATOM     29  C   UNL     1       2.867  -6.766  -3.686  1.00  0.00     0.118 C 
BRANCH  29  30
ATOM     30  O   UNL     1       4.197  -6.766  -4.129  1.00  0.00    -0.393 OA
ATOM     31  H   UNL     1       4.204  -7.170  -5.036  1.00  0.00     0.210 HD
ENDBRANCH  29  30
ENDBRANCH   9  11
ENDBRANCH   1   9
TORSDOF 7
ENDMDL
MODEL 4
REMARK VINA RESULT:    -5.742      8.972     13.201
REMARK INTER + INTRA:          -9.400
REMARK INTER:                  -8.428
REMARK INTRA:                  -0.971
REMARK UNBOUND:                -1.476
REMARK SMILES CC[C@H](CC[C@H](C)[C@H]1CC[C@H]2[C@H]3CC=C4C[C@H](O)CC[C@@]4(C)[C@H]3CC[C@]12C)C(C)C
REMARK SMILES IDX 5 1 4 2 3 3 2 4 1 5 28 6 29 7 30 8 6 9 7 10 8 11 9 12 26 13
REMARK SMILES IDX 10 14 11 15 25 16 27 17 12 18 24 19 23 20 13 21 21 22 14 23
REMARK SMILES IDX 15 24 20 25 22 26 16 27 19 28 17 29 18 30
REMARK H PARENT 18 31
REMARK Flexibility Score: inf
ROOT
ATOM      1  C   UNL     1      -4.099  -5.547   1.747  1.00  0.00     0.004 C 
ENDROOT
BRANCH   1   2
ATOM      2  C   UNL     1      -4.163  -5.228   3.268  1.00  0.00     0.004 C 
BRANCH   2   3
ATOM      3  C   UNL     1      -3.070  -4.274   3.855  1.00  0.00    -0.009 C 
BRANCH   3   4
ATOM      4  C   UNL     1      -3.630  -2.939   4.419  1.00  0.00     0.000 C 
ATOM      5  C   UNL     1      -5.091  -3.033   4.866  1.00  0.00     0.004 C 
ENDBRANCH   3   4
BRANCH   3   6
ATOM      6  C   UNL     1      -2.062  -4.995   4.827  1.00  0.00    -0.014 C 
ATOM      7  C   UNL     1      -1.377  -3.987   5.769  1.00  0.00     0.007 C 
ATOM      8  C   UNL     1      -2.675  -6.136   5.672  1.00  0.00     0.007 C 
ENDBRANCH   3   6
ENDBRANCH   2   3
ENDBRANCH   1   2
BRANCH   1   9
ATOM      9  C   UNL     1      -4.642  -4.423   0.820  1.00  0.00    -0.011 C 
ATOM     10  C   UNL     1      -6.073  -4.046   1.263  1.00  0.00     0.008 C 
BRANCH   9  11
ATOM     11  C   UNL     1      -4.520  -4.858  -0.691  1.00  0.00    -0.002 C 
ATOM     12  C   UNL     1      -5.247  -3.959  -1.724  1.00  0.00     0.005 C 
ATOM     13  C   UNL     1      -3.098  -5.080  -1.288  1.00  0.00    -0.026 C 
ATOM     14  C   UNL     1      -4.495  -4.125  -3.057  1.00  0.00     0.005 C 
ATOM     15  C   UNL     1      -3.460  -5.213  -2.776  1.00  0.00    -0.001 C 
ATOM     16  C   UNL     1      -2.424  -6.404  -0.874  1.00  0.00     0.007 C 
ATOM     17  C   UNL     1      -2.158  -3.886  -0.966  1.00  0.00     0.012 C 
ATOM     18  C   UNL     1      -2.274  -5.420  -3.746  1.00  0.00     0.000 C 
ATOM     19  C   UNL     1      -1.179  -6.714  -1.744  1.00  0.00     0.005 C 
ATOM     20  C   UNL     1      -1.411  -6.653  -3.297  1.00  0.00     0.003 C 
ATOM     21  C   UNL     1      -1.465  -4.137  -4.093  1.00  0.00     0.031 C 
ATOM     22  C   UNL     1      -0.083  -6.751  -4.151  1.00  0.00    -0.008 C 
ATOM     23  C   UNL     1       0.034  -4.263  -3.976  1.00  0.00    -0.027 C 
ATOM     24  C   UNL     1       0.694  -5.438  -4.033  1.00  0.00    -0.065 C 
ATOM     25  C   UNL     1       0.797  -7.963  -3.689  1.00  0.00     0.014 C 
ATOM     26  C   UNL     1      -0.441  -6.971  -5.648  1.00  0.00     0.016 C 
ATOM     27  C   UNL     1       2.191  -5.396  -4.288  1.00  0.00     0.063 C 
ATOM     28  C   UNL     1       2.237  -7.913  -4.212  1.00  0.00     0.033 C 
ATOM     29  C   UNL     1       2.919  -6.626  -3.737  1.00  0.00     0.118 C 
BRANCH  29  30
ATOM     30  O   UNL     1       4.250  -6.599  -4.177  1.00  0.00    -0.393 OA
ATOM     31  H   UNL     1       4.249  -6.207  -5.089  1.00  0.00     0.210 HD
ENDBRANCH  29  30
ENDBRANCH   9  11
ENDBRANCH   1   9
TORSDOF 7
ENDMDL
MODEL 5
REMARK VINA RESULT:    -5.659      7.004     10.127
REMARK INTER + INTRA:          -9.285
REMARK INTER:                  -8.154
REMARK INTRA:                  -1.131
REMARK UNBOUND:                -1.476
REMARK SMILES CC[C@H](CC[C@H](C)[C@H]1CC[C@H]2[C@H]3CC=C4C[C@H](O)CC[C@@]4(C)[C@H]3CC[C@]12C)C(C)C
REMARK SMILES IDX 5 1 4 2 3 3 2 4 1 5 28 6 29 7 30 8 6 9 7 10 8 11 9 12 26 13
REMARK SMILES IDX 10 14 11 15 25 16 27 17 12 18 24 19 23 20 13 21 21 22 14 23
REMARK SMILES IDX 15 24 20 25 22 26 16 27 19 28 17 29 18 30
REMARK H PARENT 18 31
REMARK Flexibility Score: inf
ROOT
ATOM      1  C   UNL     1       3.633  -5.391  -4.821  1.00  0.00     0.004 C 
ENDROOT
BRANCH   1   2
ATOM      2  C   UNL     1       4.522  -5.527  -6.090  1.00  0.00     0.004 C 
BRANCH   2   3
ATOM      3  C   UNL     1       5.466  -4.330  -6.444  1.00  0.00    -0.009 C 
BRANCH   3   4
ATOM      4  C   UNL     1       5.086  -2.994  -5.748  1.00  0.00     0.000 C 
ATOM      5  C   UNL     1       6.190  -2.448  -4.838  1.00  0.00     0.004 C 
ENDBRANCH   3   4
BRANCH   3   6
ATOM      6  C   UNL     1       6.997  -4.684  -6.337  1.00  0.00    -0.014 C 
ATOM      7  C   UNL     1       7.213  -5.996  -5.559  1.00  0.00     0.007 C 
ATOM      8  C   UNL     1       7.742  -4.772  -7.690  1.00  0.00     0.007 C 
ENDBRANCH   3   6
ENDBRANCH   2   3
ENDBRANCH   1   2
BRANCH   1   9
ATOM      9  C   UNL     1       3.111  -6.735  -4.241  1.00  0.00    -0.011 C 
ATOM     10  C   UNL     1       4.031  -7.883  -4.710  1.00  0.00     0.008 C 
BRANCH   9  11
ATOM     11  C   UNL     1       1.588  -6.930  -4.602  1.00  0.00    -0.002 C 
ATOM     12  C   UNL     1       1.164  -8.355  -5.043  1.00  0.00     0.005 C 
ATOM     13  C   UNL     1       0.514  -6.501  -3.557  1.00  0.00    -0.026 C 
ATOM     14  C   UNL     1      -0.330  -8.494  -4.700  1.00  0.00     0.005 C 
ATOM     15  C   UNL     1      -0.738  -7.107  -4.209  1.00  0.00    -0.001 C 
ATOM     16  C   UNL     1       0.277  -4.980  -3.462  1.00  0.00     0.007 C 
ATOM     17  C   UNL     1       0.839  -7.073  -2.149  1.00  0.00     0.012 C 
ATOM     18  C   UNL     1      -2.063  -6.920  -3.434  1.00  0.00     0.000 C 
ATOM     19  C   UNL     1      -1.007  -4.646  -2.662  1.00  0.00     0.005 C 
ATOM     20  C   UNL     1      -2.306  -5.399  -3.128  1.00  0.00     0.003 C 
ATOM     21  C   UNL     1      -2.270  -7.880  -2.227  1.00  0.00     0.031 C 
ATOM     22  C   UNL     1      -3.542  -5.211  -2.158  1.00  0.00    -0.008 C 
ATOM     23  C   UNL     1      -2.700  -7.222  -0.940  1.00  0.00    -0.027 C 
ATOM     24  C   UNL     1      -3.312  -6.021  -0.881  1.00  0.00    -0.065 C 
ATOM     25  C   UNL     1      -3.773  -3.697  -1.825  1.00  0.00     0.014 C 
ATOM     26  C   UNL     1      -4.830  -5.744  -2.847  1.00  0.00     0.016 C 
ATOM     27  C   UNL     1      -4.027  -5.655   0.409  1.00  0.00     0.063 C 
ATOM     28  C   UNL     1      -4.706  -3.465  -0.632  1.00  0.00     0.033 C 
ATOM     29  C   UNL     1      -4.132  -4.141   0.618  1.00  0.00     0.118 C 
BRANCH  29  30
ATOM     30  O   UNL     1      -4.962  -3.892   1.720  1.00  0.00    -0.393 OA
ATOM     31  H   UNL     1      -5.883  -3.770   1.372  1.00  0.00     0.210 HD
ENDBRANCH  29  30
ENDBRANCH   9  11
ENDBRANCH   1   9
TORSDOF 7
ENDMDL
MODEL 6
REMARK VINA RESULT:    -5.650      7.372     11.302
REMARK INTER + INTRA:          -9.273
REMARK INTER:                  -7.789
REMARK INTRA:                  -1.483
REMARK UNBOUND:                -1.476
REMARK SMILES CC[C@H](CC[C@H](C)[C@H]1CC[C@H]2[C@H]3CC=C4C[C@H](O)CC[C@@]4(C)[C@H]3CC[C@]12C)C(C)C
REMARK SMILES IDX 5 1 4 2 3 3 2 4 1 5 28 6 29 7 30 8 6 9 7 10 8 11 9 12 26 13
REMARK SMILES IDX 10 14 11 15 25 16 27 17 12 18 24 19 23 20 13 21 21 22 14 23
REMARK SMILES IDX 15 24 20 25 22 26 16 27 19 28 17 29 18 30
REMARK H PARENT 18 31
REMARK Flexibility Score: inf
ROOT
ATOM      1  C   UNL     1      -2.066  -3.705  -1.130  1.00  0.00     0.004 C 
ENDROOT
BRANCH   1   2
ATOM      2  C   UNL     1      -3.543  -3.362  -0.787  1.00  0.00     0.004 C 
BRANCH   2   3
ATOM      3  C   UNL     1      -4.261  -4.244   0.288  1.00  0.00    -0.009 C 
BRANCH   3   4
ATOM      4  C   UNL     1      -5.784  -3.967   0.424  1.00  0.00     0.000 C 
ATOM      5  C   UNL     1      -6.319  -2.990  -0.627  1.00  0.00     0.004 C 
ENDBRANCH   3   4
BRANCH   3   6
ATOM      6  C   UNL     1      -3.907  -5.776   0.183  1.00  0.00    -0.014 C 
ATOM      7  C   UNL     1      -3.854  -6.433   1.575  1.00  0.00     0.007 C 
ATOM      8  C   UNL     1      -4.847  -6.600  -0.728  1.00  0.00     0.007 C 
ENDBRANCH   3   6
ENDBRANCH   2   3
ENDBRANCH   1   2
BRANCH   1   9
ATOM      9  C   UNL     1      -1.834  -4.220  -2.579  1.00  0.00    -0.011 C 
ATOM     10  C   UNL     1      -3.200  -4.419  -3.273  1.00  0.00     0.008 C 
BRANCH   9  11
ATOM     11  C   UNL     1      -0.919  -5.504  -2.560  1.00  0.00    -0.002 C 
ATOM     12  C   UNL     1      -1.652  -6.870  -2.581  1.00  0.00     0.005 C 
ATOM     13  C   UNL     1       0.199  -5.637  -3.638  1.00  0.00    -0.026 C 
ATOM     14  C   UNL     1      -0.679  -7.882  -3.213  1.00  0.00     0.005 C 
ATOM     15  C   UNL     1       0.618  -7.096  -3.399  1.00  0.00    -0.001 C 
ATOM     16  C   UNL     1       1.448  -4.768  -3.383  1.00  0.00     0.007 C 
ATOM     17  C   UNL     1      -0.355  -5.358  -5.062  1.00  0.00     0.012 C 
ATOM     18  C   UNL     1       1.726  -7.643  -4.327  1.00  0.00     0.000 C 
ATOM     19  C   UNL     1       2.634  -5.182  -4.290  1.00  0.00     0.005 C 
ATOM     20  C   UNL     1       2.990  -6.712  -4.274  1.00  0.00     0.003 C 
ATOM     21  C   UNL     1       1.261  -8.047  -5.755  1.00  0.00     0.031 C 
ATOM     22  C   UNL     1       4.049  -7.138  -5.370  1.00  0.00    -0.008 C 
ATOM     23  C   UNL     1       2.101  -7.512  -6.888  1.00  0.00    -0.027 C 
ATOM     24  C   UNL     1       3.385  -7.122  -6.749  1.00  0.00    -0.065 C 
ATOM     25  C   UNL     1       5.301  -6.196  -5.342  1.00  0.00     0.014 C 
ATOM     26  C   UNL     1       4.541  -8.585  -5.085  1.00  0.00     0.016 C 
ATOM     27  C   UNL     1       4.220  -6.975  -8.010  1.00  0.00     0.063 C 
ATOM     28  C   UNL     1       6.189  -6.316  -6.586  1.00  0.00     0.033 C 
ATOM     29  C   UNL     1       5.376  -5.984  -7.841  1.00  0.00     0.118 C 
BRANCH  29  30
ATOM     30  O   UNL     1       6.198  -6.050  -8.975  1.00  0.00    -0.393 OA
ATOM     31  H   UNL     1       6.324  -7.012  -9.190  1.00  0.00     0.210 HD
ENDBRANCH  29  30
ENDBRANCH   9  11
ENDBRANCH   1   9
TORSDOF 7
ENDMDL
MODEL 7
REMARK VINA RESULT:    -5.637     12.420     15.286
REMARK INTER + INTRA:          -9.256
REMARK INTER:                  -7.323
REMARK INTRA:                  -1.932
REMARK UNBOUND:                -1.476
REMARK SMILES CC[C@H](CC[C@H](C)[C@H]1CC[C@H]2[C@H]3CC=C4C[C@H](O)CC[C@@]4(C)[C@H]3CC[C@]12C)C(C)C
REMARK SMILES IDX 5 1 4 2 3 3 2 4 1 5 28 6 29 7 30 8 6 9 7 10 8 11 9 12 26 13
REMARK SMILES IDX 10 14 11 15 25 16 27 17 12 18 24 19 23 20 13 21 21 22 14 23
REMARK SMILES IDX 15 24 20 25 22 26 16 27 19 28 17 29 18 30
REMARK H PARENT 18 31
REMARK Flexibility Score: inf
ROOT
ATOM      1  C   UNL     1      -4.976  -6.358  -0.744  1.00  0.00     0.004 C 
ENDROOT
BRANCH   1   2
ATOM      2  C   UNL     1      -4.805  -5.553  -2.064  1.00  0.00     0.004 C 
BRANCH   2   3
ATOM      3  C   UNL     1      -4.558  -4.012  -1.946  1.00  0.00    -0.009 C 
BRANCH   3   4
ATOM      4  C   UNL     1      -5.153  -3.371  -0.662  1.00  0.00     0.000 C 
ATOM      5  C   UNL     1      -6.474  -2.636  -0.906  1.00  0.00     0.004 C 
ENDBRANCH   3   4
BRANCH   3   6
ATOM      6  C   UNL     1      -3.066  -3.591  -2.228  1.00  0.00    -0.014 C 
ATOM      7  C   UNL     1      -2.320  -3.273  -0.918  1.00  0.00     0.007 C 
ATOM      8  C   UNL     1      -2.242  -4.617  -3.040  1.00  0.00     0.007 C 
ENDBRANCH   3   6
ENDBRANCH   2   3
ENDBRANCH   1   2
BRANCH   1   9
ATOM      9  C   UNL     1      -3.694  -6.465   0.128  1.00  0.00    -0.011 C 
ATOM     10  C   UNL     1      -2.728  -7.487  -0.511  1.00  0.00     0.008 C 
BRANCH   9  11
ATOM     11  C   UNL     1      -4.078  -6.778   1.625  1.00  0.00    -0.002 C 
ATOM     12  C   UNL     1      -3.038  -7.582   2.447  1.00  0.00     0.005 C 
ATOM     13  C   UNL     1      -4.488  -5.594   2.552  1.00  0.00    -0.026 C 
ATOM     14  C   UNL     1      -3.260  -7.207   3.924  1.00  0.00     0.005 C 
ATOM     15  C   UNL     1      -4.502  -6.318   3.907  1.00  0.00    -0.001 C 
ATOM     16  C   UNL     1      -5.914  -5.056   2.319  1.00  0.00     0.007 C 
ATOM     17  C   UNL     1      -3.463  -4.428   2.463  1.00  0.00     0.012 C 
ATOM     18  C   UNL     1      -4.845  -5.446   5.137  1.00  0.00     0.000 C 
ATOM     19  C   UNL     1      -6.372  -4.120   3.467  1.00  0.00     0.005 C 
ATOM     20  C   UNL     1      -6.212  -4.706   4.916  1.00  0.00     0.003 C 
ATOM     21  C   UNL     1      -3.686  -4.554   5.666  1.00  0.00     0.031 C 
ATOM     22  C   UNL     1      -6.474  -3.653   6.068  1.00  0.00    -0.008 C 
ATOM     23  C   UNL     1      -4.041  -3.110   5.918  1.00  0.00    -0.027 C 
ATOM     24  C   UNL     1      -5.299  -2.675   6.138  1.00  0.00    -0.065 C 
ATOM     25  C   UNL     1      -7.823  -2.889   5.839  1.00  0.00     0.014 C 
ATOM     26  C   UNL     1      -6.575  -4.389   7.434  1.00  0.00     0.016 C 
ATOM     27  C   UNL     1      -5.473  -1.296   6.750  1.00  0.00     0.063 C 
ATOM     28  C   UNL     1      -7.969  -1.627   6.697  1.00  0.00     0.033 C 
ATOM     29  C   UNL     1      -6.821  -0.658   6.397  1.00  0.00     0.118 C 
BRANCH  29  30
ATOM     30  O   UNL     1      -6.977   0.516   7.147  1.00  0.00    -0.393 OA
ATOM     31  H   UNL     1      -7.725   0.361   7.781  1.00  0.00     0.210 HD
ENDBRANCH  29  30
ENDBRANCH   9  11
ENDBRANCH   1   9
TORSDOF 7
ENDMDL
MODEL 8
REMARK VINA RESULT:    -5.457     11.816     14.657
REMARK INTER + INTRA:          -9.006
REMARK INTER:                  -6.541
REMARK INTRA:                  -2.465
REMARK UNBOUND:                -1.476
REMARK SMILES CC[C@H](CC[C@H](C)[C@H]1CC[C@H]2[C@H]3CC=C4C[C@H](O)CC[C@@]4(C)[C@H]3CC[C@]12C)C(C)C
REMARK SMILES IDX 5 1 4 2 3 3 2 4 1 5 28 6 29 7 30 8 6 9 7 10 8 11 9 12 26 13
REMARK SMILES IDX 10 14 11 15 25 16 27 17 12 18 24 19 23 20 13 21 21 22 14 23
REMARK SMILES IDX 15 24 20 25 22 26 16 27 19 28 17 29 18 30
REMARK H PARENT 18 31
REMARK Flexibility Score: inf
ROOT
ATOM      1  C   UNL     1      -5.230  -7.168  -2.357  1.00  0.00     0.004 C 
ENDROOT
BRANCH   1   2
ATOM      2  C   UNL     1      -4.746  -5.745  -2.755  1.00  0.00     0.004 C 
BRANCH   2   3
ATOM      3  C   UNL     1      -3.380  -5.255  -2.170  1.00  0.00    -0.009 C 
BRANCH   3   4
ATOM      4  C   UNL     1      -2.139  -5.716  -2.984  1.00  0.00     0.000 C 
ATOM      5  C   UNL     1      -1.061  -6.381  -2.123  1.00  0.00     0.004 C 
ENDBRANCH   3   4
BRANCH   3   6
ATOM      6  C   UNL     1      -3.363  -3.721  -1.812  1.00  0.00    -0.014 C 
ATOM      7  C   UNL     1      -4.781  -3.121  -1.860  1.00  0.00     0.007 C 
ATOM      8  C   UNL     1      -2.718  -3.378  -0.448  1.00  0.00     0.007 C 
ENDBRANCH   3   6
ENDBRANCH   2   3
ENDBRANCH   1   2
BRANCH   1   9
ATOM      9  C   UNL     1      -4.374  -7.869  -1.265  1.00  0.00    -0.011 C 
ATOM     10  C   UNL     1      -3.919  -9.251  -1.784  1.00  0.00     0.008 C 
BRANCH   9  11
ATOM     11  C   UNL     1      -5.162  -7.912   0.100  1.00  0.00    -0.002 C 
ATOM     12  C   UNL     1      -5.082  -9.239   0.897  1.00  0.00     0.005 C 
ATOM     13  C   UNL     1      -4.885  -6.797   1.154  1.00  0.00    -0.026 C 
ATOM     14  C   UNL     1      -5.302  -8.876   2.378  1.00  0.00     0.005 C 
ATOM     15  C   UNL     1      -5.637  -7.386   2.358  1.00  0.00    -0.001 C 
ATOM     16  C   UNL     1      -5.540  -5.436   0.842  1.00  0.00     0.007 C 
ATOM     17  C   UNL     1      -3.360  -6.608   1.387  1.00  0.00     0.012 C 
ATOM     18  C   UNL     1      -5.576  -6.563   3.664  1.00  0.00     0.000 C 
ATOM     19  C   UNL     1      -5.505  -4.485   2.064  1.00  0.00     0.005 C 
ATOM     20  C   UNL     1      -6.058  -5.091   3.405  1.00  0.00     0.003 C 
ATOM     21  C   UNL     1      -4.253  -6.693   4.472  1.00  0.00     0.031 C 
ATOM     22  C   UNL     1      -5.804  -4.183   4.675  1.00  0.00    -0.008 C 
ATOM     23  C   UNL     1      -3.632  -5.392   4.916  1.00  0.00    -0.027 C 
ATOM     24  C   UNL     1      -4.321  -4.240   5.050  1.00  0.00    -0.065 C 
ATOM     25  C   UNL     1      -6.257  -2.706   4.413  1.00  0.00     0.014 C 
ATOM     26  C   UNL     1      -6.630  -4.724   5.876  1.00  0.00     0.016 C 
ATOM     27  C   UNL     1      -3.682  -3.123   5.858  1.00  0.00     0.063 C 
ATOM     28  C   UNL     1      -5.722  -1.706   5.445  1.00  0.00     0.033 C 
ATOM     29  C   UNL     1      -4.190  -1.736   5.454  1.00  0.00     0.118 C 
BRANCH  29  30
ATOM     30  O   UNL     1      -3.698  -0.791   6.365  1.00  0.00    -0.393 OA
ATOM     31  H   UNL     1      -4.447  -0.551   6.972  1.00  0.00     0.210 HD
ENDBRANCH  29  30
ENDBRANCH   9  11
ENDBRANCH   1   9
TORSDOF 7
ENDMDL
MODEL 9
REMARK VINA RESULT:    -5.427     10.964     15.073
REMARK INTER + INTRA:          -8.965
REMARK INTER:                  -6.822
REMARK INTRA:                  -2.143
REMARK UNBOUND:                -1.476
REMARK SMILES CC[C@H](CC[C@H](C)[C@H]1CC[C@H]2[C@H]3CC=C4C[C@H](O)CC[C@@]4(C)[C@H]3CC[C@]12C)C(C)C
REMARK SMILES IDX 5 1 4 2 3 3 2 4 1 5 28 6 29 7 30 8 6 9 7 10 8 11 9 12 26 13
REMARK SMILES IDX 10 14 11 15 25 16 27 17 12 18 24 19 23 20 13 21 21 22 14 23
REMARK SMILES IDX 15 24 20 25 22 26 16 27 19 28 17 29 18 30
REMARK H PARENT 18 31
REMARK Flexibility Score: inf
ROOT
ATOM      1  C   UNL     1      -4.208  -7.186   5.892  1.00  0.00     0.004 C 
ENDROOT
BRANCH   1   2
ATOM      2  C   UNL     1      -2.676  -7.388   6.071  1.00  0.00     0.004 C 
BRANCH   2   3
ATOM      3  C   UNL     1      -1.723  -6.377   5.351  1.00  0.00    -0.009 C 
BRANCH   3   4
ATOM      4  C   UNL     1      -1.180  -5.250   6.272  1.00  0.00     0.000 C 
ATOM      5  C   UNL     1      -1.350  -3.847   5.681  1.00  0.00     0.004 C 
ENDBRANCH   3   4
BRANCH   3   6
ATOM      6  C   UNL     1      -0.608  -7.073   4.482  1.00  0.00    -0.014 C 
ATOM      7  C   UNL     1       0.764  -7.004   5.177  1.00  0.00     0.007 C 
ATOM      8  C   UNL     1      -0.905  -8.541   4.097  1.00  0.00     0.007 C 
ENDBRANCH   3   6
ENDBRANCH   2   3
ENDBRANCH   1   2
BRANCH   1   9
ATOM      9  C   UNL     1      -4.627  -5.778   5.382  1.00  0.00    -0.011 C 
ATOM     10  C   UNL     1      -5.428  -5.054   6.487  1.00  0.00     0.008 C 
BRANCH   9  11
ATOM     11  C   UNL     1      -5.382  -5.901   4.003  1.00  0.00    -0.002 C 
ATOM     12  C   UNL     1      -6.701  -5.097   3.869  1.00  0.00     0.005 C 
ATOM     13  C   UNL     1      -4.594  -5.595   2.693  1.00  0.00    -0.026 C 
ATOM     14  C   UNL     1      -6.891  -4.812   2.367  1.00  0.00     0.005 C 
ATOM     15  C   UNL     1      -5.757  -5.579   1.689  1.00  0.00    -0.001 C 
ATOM     16  C   UNL     1      -3.632  -6.713   2.243  1.00  0.00     0.007 C 
ATOM     17  C   UNL     1      -3.826  -4.249   2.799  1.00  0.00     0.012 C 
ATOM     18  C   UNL     1      -5.382  -5.267   0.223  1.00  0.00     0.000 C 
ATOM     19  C   UNL     1      -3.135  -6.497   0.791  1.00  0.00     0.005 C 
ATOM     20  C   UNL     1      -4.263  -6.250  -0.275  1.00  0.00     0.003 C 
ATOM     21  C   UNL     1      -5.133  -3.765  -0.096  1.00  0.00     0.031 C 
ATOM     22  C   UNL     1      -3.721  -5.812  -1.696  1.00  0.00    -0.008 C 
ATOM     23  C   UNL     1      -3.868  -3.463  -0.860  1.00  0.00    -0.027 C 
ATOM     24  C   UNL     1      -3.221  -4.367  -1.625  1.00  0.00    -0.065 C 
ATOM     25  C   UNL     1      -2.584  -6.772  -2.187  1.00  0.00     0.014 C 
ATOM     26  C   UNL     1      -4.875  -5.876  -2.737  1.00  0.00     0.016 C 
ATOM     27  C   UNL     1      -2.205  -3.848  -2.627  1.00  0.00     0.063 C 
ATOM     28  C   UNL     1      -1.775  -6.217  -3.365  1.00  0.00     0.033 C 
ATOM     29  C   UNL     1      -1.130  -4.884  -2.971  1.00  0.00     0.118 C 
BRANCH  29  30
ATOM     30  O   UNL     1      -0.354  -4.396  -4.031  1.00  0.00    -0.393 OA
ATOM     31  H   UNL     1      -0.890  -3.696  -4.489  1.00  0.00     0.210 HD
ENDBRANCH  29  30
ENDBRANCH   9  11
ENDBRANCH   1   9
TORSDOF 7
ENDMDL
