MODEL 1
REMARK VINA RESULT:    -3.958      0.000      0.000
REMARK INTER + INTRA:          -7.393
REMARK INTER:                  -6.272
REMARK INTRA:                  -1.121
REMARK UNBOUND:                -1.121
REMARK SMILES CCCCCCCCCCCC(=O)[O-]
REMARK SMILES IDX 7 1 8 2 9 3 10 4 11 5 12 6 13 7 14 8 6 9 5 10 4 11 3 12 2 13
REMARK SMILES IDX 1 14
REMARK H PARENT
REMARK Flexibility Score: inf
ROOT
ATOM      1  C   UNL     1      25.678  57.022  24.016  1.00  0.00     0.000 C 
ENDROOT
BRANCH   1   2
ATOM      2  C   UNL     1      26.655  56.625  25.138  1.00  0.00     0.000 C 
BRANCH   2   3
ATOM      3  C   UNL     1      27.325  57.840  25.802  1.00  0.00     0.000 C 
BRANCH   3   4
ATOM      4  C   UNL     1      26.450  59.108  25.728  1.00  0.00     0.006 C 
BRANCH   4   5
ATOM      5  C   UNL     1      27.042  60.308  26.486  1.00  0.00     0.053 C 
BRANCH   5   6
ATOM      6  C   UNL     1      26.613  61.618  25.904  1.00  0.00     0.041 C 
ATOM      7  O   UNL     1      25.608  61.677  25.148  1.00  0.00    -0.550 OA
ATOM      8  O   UNL     1      27.307  62.780  26.217  1.00  0.00    -0.550 OA
ENDBRANCH   5   6
ENDBRANCH   4   5
ENDBRANCH   3   4
ENDBRANCH   2   3
ENDBRANCH   1   2
BRANCH   1   9
ATOM      9  C   UNL     1      24.222  56.555  24.219  1.00  0.00     0.000 C 
BRANCH   9  10
ATOM     10  C   UNL     1      23.922  55.920  25.589  1.00  0.00    -0.000 C 
BRANCH  10  11
ATOM     11  C   UNL     1      22.811  56.655  26.358  1.00  0.00    -0.000 C 
BRANCH  11  12
ATOM     12  C   UNL     1      22.772  58.159  26.043  1.00  0.00    -0.000 C 
BRANCH  12  13
ATOM     13  C   UNL     1      22.798  59.031  27.308  1.00  0.00    -0.003 C 
ATOM     14  C   UNL     1      22.771  60.515  26.952  1.00  0.00     0.004 C 
ENDBRANCH  12  13
ENDBRANCH  11  12
ENDBRANCH  10  11
ENDBRANCH   9  10
ENDBRANCH   1   9
TORSDOF 10
ENDMDL
MODEL 2
REMARK VINA RESULT:    -3.933      1.995      3.179
REMARK INTER + INTRA:          -7.353
REMARK INTER:                  -6.723
REMARK INTRA:                  -0.630
REMARK UNBOUND:                -1.121
REMARK SMILES CCCCCCCCCCCC(=O)[O-]
REMARK SMILES IDX 7 1 8 2 9 3 10 4 11 5 12 6 13 7 14 8 6 9 5 10 4 11 3 12 2 13
REMARK SMILES IDX 1 14
REMARK H PARENT
REMARK Flexibility Score: inf
ROOT
ATOM      1  C   UNL     1      26.557  56.696  25.173  1.00  0.00     0.000 C 
ENDROOT
BRANCH   1   2
ATOM      2  C   UNL     1      27.243  57.955  25.731  1.00  0.00     0.000 C 
BRANCH   2   3
ATOM      3  C   UNL     1      26.324  59.189  25.720  1.00  0.00     0.000 C 
BRANCH   3   4
ATOM      4  C   UNL     1      26.843  60.317  26.636  1.00  0.00     0.006 C 
BRANCH   4   5
ATOM      5  C   UNL     1      25.777  61.373  26.974  1.00  0.00     0.053 C 
BRANCH   5   6
ATOM      6  C   UNL     1      24.938  60.980  28.150  1.00  0.00     0.041 C 
ATOM      7  O   UNL     1      25.269  61.336  29.311  1.00  0.00    -0.550 OA
ATOM      8  O   UNL     1      23.775  60.245  27.960  1.00  0.00    -0.550 OA
ENDBRANCH   5   6
ENDBRANCH   4   5
ENDBRANCH   3   4
ENDBRANCH   2   3
ENDBRANCH   1   2
BRANCH   1   9
ATOM      9  C   UNL     1      25.544  56.950  24.039  1.00  0.00     0.000 C 
BRANCH   9  10
ATOM     10  C   UNL     1      24.104  56.492  24.331  1.00  0.00    -0.000 C 
BRANCH  10  11
ATOM     11  C   UNL     1      23.696  56.700  25.800  1.00  0.00    -0.000 C 
BRANCH  11  12
ATOM     12  C   UNL     1      22.582  55.738  26.244  1.00  0.00    -0.000 C 
BRANCH  12  13
ATOM     13  C   UNL     1      21.872  55.065  25.059  1.00  0.00    -0.003 C 
ATOM     14  C   UNL     1      20.929  53.966  25.538  1.00  0.00     0.004 C 
ENDBRANCH  12  13
ENDBRANCH  11  12
ENDBRANCH  10  11
ENDBRANCH   9  10
ENDBRANCH   1   9
TORSDOF 10
ENDMDL
MODEL 3
REMARK VINA RESULT:    -3.918      3.171      4.970
REMARK INTER + INTRA:          -7.329
REMARK INTER:                  -6.298
REMARK INTRA:                  -1.031
REMARK UNBOUND:                -1.121
REMARK SMILES CCCCCCCCCCCC(=O)[O-]
REMARK SMILES IDX 7 1 8 2 9 3 10 4 11 5 12 6 13 7 14 8 6 9 5 10 4 11 3 12 2 13
REMARK SMILES IDX 1 14
REMARK H PARENT
REMARK Flexibility Score: inf
ROOT
ATOM      1  C   UNL     1      26.328  59.017  25.511  1.00  0.00     0.000 C 
ENDROOT
BRANCH   1   2
ATOM      2  C   UNL     1      27.009  57.637  25.516  1.00  0.00     0.000 C 
BRANCH   2   3
ATOM      3  C   UNL     1      26.281  56.609  24.632  1.00  0.00     0.000 C 
BRANCH   3   4
ATOM      4  C   UNL     1      24.757  56.845  24.590  1.00  0.00     0.006 C 
BRANCH   4   5
ATOM      5  C   UNL     1      23.982  56.046  25.651  1.00  0.00     0.053 C 
BRANCH   5   6
ATOM      6  C   UNL     1      22.691  55.502  25.125  1.00  0.00     0.041 C 
ATOM      7  O   UNL     1      22.457  55.512  23.888  1.00  0.00    -0.550 OA
ATOM      8  O   UNL     1      21.758  54.957  25.998  1.00  0.00    -0.550 OA
ENDBRANCH   5   6
ENDBRANCH   4   5
ENDBRANCH   3   4
ENDBRANCH   2   3
ENDBRANCH   1   2
BRANCH   1   9
ATOM      9  C   UNL     1      26.857  60.013  26.563  1.00  0.00     0.000 C 
BRANCH   9  10
ATOM     10  C   UNL     1      25.964  61.242  26.811  1.00  0.00    -0.000 C 
BRANCH  10  11
ATOM     11  C   UNL     1      25.130  61.123  28.099  1.00  0.00    -0.000 C 
BRANCH  11  12
ATOM     12  C   UNL     1      23.620  61.070  27.820  1.00  0.00    -0.000 C 
BRANCH  12  13
ATOM     13  C   UNL     1      23.118  59.644  27.543  1.00  0.00    -0.003 C 
ATOM     14  C   UNL     1      22.624  59.506  26.106  1.00  0.00     0.004 C 
ENDBRANCH  12  13
ENDBRANCH  11  12
ENDBRANCH  10  11
ENDBRANCH   9  10
ENDBRANCH   1   9
TORSDOF 10
ENDMDL
MODEL 4
REMARK VINA RESULT:    -3.909      1.755      3.262
REMARK INTER + INTRA:          -7.315
REMARK INTER:                  -6.048
REMARK INTRA:                  -1.267
REMARK UNBOUND:                -1.121
REMARK SMILES CCCCCCCCCCCC(=O)[O-]
REMARK SMILES IDX 7 1 8 2 9 3 10 4 11 5 12 6 13 7 14 8 6 9 5 10 4 11 3 12 2 13
REMARK SMILES IDX 1 14
REMARK H PARENT
REMARK Flexibility Score: inf
ROOT
ATOM      1  C   UNL     1      26.669  58.996  25.891  1.00  0.00     0.000 C 
ENDROOT
BRANCH   1   2
ATOM      2  C   UNL     1      25.916  59.680  24.735  1.00  0.00     0.000 C 
BRANCH   2   3
ATOM      3  C   UNL     1      24.429  59.917  25.050  1.00  0.00     0.000 C 
BRANCH   3   4
ATOM      4  C   UNL     1      24.069  59.550  26.504  1.00  0.00     0.006 C 
BRANCH   4   5
ATOM      5  C   UNL     1      23.628  60.754  27.351  1.00  0.00     0.053 C 
BRANCH   5   6
ATOM      6  C   UNL     1      24.775  61.406  28.057  1.00  0.00     0.041 C 
ATOM      7  O   UNL     1      24.987  61.168  29.274  1.00  0.00    -0.550 OA
ATOM      8  O   UNL     1      25.628  62.256  27.363  1.00  0.00    -0.550 OA
ENDBRANCH   5   6
ENDBRANCH   4   5
ENDBRANCH   3   4
ENDBRANCH   2   3
ENDBRANCH   1   2
BRANCH   1   9
ATOM      9  C   UNL     1      27.209  57.587  25.577  1.00  0.00     0.000 C 
BRANCH   9  10
ATOM     10  C   UNL     1      26.298  56.716  24.693  1.00  0.00    -0.000 C 
BRANCH  10  11
ATOM     11  C   UNL     1      25.068  56.180  25.446  1.00  0.00    -0.000 C 
BRANCH  11  12
ATOM     12  C   UNL     1      23.788  56.234  24.598  1.00  0.00    -0.000 C 
BRANCH  12  13
ATOM     13  C   UNL     1      22.568  55.650  25.327  1.00  0.00    -0.003 C 
ATOM     14  C   UNL     1      22.618  55.965  26.818  1.00  0.00     0.004 C 
ENDBRANCH  12  13
ENDBRANCH  11  12
ENDBRANCH  10  11
ENDBRANCH   9  10
ENDBRANCH   1   9
TORSDOF 10
ENDMDL
MODEL 5
REMARK VINA RESULT:    -3.903      3.099      4.730
REMARK INTER + INTRA:          -7.304
REMARK INTER:                  -6.079
REMARK INTRA:                  -1.226
REMARK UNBOUND:                -1.121
REMARK SMILES CCCCCCCCCCCC(=O)[O-]
REMARK SMILES IDX 7 1 8 2 9 3 10 4 11 5 12 6 13 7 14 8 6 9 5 10 4 11 3 12 2 13
REMARK SMILES IDX 1 14
REMARK H PARENT
REMARK Flexibility Score: inf
ROOT
ATOM      1  C   UNL     1      26.718  59.236  26.032  1.00  0.00     0.000 C 
ENDROOT
BRANCH   1   2
ATOM      2  C   UNL     1      27.203  57.817  25.686  1.00  0.00     0.000 C 
BRANCH   2   3
ATOM      3  C   UNL     1      26.255  57.082  24.723  1.00  0.00     0.000 C 
BRANCH   3   4
ATOM      4  C   UNL     1      25.229  56.201  25.465  1.00  0.00     0.006 C 
BRANCH   4   5
ATOM      5  C   UNL     1      23.784  56.400  24.978  1.00  0.00     0.053 C 
BRANCH   5   6
ATOM      6  C   UNL     1      22.782  55.771  25.895  1.00  0.00     0.041 C 
ATOM      7  O   UNL     1      22.600  56.237  27.049  1.00  0.00    -0.550 OA
ATOM      8  O   UNL     1      22.029  54.686  25.464  1.00  0.00    -0.550 OA
ENDBRANCH   5   6
ENDBRANCH   4   5
ENDBRANCH   3   4
ENDBRANCH   2   3
ENDBRANCH   1   2
BRANCH   1   9
ATOM      9  C   UNL     1      25.876  59.925  24.940  1.00  0.00     0.000 C 
BRANCH   9  10
ATOM     10  C   UNL     1      24.450  60.323  25.363  1.00  0.00    -0.000 C 
BRANCH  10  11
ATOM     11  C   UNL     1      23.997  59.630  26.661  1.00  0.00    -0.000 C 
BRANCH  11  12
ATOM     12  C   UNL     1      23.528  60.631  27.729  1.00  0.00    -0.000 C 
BRANCH  12  13
ATOM     13  C   UNL     1      24.638  60.998  28.727  1.00  0.00    -0.003 C 
ATOM     14  C   UNL     1      25.207  62.381  28.429  1.00  0.00     0.004 C 
ENDBRANCH  12  13
ENDBRANCH  11  12
ENDBRANCH  10  11
ENDBRANCH   9  10
ENDBRANCH   1   9
TORSDOF 10
ENDMDL
MODEL 6
REMARK VINA RESULT:    -3.902      1.499      1.918
REMARK INTER + INTRA:          -7.303
REMARK INTER:                  -6.017
REMARK INTRA:                  -1.286
REMARK UNBOUND:                -1.121
REMARK SMILES CCCCCCCCCCCC(=O)[O-]
REMARK SMILES IDX 7 1 8 2 9 3 10 4 11 5 12 6 13 7 14 8 6 9 5 10 4 11 3 12 2 13
REMARK SMILES IDX 1 14
REMARK H PARENT
REMARK Flexibility Score: inf
ROOT
ATOM      1  C   UNL     1      26.338  56.740  25.253  1.00  0.00     0.000 C 
ENDROOT
BRANCH   1   2
ATOM      2  C   UNL     1      26.861  58.156  25.554  1.00  0.00     0.000 C 
BRANCH   2   3
ATOM      3  C   UNL     1      26.192  59.236  24.686  1.00  0.00     0.000 C 
BRANCH   3   4
ATOM      4  C   UNL     1      25.623  60.397  25.527  1.00  0.00     0.006 C 
BRANCH   4   5
ATOM      5  C   UNL     1      26.107  60.393  26.987  1.00  0.00     0.053 C 
BRANCH   5   6
ATOM      6  C   UNL     1      25.390  61.402  27.828  1.00  0.00     0.041 C 
ATOM      7  O   UNL     1      24.825  61.050  28.896  1.00  0.00    -0.550 OA
ATOM      8  O   UNL     1      25.370  62.738  27.446  1.00  0.00    -0.550 OA
ENDBRANCH   5   6
ENDBRANCH   4   5
ENDBRANCH   3   4
ENDBRANCH   2   3
ENDBRANCH   1   2
BRANCH   1   9
ATOM      9  C   UNL     1      25.444  56.624  24.001  1.00  0.00     0.000 C 
BRANCH   9  10
ATOM     10  C   UNL     1      23.931  56.574  24.278  1.00  0.00    -0.000 C 
BRANCH  10  11
ATOM     11  C   UNL     1      23.580  55.762  25.537  1.00  0.00    -0.000 C 
BRANCH  11  12
ATOM     12  C   UNL     1      22.851  56.604  26.597  1.00  0.00    -0.000 C 
BRANCH  12  13
ATOM     13  C   UNL     1      22.831  58.101  26.253  1.00  0.00    -0.003 C 
ATOM     14  C   UNL     1      22.439  58.937  27.468  1.00  0.00     0.004 C 
ENDBRANCH  12  13
ENDBRANCH  11  12
ENDBRANCH  10  11
ENDBRANCH   9  10
ENDBRANCH   1   9
TORSDOF 10
ENDMDL
MODEL 7
REMARK VINA RESULT:    -3.890      2.622      4.293
REMARK INTER + INTRA:          -7.285
REMARK INTER:                  -5.916
REMARK INTRA:                  -1.369
REMARK UNBOUND:                -1.121
REMARK SMILES CCCCCCCCCCCC(=O)[O-]
REMARK SMILES IDX 7 1 8 2 9 3 10 4 11 5 12 6 13 7 14 8 6 9 5 10 4 11 3 12 2 13
REMARK SMILES IDX 1 14
REMARK H PARENT
REMARK Flexibility Score: inf
ROOT
ATOM      1  C   UNL     1      25.615  61.056  27.449  1.00  0.00     0.000 C 
ENDROOT
BRANCH   1   2
ATOM      2  C   UNL     1      26.653  60.498  26.460  1.00  0.00     0.000 C 
BRANCH   2   3
ATOM      3  C   UNL     1      26.118  60.411  25.020  1.00  0.00     0.000 C 
BRANCH   3   4
ATOM      4  C   UNL     1      26.234  58.989  24.435  1.00  0.00     0.006 C 
BRANCH   4   5
ATOM      5  C   UNL     1      26.619  57.925  25.476  1.00  0.00     0.053 C 
BRANCH   5   6
ATOM      6  C   UNL     1      26.238  56.543  25.047  1.00  0.00     0.041 C 
ATOM      7  O   UNL     1      26.254  55.596  25.876  1.00  0.00    -0.550 OA
ATOM      8  O   UNL     1      25.837  56.305  23.739  1.00  0.00    -0.550 OA
ENDBRANCH   5   6
ENDBRANCH   4   5
ENDBRANCH   3   4
ENDBRANCH   2   3
ENDBRANCH   1   2
BRANCH   1   9
ATOM      9  C   UNL     1      24.142  60.820  27.056  1.00  0.00     0.000 C 
BRANCH   9  10
ATOM     10  C   UNL     1      23.311  60.021  28.077  1.00  0.00    -0.000 C 
BRANCH  10  11
ATOM     11  C   UNL     1      22.513  58.875  27.431  1.00  0.00    -0.000 C 
BRANCH  11  12
ATOM     12  C   UNL     1      22.883  58.658  25.955  1.00  0.00    -0.000 C 
BRANCH  12  13
ATOM     13  C   UNL     1      22.644  57.213  25.491  1.00  0.00    -0.003 C 
ATOM     14  C   UNL     1      22.810  56.231  26.646  1.00  0.00     0.004 C 
ENDBRANCH  12  13
ENDBRANCH  11  12
ENDBRANCH  10  11
ENDBRANCH   9  10
ENDBRANCH   1   9
TORSDOF 10
ENDMDL
MODEL 8
REMARK VINA RESULT:    -3.807      3.090      5.770
REMARK INTER + INTRA:          -7.154
REMARK INTER:                  -5.845
REMARK INTRA:                  -1.308
REMARK UNBOUND:                -1.121
REMARK SMILES CCCCCCCCCCCC(=O)[O-]
REMARK SMILES IDX 7 1 8 2 9 3 10 4 11 5 12 6 13 7 14 8 6 9 5 10 4 11 3 12 2 13
REMARK SMILES IDX 1 14
REMARK H PARENT
REMARK Flexibility Score: inf
ROOT
ATOM      1  C   UNL     1      24.538  60.366  27.387  1.00  0.00     0.000 C 
ENDROOT
BRANCH   1   2
ATOM      2  C   UNL     1      23.013  60.296  27.186  1.00  0.00     0.000 C 
BRANCH   2   3
ATOM      3  C   UNL     1      22.455  58.872  27.346  1.00  0.00     0.000 C 
BRANCH   3   4
ATOM      4  C   UNL     1      22.903  57.932  26.208  1.00  0.00     0.006 C 
BRANCH   4   5
ATOM      5  C   UNL     1      22.873  56.444  26.592  1.00  0.00     0.053 C 
BRANCH   5   6
ATOM      6  C   UNL     1      22.396  55.575  25.471  1.00  0.00     0.041 C 
ATOM      7  O   UNL     1      21.496  54.719  25.672  1.00  0.00    -0.550 OA
ATOM      8  O   UNL     1      22.927  55.730  24.196  1.00  0.00    -0.550 OA
ENDBRANCH   5   6
ENDBRANCH   4   5
ENDBRANCH   3   4
ENDBRANCH   2   3
ENDBRANCH   1   2
BRANCH   1   9
ATOM      9  C   UNL     1      25.285  61.302  26.416  1.00  0.00     0.000 C 
BRANCH   9  10
ATOM     10  C   UNL     1      26.200  60.598  25.399  1.00  0.00    -0.000 C 
BRANCH  10  11
ATOM     11  C   UNL     1      25.417  59.904  24.271  1.00  0.00    -0.000 C 
BRANCH  11  12
ATOM     12  C   UNL     1      25.897  58.465  24.020  1.00  0.00    -0.000 C 
BRANCH  12  13
ATOM     13  C   UNL     1      26.538  57.828  25.263  1.00  0.00    -0.003 C 
ATOM     14  C   UNL     1      26.388  56.310  25.240  1.00  0.00     0.004 C 
ENDBRANCH  12  13
ENDBRANCH  11  12
ENDBRANCH  10  11
ENDBRANCH   9  10
ENDBRANCH   1   9
TORSDOF 10
ENDMDL
MODEL 9
REMARK VINA RESULT:    -3.769     11.096     13.077
REMARK INTER + INTRA:          -7.093
REMARK INTER:                  -5.530
REMARK INTRA:                  -1.563
REMARK UNBOUND:                -1.121
REMARK SMILES CCCCCCCCCCCC(=O)[O-]
REMARK SMILES IDX 7 1 8 2 9 3 10 4 11 5 12 6 13 7 14 8 6 9 5 10 4 11 3 12 2 13
REMARK SMILES IDX 1 14
REMARK H PARENT
REMARK Flexibility Score: inf
ROOT
ATOM      1  C   UNL     1      15.735  54.265  29.602  1.00  0.00     0.000 C 
ENDROOT
BRANCH   1   2
ATOM      2  C   UNL     1      14.529  54.382  28.652  1.00  0.00     0.000 C 
BRANCH   2   3
ATOM      3  C   UNL     1      13.471  53.292  28.895  1.00  0.00     0.000 C 
BRANCH   3   4
ATOM      4  C   UNL     1      13.132  52.506  27.612  1.00  0.00     0.006 C 
BRANCH   4   5
ATOM      5  C   UNL     1      13.794  53.078  26.348  1.00  0.00     0.053 C 
BRANCH   5   6
ATOM      6  C   UNL     1      12.798  53.669  25.400  1.00  0.00     0.041 C 
ATOM      7  O   UNL     1      11.586  53.759  25.729  1.00  0.00    -0.550 OA
ATOM      8  O   UNL     1      13.212  54.147  24.163  1.00  0.00    -0.550 OA
ENDBRANCH   5   6
ENDBRANCH   4   5
ENDBRANCH   3   4
ENDBRANCH   2   3
ENDBRANCH   1   2
BRANCH   1   9
ATOM      9  C   UNL     1      15.486  53.436  30.878  1.00  0.00     0.000 C 
BRANCH   9  10
ATOM     10  C   UNL     1      16.445  52.251  31.088  1.00  0.00    -0.000 C 
BRANCH  10  11
ATOM     11  C   UNL     1      16.027  50.996  30.301  1.00  0.00    -0.000 C 
BRANCH  11  12
ATOM     12  C   UNL     1      17.036  50.626  29.203  1.00  0.00    -0.000 C 
BRANCH  12  13
ATOM     13  C   UNL     1      16.554  51.018  27.798  1.00  0.00    -0.003 C 
ATOM     14  C   UNL     1      17.468  52.071  27.178  1.00  0.00     0.004 C 
ENDBRANCH  12  13
ENDBRANCH  11  12
ENDBRANCH  10  11
ENDBRANCH   9  10
ENDBRANCH   1   9
TORSDOF 10
ENDMDL
