MODEL 1
REMARK VINA RESULT:    -3.068      0.000      0.000
REMARK INTER + INTRA:          -9.095
REMARK INTER:                  -7.731
REMARK INTRA:                  -1.363
REMARK UNBOUND:                -1.363
REMARK SMILES CCCCCCCCCCCCCCCCCCCCCCCCCCCC(=O)[O-]
REMARK SMILES IDX 15 1 16 2 17 3 18 4 19 5 20 6 21 7 22 8 23 9 24 10 25 11
REMARK SMILES IDX 26 12 27 13 28 14 29 15 30 16 14 17 13 18 12 19 11 20 10 21
REMARK SMILES IDX 9 22 8 23 7 24 6 25 5 26 4 27 3 28 2 29 1 30
REMARK H PARENT
REMARK Flexibility Score: inf
ROOT
ATOM      1  C   UNL     1      40.846  67.112  25.762  1.00  0.00     0.000 C 
ENDROOT
BRANCH   1   2
ATOM      2  C   UNL     1      41.355  65.677  25.948  1.00  0.00     0.000 C 
BRANCH   2   3
ATOM      3  C   UNL     1      41.703  65.035  24.598  1.00  0.00     0.000 C 
BRANCH   3   4
ATOM      4  C   UNL     1      41.941  63.517  24.699  1.00  0.00     0.000 C 
BRANCH   4   5
ATOM      5  C   UNL     1      42.435  63.024  26.075  1.00  0.00     0.000 C 
BRANCH   5   6
ATOM      6  C   UNL     1      43.010  61.596  26.091  1.00  0.00     0.000 C 
BRANCH   6   7
ATOM      7  C   UNL     1      44.483  61.492  26.531  1.00  0.00     0.000 C 
BRANCH   7   8
ATOM      8  C   UNL     1      45.442  62.389  25.719  1.00  0.00     0.000 C 
BRANCH   8   9
ATOM      9  C   UNL     1      46.506  63.067  26.601  1.00  0.00     0.000 C 
BRANCH   9  10
ATOM     10  C   UNL     1      47.785  63.414  25.824  1.00  0.00     0.000 C 
BRANCH  10  11
ATOM     11  C   UNL     1      47.522  63.651  24.325  1.00  0.00     0.000 C 
BRANCH  11  12
ATOM     12  C   UNL     1      48.813  63.911  23.534  1.00  0.00     0.006 C 
BRANCH  12  13
ATOM     13  C   UNL     1      48.801  65.264  22.809  1.00  0.00     0.053 C 
BRANCH  13  14
ATOM     14  C   UNL     1      50.039  65.425  21.985  1.00  0.00     0.041 C 
ATOM     15  O   UNL     1      50.354  66.555  21.529  1.00  0.00    -0.550 OA
ATOM     16  O   UNL     1      50.871  64.335  21.757  1.00  0.00    -0.550 OA
ENDBRANCH  13  14
ENDBRANCH  12  13
ENDBRANCH  11  12
ENDBRANCH  10  11
ENDBRANCH   9  10
ENDBRANCH   8   9
ENDBRANCH   7   8
ENDBRANCH   6   7
ENDBRANCH   5   6
ENDBRANCH   4   5
ENDBRANCH   3   4
ENDBRANCH   2   3
ENDBRANCH   1   2
BRANCH   1  17
ATOM     17  C   UNL     1      39.311  67.142  25.699  1.00  0.00     0.000 C 
BRANCH  17  18
ATOM     18  C   UNL     1      38.752  66.437  24.452  1.00  0.00     0.000 C 
BRANCH  18  19
ATOM     19  C   UNL     1      39.042  67.211  23.155  1.00  0.00     0.000 C 
BRANCH  19  20
ATOM     20  C   UNL     1      39.806  66.367  22.123  1.00  0.00     0.000 C 
BRANCH  20  21
ATOM     21  C   UNL     1      40.916  67.159  21.412  1.00  0.00     0.000 C 
BRANCH  21  22
ATOM     22  C   UNL     1      42.178  67.328  22.276  1.00  0.00    -0.000 C 
BRANCH  22  23
ATOM     23  C   UNL     1      42.026  68.385  23.390  1.00  0.00    -0.000 C 
BRANCH  23  24
ATOM     24  C   UNL     1      43.379  68.984  23.814  1.00  0.00    -0.000 C 
BRANCH  24  25
ATOM     25  C   UNL     1      43.225  70.076  24.885  1.00  0.00    -0.000 C 
BRANCH  25  26
ATOM     26  C   UNL     1      44.203  71.245  24.674  1.00  0.00    -0.000 C 
BRANCH  26  27
ATOM     27  C   UNL     1      43.599  72.600  25.077  1.00  0.00    -0.000 C 
BRANCH  27  28
ATOM     28  C   UNL     1      42.694  73.245  24.009  1.00  0.00    -0.000 C 
BRANCH  28  29
ATOM     29  C   UNL     1      41.339  73.741  24.560  1.00  0.00    -0.003 C 
ATOM     30  C   UNL     1      41.365  73.952  26.073  1.00  0.00     0.004 C 
ENDBRANCH  28  29
ENDBRANCH  27  28
ENDBRANCH  26  27
ENDBRANCH  25  26
ENDBRANCH  24  25
ENDBRANCH  23  24
ENDBRANCH  22  23
ENDBRANCH  21  22
ENDBRANCH  20  21
ENDBRANCH  19  20
ENDBRANCH  18  19
ENDBRANCH  17  18
ENDBRANCH   1  17
TORSDOF 26
ENDMDL
MODEL 2
REMARK VINA RESULT:    -2.673      5.494     10.127
REMARK INTER + INTRA:          -8.098
REMARK INTER:                  -7.315
REMARK INTRA:                  -0.783
REMARK UNBOUND:                -1.363
REMARK SMILES CCCCCCCCCCCCCCCCCCCCCCCCCCCC(=O)[O-]
REMARK SMILES IDX 15 1 16 2 17 3 18 4 19 5 20 6 21 7 22 8 23 9 24 10 25 11
REMARK SMILES IDX 26 12 27 13 28 14 29 15 30 16 14 17 13 18 12 19 11 20 10 21
REMARK SMILES IDX 9 22 8 23 7 24 6 25 5 26 4 27 3 28 2 29 1 30
REMARK H PARENT
REMARK Flexibility Score: inf
ROOT
ATOM      1  C   UNL     1      41.341  65.747  25.820  1.00  0.00     0.000 C 
ENDROOT
BRANCH   1   2
ATOM      2  C   UNL     1      40.935  67.218  25.655  1.00  0.00     0.000 C 
BRANCH   2   3
ATOM      3  C   UNL     1      42.171  68.120  25.529  1.00  0.00     0.000 C 
BRANCH   3   4
ATOM      4  C   UNL     1      42.370  68.670  24.105  1.00  0.00     0.000 C 
BRANCH   4   5
ATOM      5  C   UNL     1      43.530  69.675  23.949  1.00  0.00     0.000 C 
BRANCH   5   6
ATOM      6  C   UNL     1      43.815  70.543  25.188  1.00  0.00     0.000 C 
BRANCH   6   7
ATOM      7  C   UNL     1      43.977  72.050  24.904  1.00  0.00     0.000 C 
BRANCH   7   8
ATOM      8  C   UNL     1      42.678  72.739  24.432  1.00  0.00     0.000 C 
BRANCH   8   9
ATOM      9  C   UNL     1      41.939  73.453  25.579  1.00  0.00     0.000 C 
BRANCH   9  10
ATOM     10  C   UNL     1      40.782  74.332  25.080  1.00  0.00     0.000 C 
BRANCH  10  11
ATOM     11  C   UNL     1      40.317  73.951  23.663  1.00  0.00     0.000 C 
BRANCH  11  12
ATOM     12  C   UNL     1      39.125  74.796  23.187  1.00  0.00     0.006 C 
BRANCH  12  13
ATOM     13  C   UNL     1      37.971  73.939  22.646  1.00  0.00     0.053 C 
BRANCH  13  14
ATOM     14  C   UNL     1      36.997  74.791  21.894  1.00  0.00     0.041 C 
ATOM     15  O   UNL     1      35.768  74.729  22.158  1.00  0.00    -0.550 OA
ATOM     16  O   UNL     1      37.452  75.685  20.933  1.00  0.00    -0.550 OA
ENDBRANCH  13  14
ENDBRANCH  12  13
ENDBRANCH  11  12
ENDBRANCH  10  11
ENDBRANCH   9  10
ENDBRANCH   8   9
ENDBRANCH   7   8
ENDBRANCH   6   7
ENDBRANCH   5   6
ENDBRANCH   4   5
ENDBRANCH   3   4
ENDBRANCH   2   3
ENDBRANCH   1   2
BRANCH   1  17
ATOM     17  C   UNL     1      42.046  65.230  24.557  1.00  0.00     0.000 C 
BRANCH  17  18
ATOM     18  C   UNL     1      41.064  64.692  23.503  1.00  0.00     0.000 C 
BRANCH  18  19
ATOM     19  C   UNL     1      41.113  65.488  22.188  1.00  0.00     0.000 C 
BRANCH  19  20
ATOM     20  C   UNL     1      40.600  66.928  22.352  1.00  0.00     0.000 C 
BRANCH  20  21
ATOM     21  C   UNL     1      39.084  66.995  22.595  1.00  0.00     0.000 C 
BRANCH  21  22
ATOM     22  C   UNL     1      38.721  67.109  24.086  1.00  0.00    -0.000 C 
BRANCH  22  23
ATOM     23  C   UNL     1      37.298  67.651  24.335  1.00  0.00    -0.000 C 
BRANCH  23  24
ATOM     24  C   UNL     1      36.861  67.490  25.803  1.00  0.00    -0.000 C 
BRANCH  24  25
ATOM     25  C   UNL     1      35.334  67.397  25.952  1.00  0.00    -0.000 C 
BRANCH  25  26
ATOM     26  C   UNL     1      34.900  66.172  26.774  1.00  0.00    -0.000 C 
BRANCH  26  27
ATOM     27  C   UNL     1      34.424  65.006  25.890  1.00  0.00    -0.000 C 
BRANCH  27  28
ATOM     28  C   UNL     1      34.859  63.611  26.377  1.00  0.00    -0.000 C 
BRANCH  28  29
ATOM     29  C   UNL     1      34.934  63.485  27.915  1.00  0.00    -0.003 C 
ATOM     30  C   UNL     1      33.862  62.552  28.478  1.00  0.00     0.004 C 
ENDBRANCH  28  29
ENDBRANCH  27  28
ENDBRANCH  26  27
ENDBRANCH  25  26
ENDBRANCH  24  25
ENDBRANCH  23  24
ENDBRANCH  22  23
ENDBRANCH  21  22
ENDBRANCH  20  21
ENDBRANCH  19  20
ENDBRANCH  18  19
ENDBRANCH  17  18
ENDBRANCH   1  17
TORSDOF 26
ENDMDL
MODEL 3
REMARK VINA RESULT:    -2.665      2.047      4.689
REMARK INTER + INTRA:          -8.079
REMARK INTER:                  -7.369
REMARK INTRA:                  -0.710
REMARK UNBOUND:                -1.363
REMARK SMILES CCCCCCCCCCCCCCCCCCCCCCCCCCCC(=O)[O-]
REMARK SMILES IDX 15 1 16 2 17 3 18 4 19 5 20 6 21 7 22 8 23 9 24 10 25 11
REMARK SMILES IDX 26 12 27 13 28 14 29 15 30 16 14 17 13 18 12 19 11 20 10 21
REMARK SMILES IDX 9 22 8 23 7 24 6 25 5 26 4 27 3 28 2 29 1 30
REMARK H PARENT
REMARK Flexibility Score: inf
ROOT
ATOM      1  C   UNL     1      39.498  66.420  23.042  1.00  0.00     0.000 C 
ENDROOT
BRANCH   1   2
ATOM      2  C   UNL     1      38.362  67.413  23.315  1.00  0.00     0.000 C 
BRANCH   2   3
ATOM      3  C   UNL     1      37.689  67.125  24.665  1.00  0.00     0.000 C 
BRANCH   3   4
ATOM      4  C   UNL     1      38.682  67.131  25.842  1.00  0.00     0.000 C 
BRANCH   4   5
ATOM      5  C   UNL     1      40.169  67.028  25.443  1.00  0.00     0.000 C 
BRANCH   5   6
ATOM      6  C   UNL     1      41.113  66.535  26.555  1.00  0.00     0.000 C 
BRANCH   6   7
ATOM      7  C   UNL     1      41.803  65.186  26.273  1.00  0.00     0.000 C 
BRANCH   7   8
ATOM      8  C   UNL     1      41.699  64.728  24.802  1.00  0.00     0.000 C 
BRANCH   8   9
ATOM      9  C   UNL     1      42.092  63.251  24.615  1.00  0.00     0.000 C 
BRANCH   9  10
ATOM     10  C   UNL     1      42.149  62.481  25.943  1.00  0.00     0.000 C 
BRANCH  10  11
ATOM     11  C   UNL     1      43.359  61.532  26.027  1.00  0.00     0.000 C 
BRANCH  11  12
ATOM     12  C   UNL     1      44.653  62.261  26.421  1.00  0.00     0.006 C 
BRANCH  12  13
ATOM     13  C   UNL     1      45.731  62.184  25.330  1.00  0.00     0.053 C 
BRANCH  13  14
ATOM     14  C   UNL     1      46.869  63.099  25.657  1.00  0.00     0.041 C 
ATOM     15  O   UNL     1      47.600  63.552  24.739  1.00  0.00    -0.550 OA
ATOM     16  O   UNL     1      47.094  63.489  26.972  1.00  0.00    -0.550 OA
ENDBRANCH  13  14
ENDBRANCH  12  13
ENDBRANCH  11  12
ENDBRANCH  10  11
ENDBRANCH   9  10
ENDBRANCH   8   9
ENDBRANCH   7   8
ENDBRANCH   6   7
ENDBRANCH   5   6
ENDBRANCH   4   5
ENDBRANCH   3   4
ENDBRANCH   2   3
ENDBRANCH   1   2
BRANCH   1  17
ATOM     17  C   UNL     1      40.322  66.856  21.820  1.00  0.00     0.000 C 
BRANCH  17  18
ATOM     18  C   UNL     1      41.763  67.251  22.183  1.00  0.00     0.000 C 
BRANCH  18  19
ATOM     19  C   UNL     1      41.832  68.171  23.413  1.00  0.00     0.000 C 
BRANCH  19  20
ATOM     20  C   UNL     1      43.204  68.847  23.567  1.00  0.00     0.000 C 
BRANCH  20  21
ATOM     21  C   UNL     1      43.246  69.843  24.738  1.00  0.00     0.000 C 
BRANCH  21  22
ATOM     22  C   UNL     1      44.389  70.866  24.612  1.00  0.00    -0.000 C 
BRANCH  22  23
ATOM     23  C   UNL     1      44.047  72.250  25.201  1.00  0.00    -0.000 C 
BRANCH  23  24
ATOM     24  C   UNL     1      42.726  72.811  24.642  1.00  0.00    -0.000 C 
BRANCH  24  25
ATOM     25  C   UNL     1      41.878  73.498  25.725  1.00  0.00    -0.000 C 
BRANCH  25  26
ATOM     26  C   UNL     1      40.760  74.369  25.128  1.00  0.00    -0.000 C 
BRANCH  26  27
ATOM     27  C   UNL     1      40.360  73.927  23.710  1.00  0.00    -0.000 C 
BRANCH  27  28
ATOM     28  C   UNL     1      39.245  74.771  23.064  1.00  0.00    -0.000 C 
BRANCH  28  29
ATOM     29  C   UNL     1      37.964  73.969  22.745  1.00  0.00    -0.003 C 
ATOM     30  C   UNL     1      37.025  74.719  21.801  1.00  0.00     0.004 C 
ENDBRANCH  28  29
ENDBRANCH  27  28
ENDBRANCH  26  27
ENDBRANCH  25  26
ENDBRANCH  24  25
ENDBRANCH  23  24
ENDBRANCH  22  23
ENDBRANCH  21  22
ENDBRANCH  20  21
ENDBRANCH  19  20
ENDBRANCH  18  19
ENDBRANCH  17  18
ENDBRANCH   1  17
TORSDOF 26
ENDMDL
MODEL 4
REMARK VINA RESULT:    -2.582      4.941      9.344
REMARK INTER + INTRA:          -7.869
REMARK INTER:                  -6.478
REMARK INTRA:                  -1.391
REMARK UNBOUND:                -1.363
REMARK SMILES CCCCCCCCCCCCCCCCCCCCCCCCCCCC(=O)[O-]
REMARK SMILES IDX 15 1 16 2 17 3 18 4 19 5 20 6 21 7 22 8 23 9 24 10 25 11
REMARK SMILES IDX 26 12 27 13 28 14 29 15 30 16 14 17 13 18 12 19 11 20 10 21
REMARK SMILES IDX 9 22 8 23 7 24 6 25 5 26 4 27 3 28 2 29 1 30
REMARK H PARENT
REMARK Flexibility Score: inf
ROOT
ATOM      1  C   UNL     1      41.415  65.594  22.435  1.00  0.00     0.000 C 
ENDROOT
BRANCH   1   2
ATOM      2  C   UNL     1      41.025  64.565  23.503  1.00  0.00     0.000 C 
BRANCH   2   3
ATOM      3  C   UNL     1      42.121  64.436  24.571  1.00  0.00     0.000 C 
BRANCH   3   4
ATOM      4  C   UNL     1      41.736  65.097  25.907  1.00  0.00     0.000 C 
BRANCH   4   5
ATOM      5  C   UNL     1      40.906  66.391  25.781  1.00  0.00     0.000 C 
BRANCH   5   6
ATOM      6  C   UNL     1      41.729  67.687  25.664  1.00  0.00     0.000 C 
BRANCH   6   7
ATOM      7  C   UNL     1      42.011  68.150  24.221  1.00  0.00     0.000 C 
BRANCH   7   8
ATOM      8  C   UNL     1      43.284  69.010  24.078  1.00  0.00     0.000 C 
BRANCH   8   9
ATOM      9  C   UNL     1      43.290  70.220  25.031  1.00  0.00     0.000 C 
BRANCH   9  10
ATOM     10  C   UNL     1      44.511  71.130  24.825  1.00  0.00     0.000 C 
BRANCH  10  11
ATOM     11  C   UNL     1      44.145  72.473  24.167  1.00  0.00     0.000 C 
BRANCH  11  12
ATOM     12  C   UNL     1      42.644  72.786  24.261  1.00  0.00     0.006 C 
BRANCH  12  13
ATOM     13  C   UNL     1      42.241  73.348  25.632  1.00  0.00     0.053 C 
BRANCH  13  14
ATOM     14  C   UNL     1      41.035  74.224  25.502  1.00  0.00     0.041 C 
ATOM     15  O   UNL     1      40.688  74.970  26.455  1.00  0.00    -0.550 OA
ATOM     16  O   UNL     1      40.319  74.251  24.310  1.00  0.00    -0.550 OA
ENDBRANCH  13  14
ENDBRANCH  12  13
ENDBRANCH  11  12
ENDBRANCH  10  11
ENDBRANCH   9  10
ENDBRANCH   8   9
ENDBRANCH   7   8
ENDBRANCH   6   7
ENDBRANCH   5   6
ENDBRANCH   4   5
ENDBRANCH   3   4
ENDBRANCH   2   3
ENDBRANCH   1   2
BRANCH   1  17
ATOM     17  C   UNL     1      40.180  66.056  21.646  1.00  0.00     0.000 C 
BRANCH  17  18
ATOM     18  C   UNL     1      39.409  67.184  22.352  1.00  0.00     0.000 C 
BRANCH  18  19
ATOM     19  C   UNL     1      38.747  66.718  23.660  1.00  0.00     0.000 C 
BRANCH  19  20
ATOM     20  C   UNL     1      37.750  67.747  24.215  1.00  0.00     0.000 C 
BRANCH  20  21
ATOM     21  C   UNL     1      37.322  67.440  25.659  1.00  0.00     0.000 C 
BRANCH  21  22
ATOM     22  C   UNL     1      35.953  68.043  26.019  1.00  0.00    -0.000 C 
BRANCH  22  23
ATOM     23  C   UNL     1      34.773  67.078  25.782  1.00  0.00    -0.000 C 
BRANCH  23  24
ATOM     24  C   UNL     1      34.978  65.722  26.483  1.00  0.00    -0.000 C 
BRANCH  24  25
ATOM     25  C   UNL     1      34.336  64.560  25.709  1.00  0.00    -0.000 C 
BRANCH  25  26
ATOM     26  C   UNL     1      34.630  63.195  26.352  1.00  0.00    -0.000 C 
BRANCH  26  27
ATOM     27  C   UNL     1      34.965  63.306  27.849  1.00  0.00    -0.000 C 
BRANCH  27  28
ATOM     28  C   UNL     1      33.799  62.967  28.796  1.00  0.00    -0.000 C 
BRANCH  28  29
ATOM     29  C   UNL     1      33.488  61.456  28.883  1.00  0.00    -0.003 C 
ATOM     30  C   UNL     1      32.109  61.109  28.324  1.00  0.00     0.004 C 
ENDBRANCH  28  29
ENDBRANCH  27  28
ENDBRANCH  26  27
ENDBRANCH  25  26
ENDBRANCH  24  25
ENDBRANCH  23  24
ENDBRANCH  22  23
ENDBRANCH  21  22
ENDBRANCH  20  21
ENDBRANCH  19  20
ENDBRANCH  18  19
ENDBRANCH  17  18
ENDBRANCH   1  17
TORSDOF 26
ENDMDL
MODEL 5
REMARK VINA RESULT:    -2.552      3.507      8.567
REMARK INTER + INTRA:          -7.793
REMARK INTER:                  -6.027
REMARK INTRA:                  -1.766
REMARK UNBOUND:                -1.363
REMARK SMILES CCCCCCCCCCCCCCCCCCCCCCCCCCCC(=O)[O-]
REMARK SMILES IDX 15 1 16 2 17 3 18 4 19 5 20 6 21 7 22 8 23 9 24 10 25 11
REMARK SMILES IDX 26 12 27 13 28 14 29 15 30 16 14 17 13 18 12 19 11 20 10 21
REMARK SMILES IDX 9 22 8 23 7 24 6 25 5 26 4 27 3 28 2 29 1 30
REMARK H PARENT
REMARK Flexibility Score: inf
ROOT
ATOM      1  C   UNL     1      40.998  66.549  26.066  1.00  0.00     0.000 C 
ENDROOT
BRANCH   1   2
ATOM      2  C   UNL     1      39.797  67.268  25.437  1.00  0.00     0.000 C 
BRANCH   2   3
ATOM      3  C   UNL     1      39.129  66.392  24.367  1.00  0.00     0.000 C 
BRANCH   3   4
ATOM      4  C   UNL     1      39.117  67.050  22.976  1.00  0.00     0.000 C 
BRANCH   4   5
ATOM      5  C   UNL     1      39.859  66.264  21.875  1.00  0.00     0.000 C 
BRANCH   5   6
ATOM      6  C   UNL     1      41.389  66.442  21.862  1.00  0.00     0.000 C 
BRANCH   6   7
ATOM      7  C   UNL     1      41.879  67.877  22.138  1.00  0.00     0.000 C 
BRANCH   7   8
ATOM      8  C   UNL     1      42.390  68.097  23.577  1.00  0.00     0.000 C 
BRANCH   8   9
ATOM      9  C   UNL     1      43.441  69.219  23.667  1.00  0.00     0.000 C 
BRANCH   9  10
ATOM     10  C   UNL     1      43.316  70.045  24.956  1.00  0.00     0.000 C 
BRANCH  10  11
ATOM     11  C   UNL     1      44.282  71.244  24.987  1.00  0.00     0.000 C 
BRANCH  11  12
ATOM     12  C   UNL     1      43.564  72.572  25.274  1.00  0.00     0.006 C 
BRANCH  12  13
ATOM     13  C   UNL     1      42.419  72.851  24.290  1.00  0.00     0.053 C 
BRANCH  13  14
ATOM     14  C   UNL     1      41.396  73.743  24.921  1.00  0.00     0.041 C 
ATOM     15  O   UNL     1      40.430  74.177  24.241  1.00  0.00    -0.550 OA
ATOM     16  O   UNL     1      41.485  74.059  26.271  1.00  0.00    -0.550 OA
ENDBRANCH  13  14
ENDBRANCH  12  13
ENDBRANCH  11  12
ENDBRANCH  10  11
ENDBRANCH   9  10
ENDBRANCH   8   9
ENDBRANCH   7   8
ENDBRANCH   6   7
ENDBRANCH   5   6
ENDBRANCH   4   5
ENDBRANCH   3   4
ENDBRANCH   2   3
ENDBRANCH   1   2
BRANCH   1  17
ATOM     17  C   UNL     1      41.324  65.258  25.300  1.00  0.00     0.000 C 
BRANCH  17  18
ATOM     18  C   UNL     1      42.128  64.252  26.141  1.00  0.00     0.000 C 
BRANCH  18  19
ATOM     19  C   UNL     1      42.632  63.059  25.313  1.00  0.00     0.000 C 
BRANCH  19  20
ATOM     20  C   UNL     1      42.963  61.836  26.183  1.00  0.00     0.000 C 
BRANCH  20  21
ATOM     21  C   UNL     1      44.464  61.502  26.190  1.00  0.00     0.000 C 
BRANCH  21  22
ATOM     22  C   UNL     1      45.333  62.640  25.628  1.00  0.00    -0.000 C 
BRANCH  22  23
ATOM     23  C   UNL     1      46.516  63.023  26.542  1.00  0.00    -0.000 C 
BRANCH  23  24
ATOM     24  C   UNL     1      47.661  63.695  25.763  1.00  0.00    -0.000 C 
BRANCH  24  25
ATOM     25  C   UNL     1      47.658  63.314  24.274  1.00  0.00    -0.000 C 
BRANCH  25  26
ATOM     26  C   UNL     1      48.862  63.900  23.518  1.00  0.00    -0.000 C 
BRANCH  26  27
ATOM     27  C   UNL     1      48.568  65.288  22.924  1.00  0.00    -0.000 C 
BRANCH  27  28
ATOM     28  C   UNL     1      49.647  65.816  21.959  1.00  0.00    -0.000 C 
BRANCH  28  29
ATOM     29  C   UNL     1      50.970  65.020  22.011  1.00  0.00    -0.003 C 
ATOM     30  C   UNL     1      51.096  64.020  20.862  1.00  0.00     0.004 C 
ENDBRANCH  28  29
ENDBRANCH  27  28
ENDBRANCH  26  27
ENDBRANCH  25  26
ENDBRANCH  24  25
ENDBRANCH  23  24
ENDBRANCH  22  23
ENDBRANCH  21  22
ENDBRANCH  20  21
ENDBRANCH  19  20
ENDBRANCH  18  19
ENDBRANCH  17  18
ENDBRANCH   1  17
TORSDOF 26
ENDMDL
MODEL 6
REMARK VINA RESULT:    -2.408      2.217      4.974
REMARK INTER + INTRA:          -7.431
REMARK INTER:                  -5.856
REMARK INTRA:                  -1.575
REMARK UNBOUND:                -1.363
REMARK SMILES CCCCCCCCCCCCCCCCCCCCCCCCCCCC(=O)[O-]
REMARK SMILES IDX 15 1 16 2 17 3 18 4 19 5 20 6 21 7 22 8 23 9 24 10 25 11
REMARK SMILES IDX 26 12 27 13 28 14 29 15 30 16 14 17 13 18 12 19 11 20 10 21
REMARK SMILES IDX 9 22 8 23 7 24 6 25 5 26 4 27 3 28 2 29 1 30
REMARK H PARENT
REMARK Flexibility Score: inf
ROOT
ATOM      1  C   UNL     1      40.128  66.556  25.349  1.00  0.00     0.000 C 
ENDROOT
BRANCH   1   2
ATOM      2  C   UNL     1      38.904  67.480  25.371  1.00  0.00     0.000 C 
BRANCH   2   3
ATOM      3  C   UNL     1      38.205  67.504  24.004  1.00  0.00     0.000 C 
BRANCH   3   4
ATOM      4  C   UNL     1      38.853  66.552  22.983  1.00  0.00     0.000 C 
BRANCH   4   5
ATOM      5  C   UNL     1      39.875  67.211  22.032  1.00  0.00     0.000 C 
BRANCH   5   6
ATOM      6  C   UNL     1      41.160  66.398  21.789  1.00  0.00     0.000 C 
BRANCH   6   7
ATOM      7  C   UNL     1      41.152  64.976  22.383  1.00  0.00     0.000 C 
BRANCH   7   8
ATOM      8  C   UNL     1      41.852  64.868  23.754  1.00  0.00     0.000 C 
BRANCH   8   9
ATOM      9  C   UNL     1      41.567  63.529  24.460  1.00  0.00     0.000 C 
BRANCH   9  10
ATOM     10  C   UNL     1      42.435  63.322  25.710  1.00  0.00     0.000 C 
BRANCH  10  11
ATOM     11  C   UNL     1      43.081  61.926  25.758  1.00  0.00     0.000 C 
BRANCH  11  12
ATOM     12  C   UNL     1      44.467  61.939  26.422  1.00  0.00     0.006 C 
BRANCH  12  13
ATOM     13  C   UNL     1      45.611  62.009  25.401  1.00  0.00     0.053 C 
BRANCH  13  14
ATOM     14  C   UNL     1      46.645  62.996  25.844  1.00  0.00     0.041 C 
ATOM     15  O   UNL     1      46.697  63.361  27.047  1.00  0.00    -0.550 OA
ATOM     16  O   UNL     1      47.582  63.477  24.936  1.00  0.00    -0.550 OA
ENDBRANCH  13  14
ENDBRANCH  12  13
ENDBRANCH  11  12
ENDBRANCH  10  11
ENDBRANCH   9  10
ENDBRANCH   8   9
ENDBRANCH   7   8
ENDBRANCH   6   7
ENDBRANCH   5   6
ENDBRANCH   4   5
ENDBRANCH   3   4
ENDBRANCH   2   3
ENDBRANCH   1   2
BRANCH   1  17
ATOM     17  C   UNL     1      41.250  67.115  26.236  1.00  0.00     0.000 C 
BRANCH  17  18
ATOM     18  C   UNL     1      41.826  68.439  25.706  1.00  0.00     0.000 C 
BRANCH  18  19
ATOM     19  C   UNL     1      42.213  68.362  24.220  1.00  0.00     0.000 C 
BRANCH  19  20
ATOM     20  C   UNL     1      43.380  69.298  23.867  1.00  0.00     0.000 C 
BRANCH  20  21
ATOM     21  C   UNL     1      43.880  70.106  25.076  1.00  0.00     0.000 C 
BRANCH  21  22
ATOM     22  C   UNL     1      44.527  71.444  24.675  1.00  0.00    -0.000 C 
BRANCH  22  23
ATOM     23  C   UNL     1      43.844  72.673  25.310  1.00  0.00    -0.000 C 
BRANCH  23  24
ATOM     24  C   UNL     1      42.542  73.057  24.583  1.00  0.00    -0.000 C 
BRANCH  24  25
ATOM     25  C   UNL     1      41.449  73.534  25.553  1.00  0.00    -0.000 C 
BRANCH  25  26
ATOM     26  C   UNL     1      40.521  74.583  24.918  1.00  0.00    -0.000 C 
BRANCH  26  27
ATOM     27  C   UNL     1      40.191  74.269  23.449  1.00  0.00    -0.000 C 
BRANCH  27  28
ATOM     28  C   UNL     1      38.685  74.213  23.126  1.00  0.00    -0.000 C 
BRANCH  28  29
ATOM     29  C   UNL     1      38.249  75.204  22.025  1.00  0.00    -0.003 C 
ATOM     30  C   UNL     1      36.760  75.093  21.695  1.00  0.00     0.004 C 
ENDBRANCH  28  29
ENDBRANCH  27  28
ENDBRANCH  26  27
ENDBRANCH  25  26
ENDBRANCH  24  25
ENDBRANCH  23  24
ENDBRANCH  22  23
ENDBRANCH  21  22
ENDBRANCH  20  21
ENDBRANCH  19  20
ENDBRANCH  18  19
ENDBRANCH  17  18
ENDBRANCH   1  17
TORSDOF 26
ENDMDL
MODEL 7
REMARK VINA RESULT:    -2.351      3.474      7.273
REMARK INTER + INTRA:          -7.288
REMARK INTER:                  -6.192
REMARK INTRA:                  -1.096
REMARK UNBOUND:                -1.363
REMARK SMILES CCCCCCCCCCCCCCCCCCCCCCCCCCCC(=O)[O-]
REMARK SMILES IDX 15 1 16 2 17 3 18 4 19 5 20 6 21 7 22 8 23 9 24 10 25 11
REMARK SMILES IDX 26 12 27 13 28 14 29 15 30 16 14 17 13 18 12 19 11 20 10 21
REMARK SMILES IDX 9 22 8 23 7 24 6 25 5 26 4 27 3 28 2 29 1 30
REMARK H PARENT
REMARK Flexibility Score: inf
ROOT
ATOM      1  C   UNL     1      42.223  66.748  22.200  1.00  0.00     0.000 C 
ENDROOT
BRANCH   1   2
ATOM      2  C   UNL     1      41.692  67.969  22.963  1.00  0.00     0.000 C 
BRANCH   2   3
ATOM      3  C   UNL     1      42.652  68.374  24.091  1.00  0.00     0.000 C 
BRANCH   3   4
ATOM      4  C   UNL     1      42.001  68.305  25.485  1.00  0.00     0.000 C 
BRANCH   4   5
ATOM      5  C   UNL     1      41.018  67.134  25.689  1.00  0.00     0.000 C 
BRANCH   5   6
ATOM      6  C   UNL     1      41.671  65.746  25.819  1.00  0.00     0.000 C 
BRANCH   6   7
ATOM      7  C   UNL     1      41.287  64.740  24.716  1.00  0.00     0.000 C 
BRANCH   7   8
ATOM      8  C   UNL     1      42.033  63.393  24.813  1.00  0.00     0.000 C 
BRANCH   8   9
ATOM      9  C   UNL     1      42.164  62.893  26.263  1.00  0.00     0.000 C 
BRANCH   9  10
ATOM     10  C   UNL     1      43.192  61.761  26.409  1.00  0.00     0.000 C 
BRANCH  10  11
ATOM     11  C   UNL     1      43.913  61.441  25.086  1.00  0.00     0.000 C 
BRANCH  11  12
ATOM     12  C   UNL     1      45.427  61.694  25.163  1.00  0.00     0.006 C 
BRANCH  12  13
ATOM     13  C   UNL     1      45.823  62.551  26.374  1.00  0.00     0.053 C 
BRANCH  13  14
ATOM     14  C   UNL     1      47.128  63.238  26.122  1.00  0.00     0.041 C 
ATOM     15  O   UNL     1      47.806  63.681  27.085  1.00  0.00    -0.550 OA
ATOM     16  O   UNL     1      47.617  63.349  24.825  1.00  0.00    -0.550 OA
ENDBRANCH  13  14
ENDBRANCH  12  13
ENDBRANCH  11  12
ENDBRANCH  10  11
ENDBRANCH   9  10
ENDBRANCH   8   9
ENDBRANCH   7   8
ENDBRANCH   6   7
ENDBRANCH   5   6
ENDBRANCH   4   5
ENDBRANCH   3   4
ENDBRANCH   2   3
ENDBRANCH   1   2
BRANCH   1  17
ATOM     17  C   UNL     1      41.222  66.300  21.124  1.00  0.00     0.000 C 
BRANCH  17  18
ATOM     18  C   UNL     1      39.838  65.957  21.703  1.00  0.00     0.000 C 
BRANCH  18  19
ATOM     19  C   UNL     1      39.196  67.144  22.440  1.00  0.00     0.000 C 
BRANCH  19  20
ATOM     20  C   UNL     1      38.740  66.778  23.861  1.00  0.00     0.000 C 
BRANCH  20  21
ATOM     21  C   UNL     1      37.509  67.581  24.315  1.00  0.00     0.000 C 
BRANCH  21  22
ATOM     22  C   UNL     1      37.088  67.264  25.761  1.00  0.00    -0.000 C 
BRANCH  22  23
ATOM     23  C   UNL     1      35.754  67.921  26.173  1.00  0.00    -0.000 C 
BRANCH  23  24
ATOM     24  C   UNL     1      34.704  66.883  26.611  1.00  0.00    -0.000 C 
BRANCH  24  25
ATOM     25  C   UNL     1      34.353  65.897  25.486  1.00  0.00    -0.000 C 
BRANCH  25  26
ATOM     26  C   UNL     1      34.665  64.440  25.867  1.00  0.00    -0.000 C 
BRANCH  26  27
ATOM     27  C   UNL     1      35.006  64.279  27.358  1.00  0.00    -0.000 C 
BRANCH  27  28
ATOM     28  C   UNL     1      34.843  62.847  27.904  1.00  0.00    -0.000 C 
BRANCH  28  29
ATOM     29  C   UNL     1      33.554  62.640  28.730  1.00  0.00    -0.003 C 
ATOM     30  C   UNL     1      33.223  61.163  28.936  1.00  0.00     0.004 C 
ENDBRANCH  28  29
ENDBRANCH  27  28
ENDBRANCH  26  27
ENDBRANCH  25  26
ENDBRANCH  24  25
ENDBRANCH  23  24
ENDBRANCH  22  23
ENDBRANCH  21  22
ENDBRANCH  20  21
ENDBRANCH  19  20
ENDBRANCH  18  19
ENDBRANCH  17  18
ENDBRANCH   1  17
TORSDOF 26
ENDMDL
MODEL 8
REMARK VINA RESULT:    -2.312      4.601      8.921
REMARK INTER + INTRA:          -7.189
REMARK INTER:                  -7.318
REMARK INTRA:                   0.129
REMARK UNBOUND:                -1.363
REMARK SMILES CCCCCCCCCCCCCCCCCCCCCCCCCCCC(=O)[O-]
REMARK SMILES IDX 15 1 16 2 17 3 18 4 19 5 20 6 21 7 22 8 23 9 24 10 25 11
REMARK SMILES IDX 26 12 27 13 28 14 29 15 30 16 14 17 13 18 12 19 11 20 10 21
REMARK SMILES IDX 9 22 8 23 7 24 6 25 5 26 4 27 3 28 2 29 1 30
REMARK H PARENT
REMARK Flexibility Score: inf
ROOT
ATOM      1  C   UNL     1      42.215  64.108  25.030  1.00  0.00     0.000 C 
ENDROOT
BRANCH   1   2
ATOM      2  C   UNL     1      41.246  63.985  23.847  1.00  0.00     0.000 C 
BRANCH   2   3
ATOM      3  C   UNL     1      41.420  65.155  22.867  1.00  0.00     0.000 C 
BRANCH   3   4
ATOM      4  C   UNL     1      40.436  65.096  21.684  1.00  0.00     0.000 C 
BRANCH   4   5
ATOM      5  C   UNL     1      40.278  66.415  20.900  1.00  0.00     0.000 C 
BRANCH   5   6
ATOM      6  C   UNL     1      40.748  67.679  21.643  1.00  0.00     0.000 C 
BRANCH   6   7
ATOM      7  C   UNL     1      42.021  67.498  22.493  1.00  0.00     0.000 C 
BRANCH   7   8
ATOM      8  C   UNL     1      42.116  68.468  23.690  1.00  0.00     0.000 C 
BRANCH   8   9
ATOM      9  C   UNL     1      43.510  69.108  23.822  1.00  0.00     0.000 C 
BRANCH   9  10
ATOM     10  C   UNL     1      43.594  70.108  24.986  1.00  0.00     0.000 C 
BRANCH  10  11
ATOM     11  C   UNL     1      44.328  71.405  24.600  1.00  0.00     0.000 C 
BRANCH  11  12
ATOM     12  C   UNL     1      43.607  72.664  25.109  1.00  0.00     0.006 C 
BRANCH  12  13
ATOM     13  C   UNL     1      42.446  73.089  24.200  1.00  0.00     0.053 C 
BRANCH  13  14
ATOM     14  C   UNL     1      41.406  73.819  24.991  1.00  0.00     0.041 C 
ATOM     15  O   UNL     1      40.533  74.509  24.403  1.00  0.00    -0.550 OA
ATOM     16  O   UNL     1      41.373  73.700  26.376  1.00  0.00    -0.550 OA
ENDBRANCH  13  14
ENDBRANCH  12  13
ENDBRANCH  11  12
ENDBRANCH  10  11
ENDBRANCH   9  10
ENDBRANCH   8   9
ENDBRANCH   7   8
ENDBRANCH   6   7
ENDBRANCH   5   6
ENDBRANCH   4   5
ENDBRANCH   3   4
ENDBRANCH   2   3
ENDBRANCH   1   2
BRANCH   1  17
ATOM     17  C   UNL     1      41.630  65.014  26.124  1.00  0.00     0.000 C 
BRANCH  17  18
ATOM     18  C   UNL     1      41.373  66.450  25.636  1.00  0.00     0.000 C 
BRANCH  18  19
ATOM     19  C   UNL     1      39.911  66.887  25.826  1.00  0.00     0.000 C 
BRANCH  19  20
ATOM     20  C   UNL     1      39.089  66.772  24.533  1.00  0.00     0.000 C 
BRANCH  20  21
ATOM     21  C   UNL     1      37.786  67.587  24.584  1.00  0.00     0.000 C 
BRANCH  21  22
ATOM     22  C   UNL     1      37.040  67.439  25.921  1.00  0.00    -0.000 C 
BRANCH  22  23
ATOM     23  C   UNL     1      35.600  67.992  25.889  1.00  0.00    -0.000 C 
BRANCH  23  24
ATOM     24  C   UNL     1      34.565  66.905  25.546  1.00  0.00    -0.000 C 
BRANCH  24  25
ATOM     25  C   UNL     1      34.688  65.673  26.457  1.00  0.00    -0.000 C 
BRANCH  25  26
ATOM     26  C   UNL     1      34.636  64.354  25.667  1.00  0.00    -0.000 C 
BRANCH  26  27
ATOM     27  C   UNL     1      34.642  63.117  26.581  1.00  0.00    -0.000 C 
BRANCH  27  28
ATOM     28  C   UNL     1      35.003  63.406  28.051  1.00  0.00    -0.000 C 
BRANCH  28  29
ATOM     29  C   UNL     1      33.899  63.003  29.053  1.00  0.00    -0.003 C 
ATOM     30  C   UNL     1      33.181  61.717  28.646  1.00  0.00     0.004 C 
ENDBRANCH  28  29
ENDBRANCH  27  28
ENDBRANCH  26  27
ENDBRANCH  25  26
ENDBRANCH  24  25
ENDBRANCH  23  24
ENDBRANCH  22  23
ENDBRANCH  21  22
ENDBRANCH  20  21
ENDBRANCH  19  20
ENDBRANCH  18  19
ENDBRANCH  17  18
ENDBRANCH   1  17
TORSDOF 26
ENDMDL
MODEL 9
REMARK VINA RESULT:    -2.162      5.426      8.579
REMARK INTER + INTRA:          -6.811
REMARK INTER:                  -5.687
REMARK INTRA:                  -1.124
REMARK UNBOUND:                -1.363
REMARK SMILES CCCCCCCCCCCCCCCCCCCCCCCCCCCC(=O)[O-]
REMARK SMILES IDX 15 1 16 2 17 3 18 4 19 5 20 6 21 7 22 8 23 9 24 10 25 11
REMARK SMILES IDX 26 12 27 13 28 14 29 15 30 16 14 17 13 18 12 19 11 20 10 21
REMARK SMILES IDX 9 22 8 23 7 24 6 25 5 26 4 27 3 28 2 29 1 30
REMARK H PARENT
REMARK Flexibility Score: inf
ROOT
ATOM      1  C   UNL     1      42.006  64.639  23.798  1.00  0.00     0.000 C 
ENDROOT
BRANCH   1   2
ATOM      2  C   UNL     1      40.875  64.868  22.787  1.00  0.00     0.000 C 
BRANCH   2   3
ATOM      3  C   UNL     1      41.367  65.691  21.587  1.00  0.00     0.000 C 
BRANCH   3   4
ATOM      4  C   UNL     1      40.724  67.088  21.516  1.00  0.00     0.000 C 
BRANCH   4   5
ATOM      5  C   UNL     1      39.239  67.147  21.931  1.00  0.00     0.000 C 
BRANCH   5   6
ATOM      6  C   UNL     1      38.953  66.759  23.393  1.00  0.00     0.000 C 
BRANCH   6   7
ATOM      7  C   UNL     1      38.001  67.711  24.143  1.00  0.00     0.000 C 
BRANCH   7   8
ATOM      8  C   UNL     1      37.596  67.211  25.546  1.00  0.00     0.000 C 
BRANCH   8   9
ATOM      9  C   UNL     1      36.284  67.846  26.044  1.00  0.00     0.000 C 
BRANCH   9  10
ATOM     10  C   UNL     1      35.044  67.262  25.351  1.00  0.00     0.000 C 
BRANCH  10  11
ATOM     11  C   UNL     1      34.679  65.860  25.872  1.00  0.00     0.000 C 
BRANCH  11  12
ATOM     12  C   UNL     1      34.719  65.772  27.406  1.00  0.00     0.006 C 
BRANCH  12  13
ATOM     13  C   UNL     1      35.438  64.513  27.909  1.00  0.00     0.053 C 
BRANCH  13  14
ATOM     14  C   UNL     1      34.731  63.283  27.431  1.00  0.00     0.041 C 
ATOM     15  O   UNL     1      34.090  62.567  28.242  1.00  0.00    -0.550 OA
ATOM     16  O   UNL     1      34.744  62.953  26.080  1.00  0.00    -0.550 OA
ENDBRANCH  13  14
ENDBRANCH  12  13
ENDBRANCH  11  12
ENDBRANCH  10  11
ENDBRANCH   9  10
ENDBRANCH   8   9
ENDBRANCH   7   8
ENDBRANCH   6   7
ENDBRANCH   5   6
ENDBRANCH   4   5
ENDBRANCH   3   4
ENDBRANCH   2   3
ENDBRANCH   1   2
BRANCH   1  17
ATOM     17  C   UNL     1      41.437  64.285  25.181  1.00  0.00     0.000 C 
BRANCH  17  18
ATOM     18  C   UNL     1      41.751  65.350  26.245  1.00  0.00     0.000 C 
BRANCH  18  19
ATOM     19  C   UNL     1      40.897  66.619  26.081  1.00  0.00     0.000 C 
BRANCH  19  20
ATOM     20  C   UNL     1      41.742  67.857  25.739  1.00  0.00     0.000 C 
BRANCH  20  21
ATOM     21  C   UNL     1      41.879  68.082  24.224  1.00  0.00     0.000 C 
BRANCH  21  22
ATOM     22  C   UNL     1      43.043  69.020  23.861  1.00  0.00    -0.000 C 
BRANCH  22  23
ATOM     23  C   UNL     1      43.395  70.027  24.976  1.00  0.00    -0.000 C 
BRANCH  23  24
ATOM     24  C   UNL     1      44.647  70.858  24.639  1.00  0.00    -0.000 C 
BRANCH  24  25
ATOM     25  C   UNL     1      44.369  72.369  24.661  1.00  0.00    -0.000 C 
BRANCH  25  26
ATOM     26  C   UNL     1      42.935  72.695  25.109  1.00  0.00    -0.000 C 
BRANCH  26  27
ATOM     27  C   UNL     1      42.143  73.467  24.040  1.00  0.00    -0.000 C 
BRANCH  27  28
ATOM     28  C   UNL     1      40.901  74.208  24.570  1.00  0.00    -0.000 C 
BRANCH  28  29
ATOM     29  C   UNL     1      40.781  74.197  26.110  1.00  0.00    -0.003 C 
ATOM     30  C   UNL     1      40.997  75.580  26.723  1.00  0.00     0.004 C 
ENDBRANCH  28  29
ENDBRANCH  27  28
ENDBRANCH  26  27
ENDBRANCH  25  26
ENDBRANCH  24  25
ENDBRANCH  23  24
ENDBRANCH  22  23
ENDBRANCH  21  22
ENDBRANCH  20  21
ENDBRANCH  19  20
ENDBRANCH  18  19
ENDBRANCH  17  18
ENDBRANCH   1  17
TORSDOF 26
ENDMDL
