MODEL 1
REMARK VINA RESULT:    -3.072      0.000      0.000
REMARK INTER + INTRA:         -10.834
REMARK INTER:                  -7.023
REMARK INTRA:                  -3.811
REMARK UNBOUND:                -3.811
REMARK SMILES CCCCCCCCCCCCCCCCCCCCCCCC(=O)[O-]
REMARK SMILES IDX 13 1 14 2 15 3 16 4 17 5 18 6 19 7 20 8 21 9 22 10 23 11
REMARK SMILES IDX 24 12 25 13 26 14 12 15 11 16 10 17 9 18 8 19 7 20 6 21 5 22
REMARK SMILES IDX 4 23 3 24 2 25 1 26
REMARK H PARENT
REMARK Flexibility Score: inf
ROOT
ATOM      1  C   UNL     1     -16.992 -22.878  24.144  1.00  0.00     0.000 C 
ENDROOT
BRANCH   1   2
ATOM      2  C   UNL     1     -18.025 -23.850  24.743  1.00  0.00     0.000 C 
BRANCH   2   3
ATOM      3  C   UNL     1     -18.441 -23.552  26.197  1.00  0.00     0.000 C 
BRANCH   3   4
ATOM      4  C   UNL     1     -18.236 -22.091  26.649  1.00  0.00     0.000 C 
BRANCH   4   5
ATOM      5  C   UNL     1     -17.035 -21.857  27.586  1.00  0.00     0.000 C 
BRANCH   5   6
ATOM      6  C   UNL     1     -16.163 -23.097  27.847  1.00  0.00     0.000 C 
BRANCH   6   7
ATOM      7  C   UNL     1     -14.716 -22.923  27.359  1.00  0.00     0.000 C 
BRANCH   7   8
ATOM      8  C   UNL     1     -14.534 -21.577  26.647  1.00  0.00     0.000 C 
BRANCH   8   9
ATOM      9  C   UNL     1     -13.334 -21.615  25.693  1.00  0.00     0.000 C 
BRANCH   9  10
ATOM     10  C   UNL     1     -13.613 -20.795  24.426  1.00  0.00     0.006 C 
BRANCH  10  11
ATOM     11  C   UNL     1     -12.383 -19.981  24.014  1.00  0.00     0.053 C 
BRANCH  11  12
ATOM     12  C   UNL     1     -12.673 -18.516  24.097  1.00  0.00     0.041 C 
ATOM     13  O   UNL     1     -13.115 -18.015  25.166  1.00  0.00    -0.550 OA
ATOM     14  O   UNL     1     -12.405 -17.693  23.009  1.00  0.00    -0.550 OA
ENDBRANCH  11  12
ENDBRANCH  10  11
ENDBRANCH   9  10
ENDBRANCH   8   9
ENDBRANCH   7   8
ENDBRANCH   6   7
ENDBRANCH   5   6
ENDBRANCH   4   5
ENDBRANCH   3   4
ENDBRANCH   2   3
ENDBRANCH   1   2
BRANCH   1  15
ATOM     15  C   UNL     1     -15.730 -23.568  23.581  1.00  0.00     0.000 C 
BRANCH  15  16
ATOM     16  C   UNL     1     -15.459 -24.935  24.236  1.00  0.00     0.000 C 
BRANCH  16  17
ATOM     17  C   UNL     1     -13.955 -25.267  24.322  1.00  0.00     0.000 C 
BRANCH  17  18
ATOM     18  C   UNL     1     -13.071 -24.469  23.346  1.00  0.00    -0.000 C 
BRANCH  18  19
ATOM     19  C   UNL     1     -12.982 -25.123  21.955  1.00  0.00    -0.000 C 
BRANCH  19  20
ATOM     20  C   UNL     1     -12.892 -24.092  20.816  1.00  0.00    -0.000 C 
BRANCH  20  21
ATOM     21  C   UNL     1     -12.606 -22.643  21.264  1.00  0.00    -0.000 C 
BRANCH  21  22
ATOM     22  C   UNL     1     -13.408 -21.555  20.525  1.00  0.00    -0.000 C 
BRANCH  22  23
ATOM     23  C   UNL     1     -13.370 -21.714  18.998  1.00  0.00    -0.000 C 
BRANCH  23  24
ATOM     24  C   UNL     1     -12.211 -20.908  18.393  1.00  0.00    -0.000 C 
BRANCH  24  25
ATOM     25  C   UNL     1     -11.850 -19.673  19.233  1.00  0.00    -0.003 C 
ATOM     26  C   UNL     1     -12.448 -18.382  18.673  1.00  0.00     0.004 C 
ENDBRANCH  24  25
ENDBRANCH  23  24
ENDBRANCH  22  23
ENDBRANCH  21  22
ENDBRANCH  20  21
ENDBRANCH  19  20
ENDBRANCH  18  19
ENDBRANCH  17  18
ENDBRANCH  16  17
ENDBRANCH  15  16
ENDBRANCH   1  15
TORSDOF 22
ENDMDL
MODEL 2
REMARK VINA RESULT:    -3.064      1.387      5.438
REMARK INTER + INTRA:         -10.815
REMARK INTER:                  -6.316
REMARK INTRA:                  -4.499
REMARK UNBOUND:                -3.811
REMARK SMILES CCCCCCCCCCCCCCCCCCCCCCCC(=O)[O-]
REMARK SMILES IDX 13 1 14 2 15 3 16 4 17 5 18 6 19 7 20 8 21 9 22 10 23 11
REMARK SMILES IDX 24 12 25 13 26 14 12 15 11 16 10 17 9 18 8 19 7 20 6 21 5 22
REMARK SMILES IDX 4 23 3 24 2 25 1 26
REMARK H PARENT
REMARK Flexibility Score: inf
ROOT
ATOM      1  C   UNL     1     -17.012 -22.965  24.179  1.00  0.00     0.000 C 
ENDROOT
BRANCH   1   2
ATOM      2  C   UNL     1     -15.724 -23.597  23.618  1.00  0.00     0.000 C 
BRANCH   2   3
ATOM      3  C   UNL     1     -15.196 -24.815  24.400  1.00  0.00     0.000 C 
BRANCH   3   4
ATOM      4  C   UNL     1     -13.750 -25.233  24.060  1.00  0.00     0.000 C 
BRANCH   4   5
ATOM      5  C   UNL     1     -13.334 -25.020  22.591  1.00  0.00     0.000 C 
BRANCH   5   6
ATOM      6  C   UNL     1     -11.905 -24.486  22.392  1.00  0.00     0.000 C 
BRANCH   6   7
ATOM      7  C   UNL     1     -11.829 -23.351  21.358  1.00  0.00     0.000 C 
BRANCH   7   8
ATOM      8  C   UNL     1     -13.228 -22.969  20.860  1.00  0.00     0.000 C 
BRANCH   8   9
ATOM      9  C   UNL     1     -13.160 -22.303  19.480  1.00  0.00     0.000 C 
BRANCH   9  10
ATOM     10  C   UNL     1     -13.330 -20.782  19.593  1.00  0.00     0.006 C 
BRANCH  10  11
ATOM     11  C   UNL     1     -12.236 -20.045  18.816  1.00  0.00     0.053 C 
BRANCH  11  12
ATOM     12  C   UNL     1     -12.366 -18.566  19.003  1.00  0.00     0.041 C 
ATOM     13  O   UNL     1     -12.156 -17.783  18.038  1.00  0.00    -0.550 OA
ATOM     14  O   UNL     1     -12.772 -18.055  20.231  1.00  0.00    -0.550 OA
ENDBRANCH  11  12
ENDBRANCH  10  11
ENDBRANCH   9  10
ENDBRANCH   8   9
ENDBRANCH   7   8
ENDBRANCH   6   7
ENDBRANCH   5   6
ENDBRANCH   4   5
ENDBRANCH   3   4
ENDBRANCH   2   3
ENDBRANCH   1   2
BRANCH   1  15
ATOM     15  C   UNL     1     -17.901 -23.947  24.974  1.00  0.00     0.000 C 
BRANCH  15  16
ATOM     16  C   UNL     1     -18.727 -23.247  26.069  1.00  0.00     0.000 C 
BRANCH  16  17
ATOM     17  C   UNL     1     -17.874 -22.831  27.284  1.00  0.00     0.000 C 
BRANCH  17  18
ATOM     18  C   UNL     1     -16.814 -23.867  27.703  1.00  0.00    -0.000 C 
BRANCH  18  19
ATOM     19  C   UNL     1     -15.404 -23.262  27.812  1.00  0.00    -0.000 C 
BRANCH  19  20
ATOM     20  C   UNL     1     -15.383 -21.748  27.536  1.00  0.00    -0.000 C 
BRANCH  20  21
ATOM     21  C   UNL     1     -14.528 -21.312  26.328  1.00  0.00    -0.000 C 
BRANCH  21  22
ATOM     22  C   UNL     1     -13.241 -22.127  26.103  1.00  0.00    -0.000 C 
BRANCH  22  23
ATOM     23  C   UNL     1     -12.489 -21.721  24.827  1.00  0.00    -0.000 C 
BRANCH  23  24
ATOM     24  C   UNL     1     -13.409 -20.948  23.871  1.00  0.00    -0.000 C 
BRANCH  24  25
ATOM     25  C   UNL     1     -12.701 -19.759  23.204  1.00  0.00    -0.003 C 
ATOM     26  C   UNL     1     -11.246 -20.065  22.844  1.00  0.00     0.004 C 
ENDBRANCH  24  25
ENDBRANCH  23  24
ENDBRANCH  22  23
ENDBRANCH  21  22
ENDBRANCH  20  21
ENDBRANCH  19  20
ENDBRANCH  18  19
ENDBRANCH  17  18
ENDBRANCH  16  17
ENDBRANCH  15  16
ENDBRANCH   1  15
TORSDOF 22
ENDMDL
MODEL 3
REMARK VINA RESULT:    -3.055      1.968      3.423
REMARK INTER + INTRA:         -10.794
REMARK INTER:                  -6.772
REMARK INTRA:                  -4.022
REMARK UNBOUND:                -3.811
REMARK SMILES CCCCCCCCCCCCCCCCCCCCCCCC(=O)[O-]
REMARK SMILES IDX 13 1 14 2 15 3 16 4 17 5 18 6 19 7 20 8 21 9 22 10 23 11
REMARK SMILES IDX 24 12 25 13 26 14 12 15 11 16 10 17 9 18 8 19 7 20 6 21 5 22
REMARK SMILES IDX 4 23 3 24 2 25 1 26
REMARK H PARENT
REMARK Flexibility Score: inf
ROOT
ATOM      1  C   UNL     1     -15.510 -24.315  24.079  1.00  0.00     0.000 C 
ENDROOT
BRANCH   1   2
ATOM      2  C   UNL     1     -16.765 -24.960  24.696  1.00  0.00     0.000 C 
BRANCH   2   3
ATOM      3  C   UNL     1     -18.106 -24.343  24.253  1.00  0.00     0.000 C 
BRANCH   3   4
ATOM      4  C   UNL     1     -19.094 -24.036  25.399  1.00  0.00     0.000 C 
BRANCH   4   5
ATOM      5  C   UNL     1     -18.466 -23.398  26.653  1.00  0.00     0.000 C 
BRANCH   5   6
ATOM      6  C   UNL     1     -17.907 -21.980  26.451  1.00  0.00     0.000 C 
BRANCH   6   7
ATOM      7  C   UNL     1     -16.886 -21.579  27.528  1.00  0.00     0.000 C 
BRANCH   7   8
ATOM      8  C   UNL     1     -15.458 -21.909  27.079  1.00  0.00     0.000 C 
BRANCH   8   9
ATOM      9  C   UNL     1     -15.012 -23.275  27.613  1.00  0.00     0.000 C 
BRANCH   9  10
ATOM     10  C   UNL     1     -13.530 -23.529  27.307  1.00  0.00     0.006 C 
BRANCH  10  11
ATOM     11  C   UNL     1     -12.984 -22.489  26.325  1.00  0.00     0.053 C 
BRANCH  11  12
ATOM     12  C   UNL     1     -12.018 -23.123  25.374  1.00  0.00     0.041 C 
ATOM     13  O   UNL     1     -12.056 -24.365  25.164  1.00  0.00    -0.550 OA
ATOM     14  O   UNL     1     -11.108 -22.333  24.680  1.00  0.00    -0.550 OA
ENDBRANCH  11  12
ENDBRANCH  10  11
ENDBRANCH   9  10
ENDBRANCH   8   9
ENDBRANCH   7   8
ENDBRANCH   6   7
ENDBRANCH   5   6
ENDBRANCH   4   5
ENDBRANCH   3   4
ENDBRANCH   2   3
ENDBRANCH   1   2
BRANCH   1  15
ATOM     15  C   UNL     1     -15.728 -22.873  23.571  1.00  0.00     0.000 C 
BRANCH  15  16
ATOM     16  C   UNL     1     -14.468 -22.277  22.916  1.00  0.00     0.000 C 
BRANCH  16  17
ATOM     17  C   UNL     1     -13.680 -23.313  22.089  1.00  0.00     0.000 C 
BRANCH  17  18
ATOM     18  C   UNL     1     -12.499 -22.727  21.293  1.00  0.00    -0.000 C 
BRANCH  18  19
ATOM     19  C   UNL     1     -12.685 -22.860  19.771  1.00  0.00    -0.000 C 
BRANCH  19  20
ATOM     20  C   UNL     1     -13.394 -21.643  19.149  1.00  0.00    -0.000 C 
BRANCH  20  21
ATOM     21  C   UNL     1     -12.500 -20.405  18.929  1.00  0.00    -0.000 C 
BRANCH  21  22
ATOM     22  C   UNL     1     -13.053 -19.085  19.496  1.00  0.00    -0.000 C 
BRANCH  22  23
ATOM     23  C   UNL     1     -13.613 -19.230  20.919  1.00  0.00    -0.000 C 
BRANCH  23  24
ATOM     24  C   UNL     1     -12.729 -18.490  21.933  1.00  0.00    -0.000 C 
BRANCH  24  25
ATOM     25  C   UNL     1     -12.150 -19.427  23.005  1.00  0.00    -0.003 C 
ATOM     26  C   UNL     1     -12.725 -19.158  24.396  1.00  0.00     0.004 C 
ENDBRANCH  24  25
ENDBRANCH  23  24
ENDBRANCH  22  23
ENDBRANCH  21  22
ENDBRANCH  20  21
ENDBRANCH  19  20
ENDBRANCH  18  19
ENDBRANCH  17  18
ENDBRANCH  16  17
ENDBRANCH  15  16
ENDBRANCH   1  15
TORSDOF 22
ENDMDL
MODEL 4
REMARK VINA RESULT:    -3.024      4.173      9.790
REMARK INTER + INTRA:         -10.723
REMARK INTER:                  -9.088
REMARK INTRA:                  -1.636
REMARK UNBOUND:                -3.811
REMARK SMILES CCCCCCCCCCCCCCCCCCCCCCCC(=O)[O-]
REMARK SMILES IDX 13 1 14 2 15 3 16 4 17 5 18 6 19 7 20 8 21 9 22 10 23 11
REMARK SMILES IDX 24 12 25 13 26 14 12 15 11 16 10 17 9 18 8 19 7 20 6 21 5 22
REMARK SMILES IDX 4 23 3 24 2 25 1 26
REMARK H PARENT
REMARK Flexibility Score: inf
ROOT
ATOM      1  C   UNL     1     -13.564 -21.014  19.090  1.00  0.00     0.000 C 
ENDROOT
BRANCH   1   2
ATOM      2  C   UNL     1     -13.512 -19.894  20.146  1.00  0.00     0.000 C 
BRANCH   2   3
ATOM      3  C   UNL     1     -12.736 -18.630  19.724  1.00  0.00     0.000 C 
BRANCH   3   4
ATOM      4  C   UNL     1     -12.018 -18.729  18.362  1.00  0.00     0.000 C 
BRANCH   4   5
ATOM      5  C   UNL     1     -11.865 -17.396  17.603  1.00  0.00     0.000 C 
BRANCH   5   6
ATOM      6  C   UNL     1     -11.062 -17.481  16.294  1.00  0.00     0.000 C 
BRANCH   6   7
ATOM      7  C   UNL     1     -11.721 -16.714  15.136  1.00  0.00     0.000 C 
BRANCH   7   8
ATOM      8  C   UNL     1     -10.976 -16.963  13.819  1.00  0.00     0.000 C 
BRANCH   8   9
ATOM      9  C   UNL     1     -11.572 -16.125  12.681  1.00  0.00     0.000 C 
BRANCH   9  10
ATOM     10  C   UNL     1     -12.487 -15.022  13.230  1.00  0.00     0.006 C 
BRANCH  10  11
ATOM     11  C   UNL     1     -11.846 -13.642  13.064  1.00  0.00     0.053 C 
BRANCH  11  12
ATOM     12  C   UNL     1     -12.060 -12.814  14.292  1.00  0.00     0.041 C 
ATOM     13  O   UNL     1     -11.470 -11.707  14.423  1.00  0.00    -0.550 OA
ATOM     14  O   UNL     1     -12.952 -13.240  15.270  1.00  0.00    -0.550 OA
ENDBRANCH  11  12
ENDBRANCH  10  11
ENDBRANCH   9  10
ENDBRANCH   8   9
ENDBRANCH   7   8
ENDBRANCH   6   7
ENDBRANCH   5   6
ENDBRANCH   4   5
ENDBRANCH   3   4
ENDBRANCH   2   3
ENDBRANCH   1   2
BRANCH   1  15
ATOM     15  C   UNL     1     -13.030 -22.375  19.589  1.00  0.00     0.000 C 
BRANCH  15  16
ATOM     16  C   UNL     1     -12.502 -22.312  21.034  1.00  0.00     0.000 C 
BRANCH  16  17
ATOM     17  C   UNL     1     -13.373 -23.113  22.023  1.00  0.00     0.000 C 
BRANCH  17  18
ATOM     18  C   UNL     1     -13.273 -22.642  23.486  1.00  0.00    -0.000 C 
BRANCH  18  19
ATOM     19  C   UNL     1     -14.647 -22.324  24.101  1.00  0.00    -0.000 C 
BRANCH  19  20
ATOM     20  C   UNL     1     -15.801 -23.058  23.394  1.00  0.00    -0.000 C 
BRANCH  20  21
ATOM     21  C   UNL     1     -16.161 -24.437  23.986  1.00  0.00    -0.000 C 
BRANCH  21  22
ATOM     22  C   UNL     1     -17.655 -24.807  23.931  1.00  0.00    -0.000 C 
BRANCH  22  23
ATOM     23  C   UNL     1     -18.275 -25.011  25.322  1.00  0.00    -0.000 C 
BRANCH  23  24
ATOM     24  C   UNL     1     -19.071 -23.771  25.753  1.00  0.00    -0.000 C 
BRANCH  24  25
ATOM     25  C   UNL     1     -18.400 -23.012  26.909  1.00  0.00    -0.003 C 
ATOM     26  C   UNL     1     -17.525 -21.855  26.426  1.00  0.00     0.004 C 
ENDBRANCH  24  25
ENDBRANCH  23  24
ENDBRANCH  22  23
ENDBRANCH  21  22
ENDBRANCH  20  21
ENDBRANCH  19  20
ENDBRANCH  18  19
ENDBRANCH  17  18
ENDBRANCH  16  17
ENDBRANCH  15  16
ENDBRANCH   1  15
TORSDOF 22
ENDMDL
MODEL 5
REMARK VINA RESULT:    -2.976      2.976      6.627
REMARK INTER + INTRA:         -10.613
REMARK INTER:                  -7.195
REMARK INTRA:                  -3.419
REMARK UNBOUND:                -3.811
REMARK SMILES CCCCCCCCCCCCCCCCCCCCCCCC(=O)[O-]
REMARK SMILES IDX 13 1 14 2 15 3 16 4 17 5 18 6 19 7 20 8 21 9 22 10 23 11
REMARK SMILES IDX 24 12 25 13 26 14 12 15 11 16 10 17 9 18 8 19 7 20 6 21 5 22
REMARK SMILES IDX 4 23 3 24 2 25 1 26
REMARK H PARENT
REMARK Flexibility Score: inf
ROOT
ATOM      1  C   UNL     1     -13.417 -21.950  20.412  1.00  0.00     0.000 C 
ENDROOT
BRANCH   1   2
ATOM      2  C   UNL     1     -12.443 -22.896  21.141  1.00  0.00     0.000 C 
BRANCH   2   3
ATOM      3  C   UNL     1     -13.105 -24.062  21.901  1.00  0.00     0.000 C 
BRANCH   3   4
ATOM      4  C   UNL     1     -12.778 -24.129  23.408  1.00  0.00     0.000 C 
BRANCH   4   5
ATOM      5  C   UNL     1     -13.999 -24.270  24.338  1.00  0.00     0.000 C 
BRANCH   5   6
ATOM      6  C   UNL     1     -15.365 -24.160  23.639  1.00  0.00     0.000 C 
BRANCH   6   7
ATOM      7  C   UNL     1     -16.092 -22.841  23.949  1.00  0.00     0.000 C 
BRANCH   7   8
ATOM      8  C   UNL     1     -16.184 -22.608  25.462  1.00  0.00     0.000 C 
BRANCH   8   9
ATOM      9  C   UNL     1     -17.535 -21.992  25.844  1.00  0.00     0.000 C 
BRANCH   9  10
ATOM     10  C   UNL     1     -18.399 -22.997  26.618  1.00  0.00     0.006 C 
BRANCH  10  11
ATOM     11  C   UNL     1     -19.132 -23.943  25.663  1.00  0.00     0.053 C 
BRANCH  11  12
ATOM     12  C   UNL     1     -18.827 -25.368  26.000  1.00  0.00     0.041 C 
ATOM     13  O   UNL     1     -17.685 -25.847  25.761  1.00  0.00    -0.550 OA
ATOM     14  O   UNL     1     -19.786 -26.154  26.627  1.00  0.00    -0.550 OA
ENDBRANCH  11  12
ENDBRANCH  10  11
ENDBRANCH   9  10
ENDBRANCH   8   9
ENDBRANCH   7   8
ENDBRANCH   6   7
ENDBRANCH   5   6
ENDBRANCH   4   5
ENDBRANCH   3   4
ENDBRANCH   2   3
ENDBRANCH   1   2
BRANCH   1  15
ATOM     15  C   UNL     1     -13.149 -21.816  18.897  1.00  0.00     0.000 C 
BRANCH  15  16
ATOM     16  C   UNL     1     -11.682 -21.467  18.583  1.00  0.00     0.000 C 
BRANCH  16  17
ATOM     17  C   UNL     1     -11.547 -20.269  17.622  1.00  0.00     0.000 C 
BRANCH  17  18
ATOM     18  C   UNL     1     -11.350 -18.911  18.321  1.00  0.00    -0.000 C 
BRANCH  18  19
ATOM     19  C   UNL     1     -12.643 -18.385  18.969  1.00  0.00    -0.000 C 
BRANCH  19  20
ATOM     20  C   UNL     1     -12.573 -18.366  20.506  1.00  0.00    -0.000 C 
BRANCH  20  21
ATOM     21  C   UNL     1     -11.227 -18.819  21.108  1.00  0.00    -0.000 C 
BRANCH  21  22
ATOM     22  C   UNL     1     -11.302 -19.390  22.536  1.00  0.00    -0.000 C 
BRANCH  22  23
ATOM     23  C   UNL     1     -12.674 -19.181  23.194  1.00  0.00    -0.000 C 
BRANCH  23  24
ATOM     24  C   UNL     1     -13.212 -20.500  23.769  1.00  0.00    -0.000 C 
BRANCH  24  25
ATOM     25  C   UNL     1     -13.232 -20.508  25.306  1.00  0.00    -0.003 C 
ATOM     26  C   UNL     1     -13.178 -19.102  25.904  1.00  0.00     0.004 C 
ENDBRANCH  24  25
ENDBRANCH  23  24
ENDBRANCH  22  23
ENDBRANCH  21  22
ENDBRANCH  20  21
ENDBRANCH  19  20
ENDBRANCH  18  19
ENDBRANCH  17  18
ENDBRANCH  16  17
ENDBRANCH  15  16
ENDBRANCH   1  15
TORSDOF 22
ENDMDL
MODEL 6
REMARK VINA RESULT:    -2.972      1.763      6.167
REMARK INTER + INTRA:         -10.605
REMARK INTER:                  -6.368
REMARK INTRA:                  -4.237
REMARK UNBOUND:                -3.811
REMARK SMILES CCCCCCCCCCCCCCCCCCCCCCCC(=O)[O-]
REMARK SMILES IDX 13 1 14 2 15 3 16 4 17 5 18 6 19 7 20 8 21 9 22 10 23 11
REMARK SMILES IDX 24 12 25 13 26 14 12 15 11 16 10 17 9 18 8 19 7 20 6 21 5 22
REMARK SMILES IDX 4 23 3 24 2 25 1 26
REMARK H PARENT
REMARK Flexibility Score: inf
ROOT
ATOM      1  C   UNL     1     -17.089 -24.206  23.894  1.00  0.00     0.000 C 
ENDROOT
BRANCH   1   2
ATOM      2  C   UNL     1     -16.368 -22.845  23.924  1.00  0.00     0.000 C 
BRANCH   2   3
ATOM      3  C   UNL     1     -14.989 -22.818  23.235  1.00  0.00     0.000 C 
BRANCH   3   4
ATOM      4  C   UNL     1     -14.086 -21.629  23.628  1.00  0.00     0.000 C 
BRANCH   4   5
ATOM      5  C   UNL     1     -12.585 -21.821  23.335  1.00  0.00     0.000 C 
BRANCH   5   6
ATOM      6  C   UNL     1     -12.121 -23.285  23.255  1.00  0.00     0.000 C 
BRANCH   6   7
ATOM      7  C   UNL     1     -11.550 -23.658  21.877  1.00  0.00     0.000 C 
BRANCH   7   8
ATOM      8  C   UNL     1     -11.840 -22.559  20.848  1.00  0.00     0.000 C 
BRANCH   8   9
ATOM      9  C   UNL     1     -12.972 -22.973  19.901  1.00  0.00     0.000 C 
BRANCH   9  10
ATOM     10  C   UNL     1     -13.408 -21.798  19.017  1.00  0.00     0.006 C 
BRANCH  10  11
ATOM     11  C   UNL     1     -12.356 -20.685  19.022  1.00  0.00     0.053 C 
BRANCH  11  12
ATOM     12  C   UNL     1     -12.966 -19.390  19.460  1.00  0.00     0.041 C 
ATOM     13  O   UNL     1     -13.625 -19.329  20.533  1.00  0.00    -0.550 OA
ATOM     14  O   UNL     1     -12.761 -18.238  18.710  1.00  0.00    -0.550 OA
ENDBRANCH  11  12
ENDBRANCH  10  11
ENDBRANCH   9  10
ENDBRANCH   8   9
ENDBRANCH   7   8
ENDBRANCH   6   7
ENDBRANCH   5   6
ENDBRANCH   4   5
ENDBRANCH   3   4
ENDBRANCH   2   3
ENDBRANCH   1   2
BRANCH   1  15
ATOM     15  C   UNL     1     -18.416 -24.233  24.684  1.00  0.00     0.000 C 
BRANCH  15  16
ATOM     16  C   UNL     1     -18.220 -23.944  26.184  1.00  0.00     0.000 C 
BRANCH  16  17
ATOM     17  C   UNL     1     -18.747 -22.555  26.597  1.00  0.00     0.000 C 
BRANCH  17  18
ATOM     18  C   UNL     1     -17.691 -21.639  27.243  1.00  0.00    -0.000 C 
BRANCH  18  19
ATOM     19  C   UNL     1     -16.494 -22.422  27.810  1.00  0.00    -0.000 C 
BRANCH  19  20
ATOM     20  C   UNL     1     -15.144 -21.924  27.264  1.00  0.00    -0.000 C 
BRANCH  20  21
ATOM     21  C   UNL     1     -14.129 -23.031  26.912  1.00  0.00    -0.000 C 
BRANCH  21  22
ATOM     22  C   UNL     1     -14.695 -24.463  26.901  1.00  0.00    -0.000 C 
BRANCH  22  23
ATOM     23  C   UNL     1     -14.086 -25.341  25.797  1.00  0.00    -0.000 C 
BRANCH  23  24
ATOM     24  C   UNL     1     -14.868 -26.654  25.649  1.00  0.00    -0.000 C 
BRANCH  24  25
ATOM     25  C   UNL     1     -15.037 -27.077  24.181  1.00  0.00    -0.003 C 
ATOM     26  C   UNL     1     -14.051 -26.374  23.247  1.00  0.00     0.004 C 
ENDBRANCH  24  25
ENDBRANCH  23  24
ENDBRANCH  22  23
ENDBRANCH  21  22
ENDBRANCH  20  21
ENDBRANCH  19  20
ENDBRANCH  18  19
ENDBRANCH  17  18
ENDBRANCH  16  17
ENDBRANCH  15  16
ENDBRANCH   1  15
TORSDOF 22
ENDMDL
MODEL 7
REMARK VINA RESULT:    -2.957      2.576      7.004
REMARK INTER + INTRA:         -10.572
REMARK INTER:                  -6.297
REMARK INTRA:                  -4.275
REMARK UNBOUND:                -3.811
REMARK SMILES CCCCCCCCCCCCCCCCCCCCCCCC(=O)[O-]
REMARK SMILES IDX 13 1 14 2 15 3 16 4 17 5 18 6 19 7 20 8 21 9 22 10 23 11
REMARK SMILES IDX 24 12 25 13 26 14 12 15 11 16 10 17 9 18 8 19 7 20 6 21 5 22
REMARK SMILES IDX 4 23 3 24 2 25 1 26
REMARK H PARENT
REMARK Flexibility Score: inf
ROOT
ATOM      1  C   UNL     1     -12.461 -20.207  19.027  1.00  0.00     0.000 C 
ENDROOT
BRANCH   1   2
ATOM      2  C   UNL     1     -13.443 -21.379  18.840  1.00  0.00     0.000 C 
BRANCH   2   3
ATOM      3  C   UNL     1     -13.088 -22.663  19.615  1.00  0.00     0.000 C 
BRANCH   3   4
ATOM      4  C   UNL     1     -11.954 -22.510  20.650  1.00  0.00     0.000 C 
BRANCH   4   5
ATOM      5  C   UNL     1     -12.191 -23.228  21.994  1.00  0.00     0.000 C 
BRANCH   5   6
ATOM      6  C   UNL     1     -13.660 -23.572  22.296  1.00  0.00     0.000 C 
BRANCH   6   7
ATOM      7  C   UNL     1     -14.451 -22.377  22.853  1.00  0.00     0.000 C 
BRANCH   7   8
ATOM      8  C   UNL     1     -15.783 -22.836  23.458  1.00  0.00     0.000 C 
BRANCH   8   9
ATOM      9  C   UNL     1     -15.671 -24.254  24.031  1.00  0.00     0.000 C 
BRANCH   9  10
ATOM     10  C   UNL     1     -16.483 -24.390  25.326  1.00  0.00     0.006 C 
BRANCH  10  11
ATOM     11  C   UNL     1     -16.800 -23.017  25.924  1.00  0.00     0.053 C 
BRANCH  11  12
ATOM     12  C   UNL     1     -18.255 -22.914  26.258  1.00  0.00     0.041 C 
ATOM     13  O   UNL     1     -19.050 -23.833  25.923  1.00  0.00    -0.550 OA
ATOM     14  O   UNL     1     -18.725 -21.827  26.986  1.00  0.00    -0.550 OA
ENDBRANCH  11  12
ENDBRANCH  10  11
ENDBRANCH   9  10
ENDBRANCH   8   9
ENDBRANCH   7   8
ENDBRANCH   6   7
ENDBRANCH   5   6
ENDBRANCH   4   5
ENDBRANCH   3   4
ENDBRANCH   2   3
ENDBRANCH   1   2
BRANCH   1  15
ATOM     15  C   UNL     1     -13.124 -18.902  19.520  1.00  0.00     0.000 C 
BRANCH  15  16
ATOM     16  C   UNL     1     -12.517 -18.390  20.840  1.00  0.00     0.000 C 
BRANCH  16  17
ATOM     17  C   UNL     1     -13.017 -19.174  22.069  1.00  0.00     0.000 C 
BRANCH  17  18
ATOM     18  C   UNL     1     -11.908 -19.593  23.052  1.00  0.00    -0.000 C 
BRANCH  18  19
ATOM     19  C   UNL     1     -11.669 -18.550  24.157  1.00  0.00    -0.000 C 
BRANCH  19  20
ATOM     20  C   UNL     1     -12.909 -18.324  25.041  1.00  0.00    -0.000 C 
BRANCH  20  21
ATOM     21  C   UNL     1     -13.047 -19.288  26.238  1.00  0.00    -0.000 C 
BRANCH  21  22
ATOM     22  C   UNL     1     -13.883 -20.553  25.971  1.00  0.00    -0.000 C 
BRANCH  22  23
ATOM     23  C   UNL     1     -13.246 -21.826  26.548  1.00  0.00    -0.000 C 
BRANCH  23  24
ATOM     24  C   UNL     1     -12.132 -22.346  25.627  1.00  0.00    -0.000 C 
BRANCH  24  25
ATOM     25  C   UNL     1     -12.022 -23.879  25.642  1.00  0.00    -0.003 C 
ATOM     26  C   UNL     1     -12.990 -24.530  26.631  1.00  0.00     0.004 C 
ENDBRANCH  24  25
ENDBRANCH  23  24
ENDBRANCH  22  23
ENDBRANCH  21  22
ENDBRANCH  20  21
ENDBRANCH  19  20
ENDBRANCH  18  19
ENDBRANCH  17  18
ENDBRANCH  16  17
ENDBRANCH  15  16
ENDBRANCH   1  15
TORSDOF 22
ENDMDL
MODEL 8
REMARK VINA RESULT:    -2.925      2.135      6.953
REMARK INTER + INTRA:         -10.499
REMARK INTER:                  -7.115
REMARK INTRA:                  -3.383
REMARK UNBOUND:                -3.811
REMARK SMILES CCCCCCCCCCCCCCCCCCCCCCCC(=O)[O-]
REMARK SMILES IDX 13 1 14 2 15 3 16 4 17 5 18 6 19 7 20 8 21 9 22 10 23 11
REMARK SMILES IDX 24 12 25 13 26 14 12 15 11 16 10 17 9 18 8 19 7 20 6 21 5 22
REMARK SMILES IDX 4 23 3 24 2 25 1 26
REMARK H PARENT
REMARK Flexibility Score: inf
ROOT
ATOM      1  C   UNL     1     -13.314 -21.507  18.797  1.00  0.00     0.000 C 
ENDROOT
BRANCH   1   2
ATOM      2  C   UNL     1     -12.065 -20.698  18.396  1.00  0.00     0.000 C 
BRANCH   2   3
ATOM      3  C   UNL     1     -12.137 -19.188  18.696  1.00  0.00     0.000 C 
BRANCH   3   4
ATOM      4  C   UNL     1     -13.179 -18.781  19.760  1.00  0.00     0.000 C 
BRANCH   4   5
ATOM      5  C   UNL     1     -12.610 -18.035  20.983  1.00  0.00     0.000 C 
BRANCH   5   6
ATOM      6  C   UNL     1     -12.756 -18.777  22.322  1.00  0.00     0.000 C 
BRANCH   6   7
ATOM      7  C   UNL     1     -11.403 -19.140  22.956  1.00  0.00     0.000 C 
BRANCH   7   8
ATOM      8  C   UNL     1     -11.559 -19.428  24.454  1.00  0.00     0.000 C 
BRANCH   8   9
ATOM      9  C   UNL     1     -13.030 -19.653  24.823  1.00  0.00     0.000 C 
BRANCH   9  10
ATOM     10  C   UNL     1     -13.156 -20.596  26.028  1.00  0.00     0.006 C 
BRANCH  10  11
ATOM     11  C   UNL     1     -12.172 -21.764  25.919  1.00  0.00     0.053 C 
BRANCH  11  12
ATOM     12  C   UNL     1     -12.749 -22.995  26.543  1.00  0.00     0.041 C 
ATOM     13  O   UNL     1     -12.064 -24.051  26.617  1.00  0.00    -0.550 OA
ATOM     14  O   UNL     1     -14.025 -22.962  27.092  1.00  0.00    -0.550 OA
ENDBRANCH  11  12
ENDBRANCH  10  11
ENDBRANCH   9  10
ENDBRANCH   8   9
ENDBRANCH   7   8
ENDBRANCH   6   7
ENDBRANCH   5   6
ENDBRANCH   4   5
ENDBRANCH   3   4
ENDBRANCH   2   3
ENDBRANCH   1   2
BRANCH   1  15
ATOM     15  C   UNL     1     -13.040 -22.613  19.839  1.00  0.00     0.000 C 
BRANCH  15  16
ATOM     16  C   UNL     1     -12.044 -22.170  20.927  1.00  0.00     0.000 C 
BRANCH  16  17
ATOM     17  C   UNL     1     -12.518 -22.529  22.350  1.00  0.00     0.000 C 
BRANCH  17  18
ATOM     18  C   UNL     1     -13.881 -23.245  22.406  1.00  0.00    -0.000 C 
BRANCH  18  19
ATOM     19  C   UNL     1     -14.856 -22.586  23.397  1.00  0.00    -0.000 C 
BRANCH  19  20
ATOM     20  C   UNL     1     -15.790 -23.602  24.079  1.00  0.00    -0.000 C 
BRANCH  20  21
ATOM     21  C   UNL     1     -17.281 -23.481  23.700  1.00  0.00    -0.000 C 
BRANCH  21  22
ATOM     22  C   UNL     1     -18.225 -24.457  24.426  1.00  0.00    -0.000 C 
BRANCH  22  23
ATOM     23  C   UNL     1     -18.900 -23.835  25.657  1.00  0.00    -0.000 C 
BRANCH  23  24
ATOM     24  C   UNL     1     -18.117 -24.166  26.936  1.00  0.00    -0.000 C 
BRANCH  24  25
ATOM     25  C   UNL     1     -17.559 -22.912  27.627  1.00  0.00    -0.003 C 
ATOM     26  C   UNL     1     -18.117 -21.616  27.038  1.00  0.00     0.004 C 
ENDBRANCH  24  25
ENDBRANCH  23  24
ENDBRANCH  22  23
ENDBRANCH  21  22
ENDBRANCH  20  21
ENDBRANCH  19  20
ENDBRANCH  18  19
ENDBRANCH  17  18
ENDBRANCH  16  17
ENDBRANCH  15  16
ENDBRANCH   1  15
TORSDOF 22
ENDMDL
MODEL 9
REMARK VINA RESULT:    -2.925      2.005      4.413
REMARK INTER + INTRA:         -10.498
REMARK INTER:                  -6.188
REMARK INTRA:                  -4.310
REMARK UNBOUND:                -3.811
REMARK SMILES CCCCCCCCCCCCCCCCCCCCCCCC(=O)[O-]
REMARK SMILES IDX 13 1 14 2 15 3 16 4 17 5 18 6 19 7 20 8 21 9 22 10 23 11
REMARK SMILES IDX 24 12 25 13 26 14 12 15 11 16 10 17 9 18 8 19 7 20 6 21 5 22
REMARK SMILES IDX 4 23 3 24 2 25 1 26
REMARK H PARENT
REMARK Flexibility Score: inf
ROOT
ATOM      1  C   UNL     1     -18.527 -22.870  26.345  1.00  0.00     0.000 C 
ENDROOT
BRANCH   1   2
ATOM      2  C   UNL     1     -17.315 -22.197  25.673  1.00  0.00     0.000 C 
BRANCH   2   3
ATOM      3  C   UNL     1     -16.863 -22.836  24.345  1.00  0.00     0.000 C 
BRANCH   3   4
ATOM      4  C   UNL     1     -15.341 -22.800  24.087  1.00  0.00     0.000 C 
BRANCH   4   5
ATOM      5  C   UNL     1     -14.460 -22.979  25.340  1.00  0.00     0.000 C 
BRANCH   5   6
ATOM      6  C   UNL     1     -13.202 -22.096  25.380  1.00  0.00     0.000 C 
BRANCH   6   7
ATOM      7  C   UNL     1     -13.512 -20.603  25.186  1.00  0.00     0.000 C 
BRANCH   7   8
ATOM      8  C   UNL     1     -12.754 -20.038  23.979  1.00  0.00     0.000 C 
BRANCH   8   9
ATOM      9  C   UNL     1     -11.980 -21.141  23.247  1.00  0.00     0.000 C 
BRANCH   9  10
ATOM     10  C   UNL     1     -12.094 -20.975  21.725  1.00  0.00     0.006 C 
BRANCH  10  11
ATOM     11  C   UNL     1     -13.535 -20.669  21.310  1.00  0.00     0.053 C 
BRANCH  11  12
ATOM     12  C   UNL     1     -13.600 -20.328  19.855  1.00  0.00     0.041 C 
ATOM     13  O   UNL     1     -13.472 -19.132  19.477  1.00  0.00    -0.550 OA
ATOM     14  O   UNL     1     -13.750 -21.337  18.911  1.00  0.00    -0.550 OA
ENDBRANCH  11  12
ENDBRANCH  10  11
ENDBRANCH   9  10
ENDBRANCH   8   9
ENDBRANCH   7   8
ENDBRANCH   6   7
ENDBRANCH   5   6
ENDBRANCH   4   5
ENDBRANCH   3   4
ENDBRANCH   2   3
ENDBRANCH   1   2
BRANCH   1  15
ATOM     15  C   UNL     1     -19.130 -24.037  25.533  1.00  0.00     0.000 C 
BRANCH  15  16
ATOM     16  C   UNL     1     -19.030 -25.386  26.269  1.00  0.00     0.000 C 
BRANCH  16  17
ATOM     17  C   UNL     1     -17.878 -26.267  25.745  1.00  0.00     0.000 C 
BRANCH  17  18
ATOM     18  C   UNL     1     -16.503 -25.950  26.362  1.00  0.00    -0.000 C 
BRANCH  18  19
ATOM     19  C   UNL     1     -15.338 -26.547  25.553  1.00  0.00    -0.000 C 
BRANCH  19  20
ATOM     20  C   UNL     1     -15.570 -26.474  24.033  1.00  0.00    -0.000 C 
BRANCH  20  21
ATOM     21  C   UNL     1     -14.303 -26.635  23.166  1.00  0.00    -0.000 C 
BRANCH  21  22
ATOM     22  C   UNL     1     -13.024 -26.006  23.748  1.00  0.00    -0.000 C 
BRANCH  22  23
ATOM     23  C   UNL     1     -12.252 -25.160  22.724  1.00  0.00    -0.000 C 
BRANCH  23  24
ATOM     24  C   UNL     1     -13.218 -24.419  21.787  1.00  0.00    -0.000 C 
BRANCH  24  25
ATOM     25  C   UNL     1     -12.779 -24.486  20.316  1.00  0.00    -0.003 C 
ATOM     26  C   UNL     1     -12.808 -25.908  19.755  1.00  0.00     0.004 C 
ENDBRANCH  24  25
ENDBRANCH  23  24
ENDBRANCH  22  23
ENDBRANCH  21  22
ENDBRANCH  20  21
ENDBRANCH  19  20
ENDBRANCH  18  19
ENDBRANCH  17  18
ENDBRANCH  16  17
ENDBRANCH  15  16
ENDBRANCH   1  15
TORSDOF 22
ENDMDL
