MODEL 1
REMARK VINA RESULT:    -3.742      0.000      0.000
REMARK INTER + INTRA:          -8.131
REMARK INTER:                  -6.368
REMARK INTRA:                  -1.763
REMARK UNBOUND:                -1.763
REMARK SMILES CCCCCCCCCCCCCC(=O)[O-]
REMARK SMILES IDX 8 1 9 2 10 3 11 4 12 5 13 6 14 7 15 8 16 9 7 10 6 11 5 12
REMARK SMILES IDX 4 13 3 14 2 15 1 16
REMARK H PARENT
REMARK Flexibility Score: inf
ROOT
ATOM      1  C   UNL     1      22.883  35.022  12.424  1.00  0.00     0.000 C 
ENDROOT
BRANCH   1   2
ATOM      2  C   UNL     1      22.527  34.079  13.588  1.00  0.00     0.000 C 
BRANCH   2   3
ATOM      3  C   UNL     1      22.701  34.748  14.960  1.00  0.00     0.000 C 
BRANCH   3   4
ATOM      4  C   UNL     1      22.151  36.185  14.995  1.00  0.00     0.000 C 
BRANCH   4   5
ATOM      5  C   UNL     1      23.130  37.191  15.626  1.00  0.00     0.006 C 
BRANCH   5   6
ATOM      6  C   UNL     1      24.283  37.607  14.695  1.00  0.00     0.053 C 
BRANCH   6   7
ATOM      7  C   UNL     1      24.314  39.083  14.442  1.00  0.00     0.041 C 
ATOM      8  O   UNL     1      23.703  39.570  13.454  1.00  0.00    -0.550 OA
ATOM      9  O   UNL     1      24.986  39.927  15.317  1.00  0.00    -0.550 OA
ENDBRANCH   6   7
ENDBRANCH   5   6
ENDBRANCH   4   5
ENDBRANCH   3   4
ENDBRANCH   2   3
ENDBRANCH   1   2
BRANCH   1  10
ATOM     10  C   UNL     1      23.291  34.259  11.153  1.00  0.00     0.000 C 
BRANCH  10  11
ATOM     11  C   UNL     1      23.881  32.871  11.462  1.00  0.00    -0.000 C 
BRANCH  11  12
ATOM     12  C   UNL     1      25.363  32.748  11.062  1.00  0.00    -0.000 C 
BRANCH  12  13
ATOM     13  C   UNL     1      26.365  32.811  12.230  1.00  0.00    -0.000 C 
BRANCH  13  14
ATOM     14  C   UNL     1      26.765  34.251  12.599  1.00  0.00    -0.000 C 
BRANCH  14  15
ATOM     15  C   UNL     1      26.381  34.616  14.043  1.00  0.00    -0.003 C 
ATOM     16  C   UNL     1      26.114  33.388  14.913  1.00  0.00     0.004 C 
ENDBRANCH  14  15
ENDBRANCH  13  14
ENDBRANCH  12  13
ENDBRANCH  11  12
ENDBRANCH  10  11
ENDBRANCH   1  10
TORSDOF 12
ENDMDL
MODEL 2
REMARK VINA RESULT:    -3.648      2.819      5.760
REMARK INTER + INTRA:          -7.971
REMARK INTER:                  -6.601
REMARK INTRA:                  -1.370
REMARK UNBOUND:                -1.763
REMARK SMILES CCCCCCCCCCCCCC(=O)[O-]
REMARK SMILES IDX 8 1 9 2 10 3 11 4 12 5 13 6 14 7 15 8 16 9 7 10 6 11 5 12
REMARK SMILES IDX 4 13 3 14 2 15 1 16
REMARK H PARENT
REMARK Flexibility Score: inf
ROOT
ATOM      1  C   UNL     1      23.031  33.692  14.311  1.00  0.00     0.000 C 
ENDROOT
BRANCH   1   2
ATOM      2  C   UNL     1      24.446  33.943  14.864  1.00  0.00     0.000 C 
BRANCH   2   3
ATOM      3  C   UNL     1      25.263  34.896  13.977  1.00  0.00     0.000 C 
BRANCH   3   4
ATOM      4  C   UNL     1      26.581  34.271  13.490  1.00  0.00     0.000 C 
BRANCH   4   5
ATOM      5  C   UNL     1      26.565  33.922  11.991  1.00  0.00     0.006 C 
BRANCH   5   6
ATOM      6  C   UNL     1      25.868  32.588  11.668  1.00  0.00     0.053 C 
BRANCH   6   7
ATOM      7  C   UNL     1      24.748  32.747  10.687  1.00  0.00     0.041 C 
ATOM      8  O   UNL     1      24.546  31.869   9.807  1.00  0.00    -0.550 OA
ATOM      9  O   UNL     1      23.903  33.848  10.764  1.00  0.00    -0.550 OA
ENDBRANCH   6   7
ENDBRANCH   5   6
ENDBRANCH   4   5
ENDBRANCH   3   4
ENDBRANCH   2   3
ENDBRANCH   1   2
BRANCH   1  10
ATOM     10  C   UNL     1      22.350  34.984  13.828  1.00  0.00     0.000 C 
BRANCH  10  11
ATOM     11  C   UNL     1      21.454  35.616  14.909  1.00  0.00    -0.000 C 
BRANCH  11  12
ATOM     12  C   UNL     1      22.248  36.433  15.943  1.00  0.00    -0.000 C 
BRANCH  12  13
ATOM     13  C   UNL     1      22.622  37.861  15.505  1.00  0.00    -0.000 C 
BRANCH  13  14
ATOM     14  C   UNL     1      24.106  38.191  15.740  1.00  0.00    -0.000 C 
BRANCH  14  15
ATOM     15  C   UNL     1      24.646  39.221  14.734  1.00  0.00    -0.003 C 
ATOM     16  C   UNL     1      23.995  39.101  13.356  1.00  0.00     0.004 C 
ENDBRANCH  14  15
ENDBRANCH  13  14
ENDBRANCH  12  13
ENDBRANCH  11  12
ENDBRANCH  10  11
ENDBRANCH   1  10
TORSDOF 12
ENDMDL
MODEL 3
REMARK VINA RESULT:    -3.590      2.241      5.204
REMARK INTER + INTRA:          -7.872
REMARK INTER:                  -6.350
REMARK INTRA:                  -1.522
REMARK UNBOUND:                -1.763
REMARK SMILES CCCCCCCCCCCCCC(=O)[O-]
REMARK SMILES IDX 8 1 9 2 10 3 11 4 12 5 13 6 14 7 15 8 16 9 7 10 6 11 5 12
REMARK SMILES IDX 4 13 3 14 2 15 1 16
REMARK H PARENT
REMARK Flexibility Score: inf
ROOT
ATOM      1  C   UNL     1      23.213  35.018  12.442  1.00  0.00     0.000 C 
ENDROOT
BRANCH   1   2
ATOM      2  C   UNL     1      22.888  34.430  11.057  1.00  0.00     0.000 C 
BRANCH   2   3
ATOM      3  C   UNL     1      24.016  33.537  10.518  1.00  0.00     0.000 C 
BRANCH   3   4
ATOM      4  C   UNL     1      24.215  32.261  11.353  1.00  0.00     0.000 C 
BRANCH   4   5
ATOM      5  C   UNL     1      25.680  32.030  11.764  1.00  0.00     0.006 C 
BRANCH   5   6
ATOM      6  C   UNL     1      26.039  32.607  13.145  1.00  0.00     0.053 C 
BRANCH   6   7
ATOM      7  C   UNL     1      26.634  33.979  13.057  1.00  0.00     0.041 C 
ATOM      8  O   UNL     1      27.342  34.301  12.067  1.00  0.00    -0.550 OA
ATOM      9  O   UNL     1      26.378  34.916  14.051  1.00  0.00    -0.550 OA
ENDBRANCH   6   7
ENDBRANCH   5   6
ENDBRANCH   4   5
ENDBRANCH   3   4
ENDBRANCH   2   3
ENDBRANCH   1   2
BRANCH   1  10
ATOM     10  C   UNL     1      22.209  34.574  13.520  1.00  0.00     0.000 C 
BRANCH  10  11
ATOM     11  C   UNL     1      22.896  34.192  14.843  1.00  0.00    -0.000 C 
BRANCH  11  12
ATOM     12  C   UNL     1      23.155  35.404  15.756  1.00  0.00    -0.000 C 
BRANCH  12  13
ATOM     13  C   UNL     1      22.211  36.601  15.542  1.00  0.00    -0.000 C 
BRANCH  13  14
ATOM     14  C   UNL     1      22.954  37.947  15.475  1.00  0.00    -0.000 C 
BRANCH  14  15
ATOM     15  C   UNL     1      24.174  37.899  14.540  1.00  0.00    -0.003 C 
ATOM     16  C   UNL     1      24.140  38.986  13.466  1.00  0.00     0.004 C 
ENDBRANCH  14  15
ENDBRANCH  13  14
ENDBRANCH  12  13
ENDBRANCH  11  12
ENDBRANCH  10  11
ENDBRANCH   1  10
TORSDOF 12
ENDMDL
MODEL 4
REMARK VINA RESULT:    -3.490      0.959      2.949
REMARK INTER + INTRA:          -7.701
REMARK INTER:                  -5.808
REMARK INTRA:                  -1.893
REMARK UNBOUND:                -1.763
REMARK SMILES CCCCCCCCCCCCCC(=O)[O-]
REMARK SMILES IDX 8 1 9 2 10 3 11 4 12 5 13 6 14 7 15 8 16 9 7 10 6 11 5 12
REMARK SMILES IDX 4 13 3 14 2 15 1 16
REMARK H PARENT
REMARK Flexibility Score: inf
ROOT
ATOM      1  C   UNL     1      26.528  32.964  13.330  1.00  0.00     0.000 C 
ENDROOT
BRANCH   1   2
ATOM      2  C   UNL     1      26.233  33.584  14.708  1.00  0.00     0.000 C 
BRANCH   2   3
ATOM      3  C   UNL     1      25.815  35.060  14.611  1.00  0.00     0.000 C 
BRANCH   3   4
ATOM      4  C   UNL     1      24.899  35.496  15.767  1.00  0.00     0.000 C 
BRANCH   4   5
ATOM      5  C   UNL     1      24.378  36.936  15.615  1.00  0.00     0.006 C 
BRANCH   5   6
ATOM      6  C   UNL     1      24.616  37.541  14.220  1.00  0.00     0.053 C 
BRANCH   6   7
ATOM      7  C   UNL     1      24.412  39.024  14.194  1.00  0.00     0.041 C 
ATOM      8  O   UNL     1      23.600  39.538  13.379  1.00  0.00    -0.550 OA
ATOM      9  O   UNL     1      25.091  39.839  15.092  1.00  0.00    -0.550 OA
ENDBRANCH   6   7
ENDBRANCH   5   6
ENDBRANCH   4   5
ENDBRANCH   3   4
ENDBRANCH   2   3
ENDBRANCH   1   2
BRANCH   1  10
ATOM     10  C   UNL     1      26.165  33.906  12.171  1.00  0.00     0.000 C 
BRANCH  10  11
ATOM     11  C   UNL     1      25.243  33.237  11.135  1.00  0.00    -0.000 C 
BRANCH  11  12
ATOM     12  C   UNL     1      23.773  33.183  11.587  1.00  0.00    -0.000 C 
BRANCH  12  13
ATOM     13  C   UNL     1      23.053  34.544  11.643  1.00  0.00    -0.000 C 
BRANCH  13  14
ATOM     14  C   UNL     1      22.436  34.838  13.021  1.00  0.00    -0.000 C 
BRANCH  14  15
ATOM     15  C   UNL     1      22.515  33.632  13.971  1.00  0.00    -0.003 C 
ATOM     16  C   UNL     1      21.569  33.756  15.166  1.00  0.00     0.004 C 
ENDBRANCH  14  15
ENDBRANCH  13  14
ENDBRANCH  12  13
ENDBRANCH  11  12
ENDBRANCH  10  11
ENDBRANCH   1  10
TORSDOF 12
ENDMDL
MODEL 5
REMARK VINA RESULT:    -3.416      1.041      2.602
REMARK INTER + INTRA:          -7.576
REMARK INTER:                  -5.933
REMARK INTRA:                  -1.643
REMARK UNBOUND:                -1.763
REMARK SMILES CCCCCCCCCCCCCC(=O)[O-]
REMARK SMILES IDX 8 1 9 2 10 3 11 4 12 5 13 6 14 7 15 8 16 9 7 10 6 11 5 12
REMARK SMILES IDX 4 13 3 14 2 15 1 16
REMARK H PARENT
REMARK Flexibility Score: inf
ROOT
ATOM      1  C   UNL     1      23.273  33.083  14.197  1.00  0.00     0.000 C 
ENDROOT
BRANCH   1   2
ATOM      2  C   UNL     1      22.158  33.856  14.924  1.00  0.00     0.000 C 
BRANCH   2   3
ATOM      3  C   UNL     1      22.083  35.328  14.486  1.00  0.00     0.000 C 
BRANCH   3   4
ATOM      4  C   UNL     1      23.212  35.719  13.518  1.00  0.00     0.000 C 
BRANCH   4   5
ATOM      5  C   UNL     1      24.303  36.580  14.179  1.00  0.00     0.006 C 
BRANCH   5   6
ATOM      6  C   UNL     1      23.753  37.757  15.004  1.00  0.00     0.053 C 
BRANCH   6   7
ATOM      7  C   UNL     1      24.217  39.085  14.491  1.00  0.00     0.041 C 
ATOM      8  O   UNL     1      23.861  39.483  13.350  1.00  0.00    -0.550 OA
ATOM      9  O   UNL     1      25.013  39.902  15.285  1.00  0.00    -0.550 OA
ENDBRANCH   6   7
ENDBRANCH   5   6
ENDBRANCH   4   5
ENDBRANCH   3   4
ENDBRANCH   2   3
ENDBRANCH   1   2
BRANCH   1  10
ATOM     10  C   UNL     1      24.390  32.626  15.150  1.00  0.00     0.000 C 
BRANCH  10  11
ATOM     11  C   UNL     1      25.714  32.346  14.415  1.00  0.00    -0.000 C 
BRANCH  11  12
ATOM     12  C   UNL     1      26.280  33.590  13.707  1.00  0.00    -0.000 C 
BRANCH  12  13
ATOM     13  C   UNL     1      26.304  33.516  12.169  1.00  0.00    -0.000 C 
BRANCH  13  14
ATOM     14  C   UNL     1      25.870  32.142  11.628  1.00  0.00    -0.000 C 
BRANCH  14  15
ATOM     15  C   UNL     1      24.758  32.251  10.572  1.00  0.00    -0.003 C 
ATOM     16  C   UNL     1      24.020  33.588  10.624  1.00  0.00     0.004 C 
ENDBRANCH  14  15
ENDBRANCH  13  14
ENDBRANCH  12  13
ENDBRANCH  11  12
ENDBRANCH  10  11
ENDBRANCH   1  10
TORSDOF 12
ENDMDL
MODEL 6
REMARK VINA RESULT:    -3.165      2.268      4.670
REMARK INTER + INTRA:          -7.149
REMARK INTER:                  -5.469
REMARK INTRA:                  -1.680
REMARK UNBOUND:                -1.763
REMARK SMILES CCCCCCCCCCCCCC(=O)[O-]
REMARK SMILES IDX 8 1 9 2 10 3 11 4 12 5 13 6 14 7 15 8 16 9 7 10 6 11 5 12
REMARK SMILES IDX 4 13 3 14 2 15 1 16
REMARK H PARENT
REMARK Flexibility Score: inf
ROOT
ATOM      1  C   UNL     1      26.191  33.874  11.491  1.00  0.00     0.000 C 
ENDROOT
BRANCH   1   2
ATOM      2  C   UNL     1      25.517  32.493  11.585  1.00  0.00     0.000 C 
BRANCH   2   3
ATOM      3  C   UNL     1      23.983  32.584  11.551  1.00  0.00     0.000 C 
BRANCH   3   4
ATOM      4  C   UNL     1      23.479  34.005  11.246  1.00  0.00     0.000 C 
BRANCH   4   5
ATOM      5  C   UNL     1      22.657  34.614  12.397  1.00  0.00     0.006 C 
BRANCH   5   6
ATOM      6  C   UNL     1      22.575  33.718  13.646  1.00  0.00     0.053 C 
BRANCH   6   7
ATOM      7  C   UNL     1      21.748  34.327  14.736  1.00  0.00     0.041 C 
ATOM      8  O   UNL     1      21.369  35.525  14.651  1.00  0.00    -0.550 OA
ATOM      9  O   UNL     1      21.366  33.563  15.832  1.00  0.00    -0.550 OA
ENDBRANCH   6   7
ENDBRANCH   5   6
ENDBRANCH   4   5
ENDBRANCH   3   4
ENDBRANCH   2   3
ENDBRANCH   1   2
BRANCH   1  10
ATOM     10  C   UNL     1      26.930  34.258  12.784  1.00  0.00     0.000 C 
BRANCH  10  11
ATOM     11  C   UNL     1      26.222  33.730  14.045  1.00  0.00    -0.000 C 
BRANCH  11  12
ATOM     12  C   UNL     1      25.853  34.849  15.036  1.00  0.00    -0.000 C 
BRANCH  12  13
ATOM     13  C   UNL     1      25.193  36.091  14.409  1.00  0.00    -0.000 C 
BRANCH  13  14
ATOM     14  C   UNL     1      24.394  36.924  15.427  1.00  0.00    -0.000 C 
BRANCH  14  15
ATOM     15  C   UNL     1      23.751  38.168  14.792  1.00  0.00    -0.003 C 
ATOM     16  C   UNL     1      24.456  38.612  13.511  1.00  0.00     0.004 C 
ENDBRANCH  14  15
ENDBRANCH  13  14
ENDBRANCH  12  13
ENDBRANCH  11  12
ENDBRANCH  10  11
ENDBRANCH   1  10
TORSDOF 12
ENDMDL
MODEL 7
REMARK VINA RESULT:    -3.141      2.623      5.271
REMARK INTER + INTRA:          -7.107
REMARK INTER:                  -5.945
REMARK INTRA:                  -1.162
REMARK UNBOUND:                -1.763
REMARK SMILES CCCCCCCCCCCCCC(=O)[O-]
REMARK SMILES IDX 8 1 9 2 10 3 11 4 12 5 13 6 14 7 15 8 16 9 7 10 6 11 5 12
REMARK SMILES IDX 4 13 3 14 2 15 1 16
REMARK H PARENT
REMARK Flexibility Score: inf
ROOT
ATOM      1  C   UNL     1      21.821  34.976  14.478  1.00  0.00     0.000 C 
ENDROOT
BRANCH   1   2
ATOM      2  C   UNL     1      22.610  34.208  13.402  1.00  0.00     0.000 C 
BRANCH   2   3
ATOM      3  C   UNL     1      22.806  35.030  12.118  1.00  0.00     0.000 C 
BRANCH   3   4
ATOM      4  C   UNL     1      23.157  34.156  10.901  1.00  0.00     0.000 C 
BRANCH   4   5
ATOM      5  C   UNL     1      23.984  32.912  11.270  1.00  0.00     0.006 C 
BRANCH   5   6
ATOM      6  C   UNL     1      25.485  33.046  10.960  1.00  0.00     0.053 C 
BRANCH   6   7
ATOM      7  C   UNL     1      26.295  33.386  12.173  1.00  0.00     0.041 C 
ATOM      8  O   UNL     1      26.028  32.852  13.283  1.00  0.00    -0.550 OA
ATOM      9  O   UNL     1      27.367  34.264  12.075  1.00  0.00    -0.550 OA
ENDBRANCH   6   7
ENDBRANCH   5   6
ENDBRANCH   4   5
ENDBRANCH   3   4
ENDBRANCH   2   3
ENDBRANCH   1   2
BRANCH   1  10
ATOM     10  C   UNL     1      22.535  34.981  15.840  1.00  0.00     0.000 C 
BRANCH  10  11
ATOM     11  C   UNL     1      24.016  34.577  15.730  1.00  0.00    -0.000 C 
BRANCH  11  12
ATOM     12  C   UNL     1      24.972  35.781  15.803  1.00  0.00    -0.000 C 
BRANCH  12  13
ATOM     13  C   UNL     1      24.322  37.153  15.541  1.00  0.00    -0.000 C 
BRANCH  13  14
ATOM     14  C   UNL     1      24.391  37.576  14.063  1.00  0.00    -0.000 C 
BRANCH  14  15
ATOM     15  C   UNL     1      24.638  39.084  13.895  1.00  0.00    -0.003 C 
ATOM     16  C   UNL     1      24.893  39.796  15.224  1.00  0.00     0.004 C 
ENDBRANCH  14  15
ENDBRANCH  13  14
ENDBRANCH  12  13
ENDBRANCH  11  12
ENDBRANCH  10  11
ENDBRANCH   1  10
TORSDOF 12
ENDMDL
MODEL 8
REMARK VINA RESULT:    -3.095      2.098      5.360
REMARK INTER + INTRA:          -7.029
REMARK INTER:                  -5.856
REMARK INTRA:                  -1.174
REMARK UNBOUND:                -1.763
REMARK SMILES CCCCCCCCCCCCCC(=O)[O-]
REMARK SMILES IDX 8 1 9 2 10 3 11 4 12 5 13 6 14 7 15 8 16 9 7 10 6 11 5 12
REMARK SMILES IDX 4 13 3 14 2 15 1 16
REMARK H PARENT
REMARK Flexibility Score: inf
ROOT
ATOM      1  C   UNL     1      26.323  34.870  13.380  1.00  0.00     0.000 C 
ENDROOT
BRANCH   1   2
ATOM      2  C   UNL     1      27.037  33.773  12.569  1.00  0.00     0.000 C 
BRANCH   2   3
ATOM      3  C   UNL     1      26.320  32.417  12.656  1.00  0.00     0.000 C 
BRANCH   3   4
ATOM      4  C   UNL     1      25.773  31.946  11.297  1.00  0.00     0.000 C 
BRANCH   4   5
ATOM      5  C   UNL     1      24.678  32.870  10.735  1.00  0.00     0.006 C 
BRANCH   5   6
ATOM      6  C   UNL     1      23.525  33.141  11.718  1.00  0.00     0.053 C 
BRANCH   6   7
ATOM      7  C   UNL     1      23.017  34.547  11.635  1.00  0.00     0.041 C 
ATOM      8  O   UNL     1      22.645  35.022  10.529  1.00  0.00    -0.550 OA
ATOM      9  O   UNL     1      22.920  35.324  12.783  1.00  0.00    -0.550 OA
ENDBRANCH   6   7
ENDBRANCH   5   6
ENDBRANCH   4   5
ENDBRANCH   3   4
ENDBRANCH   2   3
ENDBRANCH   1   2
BRANCH   1  10
ATOM     10  C   UNL     1      26.294  34.562  14.887  1.00  0.00     0.000 C 
BRANCH  10  11
ATOM     11  C   UNL     1      24.917  34.065  15.361  1.00  0.00    -0.000 C 
BRANCH  11  12
ATOM     12  C   UNL     1      24.122  35.139  16.125  1.00  0.00    -0.000 C 
BRANCH  12  13
ATOM     13  C   UNL     1      24.702  36.564  16.048  1.00  0.00    -0.000 C 
BRANCH  13  14
ATOM     14  C   UNL     1      23.816  37.529  15.241  1.00  0.00    -0.000 C 
BRANCH  14  15
ATOM     15  C   UNL     1      24.540  38.103  14.012  1.00  0.00    -0.003 C 
ATOM     16  C   UNL     1      23.943  39.427  13.537  1.00  0.00     0.004 C 
ENDBRANCH  14  15
ENDBRANCH  13  14
ENDBRANCH  12  13
ENDBRANCH  11  12
ENDBRANCH  10  11
ENDBRANCH   1  10
TORSDOF 12
ENDMDL
MODEL 9
REMARK VINA RESULT:    -3.023      3.284      4.863
REMARK INTER + INTRA:          -6.906
REMARK INTER:                  -4.903
REMARK INTRA:                  -2.003
REMARK UNBOUND:                -1.763
REMARK SMILES CCCCCCCCCCCCCC(=O)[O-]
REMARK SMILES IDX 8 1 9 2 10 3 11 4 12 5 13 6 14 7 15 8 16 9 7 10 6 11 5 12
REMARK SMILES IDX 4 13 3 14 2 15 1 16
REMARK H PARENT
REMARK Flexibility Score: inf
ROOT
ATOM      1  C   UNL     1      24.764  36.225  15.492  1.00  0.00     0.000 C 
ENDROOT
BRANCH   1   2
ATOM      2  C   UNL     1      24.044  36.240  14.132  1.00  0.00     0.000 C 
BRANCH   2   3
ATOM      3  C   UNL     1      22.603  35.715  14.224  1.00  0.00     0.000 C 
BRANCH   3   4
ATOM      4  C   UNL     1      22.365  34.475  13.345  1.00  0.00     0.000 C 
BRANCH   4   5
ATOM      5  C   UNL     1      22.849  33.169  13.999  1.00  0.00     0.006 C 
BRANCH   5   6
ATOM      6  C   UNL     1      22.410  33.006  15.465  1.00  0.00     0.053 C 
BRANCH   6   7
ATOM      7  C   UNL     1      21.066  32.357  15.594  1.00  0.00     0.041 C 
ATOM      8  O   UNL     1      20.938  31.120  15.397  1.00  0.00    -0.550 OA
ATOM      9  O   UNL     1      19.959  33.111  15.966  1.00  0.00    -0.550 OA
ENDBRANCH   6   7
ENDBRANCH   5   6
ENDBRANCH   4   5
ENDBRANCH   3   4
ENDBRANCH   2   3
ENDBRANCH   1   2
BRANCH   1  10
ATOM     10  C   UNL     1      25.675  34.999  15.663  1.00  0.00     0.000 C 
BRANCH  10  11
ATOM     11  C   UNL     1      26.327  34.560  14.339  1.00  0.00    -0.000 C 
BRANCH  11  12
ATOM     12  C   UNL     1      26.301  33.035  14.135  1.00  0.00    -0.000 C 
BRANCH  12  13
ATOM     13  C   UNL     1      26.365  32.567  12.669  1.00  0.00    -0.000 C 
BRANCH  13  14
ATOM     14  C   UNL     1      25.939  33.660  11.672  1.00  0.00    -0.000 C 
BRANCH  14  15
ATOM     15  C   UNL     1      24.748  33.229  10.801  1.00  0.00    -0.003 C 
ATOM     16  C   UNL     1      24.496  31.721  10.845  1.00  0.00     0.004 C 
ENDBRANCH  14  15
ENDBRANCH  13  14
ENDBRANCH  12  13
ENDBRANCH  11  12
ENDBRANCH  10  11
ENDBRANCH   1  10
TORSDOF 12
ENDMDL
