MODEL 1
REMARK VINA RESULT:    34.970      0.000      0.000
REMARK INTER + INTRA:          42.841
REMARK INTER:                  43.148
REMARK INTRA:                  -0.306
REMARK UNBOUND:                -0.306
REMARK SMILES Oc1cc(O)c2cc(O)c(-c3cc(O)c(O)c(O)c3)[o+]c2c1
REMARK SMILES IDX 10 1 20 2 21 3 22 4 2 5 3 6 4 7 6 8 7 9 8 10 11 11 12 12
REMARK SMILES IDX 13 13 19 14 15 15 17 16 14 17 16 19 18 21 9 23 1 25 5 27
REMARK H PARENT 14 18 16 20 18 22 9 24 1 26 5 28
REMARK Flexibility Score: inf
ROOT
ATOM      1  C   UNL     1     -22.946  28.159  -7.273  1.00  0.00     0.402 A 
ATOM      2  O   UNL     1     -22.611  29.403  -7.603  1.00  0.00    -0.202 OA
ATOM      3  C   UNL     1     -23.468  30.279  -8.117  1.00  0.00     0.368 A 
ATOM      4  C   UNL     1     -23.018  31.564  -8.434  1.00  0.00     0.162 A 
ATOM      5  C   UNL     1     -23.895  32.502  -8.979  1.00  0.00     0.128 A 
ATOM      6  C   UNL     1     -25.231  32.157  -9.208  1.00  0.00     0.093 A 
ATOM      7  C   UNL     1     -25.706  30.876  -8.899  1.00  0.00     0.136 A 
ATOM      8  C   UNL     1     -24.818  29.920  -8.343  1.00  0.00     0.125 A 
ATOM      9  C   UNL     1     -25.208  28.617  -7.990  1.00  0.00     0.078 A 
ATOM     10  C   UNL     1     -24.277  27.730  -7.442  1.00  0.00     0.223 A 
ENDROOT
BRANCH   1  11
ATOM     11  C   UNL     1     -21.898  27.274  -6.716  1.00  0.00     0.091 A 
ATOM     12  C   UNL     1     -21.886  26.998  -5.341  1.00  0.00     0.068 A 
ATOM     13  C   UNL     1     -20.898  26.182  -4.778  1.00  0.00     0.162 A 
ATOM     14  C   UNL     1     -20.879  26.750  -7.526  1.00  0.00     0.068 A 
ATOM     15  C   UNL     1     -19.887  25.638  -5.604  1.00  0.00     0.200 A 
ATOM     16  C   UNL     1     -19.883  25.932  -6.975  1.00  0.00     0.162 A 
BRANCH  13  17
ATOM     17  O   UNL     1     -20.959  25.943  -3.403  1.00  0.00    -0.504 OA
ATOM     18  H   UNL     1     -21.804  26.012  -2.855  1.00  0.00     0.293 HD
ENDBRANCH  13  17
BRANCH  15  19
ATOM     19  O   UNL     1     -18.875  24.812  -5.108  1.00  0.00    -0.502 OA
ATOM     20  H   UNL     1     -18.776  24.562  -4.135  1.00  0.00     0.293 HD
ENDBRANCH  15  19
BRANCH  16  21
ATOM     21  O   UNL     1     -18.878  25.410  -7.788  1.00  0.00    -0.504 OA
ATOM     22  H   UNL     1     -18.700  24.413  -7.841  1.00  0.00     0.293 HD
ENDBRANCH  16  21
ENDBRANCH   1  11
BRANCH  10  23
ATOM     23  O   UNL     1     -24.675  26.453  -7.044  1.00  0.00    -0.500 OA
ATOM     24  H   UNL     1     -25.087  26.284  -6.134  1.00  0.00     0.294 HD
ENDBRANCH  10  23
BRANCH   5  25
ATOM     25  O   UNL     1     -23.428  33.778  -9.289  1.00  0.00    -0.507 OA
ATOM     26  H   UNL     1     -22.815  34.286  -8.661  1.00  0.00     0.293 HD
ENDBRANCH   5  25
BRANCH   7  27
ATOM     27  O   UNL     1     -27.053  30.608  -9.162  1.00  0.00    -0.507 OA
ATOM     28  H   UNL     1     -27.807  31.257  -8.994  1.00  0.00     0.293 HD
ENDBRANCH   7  27
TORSDOF 7
ENDMDL
MODEL 2
REMARK VINA RESULT:    36.729      1.129      2.528
REMARK INTER + INTRA:          45.011
REMARK INTER:                  44.979
REMARK INTRA:                   0.032
REMARK UNBOUND:                -0.306
REMARK SMILES Oc1cc(O)c2cc(O)c(-c3cc(O)c(O)c(O)c3)[o+]c2c1
REMARK SMILES IDX 10 1 20 2 21 3 22 4 2 5 3 6 4 7 6 8 7 9 8 10 11 11 12 12
REMARK SMILES IDX 13 13 19 14 15 15 17 16 14 17 16 19 18 21 9 23 1 25 5 27
REMARK H PARENT 14 18 16 20 18 22 9 24 1 26 5 28
REMARK Flexibility Score: inf
ROOT
ATOM      1  C   UNL     1     -22.574  28.598  -7.347  1.00  0.00     0.402 A 
ATOM      2  O   UNL     1     -23.884  28.537  -7.125  1.00  0.00    -0.202 OA
ATOM      3  C   UNL     1     -24.747  29.435  -7.590  1.00  0.00     0.368 A 
ATOM      4  C   UNL     1     -26.106  29.286  -7.300  1.00  0.00     0.162 A 
ATOM      5  C   UNL     1     -27.032  30.216  -7.770  1.00  0.00     0.128 A 
ATOM      6  C   UNL     1     -26.601  31.303  -8.537  1.00  0.00     0.093 A 
ATOM      7  C   UNL     1     -25.245  31.476  -8.841  1.00  0.00     0.136 A 
ATOM      8  C   UNL     1     -24.299  30.531  -8.365  1.00  0.00     0.125 A 
ATOM      9  C   UNL     1     -22.922  30.615  -8.631  1.00  0.00     0.078 A 
ATOM     10  C   UNL     1     -22.051  29.643  -8.132  1.00  0.00     0.223 A 
ENDROOT
BRANCH   1  11
ATOM     11  C   UNL     1     -21.715  27.541  -6.768  1.00  0.00     0.091 A 
ATOM     12  C   UNL     1     -21.879  27.176  -5.424  1.00  0.00     0.068 A 
ATOM     13  C   UNL     1     -21.070  26.195  -4.839  1.00  0.00     0.162 A 
ATOM     14  C   UNL     1     -20.697  26.934  -7.520  1.00  0.00     0.068 A 
ATOM     15  C   UNL     1     -20.061  25.571  -5.609  1.00  0.00     0.200 A 
ATOM     16  C   UNL     1     -19.879  25.951  -6.946  1.00  0.00     0.162 A 
BRANCH  13  17
ATOM     17  O   UNL     1     -21.302  25.877  -3.498  1.00  0.00    -0.504 OA
ATOM     18  H   UNL     1     -21.070  26.483  -2.725  1.00  0.00     0.293 HD
ENDBRANCH  13  17
BRANCH  15  19
ATOM     19  O   UNL     1     -19.224  24.581  -5.089  1.00  0.00    -0.502 OA
ATOM     20  H   UNL     1     -19.068  24.433  -4.102  1.00  0.00     0.293 HD
ENDBRANCH  15  19
BRANCH  16  21
ATOM     21  O   UNL     1     -18.875  25.348  -7.702  1.00  0.00    -0.504 OA
ATOM     22  H   UNL     1     -18.838  25.443  -8.711  1.00  0.00     0.293 HD
ENDBRANCH  16  21
ENDBRANCH   1  11
BRANCH  10  23
ATOM     23  O   UNL     1     -20.690  29.698  -8.438  1.00  0.00    -0.500 OA
ATOM     24  H   UNL     1     -20.211  30.580  -8.574  1.00  0.00     0.294 HD
ENDBRANCH  10  23
BRANCH   5  25
ATOM     25  O   UNL     1     -28.383  30.050  -7.472  1.00  0.00    -0.507 OA
ATOM     26  H   UNL     1     -28.696  29.363  -6.796  1.00  0.00     0.293 HD
ENDBRANCH   5  25
BRANCH   7  27
ATOM     27  O   UNL     1     -24.893  32.590  -9.609  1.00  0.00    -0.507 OA
ATOM     28  H   UNL     1     -25.469  33.412  -9.718  1.00  0.00     0.293 HD
ENDBRANCH   7  27
TORSDOF 7
ENDMDL
MODEL 3
REMARK VINA RESULT:    37.357      1.644      7.419
REMARK INTER + INTRA:          45.786
REMARK INTER:                  46.158
REMARK INTRA:                  -0.372
REMARK UNBOUND:                -0.306
REMARK SMILES Oc1cc(O)c2cc(O)c(-c3cc(O)c(O)c(O)c3)[o+]c2c1
REMARK SMILES IDX 10 1 20 2 21 3 22 4 2 5 3 6 4 7 6 8 7 9 8 10 11 11 12 12
REMARK SMILES IDX 13 13 19 14 15 15 17 16 14 17 16 19 18 21 9 23 1 25 5 27
REMARK H PARENT 14 18 16 20 18 22 9 24 1 26 5 28
REMARK Flexibility Score: inf
ROOT
ATOM      1  C   UNL     1     -22.038  27.408  -6.659  1.00  0.00     0.402 A 
ATOM      2  O   UNL     1     -21.542  26.416  -7.393  1.00  0.00    -0.202 OA
ATOM      3  C   UNL     1     -20.694  25.510  -6.919  1.00  0.00     0.368 A 
ATOM      4  C   UNL     1     -20.225  24.506  -7.770  1.00  0.00     0.162 A 
ATOM      5  C   UNL     1     -19.331  23.544  -7.301  1.00  0.00     0.128 A 
ATOM      6  C   UNL     1     -18.901  23.583  -5.970  1.00  0.00     0.093 A 
ATOM      7  C   UNL     1     -19.355  24.579  -5.096  1.00  0.00     0.136 A 
ATOM      8  C   UNL     1     -20.266  25.558  -5.571  1.00  0.00     0.125 A 
ATOM      9  C   UNL     1     -20.785  26.585  -4.765  1.00  0.00     0.078 A 
ATOM     10  C   UNL     1     -21.683  27.512  -5.301  1.00  0.00     0.223 A 
ENDROOT
BRANCH   1  11
ATOM     11  C   UNL     1     -22.969  28.361  -7.305  1.00  0.00     0.091 A 
ATOM     12  C   UNL     1     -22.481  29.583  -7.790  1.00  0.00     0.068 A 
ATOM     13  C   UNL     1     -23.336  30.516  -8.388  1.00  0.00     0.162 A 
ATOM     14  C   UNL     1     -24.344  28.094  -7.392  1.00  0.00     0.068 A 
ATOM     15  C   UNL     1     -24.717  30.230  -8.493  1.00  0.00     0.200 A 
ATOM     16  C   UNL     1     -25.212  29.019  -7.988  1.00  0.00     0.162 A 
BRANCH  13  17
ATOM     17  O   UNL     1     -22.773  31.705  -8.857  1.00  0.00    -0.504 OA
ATOM     18  H   UNL     1     -23.301  32.546  -9.039  1.00  0.00     0.293 HD
ENDBRANCH  13  17
BRANCH  15  19
ATOM     19  O   UNL     1     -25.625  31.113  -9.082  1.00  0.00    -0.502 OA
ATOM     20  H   UNL     1     -26.618  30.943  -9.150  1.00  0.00     0.293 HD
ENDBRANCH  15  19
BRANCH  16  21
ATOM     21  O   UNL     1     -26.575  28.742  -8.076  1.00  0.00    -0.504 OA
ATOM     22  H   UNL     1     -27.276  29.443  -7.862  1.00  0.00     0.293 HD
ENDBRANCH  16  21
ENDBRANCH   1  11
BRANCH  10  23
ATOM     23  O   UNL     1     -22.238  28.502  -4.488  1.00  0.00    -0.500 OA
ATOM     24  H   UNL     1     -22.112  29.487  -4.689  1.00  0.00     0.294 HD
ENDBRANCH  10  23
BRANCH   5  25
ATOM     25  O   UNL     1     -18.875  22.550  -8.165  1.00  0.00    -0.507 OA
ATOM     26  H   UNL     1     -17.885  22.393  -8.317  1.00  0.00     0.293 HD
ENDBRANCH   5  25
BRANCH   7  27
ATOM     27  O   UNL     1     -18.875  24.552  -3.784  1.00  0.00    -0.507 OA
ATOM     28  H   UNL     1     -18.659  23.709  -3.272  1.00  0.00     0.293 HD
ENDBRANCH   7  27
TORSDOF 7
ENDMDL
MODEL 4
REMARK VINA RESULT:    37.457      1.140      3.109
REMARK INTER + INTRA:          45.909
REMARK INTER:                  45.856
REMARK INTRA:                   0.053
REMARK UNBOUND:                -0.306
REMARK SMILES Oc1cc(O)c2cc(O)c(-c3cc(O)c(O)c(O)c3)[o+]c2c1
REMARK SMILES IDX 10 1 20 2 21 3 22 4 2 5 3 6 4 7 6 8 7 9 8 10 11 11 12 12
REMARK SMILES IDX 13 13 19 14 15 15 17 16 14 17 16 19 18 21 9 23 1 25 5 27
REMARK H PARENT 14 18 16 20 18 22 9 24 1 26 5 28
REMARK Flexibility Score: inf
ROOT
ATOM      1  C   UNL     1     -22.545  28.620  -7.315  1.00  0.00     0.402 A 
ATOM      2  O   UNL     1     -23.853  28.542  -7.086  1.00  0.00    -0.202 OA
ATOM      3  C   UNL     1     -24.731  29.420  -7.560  1.00  0.00     0.368 A 
ATOM      4  C   UNL     1     -26.086  29.254  -7.261  1.00  0.00     0.162 A 
ATOM      5  C   UNL     1     -27.029  30.162  -7.742  1.00  0.00     0.128 A 
ATOM      6  C   UNL     1     -26.618  31.244  -8.528  1.00  0.00     0.093 A 
ATOM      7  C   UNL     1     -25.266  31.432  -8.841  1.00  0.00     0.136 A 
ATOM      8  C   UNL     1     -24.304  30.510  -8.355  1.00  0.00     0.125 A 
ATOM      9  C   UNL     1     -22.930  30.611  -8.629  1.00  0.00     0.078 A 
ATOM     10  C   UNL     1     -22.041  29.660  -8.119  1.00  0.00     0.223 A 
ENDROOT
BRANCH   1  11
ATOM     11  C   UNL     1     -21.666  27.585  -6.724  1.00  0.00     0.091 A 
ATOM     12  C   UNL     1     -20.679  26.983  -7.516  1.00  0.00     0.068 A 
ATOM     13  C   UNL     1     -19.844  25.987  -6.996  1.00  0.00     0.162 A 
ATOM     14  C   UNL     1     -21.839  27.149  -5.401  1.00  0.00     0.068 A 
ATOM     15  C   UNL     1     -20.008  25.569  -5.655  1.00  0.00     0.200 A 
ATOM     16  C   UNL     1     -21.011  26.153  -4.867  1.00  0.00     0.162 A 
BRANCH  13  17
ATOM     17  O   UNL     1     -18.875  25.443  -7.843  1.00  0.00    -0.504 OA
ATOM     18  H   UNL     1     -19.055  24.703  -8.505  1.00  0.00     0.293 HD
ENDBRANCH  13  17
BRANCH  15  19
ATOM     19  O   UNL     1     -19.206  24.585  -5.071  1.00  0.00    -0.502 OA
ATOM     20  H   UNL     1     -19.543  23.900  -4.410  1.00  0.00     0.293 HD
ENDBRANCH  15  19
BRANCH  16  21
ATOM     21  O   UNL     1     -21.184  25.731  -3.550  1.00  0.00    -0.504 OA
ATOM     22  H   UNL     1     -20.929  26.319  -2.765  1.00  0.00     0.293 HD
ENDBRANCH  16  21
ENDBRANCH   1  11
BRANCH  10  23
ATOM     23  O   UNL     1     -20.683  29.731  -8.433  1.00  0.00    -0.500 OA
ATOM     24  H   UNL     1     -20.331  30.380  -9.127  1.00  0.00     0.294 HD
ENDBRANCH  10  23
BRANCH   5  25
ATOM     25  O   UNL     1     -28.376  29.980  -7.434  1.00  0.00    -0.507 OA
ATOM     26  H   UNL     1     -28.870  29.133  -7.693  1.00  0.00     0.293 HD
ENDBRANCH   5  25
BRANCH   7  27
ATOM     27  O   UNL     1     -24.935  32.540  -9.628  1.00  0.00    -0.507 OA
ATOM     28  H   UNL     1     -25.125  32.614 -10.616  1.00  0.00     0.293 HD
ENDBRANCH   7  27
TORSDOF 7
ENDMDL
