MODEL 1
REMARK VINA RESULT:    -3.848      0.000      0.000
REMARK INTER + INTRA:         -10.217
REMARK INTER:                  -7.446
REMARK INTRA:                  -2.771
REMARK UNBOUND:                -2.771
REMARK SMILES CCCCCCCCCCCCCCCCCC(=O)[O-]
REMARK SMILES IDX 10 1 11 2 12 3 13 4 14 5 15 6 16 7 17 8 18 9 19 10 20 11
REMARK SMILES IDX 9 12 8 13 7 14 6 15 5 16 4 17 3 18 2 19 1 20
REMARK H PARENT
REMARK Flexibility Score: inf
ROOT
ATOM      1  C   UNL     1       0.609  19.395  29.963  1.00  0.00     0.000 C 
ENDROOT
BRANCH   1   2
ATOM      2  C   UNL     1       1.024  18.897  31.360  1.00  0.00     0.000 C 
BRANCH   2   3
ATOM      3  C   UNL     1       2.084  17.776  31.367  1.00  0.00     0.000 C 
BRANCH   3   4
ATOM      4  C   UNL     1       1.523  16.348  31.495  1.00  0.00     0.000 C 
BRANCH   4   5
ATOM      5  C   UNL     1       2.426  15.291  30.844  1.00  0.00     0.000 C 
BRANCH   5   6
ATOM      6  C   UNL     1       1.725  13.925  30.796  1.00  0.00     0.000 C 
BRANCH   6   7
ATOM      7  C   UNL     1       0.238  14.007  31.171  1.00  0.00     0.006 C 
BRANCH   7   8
ATOM      8  C   UNL     1      -0.643  13.096  30.305  1.00  0.00     0.053 C 
BRANCH   8   9
ATOM      9  C   UNL     1      -1.347  12.087  31.155  1.00  0.00     0.041 C 
ATOM     10  O   UNL     1      -2.429  12.386  31.726  1.00  0.00    -0.550 OA
ATOM     11  O   UNL     1      -0.786  10.832  31.355  1.00  0.00    -0.550 OA
ENDBRANCH   8   9
ENDBRANCH   7   8
ENDBRANCH   6   7
ENDBRANCH   5   6
ENDBRANCH   4   5
ENDBRANCH   3   4
ENDBRANCH   2   3
ENDBRANCH   1   2
BRANCH   1  12
ATOM     12  C   UNL     1      -0.744  18.830  29.505  1.00  0.00     0.000 C 
BRANCH  12  13
ATOM     13  C   UNL     1      -0.563  17.489  28.785  1.00  0.00    -0.000 C 
BRANCH  13  14
ATOM     14  C   UNL     1       0.464  17.610  27.647  1.00  0.00    -0.000 C 
BRANCH  14  15
ATOM     15  C   UNL     1       1.440  16.424  27.609  1.00  0.00    -0.000 C 
BRANCH  15  16
ATOM     16  C   UNL     1       2.908  16.871  27.511  1.00  0.00    -0.000 C 
BRANCH  16  17
ATOM     17  C   UNL     1       3.064  18.399  27.666  1.00  0.00    -0.000 C 
BRANCH  17  18
ATOM     18  C   UNL     1       4.251  18.813  28.557  1.00  0.00    -0.000 C 
BRANCH  18  19
ATOM     19  C   UNL     1       4.193  20.262  29.069  1.00  0.00    -0.003 C 
ATOM     20  C   UNL     1       4.581  20.386  30.542  1.00  0.00     0.004 C 
ENDBRANCH  18  19
ENDBRANCH  17  18
ENDBRANCH  16  17
ENDBRANCH  15  16
ENDBRANCH  14  15
ENDBRANCH  13  14
ENDBRANCH  12  13
ENDBRANCH   1  12
TORSDOF 16
ENDMDL
MODEL 2
REMARK VINA RESULT:    -3.811      2.320      3.961
REMARK INTER + INTRA:         -10.145
REMARK INTER:                  -8.381
REMARK INTRA:                  -1.764
REMARK UNBOUND:                -2.771
REMARK SMILES CCCCCCCCCCCCCCCCCC(=O)[O-]
REMARK SMILES IDX 10 1 11 2 12 3 13 4 14 5 15 6 16 7 17 8 18 9 19 10 20 11
REMARK SMILES IDX 9 12 8 13 7 14 6 15 5 16 4 17 3 18 2 19 1 20
REMARK H PARENT
REMARK Flexibility Score: inf
ROOT
ATOM      1  C   UNL     1      -1.453  19.257  29.526  1.00  0.00     0.000 C 
ENDROOT
BRANCH   1   2
ATOM      2  C   UNL     1      -1.188  17.848  28.965  1.00  0.00     0.000 C 
BRANCH   2   3
ATOM      3  C   UNL     1       0.047  17.731  28.048  1.00  0.00     0.000 C 
BRANCH   3   4
ATOM      4  C   UNL     1       1.053  16.636  28.446  1.00  0.00     0.000 C 
BRANCH   4   5
ATOM      5  C   UNL     1       1.093  16.384  29.960  1.00  0.00     0.000 C 
BRANCH   5   6
ATOM      6  C   UNL     1       1.196  14.882  30.264  1.00  0.00     0.000 C 
BRANCH   6   7
ATOM      7  C   UNL     1       1.801  14.081  29.102  1.00  0.00     0.006 C 
BRANCH   7   8
ATOM      8  C   UNL     1       2.340  12.713  29.541  1.00  0.00     0.053 C 
BRANCH   8   9
ATOM      9  C   UNL     1       1.245  11.694  29.540  1.00  0.00     0.041 C 
ATOM     10  O   UNL     1       0.669  11.386  28.463  1.00  0.00    -0.550 OA
ATOM     11  O   UNL     1       0.828  11.118  30.733  1.00  0.00    -0.550 OA
ENDBRANCH   8   9
ENDBRANCH   7   8
ENDBRANCH   6   7
ENDBRANCH   5   6
ENDBRANCH   4   5
ENDBRANCH   3   4
ENDBRANCH   2   3
ENDBRANCH   1   2
BRANCH   1  12
ATOM     12  C   UNL     1      -2.933  19.660  29.456  1.00  0.00     0.000 C 
BRANCH  12  13
ATOM     13  C   UNL     1      -3.125  21.122  29.874  1.00  0.00    -0.000 C 
BRANCH  13  14
ATOM     14  C   UNL     1      -1.951  21.603  30.744  1.00  0.00    -0.000 C 
BRANCH  14  15
ATOM     15  C   UNL     1      -1.399  22.961  30.285  1.00  0.00    -0.000 C 
BRANCH  15  16
ATOM     16  C   UNL     1       0.118  22.926  30.032  1.00  0.00    -0.000 C 
BRANCH  16  17
ATOM     17  C   UNL     1       0.819  21.816  30.845  1.00  0.00    -0.000 C 
BRANCH  17  18
ATOM     18  C   UNL     1       2.195  21.414  30.282  1.00  0.00    -0.000 C 
BRANCH  18  19
ATOM     19  C   UNL     1       2.325  19.927  29.909  1.00  0.00    -0.003 C 
ATOM     20  C   UNL     1       3.210  19.698  28.685  1.00  0.00     0.004 C 
ENDBRANCH  18  19
ENDBRANCH  17  18
ENDBRANCH  16  17
ENDBRANCH  15  16
ENDBRANCH  14  15
ENDBRANCH  13  14
ENDBRANCH  12  13
ENDBRANCH   1  12
TORSDOF 16
ENDMDL
MODEL 3
REMARK VINA RESULT:    -3.800      4.759      7.375
REMARK INTER + INTRA:         -10.126
REMARK INTER:                  -7.842
REMARK INTRA:                  -2.283
REMARK UNBOUND:                -2.771
REMARK SMILES CCCCCCCCCCCCCCCCCC(=O)[O-]
REMARK SMILES IDX 10 1 11 2 12 3 13 4 14 5 15 6 16 7 17 8 18 9 19 10 20 11
REMARK SMILES IDX 9 12 8 13 7 14 6 15 5 16 4 17 3 18 2 19 1 20
REMARK H PARENT
REMARK Flexibility Score: inf
ROOT
ATOM      1  C   UNL     1      -0.098  16.735  29.004  1.00  0.00     0.000 C 
ENDROOT
BRANCH   1   2
ATOM      2  C   UNL     1       0.671  17.388  27.841  1.00  0.00     0.000 C 
BRANCH   2   3
ATOM      3  C   UNL     1       1.833  16.549  27.272  1.00  0.00     0.000 C 
BRANCH   3   4
ATOM      4  C   UNL     1       3.214  17.227  27.325  1.00  0.00     0.000 C 
BRANCH   4   5
ATOM      5  C   UNL     1       3.150  18.673  27.836  1.00  0.00     0.000 C 
BRANCH   5   6
ATOM      6  C   UNL     1       4.289  18.956  28.827  1.00  0.00     0.000 C 
BRANCH   6   7
ATOM      7  C   UNL     1       5.062  20.241  28.492  1.00  0.00     0.006 C 
BRANCH   7   8
ATOM      8  C   UNL     1       6.577  20.014  28.399  1.00  0.00     0.053 C 
BRANCH   8   9
ATOM      9  C   UNL     1       7.258  21.237  27.873  1.00  0.00     0.041 C 
ATOM     10  O   UNL     1       8.419  21.157  27.391  1.00  0.00    -0.550 OA
ATOM     11  O   UNL     1       6.631  22.474  27.957  1.00  0.00    -0.550 OA
ENDBRANCH   8   9
ENDBRANCH   7   8
ENDBRANCH   6   7
ENDBRANCH   5   6
ENDBRANCH   4   5
ENDBRANCH   3   4
ENDBRANCH   2   3
ENDBRANCH   1   2
BRANCH   1  12
ATOM     12  C   UNL     1       0.729  15.672  29.743  1.00  0.00     0.000 C 
BRANCH  12  13
ATOM     13  C   UNL     1       1.050  16.123  31.173  1.00  0.00    -0.000 C 
BRANCH  13  14
ATOM     14  C   UNL     1       1.980  17.346  31.167  1.00  0.00    -0.000 C 
BRANCH  14  15
ATOM     15  C   UNL     1       1.339  18.574  31.832  1.00  0.00    -0.000 C 
BRANCH  15  16
ATOM     16  C   UNL     1       1.991  19.894  31.388  1.00  0.00    -0.000 C 
BRANCH  16  17
ATOM     17  C   UNL     1       1.190  20.592  30.267  1.00  0.00    -0.000 C 
BRANCH  17  18
ATOM     18  C   UNL     1      -0.278  20.134  30.180  1.00  0.00    -0.000 C 
BRANCH  18  19
ATOM     19  C   UNL     1      -1.311  21.265  30.322  1.00  0.00    -0.003 C 
ATOM     20  C   UNL     1      -2.719  20.838  29.913  1.00  0.00     0.004 C 
ENDBRANCH  18  19
ENDBRANCH  17  18
ENDBRANCH  16  17
ENDBRANCH  15  16
ENDBRANCH  14  15
ENDBRANCH  13  14
ENDBRANCH  12  13
ENDBRANCH   1  12
TORSDOF 16
ENDMDL
MODEL 4
REMARK VINA RESULT:    -3.788      1.831      3.285
REMARK INTER + INTRA:         -10.101
REMARK INTER:                  -7.420
REMARK INTRA:                  -2.681
REMARK UNBOUND:                -2.771
REMARK SMILES CCCCCCCCCCCCCCCCCC(=O)[O-]
REMARK SMILES IDX 10 1 11 2 12 3 13 4 14 5 15 6 16 7 17 8 18 9 19 10 20 11
REMARK SMILES IDX 9 12 8 13 7 14 6 15 5 16 4 17 3 18 2 19 1 20
REMARK H PARENT
REMARK Flexibility Score: inf
ROOT
ATOM      1  C   UNL     1      -1.372  18.386  29.062  1.00  0.00     0.000 C 
ENDROOT
BRANCH   1   2
ATOM      2  C   UNL     1      -0.139  17.615  28.558  1.00  0.00     0.000 C 
BRANCH   2   3
ATOM      3  C   UNL     1       0.047  16.210  29.167  1.00  0.00     0.000 C 
BRANCH   3   4
ATOM      4  C   UNL     1       1.259  16.060  30.104  1.00  0.00     0.000 C 
BRANCH   4   5
ATOM      5  C   UNL     1       0.975  15.150  31.308  1.00  0.00     0.000 C 
BRANCH   5   6
ATOM      6  C   UNL     1       0.084  13.966  30.903  1.00  0.00     0.000 C 
BRANCH   6   7
ATOM      7  C   UNL     1       0.794  12.612  31.047  1.00  0.00     0.006 C 
BRANCH   7   8
ATOM      8  C   UNL     1       2.014  12.481  30.125  1.00  0.00     0.053 C 
BRANCH   8   9
ATOM      9  C   UNL     1       1.590  12.516  28.690  1.00  0.00     0.041 C 
ATOM     10  O   UNL     1       2.080  13.373  27.907  1.00  0.00    -0.550 OA
ATOM     11  O   UNL     1       0.622  11.634  28.228  1.00  0.00    -0.550 OA
ENDBRANCH   8   9
ENDBRANCH   7   8
ENDBRANCH   6   7
ENDBRANCH   5   6
ENDBRANCH   4   5
ENDBRANCH   3   4
ENDBRANCH   2   3
ENDBRANCH   1   2
BRANCH   1  12
ATOM     12  C   UNL     1      -1.004  19.632  29.882  1.00  0.00     0.000 C 
BRANCH  12  13
ATOM     13  C   UNL     1       0.511  19.866  29.874  1.00  0.00    -0.000 C 
BRANCH  13  14
ATOM     14  C   UNL     1       1.117  19.590  31.259  1.00  0.00    -0.000 C 
BRANCH  14  15
ATOM     15  C   UNL     1       2.618  19.268  31.189  1.00  0.00    -0.000 C 
BRANCH  15  16
ATOM     16  C   UNL     1       3.273  19.785  29.898  1.00  0.00    -0.000 C 
BRANCH  16  17
ATOM     17  C   UNL     1       3.935  18.651  29.085  1.00  0.00    -0.000 C 
BRANCH  17  18
ATOM     18  C   UNL     1       3.276  18.407  27.714  1.00  0.00    -0.000 C 
BRANCH  18  19
ATOM     19  C   UNL     1       3.319  16.946  27.234  1.00  0.00    -0.003 C 
ATOM     20  C   UNL     1       4.413  16.128  27.918  1.00  0.00     0.004 C 
ENDBRANCH  18  19
ENDBRANCH  17  18
ENDBRANCH  16  17
ENDBRANCH  15  16
ENDBRANCH  14  15
ENDBRANCH  13  14
ENDBRANCH  12  13
ENDBRANCH   1  12
TORSDOF 16
ENDMDL
MODEL 5
REMARK VINA RESULT:    -3.742      1.405      2.190
REMARK INTER + INTRA:         -10.012
REMARK INTER:                  -7.464
REMARK INTRA:                  -2.548
REMARK UNBOUND:                -2.771
REMARK SMILES CCCCCCCCCCCCCCCCCC(=O)[O-]
REMARK SMILES IDX 10 1 11 2 12 3 13 4 14 5 15 6 16 7 17 8 18 9 19 10 20 11
REMARK SMILES IDX 9 12 8 13 7 14 6 15 5 16 4 17 3 18 2 19 1 20
REMARK H PARENT
REMARK Flexibility Score: inf
ROOT
ATOM      1  C   UNL     1      -0.183  17.675  29.008  1.00  0.00     0.000 C 
ENDROOT
BRANCH   1   2
ATOM      2  C   UNL     1       0.196  18.897  29.864  1.00  0.00     0.000 C 
BRANCH   2   3
ATOM      3  C   UNL     1       1.425  18.700  30.776  1.00  0.00     0.000 C 
BRANCH   3   4
ATOM      4  C   UNL     1       1.417  17.408  31.612  1.00  0.00     0.000 C 
BRANCH   4   5
ATOM      5  C   UNL     1       2.625  16.504  31.327  1.00  0.00     0.000 C 
BRANCH   5   6
ATOM      6  C   UNL     1       2.171  15.096  30.914  1.00  0.00     0.000 C 
BRANCH   6   7
ATOM      7  C   UNL     1       0.709  14.810  31.288  1.00  0.00     0.006 C 
BRANCH   7   8
ATOM      8  C   UNL     1      -0.058  14.088  30.172  1.00  0.00     0.053 C 
BRANCH   8   9
ATOM      9  C   UNL     1      -0.709  12.849  30.700  1.00  0.00     0.041 C 
ATOM     10  O   UNL     1      -1.275  12.046  29.912  1.00  0.00    -0.550 OA
ATOM     11  O   UNL     1      -0.731  12.603  32.067  1.00  0.00    -0.550 OA
ENDBRANCH   8   9
ENDBRANCH   7   8
ENDBRANCH   6   7
ENDBRANCH   5   6
ENDBRANCH   4   5
ENDBRANCH   3   4
ENDBRANCH   2   3
ENDBRANCH   1   2
BRANCH   1  12
ATOM     12  C   UNL     1       0.589  17.613  27.681  1.00  0.00     0.000 C 
BRANCH  12  13
ATOM     13  C   UNL     1       1.481  16.368  27.623  1.00  0.00    -0.000 C 
BRANCH  13  14
ATOM     14  C   UNL     1       2.967  16.758  27.589  1.00  0.00    -0.000 C 
BRANCH  14  15
ATOM     15  C   UNL     1       3.175  18.280  27.611  1.00  0.00    -0.000 C 
BRANCH  15  16
ATOM     16  C   UNL     1       4.354  18.702  28.504  1.00  0.00    -0.000 C 
BRANCH  16  17
ATOM     17  C   UNL     1       4.387  20.227  28.743  1.00  0.00    -0.000 C 
BRANCH  17  18
ATOM     18  C   UNL     1       5.663  20.908  28.212  1.00  0.00    -0.000 C 
BRANCH  18  19
ATOM     19  C   UNL     1       6.362  21.835  29.220  1.00  0.00    -0.003 C 
ATOM     20  C   UNL     1       7.366  22.779  28.561  1.00  0.00     0.004 C 
ENDBRANCH  18  19
ENDBRANCH  17  18
ENDBRANCH  16  17
ENDBRANCH  15  16
ENDBRANCH  14  15
ENDBRANCH  13  14
ENDBRANCH  12  13
ENDBRANCH   1  12
TORSDOF 16
ENDMDL
MODEL 6
REMARK VINA RESULT:    -3.696      3.449      5.823
REMARK INTER + INTRA:          -9.924
REMARK INTER:                  -7.029
REMARK INTRA:                  -2.895
REMARK UNBOUND:                -2.771
REMARK SMILES CCCCCCCCCCCCCCCCCC(=O)[O-]
REMARK SMILES IDX 10 1 11 2 12 3 13 4 14 5 15 6 16 7 17 8 18 9 19 10 20 11
REMARK SMILES IDX 9 12 8 13 7 14 6 15 5 16 4 17 3 18 2 19 1 20
REMARK H PARENT
REMARK Flexibility Score: inf
ROOT
ATOM      1  C   UNL     1       3.272  17.977  30.388  1.00  0.00     0.000 C 
ENDROOT
BRANCH   1   2
ATOM      2  C   UNL     1       3.799  17.827  28.949  1.00  0.00     0.000 C 
BRANCH   2   3
ATOM      3  C   UNL     1       2.756  18.083  27.841  1.00  0.00     0.000 C 
BRANCH   3   4
ATOM      4  C   UNL     1       1.747  16.942  27.620  1.00  0.00     0.000 C 
BRANCH   4   5
ATOM      5  C   UNL     1       0.309  17.444  27.428  1.00  0.00     0.000 C 
BRANCH   5   6
ATOM      6  C   UNL     1      -0.477  17.377  28.747  1.00  0.00     0.000 C 
BRANCH   6   7
ATOM      7  C   UNL     1      -1.024  18.744  29.182  1.00  0.00     0.006 C 
BRANCH   7   8
ATOM      8  C   UNL     1      -0.070  19.491  30.124  1.00  0.00     0.053 C 
BRANCH   8   9
ATOM      9  C   UNL     1      -0.435  20.940  30.197  1.00  0.00     0.041 C 
ATOM     10  O   UNL     1      -1.645  21.289  30.167  1.00  0.00    -0.550 OA
ATOM     11  O   UNL     1       0.560  21.907  30.253  1.00  0.00    -0.550 OA
ENDBRANCH   8   9
ENDBRANCH   7   8
ENDBRANCH   6   7
ENDBRANCH   5   6
ENDBRANCH   4   5
ENDBRANCH   3   4
ENDBRANCH   2   3
ENDBRANCH   1   2
BRANCH   1  12
ATOM     12  C   UNL     1       3.058  16.627  31.089  1.00  0.00     0.000 C 
BRANCH  12  13
ATOM     13  C   UNL     1       1.625  16.506  31.620  1.00  0.00    -0.000 C 
BRANCH  13  14
ATOM     14  C   UNL     1       0.941  15.242  31.074  1.00  0.00    -0.000 C 
BRANCH  14  15
ATOM     15  C   UNL     1       1.941  14.111  30.789  1.00  0.00    -0.000 C 
BRANCH  15  16
ATOM     16  C   UNL     1       1.546  13.270  29.563  1.00  0.00    -0.000 C 
BRANCH  16  17
ATOM     17  C   UNL     1       2.426  13.582  28.334  1.00  0.00    -0.000 C 
BRANCH  17  18
ATOM     18  C   UNL     1       3.862  14.011  28.694  1.00  0.00    -0.000 C 
BRANCH  18  19
ATOM     19  C   UNL     1       4.849  13.999  27.515  1.00  0.00    -0.003 C 
ATOM     20  C   UNL     1       4.339  14.783  26.307  1.00  0.00     0.004 C 
ENDBRANCH  18  19
ENDBRANCH  17  18
ENDBRANCH  16  17
ENDBRANCH  15  16
ENDBRANCH  14  15
ENDBRANCH  13  14
ENDBRANCH  12  13
ENDBRANCH   1  12
TORSDOF 16
ENDMDL
MODEL 7
REMARK VINA RESULT:    -3.693      5.271      8.427
REMARK INTER + INTRA:          -9.918
REMARK INTER:                  -8.029
REMARK INTRA:                  -1.889
REMARK UNBOUND:                -2.771
REMARK SMILES CCCCCCCCCCCCCCCCCC(=O)[O-]
REMARK SMILES IDX 10 1 11 2 12 3 13 4 14 5 15 6 16 7 17 8 18 9 19 10 20 11
REMARK SMILES IDX 9 12 8 13 7 14 6 15 5 16 4 17 3 18 2 19 1 20
REMARK H PARENT
REMARK Flexibility Score: inf
ROOT
ATOM      1  C   UNL     1       3.529  20.016  30.401  1.00  0.00     0.000 C 
ENDROOT
BRANCH   1   2
ATOM      2  C   UNL     1       5.002  20.404  30.181  1.00  0.00     0.000 C 
BRANCH   2   3
ATOM      3  C   UNL     1       5.537  20.161  28.754  1.00  0.00     0.000 C 
BRANCH   3   4
ATOM      4  C   UNL     1       6.100  21.408  28.048  1.00  0.00     0.000 C 
BRANCH   4   5
ATOM      5  C   UNL     1       6.679  22.439  29.027  1.00  0.00     0.000 C 
BRANCH   5   6
ATOM      6  C   UNL     1       7.880  23.169  28.408  1.00  0.00     0.000 C 
BRANCH   6   7
ATOM      7  C   UNL     1       9.210  22.444  28.661  1.00  0.00     0.006 C 
BRANCH   7   8
ATOM      8  C   UNL     1       9.817  21.855  27.381  1.00  0.00     0.053 C 
BRANCH   8   9
ATOM      9  C   UNL     1       9.481  20.402  27.262  1.00  0.00     0.041 C 
ATOM     10  O   UNL     1       9.394  19.687  28.296  1.00  0.00    -0.550 OA
ATOM     11  O   UNL     1       9.308  19.827  26.010  1.00  0.00    -0.550 OA
ENDBRANCH   8   9
ENDBRANCH   7   8
ENDBRANCH   6   7
ENDBRANCH   5   6
ENDBRANCH   4   5
ENDBRANCH   3   4
ENDBRANCH   2   3
ENDBRANCH   1   2
BRANCH   1  12
ATOM     12  C   UNL     1       2.549  21.107  29.942  1.00  0.00     0.000 C 
BRANCH  12  13
ATOM     13  C   UNL     1       1.222  21.006  30.701  1.00  0.00    -0.000 C 
BRANCH  13  14
ATOM     14  C   UNL     1       0.639  19.587  30.602  1.00  0.00    -0.000 C 
BRANCH  14  15
ATOM     15  C   UNL     1      -0.717  19.559  29.880  1.00  0.00    -0.000 C 
BRANCH  15  16
ATOM     16  C   UNL     1      -0.878  18.326  28.974  1.00  0.00    -0.000 C 
BRANCH  16  17
ATOM     17  C   UNL     1       0.387  17.441  28.965  1.00  0.00    -0.000 C 
BRANCH  17  18
ATOM     18  C   UNL     1       1.106  17.405  27.602  1.00  0.00    -0.000 C 
BRANCH  18  19
ATOM     19  C   UNL     1       2.587  17.817  27.648  1.00  0.00    -0.003 C 
ATOM     20  C   UNL     1       3.429  16.907  28.542  1.00  0.00     0.004 C 
ENDBRANCH  18  19
ENDBRANCH  17  18
ENDBRANCH  16  17
ENDBRANCH  15  16
ENDBRANCH  14  15
ENDBRANCH  13  14
ENDBRANCH  12  13
ENDBRANCH   1  12
TORSDOF 16
ENDMDL
MODEL 8
REMARK VINA RESULT:    -3.665      1.310      3.393
REMARK INTER + INTRA:          -9.864
REMARK INTER:                  -7.068
REMARK INTRA:                  -2.796
REMARK UNBOUND:                -2.771
REMARK SMILES CCCCCCCCCCCCCCCCCC(=O)[O-]
REMARK SMILES IDX 10 1 11 2 12 3 13 4 14 5 15 6 16 7 17 8 18 9 19 10 20 11
REMARK SMILES IDX 9 12 8 13 7 14 6 15 5 16 4 17 3 18 2 19 1 20
REMARK H PARENT
REMARK Flexibility Score: inf
ROOT
ATOM      1  C   UNL     1       1.997  15.934  27.204  1.00  0.00     0.000 C 
ENDROOT
BRANCH   1   2
ATOM      2  C   UNL     1       1.256  17.269  27.398  1.00  0.00     0.000 C 
BRANCH   2   3
ATOM      3  C   UNL     1       0.182  17.266  28.506  1.00  0.00     0.000 C 
BRANCH   3   4
ATOM      4  C   UNL     1       0.175  16.015  29.403  1.00  0.00     0.000 C 
BRANCH   4   5
ATOM      5  C   UNL     1       1.027  16.183  30.669  1.00  0.00     0.000 C 
BRANCH   5   6
ATOM      6  C   UNL     1       1.749  14.874  31.023  1.00  0.00     0.000 C 
BRANCH   6   7
ATOM      7  C   UNL     1       0.956  13.627  30.603  1.00  0.00     0.006 C 
BRANCH   7   8
ATOM      8  C   UNL     1       0.022  13.118  31.709  1.00  0.00     0.053 C 
BRANCH   8   9
ATOM      9  C   UNL     1      -1.340  12.840  31.158  1.00  0.00     0.041 C 
ATOM     10  O   UNL     1      -1.585  13.052  29.940  1.00  0.00    -0.550 OA
ATOM     11  O   UNL     1      -2.352  12.390  31.996  1.00  0.00    -0.550 OA
ENDBRANCH   8   9
ENDBRANCH   7   8
ENDBRANCH   6   7
ENDBRANCH   5   6
ENDBRANCH   4   5
ENDBRANCH   3   4
ENDBRANCH   2   3
ENDBRANCH   1   2
BRANCH   1  12
ATOM     12  C   UNL     1       3.517  16.109  27.066  1.00  0.00     0.000 C 
BRANCH  12  13
ATOM     13  C   UNL     1       4.220  15.872  28.407  1.00  0.00    -0.000 C 
BRANCH  13  14
ATOM     14  C   UNL     1       5.013  17.116  28.839  1.00  0.00    -0.000 C 
BRANCH  14  15
ATOM     15  C   UNL     1       4.149  18.121  29.616  1.00  0.00    -0.000 C 
BRANCH  15  16
ATOM     16  C   UNL     1       3.872  19.405  28.816  1.00  0.00    -0.000 C 
BRANCH  16  17
ATOM     17  C   UNL     1       2.678  20.202  29.385  1.00  0.00    -0.000 C 
BRANCH  17  18
ATOM     18  C   UNL     1       2.077  19.585  30.663  1.00  0.00    -0.000 C 
BRANCH  18  19
ATOM     19  C   UNL     1       0.654  20.065  30.997  1.00  0.00    -0.003 C 
ATOM     20  C   UNL     1       0.300  21.388  30.321  1.00  0.00     0.004 C 
ENDBRANCH  18  19
ENDBRANCH  17  18
ENDBRANCH  16  17
ENDBRANCH  15  16
ENDBRANCH  14  15
ENDBRANCH  13  14
ENDBRANCH  12  13
ENDBRANCH   1  12
TORSDOF 16
ENDMDL
MODEL 9
REMARK VINA RESULT:    -3.650      1.005      2.502
REMARK INTER + INTRA:          -9.835
REMARK INTER:                  -7.367
REMARK INTRA:                  -2.468
REMARK UNBOUND:                -2.771
REMARK SMILES CCCCCCCCCCCCCCCCCC(=O)[O-]
REMARK SMILES IDX 10 1 11 2 12 3 13 4 14 5 15 6 16 7 17 8 18 9 19 10 20 11
REMARK SMILES IDX 9 12 8 13 7 14 6 15 5 16 4 17 3 18 2 19 1 20
REMARK H PARENT
REMARK Flexibility Score: inf
ROOT
ATOM      1  C   UNL     1       1.714  16.471  27.261  1.00  0.00     0.000 C 
ENDROOT
BRANCH   1   2
ATOM      2  C   UNL     1       3.095  16.713  27.896  1.00  0.00     0.000 C 
BRANCH   2   3
ATOM      3  C   UNL     1       3.254  16.184  29.337  1.00  0.00     0.000 C 
BRANCH   3   4
ATOM      4  C   UNL     1       2.501  14.876  29.637  1.00  0.00     0.000 C 
BRANCH   4   5
ATOM      5  C   UNL     1       1.557  14.993  30.842  1.00  0.00     0.000 C 
BRANCH   5   6
ATOM      6  C   UNL     1       0.144  14.510  30.482  1.00  0.00     0.000 C 
BRANCH   6   7
ATOM      7  C   UNL     1      -0.257  13.233  31.236  1.00  0.00     0.006 C 
BRANCH   7   8
ATOM      8  C   UNL     1      -1.512  12.569  30.652  1.00  0.00     0.053 C 
BRANCH   8   9
ATOM      9  C   UNL     1      -1.913  11.390  31.480  1.00  0.00     0.041 C 
ATOM     10  O   UNL     1      -3.097  11.284  31.898  1.00  0.00    -0.550 OA
ATOM     11  O   UNL     1      -0.971  10.431  31.829  1.00  0.00    -0.550 OA
ENDBRANCH   8   9
ENDBRANCH   7   8
ENDBRANCH   6   7
ENDBRANCH   5   6
ENDBRANCH   4   5
ENDBRANCH   3   4
ENDBRANCH   2   3
ENDBRANCH   1   2
BRANCH   1  12
ATOM     12  C   UNL     1       0.728  17.620  27.520  1.00  0.00     0.000 C 
BRANCH  12  13
ATOM     13  C   UNL     1      -0.434  17.155  28.405  1.00  0.00    -0.000 C 
BRANCH  13  14
ATOM     14  C   UNL     1      -1.000  18.325  29.227  1.00  0.00    -0.000 C 
BRANCH  14  15
ATOM     15  C   UNL     1       0.092  19.307  29.678  1.00  0.00    -0.000 C 
BRANCH  15  16
ATOM     16  C   UNL     1       0.959  18.745  30.817  1.00  0.00    -0.000 C 
BRANCH  16  17
ATOM     17  C   UNL     1       2.364  19.384  30.850  1.00  0.00    -0.000 C 
BRANCH  17  18
ATOM     18  C   UNL     1       2.767  20.062  29.526  1.00  0.00    -0.000 C 
BRANCH  18  19
ATOM     19  C   UNL     1       4.282  20.240  29.333  1.00  0.00    -0.003 C 
ATOM     20  C   UNL     1       5.106  19.256  30.162  1.00  0.00     0.004 C 
ENDBRANCH  18  19
ENDBRANCH  17  18
ENDBRANCH  16  17
ENDBRANCH  15  16
ENDBRANCH  14  15
ENDBRANCH  13  14
ENDBRANCH  12  13
ENDBRANCH   1  12
TORSDOF 16
ENDMDL
