MODEL 1
REMARK VINA RESULT:    -4.390      0.000      0.000
REMARK INTER + INTRA:         -16.136
REMARK INTER:                 -11.576
REMARK INTRA:                  -4.561
REMARK UNBOUND:                -4.561
REMARK SMILES CCCCCCCCCCCCCCCCCCCCCCCCCCCCCC(=O)[O-]
REMARK SMILES IDX 16 1 17 2 18 3 19 4 20 5 21 6 22 7 23 8 24 9 25 10 26 11
REMARK SMILES IDX 27 12 28 13 29 14 30 15 31 16 32 17 15 18 14 19 13 20 12 21
REMARK SMILES IDX 11 22 10 23 9 24 8 25 7 26 6 27 5 28 4 29 3 30 2 31 1 32
REMARK H PARENT
REMARK Flexibility Score: inf
ROOT
ATOM      1  C   UNL     1       2.737  19.279  30.686  1.00  0.00     0.000 C 
ENDROOT
BRANCH   1   2
ATOM      2  C   UNL     1       1.395  18.573  30.939  1.00  0.00     0.000 C 
BRANCH   2   3
ATOM      3  C   UNL     1       0.382  18.772  29.797  1.00  0.00     0.000 C 
BRANCH   3   4
ATOM      4  C   UNL     1      -0.018  17.488  29.048  1.00  0.00     0.000 C 
BRANCH   4   5
ATOM      5  C   UNL     1       0.550  17.350  27.622  1.00  0.00     0.000 C 
BRANCH   5   6
ATOM      6  C   UNL     1       1.651  16.276  27.483  1.00  0.00     0.000 C 
BRANCH   6   7
ATOM      7  C   UNL     1       3.048  16.886  27.264  1.00  0.00     0.000 C 
BRANCH   7   8
ATOM      8  C   UNL     1       4.127  16.210  28.125  1.00  0.00     0.000 C 
BRANCH   8   9
ATOM      9  C   UNL     1       3.630  15.897  29.547  1.00  0.00     0.000 C 
BRANCH   9  10
ATOM     10  C   UNL     1       3.835  14.422  29.924  1.00  0.00     0.000 C 
BRANCH  10  11
ATOM     11  C   UNL     1       2.775  13.918  30.914  1.00  0.00     0.000 C 
BRANCH  11  12
ATOM     12  C   UNL     1       1.562  14.861  30.945  1.00  0.00     0.000 C 
BRANCH  12  13
ATOM     13  C   UNL     1       0.232  14.110  31.111  1.00  0.00     0.006 C 
BRANCH  13  14
ATOM     14  C   UNL     1      -0.481  13.861  29.775  1.00  0.00     0.053 C 
BRANCH  14  15
ATOM     15  C   UNL     1      -0.413  12.412  29.402  1.00  0.00     0.041 C 
ATOM     16  O   UNL     1      -1.226  11.590  29.905  1.00  0.00    -0.550 OA
ATOM     17  O   UNL     1       0.531  11.972  28.482  1.00  0.00    -0.550 OA
ENDBRANCH  14  15
ENDBRANCH  13  14
ENDBRANCH  12  13
ENDBRANCH  11  12
ENDBRANCH  10  11
ENDBRANCH   9  10
ENDBRANCH   8   9
ENDBRANCH   7   8
ENDBRANCH   6   7
ENDBRANCH   5   6
ENDBRANCH   4   5
ENDBRANCH   3   4
ENDBRANCH   2   3
ENDBRANCH   1   2
BRANCH   1  18
ATOM     18  C   UNL     1       2.777  19.990  29.323  1.00  0.00     0.000 C 
BRANCH  18  19
ATOM     19  C   UNL     1       4.170  19.937  28.671  1.00  0.00     0.000 C 
BRANCH  19  20
ATOM     20  C   UNL     1       5.269  19.500  29.652  1.00  0.00     0.000 C 
BRANCH  20  21
ATOM     21  C   UNL     1       6.287  20.618  29.941  1.00  0.00     0.000 C 
BRANCH  21  22
ATOM     22  C   UNL     1       5.825  21.986  29.395  1.00  0.00     0.000 C 
BRANCH  22  23
ATOM     23  C   UNL     1       6.976  22.970  29.121  1.00  0.00     0.000 C 
BRANCH  23  24
ATOM     24  C   UNL     1       8.358  22.296  29.132  1.00  0.00    -0.000 C 
BRANCH  24  25
ATOM     25  C   UNL     1       9.248  22.756  27.966  1.00  0.00    -0.000 C 
BRANCH  25  26
ATOM     26  C   UNL     1       9.877  21.577  27.205  1.00  0.00    -0.000 C 
BRANCH  26  27
ATOM     27  C   UNL     1       8.986  20.331  27.277  1.00  0.00    -0.000 C 
BRANCH  27  28
ATOM     28  C   UNL     1       9.720  19.176  27.976  1.00  0.00    -0.000 C 
BRANCH  28  29
ATOM     29  C   UNL     1      11.102  19.584  28.509  1.00  0.00    -0.000 C 
BRANCH  29  30
ATOM     30  C   UNL     1      12.230  18.677  27.987  1.00  0.00    -0.000 C 
BRANCH  30  31
ATOM     31  C   UNL     1      13.299  18.395  29.053  1.00  0.00    -0.003 C 
ATOM     32  C   UNL     1      12.985  19.057  30.394  1.00  0.00     0.004 C 
ENDBRANCH  30  31
ENDBRANCH  29  30
ENDBRANCH  28  29
ENDBRANCH  27  28
ENDBRANCH  26  27
ENDBRANCH  25  26
ENDBRANCH  24  25
ENDBRANCH  23  24
ENDBRANCH  22  23
ENDBRANCH  21  22
ENDBRANCH  20  21
ENDBRANCH  19  20
ENDBRANCH  18  19
ENDBRANCH   1  18
TORSDOF 28
ENDMDL
MODEL 2
REMARK VINA RESULT:    -4.314      2.639      4.586
REMARK INTER + INTRA:         -15.936
REMARK INTER:                 -11.909
REMARK INTRA:                  -4.027
REMARK UNBOUND:                -4.561
REMARK SMILES CCCCCCCCCCCCCCCCCCCCCCCCCCCCCC(=O)[O-]
REMARK SMILES IDX 16 1 17 2 18 3 19 4 20 5 21 6 22 7 23 8 24 9 25 10 26 11
REMARK SMILES IDX 27 12 28 13 29 14 30 15 31 16 32 17 15 18 14 19 13 20 12 21
REMARK SMILES IDX 11 22 10 23 9 24 8 25 7 26 6 27 5 28 4 29 3 30 2 31 1 32
REMARK H PARENT
REMARK Flexibility Score: inf
ROOT
ATOM      1  C   UNL     1       2.053  22.823  30.812  1.00  0.00     0.000 C 
ENDROOT
BRANCH   1   2
ATOM      2  C   UNL     1       0.828  22.612  29.907  1.00  0.00     0.000 C 
BRANCH   2   3
ATOM      3  C   UNL     1      -0.300  23.625  30.171  1.00  0.00     0.000 C 
BRANCH   3   4
ATOM      4  C   UNL     1      -1.669  23.007  30.509  1.00  0.00     0.000 C 
BRANCH   4   5
ATOM      5  C   UNL     1      -1.697  21.468  30.583  1.00  0.00     0.000 C 
BRANCH   5   6
ATOM      6  C   UNL     1      -2.944  20.829  29.933  1.00  0.00     0.000 C 
BRANCH   6   7
ATOM      7  C   UNL     1      -2.671  19.411  29.396  1.00  0.00     0.000 C 
BRANCH   7   8
ATOM      8  C   UNL     1      -1.193  19.007  29.525  1.00  0.00     0.000 C 
BRANCH   8   9
ATOM      9  C   UNL     1      -0.786  17.939  28.495  1.00  0.00     0.000 C 
BRANCH   9  10
ATOM     10  C   UNL     1      -0.499  16.579  29.149  1.00  0.00     0.000 C 
BRANCH  10  11
ATOM     11  C   UNL     1       0.979  16.179  29.040  1.00  0.00     0.000 C 
BRANCH  11  12
ATOM     12  C   UNL     1       1.554  16.569  27.670  1.00  0.00     0.000 C 
BRANCH  12  13
ATOM     13  C   UNL     1       2.498  15.502  27.096  1.00  0.00     0.006 C 
BRANCH  13  14
ATOM     14  C   UNL     1       3.851  16.079  26.658  1.00  0.00     0.053 C 
BRANCH  14  15
ATOM     15  C   UNL     1       4.865  15.940  27.752  1.00  0.00     0.041 C 
ATOM     16  O   UNL     1       4.597  16.336  28.919  1.00  0.00    -0.550 OA
ATOM     17  O   UNL     1       6.097  15.352  27.490  1.00  0.00    -0.550 OA
ENDBRANCH  14  15
ENDBRANCH  13  14
ENDBRANCH  12  13
ENDBRANCH  11  12
ENDBRANCH  10  11
ENDBRANCH   9  10
ENDBRANCH   8   9
ENDBRANCH   7   8
ENDBRANCH   6   7
ENDBRANCH   5   6
ENDBRANCH   4   5
ENDBRANCH   3   4
ENDBRANCH   2   3
ENDBRANCH   1   2
BRANCH   1  18
ATOM     18  C   UNL     1       2.257  21.667  31.804  1.00  0.00     0.000 C 
BRANCH  18  19
ATOM     19  C   UNL     1       1.657  20.343  31.299  1.00  0.00     0.000 C 
BRANCH  19  20
ATOM     20  C   UNL     1       2.704  19.425  30.651  1.00  0.00     0.000 C 
BRANCH  20  21
ATOM     21  C   UNL     1       2.697  19.505  29.113  1.00  0.00     0.000 C 
BRANCH  21  22
ATOM     22  C   UNL     1       4.089  19.844  28.539  1.00  0.00     0.000 C 
BRANCH  22  23
ATOM     23  C   UNL     1       4.842  20.930  29.327  1.00  0.00     0.000 C 
BRANCH  23  24
ATOM     24  C   UNL     1       6.370  20.784  29.239  1.00  0.00    -0.000 C 
BRANCH  24  25
ATOM     25  C   UNL     1       6.967  21.533  28.036  1.00  0.00    -0.000 C 
BRANCH  25  26
ATOM     26  C   UNL     1       7.937  22.649  28.459  1.00  0.00    -0.000 C 
BRANCH  26  27
ATOM     27  C   UNL     1       9.304  22.482  27.785  1.00  0.00    -0.000 C 
BRANCH  27  28
ATOM     28  C   UNL     1      10.041  21.255  28.343  1.00  0.00    -0.000 C 
BRANCH  28  29
ATOM     29  C   UNL     1      10.814  20.482  27.263  1.00  0.00    -0.000 C 
BRANCH  29  30
ATOM     30  C   UNL     1      10.610  18.960  27.364  1.00  0.00    -0.000 C 
BRANCH  30  31
ATOM     31  C   UNL     1       9.265  18.506  26.777  1.00  0.00    -0.003 C 
ATOM     32  C   UNL     1       8.298  17.993  27.842  1.00  0.00     0.004 C 
ENDBRANCH  30  31
ENDBRANCH  29  30
ENDBRANCH  28  29
ENDBRANCH  27  28
ENDBRANCH  26  27
ENDBRANCH  25  26
ENDBRANCH  24  25
ENDBRANCH  23  24
ENDBRANCH  22  23
ENDBRANCH  21  22
ENDBRANCH  20  21
ENDBRANCH  19  20
ENDBRANCH  18  19
ENDBRANCH   1  18
TORSDOF 28
ENDMDL
MODEL 3
REMARK VINA RESULT:    -4.302      1.759      3.852
REMARK INTER + INTRA:         -15.904
REMARK INTER:                 -10.730
REMARK INTRA:                  -5.174
REMARK UNBOUND:                -4.561
REMARK SMILES CCCCCCCCCCCCCCCCCCCCCCCCCCCCCC(=O)[O-]
REMARK SMILES IDX 16 1 17 2 18 3 19 4 20 5 21 6 22 7 23 8 24 9 25 10 26 11
REMARK SMILES IDX 27 12 28 13 29 14 30 15 31 16 32 17 15 18 14 19 13 20 12 21
REMARK SMILES IDX 11 22 10 23 9 24 8 25 7 26 6 27 5 28 4 29 3 30 2 31 1 32
REMARK H PARENT
REMARK Flexibility Score: inf
ROOT
ATOM      1  C   UNL     1       6.569  19.354  28.786  1.00  0.00     0.000 C 
ENDROOT
BRANCH   1   2
ATOM      2  C   UNL     1       6.475  17.910  29.305  1.00  0.00     0.000 C 
BRANCH   2   3
ATOM      3  C   UNL     1       5.516  17.032  28.480  1.00  0.00     0.000 C 
BRANCH   3   4
ATOM      4  C   UNL     1       4.020  17.246  28.773  1.00  0.00     0.000 C 
BRANCH   4   5
ATOM      5  C   UNL     1       3.249  18.063  27.718  1.00  0.00     0.000 C 
BRANCH   5   6
ATOM      6  C   UNL     1       2.989  19.530  28.124  1.00  0.00     0.000 C 
BRANCH   6   7
ATOM      7  C   UNL     1       2.735  19.690  29.634  1.00  0.00     0.000 C 
BRANCH   7   8
ATOM      8  C   UNL     1       1.837  20.896  29.956  1.00  0.00     0.000 C 
BRANCH   8   9
ATOM      9  C   UNL     1       0.390  20.480  30.274  1.00  0.00     0.000 C 
BRANCH   9  10
ATOM     10  C   UNL     1       0.205  18.955  30.256  1.00  0.00     0.000 C 
BRANCH  10  11
ATOM     11  C   UNL     1      -0.704  18.490  29.109  1.00  0.00     0.000 C 
BRANCH  11  12
ATOM     12  C   UNL     1      -0.327  17.073  28.651  1.00  0.00     0.000 C 
BRANCH  12  13
ATOM     13  C   UNL     1       0.565  16.339  29.664  1.00  0.00     0.006 C 
BRANCH  13  14
ATOM     14  C   UNL     1       0.109  14.897  29.923  1.00  0.00     0.053 C 
BRANCH  14  15
ATOM     15  C   UNL     1       1.041  13.922  29.272  1.00  0.00     0.041 C 
ATOM     16  O   UNL     1       0.872  12.683  29.428  1.00  0.00    -0.550 OA
ATOM     17  O   UNL     1       2.083  14.381  28.474  1.00  0.00    -0.550 OA
ENDBRANCH  14  15
ENDBRANCH  13  14
ENDBRANCH  12  13
ENDBRANCH  11  12
ENDBRANCH  10  11
ENDBRANCH   9  10
ENDBRANCH   8   9
ENDBRANCH   7   8
ENDBRANCH   6   7
ENDBRANCH   5   6
ENDBRANCH   4   5
ENDBRANCH   3   4
ENDBRANCH   2   3
ENDBRANCH   1   2
BRANCH   1  18
ATOM     18  C   UNL     1       6.228  20.390  29.869  1.00  0.00     0.000 C 
BRANCH  18  19
ATOM     19  C   UNL     1       5.920  21.779  29.281  1.00  0.00     0.000 C 
BRANCH  19  20
ATOM     20  C   UNL     1       6.778  22.105  28.050  1.00  0.00     0.000 C 
BRANCH  20  21
ATOM     21  C   UNL     1       7.969  23.024  28.380  1.00  0.00     0.000 C 
BRANCH  21  22
ATOM     22  C   UNL     1       9.326  22.305  28.212  1.00  0.00     0.000 C 
BRANCH  22  23
ATOM     23  C   UNL     1       9.768  21.509  29.452  1.00  0.00     0.000 C 
BRANCH  23  24
ATOM     24  C   UNL     1       9.979  20.014  29.161  1.00  0.00    -0.000 C 
BRANCH  24  25
ATOM     25  C   UNL     1      11.359  19.720  28.552  1.00  0.00    -0.000 C 
BRANCH  25  26
ATOM     26  C   UNL     1      11.264  18.953  27.222  1.00  0.00    -0.000 C 
BRANCH  26  27
ATOM     27  C   UNL     1       9.870  19.093  26.598  1.00  0.00    -0.000 C 
BRANCH  27  28
ATOM     28  C   UNL     1       9.476  17.810  25.851  1.00  0.00    -0.000 C 
BRANCH  28  29
ATOM     29  C   UNL     1       8.696  16.823  26.733  1.00  0.00    -0.000 C 
BRANCH  29  30
ATOM     30  C   UNL     1       9.604  15.762  27.380  1.00  0.00    -0.000 C 
BRANCH  30  31
ATOM     31  C   UNL     1       9.560  15.807  28.915  1.00  0.00    -0.003 C 
ATOM     32  C   UNL     1      10.930  16.066  29.538  1.00  0.00     0.004 C 
ENDBRANCH  30  31
ENDBRANCH  29  30
ENDBRANCH  28  29
ENDBRANCH  27  28
ENDBRANCH  26  27
ENDBRANCH  25  26
ENDBRANCH  24  25
ENDBRANCH  23  24
ENDBRANCH  22  23
ENDBRANCH  21  22
ENDBRANCH  20  21
ENDBRANCH  19  20
ENDBRANCH  18  19
ENDBRANCH   1  18
TORSDOF 28
ENDMDL
MODEL 4
REMARK VINA RESULT:    -4.268      2.303      7.820
REMARK INTER + INTRA:         -15.814
REMARK INTER:                  -9.649
REMARK INTRA:                  -6.164
REMARK UNBOUND:                -4.561
REMARK SMILES CCCCCCCCCCCCCCCCCCCCCCCCCCCCCC(=O)[O-]
REMARK SMILES IDX 16 1 17 2 18 3 19 4 20 5 21 6 22 7 23 8 24 9 25 10 26 11
REMARK SMILES IDX 27 12 28 13 29 14 30 15 31 16 32 17 15 18 14 19 13 20 12 21
REMARK SMILES IDX 11 22 10 23 9 24 8 25 7 26 6 27 5 28 4 29 3 30 2 31 1 32
REMARK H PARENT
REMARK Flexibility Score: inf
ROOT
ATOM      1  C   UNL     1       4.949  19.947  31.048  1.00  0.00     0.000 C 
ENDROOT
BRANCH   1   2
ATOM      2  C   UNL     1       6.123  20.119  30.071  1.00  0.00     0.000 C 
BRANCH   2   3
ATOM      3  C   UNL     1       5.671  20.380  28.622  1.00  0.00     0.000 C 
BRANCH   3   4
ATOM      4  C   UNL     1       6.278  21.633  27.965  1.00  0.00     0.000 C 
BRANCH   4   5
ATOM      5  C   UNL     1       7.000  22.599  28.924  1.00  0.00     0.000 C 
BRANCH   5   6
ATOM      6  C   UNL     1       8.328  23.160  28.371  1.00  0.00     0.000 C 
BRANCH   6   7
ATOM      7  C   UNL     1       9.289  22.053  27.899  1.00  0.00     0.000 C 
BRANCH   7   8
ATOM      8  C   UNL     1       9.813  21.194  29.061  1.00  0.00     0.000 C 
BRANCH   8   9
ATOM      9  C   UNL     1       9.513  19.697  28.865  1.00  0.00     0.000 C 
BRANCH   9  10
ATOM     10  C   UNL     1       9.148  19.363  27.411  1.00  0.00     0.000 C 
BRANCH  10  11
ATOM     11  C   UNL     1       8.951  17.856  27.190  1.00  0.00     0.000 C 
BRANCH  11  12
ATOM     12  C   UNL     1       7.701  17.352  27.928  1.00  0.00     0.000 C 
BRANCH  12  13
ATOM     13  C   UNL     1       8.006  16.186  28.882  1.00  0.00     0.006 C 
BRANCH  13  14
ATOM     14  C   UNL     1       7.428  14.852  28.392  1.00  0.00     0.053 C 
BRANCH  14  15
ATOM     15  C   UNL     1       6.711  14.146  29.502  1.00  0.00     0.041 C 
ATOM     16  O   UNL     1       6.925  14.470  30.701  1.00  0.00    -0.550 OA
ATOM     17  O   UNL     1       5.789  13.147  29.212  1.00  0.00    -0.550 OA
ENDBRANCH  14  15
ENDBRANCH  13  14
ENDBRANCH  12  13
ENDBRANCH  11  12
ENDBRANCH  10  11
ENDBRANCH   9  10
ENDBRANCH   8   9
ENDBRANCH   7   8
ENDBRANCH   6   7
ENDBRANCH   5   6
ENDBRANCH   4   5
ENDBRANCH   3   4
ENDBRANCH   2   3
ENDBRANCH   1   2
BRANCH   1  18
ATOM     18  C   UNL     1       3.598  20.311  30.411  1.00  0.00     0.000 C 
BRANCH  18  19
ATOM     19  C   UNL     1       2.426  19.521  31.020  1.00  0.00     0.000 C 
BRANCH  19  20
ATOM     20  C   UNL     1       1.056  20.098  30.634  1.00  0.00     0.000 C 
BRANCH  20  21
ATOM     21  C   UNL     1       0.165  19.078  29.901  1.00  0.00     0.000 C 
BRANCH  21  22
ATOM     22  C   UNL     1       0.852  18.496  28.647  1.00  0.00     0.000 C 
BRANCH  22  23
ATOM     23  C   UNL     1       0.150  17.254  28.070  1.00  0.00     0.000 C 
BRANCH  23  24
ATOM     24  C   UNL     1      -0.377  16.304  29.158  1.00  0.00    -0.000 C 
BRANCH  24  25
ATOM     25  C   UNL     1       0.702  15.335  29.669  1.00  0.00    -0.000 C 
BRANCH  25  26
ATOM     26  C   UNL     1       1.157  15.663  31.101  1.00  0.00    -0.000 C 
BRANCH  26  27
ATOM     27  C   UNL     1       2.675  15.865  31.169  1.00  0.00    -0.000 C 
BRANCH  27  28
ATOM     28  C   UNL     1       3.322  15.600  29.802  1.00  0.00    -0.000 C 
BRANCH  28  29
ATOM     29  C   UNL     1       4.221  16.756  29.334  1.00  0.00    -0.000 C 
BRANCH  29  30
ATOM     30  C   UNL     1       3.959  17.155  27.871  1.00  0.00    -0.000 C 
BRANCH  30  31
ATOM     31  C   UNL     1       3.443  15.982  27.025  1.00  0.00    -0.003 C 
ATOM     32  C   UNL     1       4.540  15.335  26.181  1.00  0.00     0.004 C 
ENDBRANCH  30  31
ENDBRANCH  29  30
ENDBRANCH  28  29
ENDBRANCH  27  28
ENDBRANCH  26  27
ENDBRANCH  25  26
ENDBRANCH  24  25
ENDBRANCH  23  24
ENDBRANCH  22  23
ENDBRANCH  21  22
ENDBRANCH  20  21
ENDBRANCH  19  20
ENDBRANCH  18  19
ENDBRANCH   1  18
TORSDOF 28
ENDMDL
MODEL 5
REMARK VINA RESULT:    -4.256      2.154      4.162
REMARK INTER + INTRA:         -15.784
REMARK INTER:                 -10.030
REMARK INTRA:                  -5.754
REMARK UNBOUND:                -4.561
REMARK SMILES CCCCCCCCCCCCCCCCCCCCCCCCCCCCCC(=O)[O-]
REMARK SMILES IDX 16 1 17 2 18 3 19 4 20 5 21 6 22 7 23 8 24 9 25 10 26 11
REMARK SMILES IDX 27 12 28 13 29 14 30 15 31 16 32 17 15 18 14 19 13 20 12 21
REMARK SMILES IDX 11 22 10 23 9 24 8 25 7 26 6 27 5 28 4 29 3 30 2 31 1 32
REMARK H PARENT
REMARK Flexibility Score: inf
ROOT
ATOM      1  C   UNL     1      -0.698  18.376  29.123  1.00  0.00     0.000 C 
ENDROOT
BRANCH   1   2
ATOM      2  C   UNL     1      -0.290  16.966  28.665  1.00  0.00     0.000 C 
BRANCH   2   3
ATOM      3  C   UNL     1       1.214  16.687  28.837  1.00  0.00     0.000 C 
BRANCH   3   4
ATOM      4  C   UNL     1       2.050  16.789  27.548  1.00  0.00     0.000 C 
BRANCH   4   5
ATOM      5  C   UNL     1       3.371  17.571  27.678  1.00  0.00     0.000 C 
BRANCH   5   6
ATOM      6  C   UNL     1       3.206  19.105  27.604  1.00  0.00     0.000 C 
BRANCH   6   7
ATOM      7  C   UNL     1       3.853  19.829  28.799  1.00  0.00     0.000 C 
BRANCH   7   8
ATOM      8  C   UNL     1       4.283  18.860  29.912  1.00  0.00     0.000 C 
BRANCH   8   9
ATOM      9  C   UNL     1       5.805  18.861  30.134  1.00  0.00     0.000 C 
BRANCH   9  10
ATOM     10  C   UNL     1       6.444  17.506  29.793  1.00  0.00     0.000 C 
BRANCH  10  11
ATOM     11  C   UNL     1       7.104  17.504  28.406  1.00  0.00     0.000 C 
BRANCH  11  12
ATOM     12  C   UNL     1       6.797  16.200  27.655  1.00  0.00     0.000 C 
BRANCH  12  13
ATOM     13  C   UNL     1       6.597  15.004  28.599  1.00  0.00     0.006 C 
BRANCH  13  14
ATOM     14  C   UNL     1       5.564  13.999  28.074  1.00  0.00     0.053 C 
BRANCH  14  15
ATOM     15  C   UNL     1       4.282  14.107  28.843  1.00  0.00     0.041 C 
ATOM     16  O   UNL     1       4.244  14.760  29.921  1.00  0.00    -0.550 OA
ATOM     17  O   UNL     1       3.126  13.507  28.359  1.00  0.00    -0.550 OA
ENDBRANCH  14  15
ENDBRANCH  13  14
ENDBRANCH  12  13
ENDBRANCH  11  12
ENDBRANCH  10  11
ENDBRANCH   9  10
ENDBRANCH   8   9
ENDBRANCH   7   8
ENDBRANCH   6   7
ENDBRANCH   5   6
ENDBRANCH   4   5
ENDBRANCH   3   4
ENDBRANCH   2   3
ENDBRANCH   1   2
BRANCH   1  18
ATOM     18  C   UNL     1       0.357  19.026  30.032  1.00  0.00     0.000 C 
BRANCH  18  19
ATOM     19  C   UNL     1       0.086  20.521  30.277  1.00  0.00     0.000 C 
BRANCH  19  20
ATOM     20  C   UNL     1       1.226  21.215  31.037  1.00  0.00     0.000 C 
BRANCH  20  21
ATOM     21  C   UNL     1       1.550  22.612  30.476  1.00  0.00     0.000 C 
BRANCH  21  22
ATOM     22  C   UNL     1       2.865  23.182  31.052  1.00  0.00     0.000 C 
BRANCH  22  23
ATOM     23  C   UNL     1       3.761  22.127  31.725  1.00  0.00     0.000 C 
BRANCH  23  24
ATOM     24  C   UNL     1       5.255  22.330  31.425  1.00  0.00    -0.000 C 
BRANCH  24  25
ATOM     25  C   UNL     1       5.495  23.148  30.146  1.00  0.00    -0.000 C 
BRANCH  25  26
ATOM     26  C   UNL     1       6.819  22.783  29.453  1.00  0.00    -0.000 C 
BRANCH  26  27
ATOM     27  C   UNL     1       6.571  22.177  28.066  1.00  0.00    -0.000 C 
BRANCH  27  28
ATOM     28  C   UNL     1       7.617  21.098  27.749  1.00  0.00    -0.000 C 
BRANCH  28  29
ATOM     29  C   UNL     1       8.758  21.054  28.777  1.00  0.00    -0.000 C 
BRANCH  29  30
ATOM     30  C   UNL     1      10.120  20.731  28.137  1.00  0.00    -0.000 C 
BRANCH  30  31
ATOM     31  C   UNL     1      10.891  19.649  28.909  1.00  0.00    -0.003 C 
ATOM     32  C   UNL     1      10.067  19.027  30.035  1.00  0.00     0.004 C 
ENDBRANCH  30  31
ENDBRANCH  29  30
ENDBRANCH  28  29
ENDBRANCH  27  28
ENDBRANCH  26  27
ENDBRANCH  25  26
ENDBRANCH  24  25
ENDBRANCH  23  24
ENDBRANCH  22  23
ENDBRANCH  21  22
ENDBRANCH  20  21
ENDBRANCH  19  20
ENDBRANCH  18  19
ENDBRANCH   1  18
TORSDOF 28
ENDMDL
MODEL 6
REMARK VINA RESULT:    -4.255      2.975      8.813
REMARK INTER + INTRA:         -15.780
REMARK INTER:                 -10.243
REMARK INTRA:                  -5.537
REMARK UNBOUND:                -4.561
REMARK SMILES CCCCCCCCCCCCCCCCCCCCCCCCCCCCCC(=O)[O-]
REMARK SMILES IDX 16 1 17 2 18 3 19 4 20 5 21 6 22 7 23 8 24 9 25 10 26 11
REMARK SMILES IDX 27 12 28 13 29 14 30 15 31 16 32 17 15 18 14 19 13 20 12 21
REMARK SMILES IDX 11 22 10 23 9 24 8 25 7 26 6 27 5 28 4 29 3 30 2 31 1 32
REMARK H PARENT
REMARK Flexibility Score: inf
ROOT
ATOM      1  C   UNL     1       9.589  21.889  28.106  1.00  0.00     0.000 C 
ENDROOT
BRANCH   1   2
ATOM      2  C   UNL     1       9.214  20.919  26.974  1.00  0.00     0.000 C 
BRANCH   2   3
ATOM      3  C   UNL     1      10.115  19.671  26.924  1.00  0.00     0.000 C 
BRANCH   3   4
ATOM      4  C   UNL     1      11.473  19.818  27.634  1.00  0.00     0.000 C 
BRANCH   4   5
ATOM      5  C   UNL     1      11.884  18.629  28.524  1.00  0.00     0.000 C 
BRANCH   5   6
ATOM      6  C   UNL     1      13.232  18.823  29.252  1.00  0.00     0.000 C 
BRANCH   6   7
ATOM      7  C   UNL     1      13.066  19.450  30.649  1.00  0.00     0.000 C 
BRANCH   7   8
ATOM      8  C   UNL     1      11.641  19.287  31.201  1.00  0.00     0.000 C 
BRANCH   8   9
ATOM      9  C   UNL     1      10.923  20.637  31.378  1.00  0.00     0.000 C 
BRANCH   9  10
ATOM     10  C   UNL     1       9.396  20.499  31.296  1.00  0.00     0.000 C 
BRANCH  10  11
ATOM     11  C   UNL     1       8.961  19.142  30.724  1.00  0.00     0.000 C 
BRANCH  11  12
ATOM     12  C   UNL     1       7.556  19.231  30.108  1.00  0.00     0.000 C 
BRANCH  12  13
ATOM     13  C   UNL     1       7.352  18.242  28.950  1.00  0.00     0.006 C 
BRANCH  13  14
ATOM     14  C   UNL     1       8.408  17.128  28.927  1.00  0.00     0.053 C 
BRANCH  14  15
ATOM     15  C   UNL     1       8.357  16.378  27.631  1.00  0.00     0.041 C 
ATOM     16  O   UNL     1       7.250  16.155  27.071  1.00  0.00    -0.550 OA
ATOM     17  O   UNL     1       9.533  15.944  27.031  1.00  0.00    -0.550 OA
ENDBRANCH  14  15
ENDBRANCH  13  14
ENDBRANCH  12  13
ENDBRANCH  11  12
ENDBRANCH  10  11
ENDBRANCH   9  10
ENDBRANCH   8   9
ENDBRANCH   7   8
ENDBRANCH   6   7
ENDBRANCH   5   6
ENDBRANCH   4   5
ENDBRANCH   3   4
ENDBRANCH   2   3
ENDBRANCH   1   2
BRANCH   1  18
ATOM     18  C   UNL     1       8.502  22.947  28.357  1.00  0.00     0.000 C 
BRANCH  18  19
ATOM     19  C   UNL     1       7.087  22.344  28.382  1.00  0.00     0.000 C 
BRANCH  19  20
ATOM     20  C   UNL     1       6.180  23.000  29.433  1.00  0.00     0.000 C 
BRANCH  20  21
ATOM     21  C   UNL     1       6.333  22.369  30.830  1.00  0.00     0.000 C 
BRANCH  21  22
ATOM     22  C   UNL     1       5.020  21.728  31.328  1.00  0.00     0.000 C 
BRANCH  22  23
ATOM     23  C   UNL     1       3.750  22.367  30.739  1.00  0.00     0.000 C 
BRANCH  23  24
ATOM     24  C   UNL     1       2.721  21.328  30.265  1.00  0.00    -0.000 C 
BRANCH  24  25
ATOM     25  C   UNL     1       3.357  19.962  29.962  1.00  0.00    -0.000 C 
BRANCH  25  26
ATOM     26  C   UNL     1       3.646  19.766  28.464  1.00  0.00    -0.000 C 
BRANCH  26  27
ATOM     27  C   UNL     1       3.690  18.278  28.097  1.00  0.00    -0.000 C 
BRANCH  27  28
ATOM     28  C   UNL     1       2.279  17.744  27.810  1.00  0.00    -0.000 C 
BRANCH  28  29
ATOM     29  C   UNL     1       1.828  16.679  28.822  1.00  0.00    -0.000 C 
BRANCH  29  30
ATOM     30  C   UNL     1       0.693  17.174  29.736  1.00  0.00    -0.000 C 
BRANCH  30  31
ATOM     31  C   UNL     1      -0.218  18.197  29.041  1.00  0.00    -0.003 C 
ATOM     32  C   UNL     1      -0.441  19.455  29.879  1.00  0.00     0.004 C 
ENDBRANCH  30  31
ENDBRANCH  29  30
ENDBRANCH  28  29
ENDBRANCH  27  28
ENDBRANCH  26  27
ENDBRANCH  25  26
ENDBRANCH  24  25
ENDBRANCH  23  24
ENDBRANCH  22  23
ENDBRANCH  21  22
ENDBRANCH  20  21
ENDBRANCH  19  20
ENDBRANCH  18  19
ENDBRANCH   1  18
TORSDOF 28
ENDMDL
MODEL 7
REMARK VINA RESULT:    -4.250      3.555      9.116
REMARK INTER + INTRA:         -15.766
REMARK INTER:                 -11.539
REMARK INTRA:                  -4.228
REMARK UNBOUND:                -4.561
REMARK SMILES CCCCCCCCCCCCCCCCCCCCCCCCCCCCCC(=O)[O-]
REMARK SMILES IDX 16 1 17 2 18 3 19 4 20 5 21 6 22 7 23 8 24 9 25 10 26 11
REMARK SMILES IDX 27 12 28 13 29 14 30 15 31 16 32 17 15 18 14 19 13 20 12 21
REMARK SMILES IDX 11 22 10 23 9 24 8 25 7 26 6 27 5 28 4 29 3 30 2 31 1 32
REMARK H PARENT
REMARK Flexibility Score: inf
ROOT
ATOM      1  C   UNL     1       3.022  20.703  30.866  1.00  0.00     0.000 C 
ENDROOT
BRANCH   1   2
ATOM      2  C   UNL     1       4.120  19.681  30.525  1.00  0.00     0.000 C 
BRANCH   2   3
ATOM      3  C   UNL     1       4.431  19.609  29.018  1.00  0.00     0.000 C 
BRANCH   3   4
ATOM      4  C   UNL     1       5.860  20.028  28.626  1.00  0.00     0.000 C 
BRANCH   4   5
ATOM      5  C   UNL     1       5.983  21.413  27.963  1.00  0.00     0.000 C 
BRANCH   5   6
ATOM      6  C   UNL     1       6.683  22.472  28.843  1.00  0.00     0.000 C 
BRANCH   6   7
ATOM      7  C   UNL     1       7.693  21.852  29.826  1.00  0.00     0.000 C 
BRANCH   7   8
ATOM      8  C   UNL     1       9.150  22.048  29.376  1.00  0.00     0.000 C 
BRANCH   8   9
ATOM      9  C   UNL     1       9.254  22.491  27.906  1.00  0.00     0.000 C 
BRANCH   9  10
ATOM     10  C   UNL     1       9.927  21.428  27.024  1.00  0.00     0.000 C 
BRANCH  10  11
ATOM     11  C   UNL     1       9.196  20.079  27.073  1.00  0.00     0.000 C 
BRANCH  11  12
ATOM     12  C   UNL     1       9.561  19.212  25.858  1.00  0.00     0.000 C 
BRANCH  12  13
ATOM     13  C   UNL     1       9.583  17.711  26.184  1.00  0.00     0.006 C 
BRANCH  13  14
ATOM     14  C   UNL     1       9.207  16.836  24.981  1.00  0.00     0.053 C 
BRANCH  14  15
ATOM     15  C   UNL     1      10.393  16.052  24.507  1.00  0.00     0.041 C 
ATOM     16  O   UNL     1      10.281  15.264  23.529  1.00  0.00    -0.550 OA
ATOM     17  O   UNL     1      11.625  16.208  25.130  1.00  0.00    -0.550 OA
ENDBRANCH  14  15
ENDBRANCH  13  14
ENDBRANCH  12  13
ENDBRANCH  11  12
ENDBRANCH  10  11
ENDBRANCH   9  10
ENDBRANCH   8   9
ENDBRANCH   7   8
ENDBRANCH   6   7
ENDBRANCH   5   6
ENDBRANCH   4   5
ENDBRANCH   3   4
ENDBRANCH   2   3
ENDBRANCH   1   2
BRANCH   1  18
ATOM     18  C   UNL     1       1.859  20.671  29.861  1.00  0.00     0.000 C 
BRANCH  18  19
ATOM     19  C   UNL     1       0.618  19.952  30.419  1.00  0.00     0.000 C 
BRANCH  19  20
ATOM     20  C   UNL     1       0.626  18.443  30.130  1.00  0.00     0.000 C 
BRANCH  20  21
ATOM     21  C   UNL     1      -0.419  18.032  29.077  1.00  0.00     0.000 C 
BRANCH  21  22
ATOM     22  C   UNL     1       0.232  17.587  27.750  1.00  0.00     0.000 C 
BRANCH  22  23
ATOM     23  C   UNL     1       1.763  17.449  27.821  1.00  0.00     0.000 C 
BRANCH  23  24
ATOM     24  C   UNL     1       2.272  16.115  27.249  1.00  0.00    -0.000 C 
BRANCH  24  25
ATOM     25  C   UNL     1       3.769  15.890  27.519  1.00  0.00    -0.000 C 
BRANCH  25  26
ATOM     26  C   UNL     1       4.021  15.119  28.826  1.00  0.00    -0.000 C 
BRANCH  26  27
ATOM     27  C   UNL     1       4.138  16.074  30.020  1.00  0.00    -0.000 C 
BRANCH  27  28
ATOM     28  C   UNL     1       3.053  15.775  31.066  1.00  0.00    -0.000 C 
BRANCH  28  29
ATOM     29  C   UNL     1       2.330  14.443  30.809  1.00  0.00    -0.000 C 
BRANCH  29  30
ATOM     30  C   UNL     1       0.812  14.539  31.040  1.00  0.00    -0.000 C 
BRANCH  30  31
ATOM     31  C   UNL     1       0.011  14.445  29.733  1.00  0.00    -0.003 C 
ATOM     32  C   UNL     1      -1.242  13.582  29.869  1.00  0.00     0.004 C 
ENDBRANCH  30  31
ENDBRANCH  29  30
ENDBRANCH  28  29
ENDBRANCH  27  28
ENDBRANCH  26  27
ENDBRANCH  25  26
ENDBRANCH  24  25
ENDBRANCH  23  24
ENDBRANCH  22  23
ENDBRANCH  21  22
ENDBRANCH  20  21
ENDBRANCH  19  20
ENDBRANCH  18  19
ENDBRANCH   1  18
TORSDOF 28
ENDMDL
MODEL 8
REMARK VINA RESULT:    -4.245      3.669      9.296
REMARK INTER + INTRA:         -15.755
REMARK INTER:                 -11.026
REMARK INTRA:                  -4.729
REMARK UNBOUND:                -4.561
REMARK SMILES CCCCCCCCCCCCCCCCCCCCCCCCCCCCCC(=O)[O-]
REMARK SMILES IDX 16 1 17 2 18 3 19 4 20 5 21 6 22 7 23 8 24 9 25 10 26 11
REMARK SMILES IDX 27 12 28 13 29 14 30 15 31 16 32 17 15 18 14 19 13 20 12 21
REMARK SMILES IDX 11 22 10 23 9 24 8 25 7 26 6 27 5 28 4 29 3 30 2 31 1 32
REMARK H PARENT
REMARK Flexibility Score: inf
ROOT
ATOM      1  C   UNL     1       4.003  21.219  30.658  1.00  0.00     0.000 C 
ENDROOT
BRANCH   1   2
ATOM      2  C   UNL     1       5.374  21.682  31.176  1.00  0.00     0.000 C 
BRANCH   2   3
ATOM      3  C   UNL     1       6.553  21.049  30.416  1.00  0.00     0.000 C 
BRANCH   3   4
ATOM      4  C   UNL     1       6.307  20.806  28.915  1.00  0.00     0.000 C 
BRANCH   4   5
ATOM      5  C   UNL     1       6.664  21.984  27.988  1.00  0.00     0.000 C 
BRANCH   5   6
ATOM      6  C   UNL     1       7.652  22.996  28.607  1.00  0.00     0.000 C 
BRANCH   6   7
ATOM      7  C   UNL     1       9.111  22.729  28.194  1.00  0.00     0.000 C 
BRANCH   7   8
ATOM      8  C   UNL     1       9.830  21.772  29.158  1.00  0.00     0.000 C 
BRANCH   8   9
ATOM      9  C   UNL     1      10.378  20.524  28.444  1.00  0.00     0.000 C 
BRANCH   9  10
ATOM     10  C   UNL     1      10.319  20.656  26.914  1.00  0.00     0.000 C 
BRANCH  10  11
ATOM     11  C   UNL     1       9.312  19.684  26.282  1.00  0.00     0.000 C 
BRANCH  11  12
ATOM     12  C   UNL     1       8.858  18.626  27.300  1.00  0.00     0.000 C 
BRANCH  12  13
ATOM     13  C   UNL     1       9.288  17.204  26.909  1.00  0.00     0.006 C 
BRANCH  13  14
ATOM     14  C   UNL     1       9.280  16.976  25.392  1.00  0.00     0.053 C 
BRANCH  14  15
ATOM     15  C   UNL     1      10.593  16.417  24.934  1.00  0.00     0.041 C 
ATOM     16  O   UNL     1      10.780  16.157  23.715  1.00  0.00    -0.550 OA
ATOM     17  O   UNL     1      11.617  16.204  25.849  1.00  0.00    -0.550 OA
ENDBRANCH  14  15
ENDBRANCH  13  14
ENDBRANCH  12  13
ENDBRANCH  11  12
ENDBRANCH  10  11
ENDBRANCH   9  10
ENDBRANCH   8   9
ENDBRANCH   7   8
ENDBRANCH   6   7
ENDBRANCH   5   6
ENDBRANCH   4   5
ENDBRANCH   3   4
ENDBRANCH   2   3
ENDBRANCH   1   2
BRANCH   1  18
ATOM     18  C   UNL     1       3.533  19.916  31.325  1.00  0.00     0.000 C 
BRANCH  18  19
ATOM     19  C   UNL     1       3.378  18.761  30.321  1.00  0.00     0.000 C 
BRANCH  19  20
ATOM     20  C   UNL     1       2.876  19.232  28.947  1.00  0.00     0.000 C 
BRANCH  20  21
ATOM     21  C   UNL     1       3.608  18.547  27.779  1.00  0.00     0.000 C 
BRANCH  21  22
ATOM     22  C   UNL     1       3.751  17.024  27.990  1.00  0.00     0.000 C 
BRANCH  22  23
ATOM     23  C   UNL     1       3.890  16.223  26.684  1.00  0.00     0.000 C 
BRANCH  23  24
ATOM     24  C   UNL     1       3.787  14.704  26.899  1.00  0.00    -0.000 C 
BRANCH  24  25
ATOM     25  C   UNL     1       3.330  14.338  28.321  1.00  0.00    -0.000 C 
BRANCH  25  26
ATOM     26  C   UNL     1       2.160  13.340  28.324  1.00  0.00    -0.000 C 
BRANCH  26  27
ATOM     27  C   UNL     1       1.132  13.695  29.406  1.00  0.00    -0.000 C 
BRANCH  27  28
ATOM     28  C   UNL     1       1.705  14.730  30.385  1.00  0.00    -0.000 C 
BRANCH  28  29
ATOM     29  C   UNL     1       0.936  16.061  30.362  1.00  0.00    -0.000 C 
BRANCH  29  30
ATOM     30  C   UNL     1      -0.199  16.071  29.323  1.00  0.00    -0.000 C 
BRANCH  30  31
ATOM     31  C   UNL     1      -0.264  17.387  28.535  1.00  0.00    -0.003 C 
ATOM     32  C   UNL     1       0.302  17.258  27.122  1.00  0.00     0.004 C 
ENDBRANCH  30  31
ENDBRANCH  29  30
ENDBRANCH  28  29
ENDBRANCH  27  28
ENDBRANCH  26  27
ENDBRANCH  25  26
ENDBRANCH  24  25
ENDBRANCH  23  24
ENDBRANCH  22  23
ENDBRANCH  21  22
ENDBRANCH  20  21
ENDBRANCH  19  20
ENDBRANCH  18  19
ENDBRANCH   1  18
TORSDOF 28
ENDMDL
MODEL 9
REMARK VINA RESULT:    -4.185     14.269     17.693
REMARK INTER + INTRA:         -15.596
REMARK INTER:                  -8.973
REMARK INTRA:                  -6.623
REMARK UNBOUND:                -4.561
REMARK SMILES CCCCCCCCCCCCCCCCCCCCCCCCCCCCCC(=O)[O-]
REMARK SMILES IDX 16 1 17 2 18 3 19 4 20 5 21 6 22 7 23 8 24 9 25 10 26 11
REMARK SMILES IDX 27 12 28 13 29 14 30 15 31 16 32 17 15 18 14 19 13 20 12 21
REMARK SMILES IDX 11 22 10 23 9 24 8 25 7 26 6 27 5 28 4 29 3 30 2 31 1 32
REMARK H PARENT
REMARK Flexibility Score: inf
ROOT
ATOM      1  C   UNL     1       8.923  15.606  17.538  1.00  0.00     0.000 C 
ENDROOT
BRANCH   1   2
ATOM      2  C   UNL     1       8.370  16.519  16.433  1.00  0.00     0.000 C 
BRANCH   2   3
ATOM      3  C   UNL     1       9.341  17.647  16.038  1.00  0.00     0.000 C 
BRANCH   3   4
ATOM      4  C   UNL     1      10.826  17.363  16.330  1.00  0.00     0.000 C 
BRANCH   4   5
ATOM      5  C   UNL     1      11.823  18.363  15.714  1.00  0.00     0.000 C 
BRANCH   5   6
ATOM      6  C   UNL     1      11.157  19.539  14.968  1.00  0.00     0.000 C 
BRANCH   6   7
ATOM      7  C   UNL     1      11.948  19.972  13.719  1.00  0.00     0.000 C 
BRANCH   7   8
ATOM      8  C   UNL     1      13.421  19.536  13.775  1.00  0.00     0.000 C 
BRANCH   8   9
ATOM      9  C   UNL     1      13.934  19.034  12.414  1.00  0.00     0.000 C 
BRANCH   9  10
ATOM     10  C   UNL     1      14.430  17.582  12.478  1.00  0.00     0.000 C 
BRANCH  10  11
ATOM     11  C   UNL     1      15.418  17.352  13.631  1.00  0.00     0.000 C 
BRANCH  11  12
ATOM     12  C   UNL     1      14.824  16.399  14.680  1.00  0.00     0.000 C 
BRANCH  12  13
ATOM     13  C   UNL     1      15.561  16.465  16.027  1.00  0.00     0.006 C 
BRANCH  13  14
ATOM     14  C   UNL     1      14.613  16.364  17.229  1.00  0.00     0.053 C 
BRANCH  14  15
ATOM     15  C   UNL     1      14.778  17.547  18.133  1.00  0.00     0.041 C 
ATOM     16  O   UNL     1      14.788  18.713  17.656  1.00  0.00    -0.550 OA
ATOM     17  O   UNL     1      14.898  17.363  19.506  1.00  0.00    -0.550 OA
ENDBRANCH  14  15
ENDBRANCH  13  14
ENDBRANCH  12  13
ENDBRANCH  11  12
ENDBRANCH  10  11
ENDBRANCH   9  10
ENDBRANCH   8   9
ENDBRANCH   7   8
ENDBRANCH   6   7
ENDBRANCH   5   6
ENDBRANCH   4   5
ENDBRANCH   3   4
ENDBRANCH   2   3
ENDBRANCH   1   2
BRANCH   1  18
ATOM     18  C   UNL     1       8.993  14.133  17.103  1.00  0.00     0.000 C 
BRANCH  18  19
ATOM     19  C   UNL     1       9.800  13.939  15.807  1.00  0.00     0.000 C 
BRANCH  19  20
ATOM     20  C   UNL     1       9.314  12.740  14.979  1.00  0.00     0.000 C 
BRANCH  20  21
ATOM     21  C   UNL     1       8.782  13.150  13.593  1.00  0.00     0.000 C 
BRANCH  21  22
ATOM     22  C   UNL     1       7.552  14.077  13.689  1.00  0.00     0.000 C 
BRANCH  22  23
ATOM     23  C   UNL     1       7.785  15.486  13.118  1.00  0.00     0.000 C 
BRANCH  23  24
ATOM     24  C   UNL     1       8.974  15.550  12.146  1.00  0.00    -0.000 C 
BRANCH  24  25
ATOM     25  C   UNL     1      10.047  16.558  12.590  1.00  0.00    -0.000 C 
BRANCH  25  26
ATOM     26  C   UNL     1      11.352  15.873  13.031  1.00  0.00    -0.000 C 
BRANCH  26  27
ATOM     27  C   UNL     1      11.835  14.869  11.977  1.00  0.00    -0.000 C 
BRANCH  27  28
ATOM     28  C   UNL     1      12.923  13.953  12.556  1.00  0.00    -0.000 C 
BRANCH  28  29
ATOM     29  C   UNL     1      12.441  12.507  12.754  1.00  0.00    -0.000 C 
BRANCH  29  30
ATOM     30  C   UNL     1      12.879  11.917  14.106  1.00  0.00    -0.000 C 
BRANCH  30  31
ATOM     31  C   UNL     1      13.432  12.984  15.063  1.00  0.00    -0.003 C 
ATOM     32  C   UNL     1      14.874  12.709  15.485  1.00  0.00     0.004 C 
ENDBRANCH  30  31
ENDBRANCH  29  30
ENDBRANCH  28  29
ENDBRANCH  27  28
ENDBRANCH  26  27
ENDBRANCH  25  26
ENDBRANCH  24  25
ENDBRANCH  23  24
ENDBRANCH  22  23
ENDBRANCH  21  22
ENDBRANCH  20  21
ENDBRANCH  19  20
ENDBRANCH  18  19
ENDBRANCH   1  18
TORSDOF 28
ENDMDL
