MODEL 1
REMARK VINA RESULT:    -5.936      0.000      0.000
REMARK INTER + INTRA:          -6.507
REMARK INTER:                  -6.456
REMARK INTRA:                  -0.051
REMARK UNBOUND:                -0.051
REMARK SMILES COc1cc2ccc(=O)oc2cc1O
REMARK SMILES IDX 3 1 13 2 12 3 11 4 5 5 4 6 6 7 7 8 8 9 9 10 10 11 2 12 1 13
REMARK SMILES IDX 14 14
REMARK H PARENT 14 15
REMARK Flexibility Score: inf
ROOT
ATOM      1  C   UNL     1      60.668  39.409  37.661  1.00  0.00     0.161 A 
ATOM      2  C   UNL     1      60.045  38.305  38.265  1.00  0.00     0.161 A 
ATOM      3  C   UNL     1      58.882  37.755  37.707  1.00  0.00     0.098 A 
ATOM      4  C   UNL     1      58.333  38.299  36.543  1.00  0.00     0.142 A 
ATOM      5  C   UNL     1      58.953  39.408  35.929  1.00  0.00     0.022 A 
ATOM      6  C   UNL     1      60.115  39.959  36.487  1.00  0.00     0.062 A 
ATOM      7  C   UNL     1      58.379  39.932  34.766  1.00  0.00     0.019 A 
ATOM      8  C   UNL     1      57.222  39.349  34.251  1.00  0.00     0.094 A 
ATOM      9  C   UNL     1      56.664  38.250  34.914  1.00  0.00     0.336 A 
ATOM     10  O   UNL     1      55.620  37.709  34.464  1.00  0.00    -0.246 OA
ATOM     11  O   UNL     1      57.230  37.772  36.018  1.00  0.00    -0.423 OA
ENDROOT
BRANCH   1  12
ATOM     12  O   UNL     1      61.829  39.928  38.254  1.00  0.00    -0.493 OA
ATOM     13  C   UNL     1      62.974  40.372  37.534  1.00  0.00     0.278 C 
ENDBRANCH   1  12
BRANCH   2  14
ATOM     14  O   UNL     1      60.591  37.759  39.426  1.00  0.00    -0.504 OA
ATOM     15  H   UNL     1      61.496  37.304  39.424  1.00  0.00     0.293 HD
ENDBRANCH   2  14
TORSDOF 2
ENDMDL
MODEL 2
REMARK VINA RESULT:    -5.882      1.604      2.702
REMARK INTER + INTRA:          -6.449
REMARK INTER:                  -6.389
REMARK INTRA:                  -0.060
REMARK UNBOUND:                -0.051
REMARK SMILES COc1cc2ccc(=O)oc2cc1O
REMARK SMILES IDX 3 1 13 2 12 3 11 4 5 5 4 6 6 7 7 8 8 9 9 10 10 11 2 12 1 13
REMARK SMILES IDX 14 14
REMARK H PARENT 14 15
REMARK Flexibility Score: inf
ROOT
ATOM      1  C   UNL     1      60.943  39.512  36.126  1.00  0.00     0.161 A 
ATOM      2  C   UNL     1      60.781  40.103  34.863  1.00  0.00     0.161 A 
ATOM      3  C   UNL     1      59.567  39.975  34.172  1.00  0.00     0.098 A 
ATOM      4  C   UNL     1      58.508  39.259  34.734  1.00  0.00     0.142 A 
ATOM      5  C   UNL     1      58.662  38.661  36.003  1.00  0.00     0.022 A 
ATOM      6  C   UNL     1      59.875  38.788  36.694  1.00  0.00     0.062 A 
ATOM      7  C   UNL     1      57.584  37.950  36.539  1.00  0.00     0.019 A 
ATOM      8  C   UNL     1      56.399  37.852  35.812  1.00  0.00     0.094 A 
ATOM      9  C   UNL     1      56.319  38.470  34.560  1.00  0.00     0.336 A 
ATOM     10  O   UNL     1      55.257  38.394  33.888  1.00  0.00    -0.246 OA
ATOM     11  O   UNL     1      57.359  39.141  34.073  1.00  0.00    -0.423 OA
ENDROOT
BRANCH   1  12
ATOM     12  O   UNL     1      62.175  39.665  36.781  1.00  0.00    -0.493 OA
ATOM     13  C   UNL     1      62.341  40.279  38.055  1.00  0.00     0.278 C 
ENDBRANCH   1  12
BRANCH   2  14
ATOM     14  O   UNL     1      61.836  40.819  34.299  1.00  0.00    -0.504 OA
ATOM     15  H   UNL     1      61.686  41.479  33.545  1.00  0.00     0.293 HD
ENDBRANCH   2  14
TORSDOF 2
ENDMDL
MODEL 3
REMARK VINA RESULT:    -5.860     10.631     11.836
REMARK INTER + INTRA:          -6.424
REMARK INTER:                  -6.395
REMARK INTRA:                  -0.029
REMARK UNBOUND:                -0.051
REMARK SMILES COc1cc2ccc(=O)oc2cc1O
REMARK SMILES IDX 3 1 13 2 12 3 11 4 5 5 4 6 6 7 7 8 8 9 9 10 10 11 2 12 1 13
REMARK SMILES IDX 14 14
REMARK H PARENT 14 15
REMARK Flexibility Score: inf
ROOT
ATOM      1  C   UNL     1      52.820  36.592  46.786  1.00  0.00     0.161 A 
ATOM      2  C   UNL     1      51.463  36.250  46.897  1.00  0.00     0.161 A 
ATOM      3  C   UNL     1      50.868  35.398  45.955  1.00  0.00     0.098 A 
ATOM      4  C   UNL     1      51.621  34.880  44.899  1.00  0.00     0.142 A 
ATOM      5  C   UNL     1      52.986  35.218  44.780  1.00  0.00     0.022 A 
ATOM      6  C   UNL     1      53.581  36.070  45.720  1.00  0.00     0.062 A 
ATOM      7  C   UNL     1      53.713  34.684  43.711  1.00  0.00     0.019 A 
ATOM      8  C   UNL     1      53.075  33.841  42.801  1.00  0.00     0.094 A 
ATOM      9  C   UNL     1      51.719  33.551  42.983  1.00  0.00     0.336 A 
ATOM     10  O   UNL     1      51.125  32.791  42.173  1.00  0.00    -0.246 OA
ATOM     11  O   UNL     1      51.051  34.071  44.009  1.00  0.00    -0.423 OA
ENDROOT
BRANCH   1  12
ATOM     12  O   UNL     1      53.374  37.449  47.750  1.00  0.00    -0.493 OA
ATOM     13  C   UNL     1      53.375  38.870  47.661  1.00  0.00     0.278 C 
ENDBRANCH   1  12
BRANCH   2  14
ATOM     14  O   UNL     1      50.709  36.765  47.950  1.00  0.00    -0.504 OA
ATOM     15  H   UNL     1      49.783  36.412  48.162  1.00  0.00     0.293 HD
ENDBRANCH   2  14
TORSDOF 2
ENDMDL
MODEL 4
REMARK VINA RESULT:    -5.784      8.146      9.801
REMARK INTER + INTRA:          -6.342
REMARK INTER:                  -6.283
REMARK INTRA:                  -0.059
REMARK UNBOUND:                -0.051
REMARK SMILES COc1cc2ccc(=O)oc2cc1O
REMARK SMILES IDX 3 1 13 2 12 3 11 4 5 5 4 6 6 7 7 8 8 9 9 10 10 11 2 12 1 13
REMARK SMILES IDX 14 14
REMARK H PARENT 14 15
REMARK Flexibility Score: inf
ROOT
ATOM      1  C   UNL     1      54.961  32.911  43.366  1.00  0.00     0.161 A 
ATOM      2  C   UNL     1      55.718  33.528  42.358  1.00  0.00     0.161 A 
ATOM      3  C   UNL     1      55.434  34.844  41.963  1.00  0.00     0.098 A 
ATOM      4  C   UNL     1      54.396  35.553  42.571  1.00  0.00     0.142 A 
ATOM      5  C   UNL     1      53.629  34.941  43.585  1.00  0.00     0.022 A 
ATOM      6  C   UNL     1      53.912  33.626  43.979  1.00  0.00     0.062 A 
ATOM      7  C   UNL     1      52.596  35.676  44.174  1.00  0.00     0.019 A 
ATOM      8  C   UNL     1      52.353  36.981  43.746  1.00  0.00     0.094 A 
ATOM      9  C   UNL     1      53.155  37.522  42.735  1.00  0.00     0.336 A 
ATOM     10  O   UNL     1      52.952  38.699  42.335  1.00  0.00    -0.246 OA
ATOM     11  O   UNL     1      54.132  36.801  42.192  1.00  0.00    -0.423 OA
ENDROOT
BRANCH   1  12
ATOM     12  O   UNL     1      55.279  31.593  43.728  1.00  0.00    -0.493 OA
ATOM     13  C   UNL     1      54.626  30.436  43.218  1.00  0.00     0.278 C 
ENDBRANCH   1  12
BRANCH   2  14
ATOM     14  O   UNL     1      56.756  32.823  41.750  1.00  0.00    -0.504 OA
ATOM     15  H   UNL     1      56.777  31.810  41.745  1.00  0.00     0.293 HD
ENDBRANCH   2  14
TORSDOF 2
ENDMDL
MODEL 5
REMARK VINA RESULT:    -5.764     19.199     20.484
REMARK INTER + INTRA:          -6.320
REMARK INTER:                  -6.274
REMARK INTRA:                  -0.046
REMARK UNBOUND:                -0.051
REMARK SMILES COc1cc2ccc(=O)oc2cc1O
REMARK SMILES IDX 3 1 13 2 12 3 11 4 5 5 4 6 6 7 7 8 8 9 9 10 10 11 2 12 1 13
REMARK SMILES IDX 14 14
REMARK H PARENT 14 15
REMARK Flexibility Score: inf
ROOT
ATOM      1  C   UNL     1      44.490  36.399  50.174  1.00  0.00     0.161 A 
ATOM      2  C   UNL     1      44.466  37.258  51.284  1.00  0.00     0.161 A 
ATOM      3  C   UNL     1      45.499  37.219  52.233  1.00  0.00     0.098 A 
ATOM      4  C   UNL     1      46.561  36.325  52.080  1.00  0.00     0.142 A 
ATOM      5  C   UNL     1      46.594  35.458  50.967  1.00  0.00     0.022 A 
ATOM      6  C   UNL     1      45.562  35.497  50.020  1.00  0.00     0.062 A 
ATOM      7  C   UNL     1      47.670  34.574  50.843  1.00  0.00     0.019 A 
ATOM      8  C   UNL     1      48.672  34.574  51.813  1.00  0.00     0.094 A 
ATOM      9  C   UNL     1      48.573  35.462  52.890  1.00  0.00     0.336 A 
ATOM     10  O   UNL     1      49.468  35.477  53.775  1.00  0.00    -0.246 OA
ATOM     11  O   UNL     1      47.539  36.293  52.984  1.00  0.00    -0.423 OA
ENDROOT
BRANCH   1  12
ATOM     12  O   UNL     1      43.435  36.472  49.251  1.00  0.00    -0.493 OA
ATOM     13  C   UNL     1      43.080  35.431  48.347  1.00  0.00     0.278 C 
ENDBRANCH   1  12
BRANCH   2  14
ATOM     14  O   UNL     1      43.407  38.151  51.439  1.00  0.00    -0.504 OA
ATOM     15  H   UNL     1      43.175  38.829  50.722  1.00  0.00     0.293 HD
ENDBRANCH   2  14
TORSDOF 2
ENDMDL
MODEL 6
REMARK VINA RESULT:    -5.750      8.724     10.168
REMARK INTER + INTRA:          -6.305
REMARK INTER:                  -6.241
REMARK INTRA:                  -0.064
REMARK UNBOUND:                -0.051
REMARK SMILES COc1cc2ccc(=O)oc2cc1O
REMARK SMILES IDX 3 1 13 2 12 3 11 4 5 5 4 6 6 7 7 8 8 9 9 10 10 11 2 12 1 13
REMARK SMILES IDX 14 14
REMARK H PARENT 14 15
REMARK Flexibility Score: inf
ROOT
ATOM      1  C   UNL     1      52.265  35.907  43.985  1.00  0.00     0.161 A 
ATOM      2  C   UNL     1      53.053  35.712  42.840  1.00  0.00     0.161 A 
ATOM      3  C   UNL     1      53.527  36.812  42.110  1.00  0.00     0.098 A 
ATOM      4  C   UNL     1      53.222  38.112  42.519  1.00  0.00     0.142 A 
ATOM      5  C   UNL     1      52.432  38.318  43.669  1.00  0.00     0.022 A 
ATOM      6  C   UNL     1      51.956  37.219  44.398  1.00  0.00     0.062 A 
ATOM      7  C   UNL     1      52.142  39.632  44.052  1.00  0.00     0.019 A 
ATOM      8  C   UNL     1      52.638  40.691  43.293  1.00  0.00     0.094 A 
ATOM      9  C   UNL     1      53.415  40.411  42.164  1.00  0.00     0.336 A 
ATOM     10  O   UNL     1      53.873  41.354  41.467  1.00  0.00    -0.246 OA
ATOM     11  O   UNL     1      53.676  39.152  41.823  1.00  0.00    -0.423 OA
ENDROOT
BRANCH   1  12
ATOM     12  O   UNL     1      51.811  34.778  44.684  1.00  0.00    -0.493 OA
ATOM     13  C   UNL     1      50.452  34.356  44.739  1.00  0.00     0.278 C 
ENDBRANCH   1  12
BRANCH   2  14
ATOM     14  O   UNL     1      53.359  34.415  42.430  1.00  0.00    -0.504 OA
ATOM     15  H   UNL     1      52.834  33.953  41.696  1.00  0.00     0.293 HD
ENDBRANCH   2  14
TORSDOF 2
ENDMDL
MODEL 7
REMARK VINA RESULT:    -5.680      8.855     10.135
REMARK INTER + INTRA:          -6.229
REMARK INTER:                  -6.164
REMARK INTRA:                  -0.065
REMARK UNBOUND:                -0.051
REMARK SMILES COc1cc2ccc(=O)oc2cc1O
REMARK SMILES IDX 3 1 13 2 12 3 11 4 5 5 4 6 6 7 7 8 8 9 9 10 10 11 2 12 1 13
REMARK SMILES IDX 14 14
REMARK H PARENT 14 15
REMARK Flexibility Score: inf
ROOT
ATOM      1  C   UNL     1      53.538  37.793  44.500  1.00  0.00     0.161 A 
ATOM      2  C   UNL     1      52.820  36.904  45.315  1.00  0.00     0.161 A 
ATOM      3  C   UNL     1      53.014  35.520  45.195  1.00  0.00     0.098 A 
ATOM      4  C   UNL     1      53.924  35.014  44.264  1.00  0.00     0.142 A 
ATOM      5  C   UNL     1      54.650  35.901  43.441  1.00  0.00     0.022 A 
ATOM      6  C   UNL     1      54.457  37.284  43.560  1.00  0.00     0.062 A 
ATOM      7  C   UNL     1      55.553  35.364  42.518  1.00  0.00     0.019 A 
ATOM      8  C   UNL     1      55.709  33.981  42.437  1.00  0.00     0.094 A 
ATOM      9  C   UNL     1      54.955  33.163  43.286  1.00  0.00     0.336 A 
ATOM     10  O   UNL     1      55.082  31.912  43.229  1.00  0.00    -0.246 OA
ATOM     11  O   UNL     1      54.103  33.700  44.155  1.00  0.00    -0.423 OA
ENDROOT
BRANCH   1  12
ATOM     12  O   UNL     1      53.312  39.170  44.654  1.00  0.00    -0.493 OA
ATOM     13  C   UNL     1      52.567  39.972  43.743  1.00  0.00     0.278 C 
ENDBRANCH   1  12
BRANCH   2  14
ATOM     14  O   UNL     1      51.911  37.406  46.245  1.00  0.00    -0.504 OA
ATOM     15  H   UNL     1      50.918  37.214  46.173  1.00  0.00     0.293 HD
ENDBRANCH   2  14
TORSDOF 2
ENDMDL
MODEL 8
REMARK VINA RESULT:    -5.661      8.666     10.568
REMARK INTER + INTRA:          -6.208
REMARK INTER:                  -6.143
REMARK INTRA:                  -0.065
REMARK UNBOUND:                -0.051
REMARK SMILES COc1cc2ccc(=O)oc2cc1O
REMARK SMILES IDX 3 1 13 2 12 3 11 4 5 5 4 6 6 7 7 8 8 9 9 10 10 11 2 12 1 13
REMARK SMILES IDX 14 14
REMARK H PARENT 14 15
REMARK Flexibility Score: inf
ROOT
ATOM      1  C   UNL     1      54.387  33.986  43.397  1.00  0.00     0.161 A 
ATOM      2  C   UNL     1      54.994  34.954  42.582  1.00  0.00     0.161 A 
ATOM      3  C   UNL     1      54.996  36.303  42.966  1.00  0.00     0.098 A 
ATOM      4  C   UNL     1      54.395  36.695  44.165  1.00  0.00     0.142 A 
ATOM      5  C   UNL     1      53.784  35.728  44.991  1.00  0.00     0.022 A 
ATOM      6  C   UNL     1      53.781  34.380  44.607  1.00  0.00     0.062 A 
ATOM      7  C   UNL     1      53.190  36.152  46.184  1.00  0.00     0.019 A 
ATOM      8  C   UNL     1      53.219  37.504  46.521  1.00  0.00     0.094 A 
ATOM      9  C   UNL     1      53.844  38.406  45.653  1.00  0.00     0.336 A 
ATOM     10  O   UNL     1      53.881  39.631  45.940  1.00  0.00    -0.246 OA
ATOM     11  O   UNL     1      54.401  37.977  44.524  1.00  0.00    -0.423 OA
ENDROOT
BRANCH   1  12
ATOM     12  O   UNL     1      54.408  32.648  42.973  1.00  0.00    -0.493 OA
ATOM     13  C   UNL     1      55.218  31.630  43.551  1.00  0.00     0.278 C 
ENDBRANCH   1  12
BRANCH   2  14
ATOM     14  O   UNL     1      55.594  34.566  41.385  1.00  0.00    -0.504 OA
ATOM     15  H   UNL     1      55.385  35.034  40.510  1.00  0.00     0.293 HD
ENDBRANCH   2  14
TORSDOF 2
ENDMDL
MODEL 9
REMARK VINA RESULT:    -5.635      1.289      4.883
REMARK INTER + INTRA:          -6.180
REMARK INTER:                  -6.116
REMARK INTRA:                  -0.064
REMARK UNBOUND:                -0.051
REMARK SMILES COc1cc2ccc(=O)oc2cc1O
REMARK SMILES IDX 3 1 13 2 12 3 11 4 5 5 4 6 6 7 7 8 8 9 9 10 10 11 2 12 1 13
REMARK SMILES IDX 14 14
REMARK H PARENT 14 15
REMARK Flexibility Score: inf
ROOT
ATOM      1  C   UNL     1      57.680  37.902  35.854  1.00  0.00     0.161 A 
ATOM      2  C   UNL     1      57.546  37.877  37.251  1.00  0.00     0.161 A 
ATOM      3  C   UNL     1      58.592  38.323  38.072  1.00  0.00     0.098 A 
ATOM      4  C   UNL     1      59.777  38.798  37.505  1.00  0.00     0.142 A 
ATOM      5  C   UNL     1      59.921  38.828  36.102  1.00  0.00     0.022 A 
ATOM      6  C   UNL     1      58.876  38.381  35.282  1.00  0.00     0.062 A 
ATOM      7  C   UNL     1      61.120  39.309  35.566  1.00  0.00     0.019 A 
ATOM      8  C   UNL     1      62.130  39.741  36.424  1.00  0.00     0.094 A 
ATOM      9  C   UNL     1      61.916  39.683  37.806  1.00  0.00     0.336 A 
ATOM     10  O   UNL     1      62.816  40.069  38.597  1.00  0.00    -0.246 OA
ATOM     11  O   UNL     1      60.766  39.221  38.290  1.00  0.00    -0.423 OA
ENDROOT
BRANCH   1  12
ATOM     12  O   UNL     1      56.608  37.445  35.072  1.00  0.00    -0.493 OA
ATOM     13  C   UNL     1      55.659  38.290  34.430  1.00  0.00     0.278 C 
ENDBRANCH   1  12
BRANCH   2  14
ATOM     14  O   UNL     1      56.364  37.403  37.819  1.00  0.00    -0.504 OA
ATOM     15  H   UNL     1      55.458  37.638  37.432  1.00  0.00     0.293 HD
ENDBRANCH   2  14
TORSDOF 2
ENDMDL
