MODEL 1
REMARK VINA RESULT:    -4.633      0.000      0.000
REMARK INTER + INTRA:         -16.299
REMARK INTER:                 -12.216
REMARK INTRA:                  -4.083
REMARK UNBOUND:                -4.083
REMARK SMILES CCCCCCCCCCCCCCCCCCCCCCCCCCCCCC(=O)[O-]
REMARK SMILES IDX 16 1 17 2 18 3 19 4 20 5 21 6 22 7 23 8 24 9 25 10 26 11
REMARK SMILES IDX 27 12 28 13 29 14 30 15 31 16 32 17 15 18 14 19 13 20 12 21
REMARK SMILES IDX 11 22 10 23 9 24 8 25 7 26 6 27 5 28 4 29 3 30 2 31 1 32
REMARK H PARENT
REMARK Flexibility Score: inf
ROOT
ATOM      1  C   UNL     1      16.597   1.752  40.610  1.00  0.00     0.000 C 
ENDROOT
BRANCH   1   2
ATOM      2  C   UNL     1      17.549   2.513  41.555  1.00  0.00     0.000 C 
BRANCH   2   3
ATOM      3  C   UNL     1      17.201   4.005  41.755  1.00  0.00     0.000 C 
BRANCH   3   4
ATOM      4  C   UNL     1      16.127   4.527  40.781  1.00  0.00     0.000 C 
BRANCH   4   5
ATOM      5  C   UNL     1      14.792   4.919  41.439  1.00  0.00     0.000 C 
BRANCH   5   6
ATOM      6  C   UNL     1      14.237   6.298  41.023  1.00  0.00     0.000 C 
BRANCH   6   7
ATOM      7  C   UNL     1      15.082   7.503  41.476  1.00  0.00     0.000 C 
BRANCH   7   8
ATOM      8  C   UNL     1      14.844   7.873  42.951  1.00  0.00     0.000 C 
BRANCH   8   9
ATOM      9  C   UNL     1      16.059   7.555  43.838  1.00  0.00     0.000 C 
BRANCH   9  10
ATOM     10  C   UNL     1      16.959   8.786  44.053  1.00  0.00     0.000 C 
BRANCH  10  11
ATOM     11  C   UNL     1      18.436   8.501  43.741  1.00  0.00     0.000 C 
BRANCH  11  12
ATOM     12  C   UNL     1      18.641   7.883  42.346  1.00  0.00     0.000 C 
BRANCH  12  13
ATOM     13  C   UNL     1      19.401   6.547  42.398  1.00  0.00     0.006 C 
BRANCH  13  14
ATOM     14  C   UNL     1      20.870   6.719  42.812  1.00  0.00     0.053 C 
BRANCH  14  15
ATOM     15  C   UNL     1      21.625   5.432  42.679  1.00  0.00     0.041 C 
ATOM     16  O   UNL     1      21.208   4.534  41.900  1.00  0.00    -0.550 OA
ATOM     17  O   UNL     1      22.819   5.244  43.366  1.00  0.00    -0.550 OA
ENDBRANCH  14  15
ENDBRANCH  13  14
ENDBRANCH  12  13
ENDBRANCH  11  12
ENDBRANCH  10  11
ENDBRANCH   9  10
ENDBRANCH   8   9
ENDBRANCH   7   8
ENDBRANCH   6   7
ENDBRANCH   5   6
ENDBRANCH   4   5
ENDBRANCH   3   4
ENDBRANCH   2   3
ENDBRANCH   1   2
BRANCH   1  18
ATOM     18  C   UNL     1      15.568   0.828  41.298  1.00  0.00     0.000 C 
BRANCH  18  19
ATOM     19  C   UNL     1      14.801  -0.127  40.366  1.00  0.00     0.000 C 
BRANCH  19  20
ATOM     20  C   UNL     1      13.898  -1.113  41.126  1.00  0.00     0.000 C 
BRANCH  20  21
ATOM     21  C   UNL     1      12.624  -0.450  41.679  1.00  0.00     0.000 C 
BRANCH  21  22
ATOM     22  C   UNL     1      11.585  -0.084  40.598  1.00  0.00     0.000 C 
BRANCH  22  23
ATOM     23  C   UNL     1      11.141   1.389  40.678  1.00  0.00     0.000 C 
BRANCH  23  24
ATOM     24  C   UNL     1      12.130   2.268  41.460  1.00  0.00    -0.000 C 
BRANCH  24  25
ATOM     25  C   UNL     1      11.563   3.657  41.790  1.00  0.00    -0.000 C 
BRANCH  25  26
ATOM     26  C   UNL     1      11.481   3.867  43.310  1.00  0.00    -0.000 C 
BRANCH  26  27
ATOM     27  C   UNL     1      11.094   5.304  43.702  1.00  0.00    -0.000 C 
BRANCH  27  28
ATOM     28  C   UNL     1      12.118   6.052  44.584  1.00  0.00    -0.000 C 
BRANCH  28  29
ATOM     29  C   UNL     1      13.292   5.194  45.094  1.00  0.00    -0.000 C 
BRANCH  29  30
ATOM     30  C   UNL     1      13.319   5.031  46.632  1.00  0.00    -0.000 C 
BRANCH  30  31
ATOM     31  C   UNL     1      14.740   5.044  47.220  1.00  0.00    -0.003 C 
ATOM     32  C   UNL     1      15.794   4.558  46.226  1.00  0.00     0.004 C 
ENDBRANCH  30  31
ENDBRANCH  29  30
ENDBRANCH  28  29
ENDBRANCH  27  28
ENDBRANCH  26  27
ENDBRANCH  25  26
ENDBRANCH  24  25
ENDBRANCH  23  24
ENDBRANCH  22  23
ENDBRANCH  21  22
ENDBRANCH  20  21
ENDBRANCH  19  20
ENDBRANCH  18  19
ENDBRANCH   1  18
TORSDOF 28
ENDMDL
MODEL 2
REMARK VINA RESULT:    -4.585      1.675      5.573
REMARK INTER + INTRA:         -16.174
REMARK INTER:                 -10.949
REMARK INTRA:                  -5.224
REMARK UNBOUND:                -4.083
REMARK SMILES CCCCCCCCCCCCCCCCCCCCCCCCCCCCCC(=O)[O-]
REMARK SMILES IDX 16 1 17 2 18 3 19 4 20 5 21 6 22 7 23 8 24 9 25 10 26 11
REMARK SMILES IDX 27 12 28 13 29 14 30 15 31 16 32 17 15 18 14 19 13 20 12 21
REMARK SMILES IDX 11 22 10 23 9 24 8 25 7 26 6 27 5 28 4 29 3 30 2 31 1 32
REMARK H PARENT
REMARK Flexibility Score: inf
ROOT
ATOM      1  C   UNL     1      15.672   4.746  46.340  1.00  0.00     0.000 C 
ENDROOT
BRANCH   1   2
ATOM      2  C   UNL     1      16.650   5.914  46.574  1.00  0.00     0.000 C 
BRANCH   2   3
ATOM      3  C   UNL     1      16.431   7.133  45.650  1.00  0.00     0.000 C 
BRANCH   3   4
ATOM      4  C   UNL     1      15.514   8.213  46.256  1.00  0.00     0.000 C 
BRANCH   4   5
ATOM      5  C   UNL     1      15.335   9.471  45.387  1.00  0.00     0.000 C 
BRANCH   5   6
ATOM      6  C   UNL     1      16.289   9.575  44.179  1.00  0.00     0.000 C 
BRANCH   6   7
ATOM      7  C   UNL     1      15.620   9.985  42.854  1.00  0.00     0.000 C 
BRANCH   7   8
ATOM      8  C   UNL     1      16.557   9.830  41.643  1.00  0.00     0.000 C 
BRANCH   8   9
ATOM      9  C   UNL     1      16.805   8.357  41.279  1.00  0.00     0.000 C 
BRANCH   9  10
ATOM     10  C   UNL     1      18.178   7.862  41.771  1.00  0.00     0.000 C 
BRANCH  10  11
ATOM     11  C   UNL     1      18.110   6.466  42.409  1.00  0.00     0.000 C 
BRANCH  11  12
ATOM     12  C   UNL     1      17.101   5.539  41.708  1.00  0.00     0.000 C 
BRANCH  12  13
ATOM     13  C   UNL     1      16.634   4.384  42.609  1.00  0.00     0.006 C 
BRANCH  13  14
ATOM     14  C   UNL     1      16.892   3.006  41.985  1.00  0.00     0.053 C 
BRANCH  14  15
ATOM     15  C   UNL     1      18.129   3.018  41.138  1.00  0.00     0.041 C 
ATOM     16  O   UNL     1      18.035   3.014  39.883  1.00  0.00    -0.550 OA
ATOM     17  O   UNL     1      19.385   3.095  41.732  1.00  0.00    -0.550 OA
ENDBRANCH  14  15
ENDBRANCH  13  14
ENDBRANCH  12  13
ENDBRANCH  11  12
ENDBRANCH  10  11
ENDBRANCH   9  10
ENDBRANCH   8   9
ENDBRANCH   7   8
ENDBRANCH   6   7
ENDBRANCH   5   6
ENDBRANCH   4   5
ENDBRANCH   3   4
ENDBRANCH   2   3
ENDBRANCH   1   2
BRANCH   1  18
ATOM     18  C   UNL     1      14.377   4.777  47.182  1.00  0.00     0.000 C 
BRANCH  18  19
ATOM     19  C   UNL     1      13.115   5.264  46.447  1.00  0.00     0.000 C 
BRANCH  19  20
ATOM     20  C   UNL     1      13.209   5.107  44.921  1.00  0.00     0.000 C 
BRANCH  20  21
ATOM     21  C   UNL     1      12.826   6.391  44.164  1.00  0.00     0.000 C 
BRANCH  21  22
ATOM     22  C   UNL     1      13.891   6.867  43.153  1.00  0.00     0.000 C 
BRANCH  22  23
ATOM     23  C   UNL     1      13.306   7.118  41.751  1.00  0.00     0.000 C 
BRANCH  23  24
ATOM     24  C   UNL     1      13.601   5.972  40.769  1.00  0.00    -0.000 C 
BRANCH  24  25
ATOM     25  C   UNL     1      12.443   4.967  40.658  1.00  0.00    -0.000 C 
BRANCH  25  26
ATOM     26  C   UNL     1      12.790   3.653  41.374  1.00  0.00    -0.000 C 
BRANCH  26  27
ATOM     27  C   UNL     1      11.550   2.892  41.875  1.00  0.00    -0.000 C 
BRANCH  27  28
ATOM     28  C   UNL     1      11.330   1.495  41.254  1.00  0.00    -0.000 C 
BRANCH  28  29
ATOM     29  C   UNL     1      12.469   0.485  41.497  1.00  0.00    -0.000 C 
BRANCH  29  30
ATOM     30  C   UNL     1      12.698  -0.487  40.316  1.00  0.00    -0.000 C 
BRANCH  30  31
ATOM     31  C   UNL     1      14.088  -1.145  40.330  1.00  0.00    -0.003 C 
ATOM     32  C   UNL     1      15.168  -0.229  40.904  1.00  0.00     0.004 C 
ENDBRANCH  30  31
ENDBRANCH  29  30
ENDBRANCH  28  29
ENDBRANCH  27  28
ENDBRANCH  26  27
ENDBRANCH  25  26
ENDBRANCH  24  25
ENDBRANCH  23  24
ENDBRANCH  22  23
ENDBRANCH  21  22
ENDBRANCH  20  21
ENDBRANCH  19  20
ENDBRANCH  18  19
ENDBRANCH   1  18
TORSDOF 28
ENDMDL
MODEL 3
REMARK VINA RESULT:    -4.545      2.427      5.439
REMARK INTER + INTRA:         -16.068
REMARK INTER:                 -11.945
REMARK INTRA:                  -4.123
REMARK UNBOUND:                -4.083
REMARK SMILES CCCCCCCCCCCCCCCCCCCCCCCCCCCCCC(=O)[O-]
REMARK SMILES IDX 16 1 17 2 18 3 19 4 20 5 21 6 22 7 23 8 24 9 25 10 26 11
REMARK SMILES IDX 27 12 28 13 29 14 30 15 31 16 32 17 15 18 14 19 13 20 12 21
REMARK SMILES IDX 11 22 10 23 9 24 8 25 7 26 6 27 5 28 4 29 3 30 2 31 1 32
REMARK H PARENT
REMARK Flexibility Score: inf
ROOT
ATOM      1  C   UNL     1      17.099   4.083  41.330  1.00  0.00     0.000 C 
ENDROOT
BRANCH   1   2
ATOM      2  C   UNL     1      16.177   5.097  40.624  1.00  0.00     0.000 C 
BRANCH   2   3
ATOM      3  C   UNL     1      14.974   5.572  41.469  1.00  0.00     0.000 C 
BRANCH   3   4
ATOM      4  C   UNL     1      13.805   4.568  41.500  1.00  0.00     0.000 C 
BRANCH   4   5
ATOM      5  C   UNL     1      12.814   4.765  42.661  1.00  0.00     0.000 C 
BRANCH   5   6
ATOM      6  C   UNL     1      12.799   6.180  43.278  1.00  0.00     0.000 C 
BRANCH   6   7
ATOM      7  C   UNL     1      12.469   6.231  44.781  1.00  0.00     0.000 C 
BRANCH   7   8
ATOM      8  C   UNL     1      13.039   5.029  45.554  1.00  0.00     0.000 C 
BRANCH   8   9
ATOM      9  C   UNL     1      14.186   5.429  46.496  1.00  0.00     0.000 C 
BRANCH   9  10
ATOM     10  C   UNL     1      15.524   4.786  46.088  1.00  0.00     0.000 C 
BRANCH  10  11
ATOM     11  C   UNL     1      16.112   5.403  44.810  1.00  0.00     0.000 C 
BRANCH  11  12
ATOM     12  C   UNL     1      16.685   6.813  45.040  1.00  0.00     0.000 C 
BRANCH  12  13
ATOM     13  C   UNL     1      16.343   7.784  43.898  1.00  0.00     0.006 C 
BRANCH  13  14
ATOM     14  C   UNL     1      17.576   8.192  43.079  1.00  0.00     0.053 C 
BRANCH  14  15
ATOM     15  C   UNL     1      17.182   8.707  41.728  1.00  0.00     0.041 C 
ATOM     16  O   UNL     1      16.329   9.627  41.627  1.00  0.00    -0.550 OA
ATOM     17  O   UNL     1      17.799   8.215  40.582  1.00  0.00    -0.550 OA
ENDBRANCH  14  15
ENDBRANCH  13  14
ENDBRANCH  12  13
ENDBRANCH  11  12
ENDBRANCH  10  11
ENDBRANCH   9  10
ENDBRANCH   8   9
ENDBRANCH   7   8
ENDBRANCH   6   7
ENDBRANCH   5   6
ENDBRANCH   4   5
ENDBRANCH   3   4
ENDBRANCH   2   3
ENDBRANCH   1   2
BRANCH   1  18
ATOM     18  C   UNL     1      17.758   3.028  40.416  1.00  0.00     0.000 C 
BRANCH  18  19
ATOM     19  C   UNL     1      17.301   1.575  40.635  1.00  0.00     0.000 C 
BRANCH  19  20
ATOM     20  C   UNL     1      15.790   1.451  40.890  1.00  0.00     0.000 C 
BRANCH  20  21
ATOM     21  C   UNL     1      15.310  -0.010  40.932  1.00  0.00     0.000 C 
BRANCH  21  22
ATOM     22  C   UNL     1      14.217  -0.344  39.895  1.00  0.00     0.000 C 
BRANCH  22  23
ATOM     23  C   UNL     1      12.963  -0.968  40.535  1.00  0.00     0.000 C 
BRANCH  23  24
ATOM     24  C   UNL     1      12.422  -0.143  41.714  1.00  0.00    -0.000 C 
BRANCH  24  25
ATOM     25  C   UNL     1      12.018   1.283  41.309  1.00  0.00    -0.000 C 
BRANCH  25  26
ATOM     26  C   UNL     1      10.541   1.547  41.638  1.00  0.00    -0.000 C 
BRANCH  26  27
ATOM     27  C   UNL     1       9.745   2.104  40.444  1.00  0.00    -0.000 C 
BRANCH  27  28
ATOM     28  C   UNL     1      10.533   2.234  39.122  1.00  0.00    -0.000 C 
BRANCH  28  29
ATOM     29  C   UNL     1      10.181   1.188  38.045  1.00  0.00    -0.000 C 
BRANCH  29  30
ATOM     30  C   UNL     1      10.985   1.353  36.734  1.00  0.00    -0.000 C 
BRANCH  30  31
ATOM     31  C   UNL     1      10.500   2.527  35.867  1.00  0.00    -0.003 C 
ATOM     32  C   UNL     1       8.985   2.522  35.661  1.00  0.00     0.004 C 
ENDBRANCH  30  31
ENDBRANCH  29  30
ENDBRANCH  28  29
ENDBRANCH  27  28
ENDBRANCH  26  27
ENDBRANCH  25  26
ENDBRANCH  24  25
ENDBRANCH  23  24
ENDBRANCH  22  23
ENDBRANCH  21  22
ENDBRANCH  20  21
ENDBRANCH  19  20
ENDBRANCH  18  19
ENDBRANCH   1  18
TORSDOF 28
ENDMDL
MODEL 4
REMARK VINA RESULT:    -4.538      2.811      5.389
REMARK INTER + INTRA:         -16.048
REMARK INTER:                 -11.059
REMARK INTRA:                  -4.989
REMARK UNBOUND:                -4.083
REMARK SMILES CCCCCCCCCCCCCCCCCCCCCCCCCCCCCC(=O)[O-]
REMARK SMILES IDX 16 1 17 2 18 3 19 4 20 5 21 6 22 7 23 8 24 9 25 10 26 11
REMARK SMILES IDX 27 12 28 13 29 14 30 15 31 16 32 17 15 18 14 19 13 20 12 21
REMARK SMILES IDX 11 22 10 23 9 24 8 25 7 26 6 27 5 28 4 29 3 30 2 31 1 32
REMARK H PARENT
REMARK Flexibility Score: inf
ROOT
ATOM      1  C   UNL     1      12.044  -0.146  41.740  1.00  0.00     0.000 C 
ENDROOT
BRANCH   1   2
ATOM      2  C   UNL     1      12.987   0.121  40.549  1.00  0.00     0.000 C 
BRANCH   2   3
ATOM      3  C   UNL     1      14.208  -0.822  40.471  1.00  0.00     0.000 C 
BRANCH   3   4
ATOM      4  C   UNL     1      15.507  -0.200  41.020  1.00  0.00     0.000 C 
BRANCH   4   5
ATOM      5  C   UNL     1      15.729   1.275  40.639  1.00  0.00     0.000 C 
BRANCH   5   6
ATOM      6  C   UNL     1      17.203   1.734  40.628  1.00  0.00     0.000 C 
BRANCH   6   7
ATOM      7  C   UNL     1      17.409   3.258  40.550  1.00  0.00     0.000 C 
BRANCH   7   8
ATOM      8  C   UNL     1      16.153   4.048  40.960  1.00  0.00     0.000 C 
BRANCH   8   9
ATOM      9  C   UNL     1      16.300   5.557  40.705  1.00  0.00     0.000 C 
BRANCH   9  10
ATOM     10  C   UNL     1      16.416   6.358  42.015  1.00  0.00     0.000 C 
BRANCH  10  11
ATOM     11  C   UNL     1      15.749   5.650  43.204  1.00  0.00     0.000 C 
BRANCH  11  12
ATOM     12  C   UNL     1      14.312   6.140  43.459  1.00  0.00     0.000 C 
BRANCH  12  13
ATOM     13  C   UNL     1      13.710   5.559  44.749  1.00  0.00     0.006 C 
BRANCH  13  14
ATOM     14  C   UNL     1      14.481   5.987  46.005  1.00  0.00     0.053 C 
BRANCH  14  15
ATOM     15  C   UNL     1      14.895   4.798  46.818  1.00  0.00     0.041 C 
ATOM     16  O   UNL     1      14.121   4.333  47.695  1.00  0.00    -0.550 OA
ATOM     17  O   UNL     1      16.109   4.166  46.569  1.00  0.00    -0.550 OA
ENDBRANCH  14  15
ENDBRANCH  13  14
ENDBRANCH  12  13
ENDBRANCH  11  12
ENDBRANCH  10  11
ENDBRANCH   9  10
ENDBRANCH   8   9
ENDBRANCH   7   8
ENDBRANCH   6   7
ENDBRANCH   5   6
ENDBRANCH   4   5
ENDBRANCH   3   4
ENDBRANCH   2   3
ENDBRANCH   1   2
BRANCH   1  18
ATOM     18  C   UNL     1      10.575  -0.453  41.375  1.00  0.00     0.000 C 
BRANCH  18  19
ATOM     19  C   UNL     1      10.346  -1.051  39.975  1.00  0.00     0.000 C 
BRANCH  19  20
ATOM     20  C   UNL     1       9.614  -0.092  39.023  1.00  0.00     0.000 C 
BRANCH  20  21
ATOM     21  C   UNL     1       9.743   1.382  39.446  1.00  0.00     0.000 C 
BRANCH  21  22
ATOM     22  C   UNL     1       9.045   2.374  38.491  1.00  0.00     0.000 C 
BRANCH  22  23
ATOM     23  C   UNL     1       8.297   3.492  39.241  1.00  0.00     0.000 C 
BRANCH  23  24
ATOM     24  C   UNL     1       8.134   3.197  40.741  1.00  0.00    -0.000 C 
BRANCH  24  25
ATOM     25  C   UNL     1       8.193   4.463  41.609  1.00  0.00    -0.000 C 
BRANCH  25  26
ATOM     26  C   UNL     1       9.046   4.226  42.865  1.00  0.00    -0.000 C 
BRANCH  26  27
ATOM     27  C   UNL     1      10.088   3.108  42.684  1.00  0.00    -0.000 C 
BRANCH  27  28
ATOM     28  C   UNL     1      11.564   3.565  42.691  1.00  0.00    -0.000 C 
BRANCH  28  29
ATOM     29  C   UNL     1      12.253   3.571  41.312  1.00  0.00    -0.000 C 
BRANCH  29  30
ATOM     30  C   UNL     1      12.370   4.980  40.684  1.00  0.00    -0.000 C 
BRANCH  30  31
ATOM     31  C   UNL     1      11.557   5.137  39.387  1.00  0.00    -0.003 C 
ATOM     32  C   UNL     1      10.667   6.379  39.396  1.00  0.00     0.004 C 
ENDBRANCH  30  31
ENDBRANCH  29  30
ENDBRANCH  28  29
ENDBRANCH  27  28
ENDBRANCH  26  27
ENDBRANCH  25  26
ENDBRANCH  24  25
ENDBRANCH  23  24
ENDBRANCH  22  23
ENDBRANCH  21  22
ENDBRANCH  20  21
ENDBRANCH  19  20
ENDBRANCH  18  19
ENDBRANCH   1  18
TORSDOF 28
ENDMDL
MODEL 5
REMARK VINA RESULT:    -4.537      2.750      4.460
REMARK INTER + INTRA:         -16.046
REMARK INTER:                 -11.574
REMARK INTRA:                  -4.472
REMARK UNBOUND:                -4.083
REMARK SMILES CCCCCCCCCCCCCCCCCCCCCCCCCCCCCC(=O)[O-]
REMARK SMILES IDX 16 1 17 2 18 3 19 4 20 5 21 6 22 7 23 8 24 9 25 10 26 11
REMARK SMILES IDX 27 12 28 13 29 14 30 15 31 16 32 17 15 18 14 19 13 20 12 21
REMARK SMILES IDX 11 22 10 23 9 24 8 25 7 26 6 27 5 28 4 29 3 30 2 31 1 32
REMARK H PARENT
REMARK Flexibility Score: inf
ROOT
ATOM      1  C   UNL     1      15.319   0.956  40.669  1.00  0.00     0.000 C 
ENDROOT
BRANCH   1   2
ATOM      2  C   UNL     1      16.763   1.476  40.814  1.00  0.00     0.000 C 
BRANCH   2   3
ATOM      3  C   UNL     1      16.998   2.891  40.242  1.00  0.00     0.000 C 
BRANCH   3   4
ATOM      4  C   UNL     1      16.217   3.995  40.980  1.00  0.00     0.000 C 
BRANCH   4   5
ATOM      5  C   UNL     1      16.976   5.324  41.146  1.00  0.00     0.000 C 
BRANCH   5   6
ATOM      6  C   UNL     1      16.240   6.571  40.611  1.00  0.00     0.000 C 
BRANCH   6   7
ATOM      7  C   UNL     1      17.130   7.810  40.400  1.00  0.00     0.000 C 
BRANCH   7   8
ATOM      8  C   UNL     1      16.580   9.062  41.107  1.00  0.00     0.000 C 
BRANCH   8   9
ATOM      9  C   UNL     1      17.183   9.257  42.507  1.00  0.00     0.000 C 
BRANCH   9  10
ATOM     10  C   UNL     1      18.399   8.344  42.748  1.00  0.00     0.000 C 
BRANCH  10  11
ATOM     11  C   UNL     1      18.212   7.414  43.956  1.00  0.00     0.000 C 
BRANCH  11  12
ATOM     12  C   UNL     1      16.742   7.305  44.401  1.00  0.00     0.000 C 
BRANCH  12  13
ATOM     13  C   UNL     1      16.291   5.848  44.599  1.00  0.00     0.006 C 
BRANCH  13  14
ATOM     14  C   UNL     1      14.805   5.642  44.273  1.00  0.00     0.053 C 
BRANCH  14  15
ATOM     15  C   UNL     1      14.009   5.383  45.517  1.00  0.00     0.041 C 
ATOM     16  O   UNL     1      14.521   5.588  46.648  1.00  0.00    -0.550 OA
ATOM     17  O   UNL     1      12.683   4.973  45.428  1.00  0.00    -0.550 OA
ENDBRANCH  14  15
ENDBRANCH  13  14
ENDBRANCH  12  13
ENDBRANCH  11  12
ENDBRANCH  10  11
ENDBRANCH   9  10
ENDBRANCH   8   9
ENDBRANCH   7   8
ENDBRANCH   6   7
ENDBRANCH   5   6
ENDBRANCH   4   5
ENDBRANCH   3   4
ENDBRANCH   2   3
ENDBRANCH   1   2
BRANCH   1  18
ATOM     18  C   UNL     1      15.114  -0.545  40.968  1.00  0.00     0.000 C 
BRANCH  18  19
ATOM     19  C   UNL     1      13.802  -0.911  41.684  1.00  0.00     0.000 C 
BRANCH  19  20
ATOM     20  C   UNL     1      12.622  -0.015  41.273  1.00  0.00     0.000 C 
BRANCH  20  21
ATOM     21  C   UNL     1      11.980  -0.447  39.943  1.00  0.00     0.000 C 
BRANCH  21  22
ATOM     22  C   UNL     1      11.061   0.620  39.311  1.00  0.00     0.000 C 
BRANCH  22  23
ATOM     23  C   UNL     1       9.569   0.359  39.592  1.00  0.00     0.000 C 
BRANCH  23  24
ATOM     24  C   UNL     1       9.059   1.099  40.838  1.00  0.00    -0.000 C 
BRANCH  24  25
ATOM     25  C   UNL     1       9.698   2.486  41.014  1.00  0.00    -0.000 C 
BRANCH  25  26
ATOM     26  C   UNL     1      10.258   2.654  42.434  1.00  0.00    -0.000 C 
BRANCH  26  27
ATOM     27  C   UNL     1      11.405   3.677  42.515  1.00  0.00    -0.000 C 
BRANCH  27  28
ATOM     28  C   UNL     1      12.417   3.636  41.349  1.00  0.00    -0.000 C 
BRANCH  28  29
ATOM     29  C   UNL     1      12.866   5.014  40.823  1.00  0.00    -0.000 C 
BRANCH  29  30
ATOM     30  C   UNL     1      11.692   5.925  40.392  1.00  0.00    -0.000 C 
BRANCH  30  31
ATOM     31  C   UNL     1      11.527   6.023  38.866  1.00  0.00    -0.003 C 
ATOM     32  C   UNL     1      10.871   4.781  38.263  1.00  0.00     0.004 C 
ENDBRANCH  30  31
ENDBRANCH  29  30
ENDBRANCH  28  29
ENDBRANCH  27  28
ENDBRANCH  26  27
ENDBRANCH  25  26
ENDBRANCH  24  25
ENDBRANCH  23  24
ENDBRANCH  22  23
ENDBRANCH  21  22
ENDBRANCH  20  21
ENDBRANCH  19  20
ENDBRANCH  18  19
ENDBRANCH   1  18
TORSDOF 28
ENDMDL
MODEL 6
REMARK VINA RESULT:    -4.534      1.273      4.760
REMARK INTER + INTRA:         -16.039
REMARK INTER:                 -11.766
REMARK INTRA:                  -4.273
REMARK UNBOUND:                -4.083
REMARK SMILES CCCCCCCCCCCCCCCCCCCCCCCCCCCCCC(=O)[O-]
REMARK SMILES IDX 16 1 17 2 18 3 19 4 20 5 21 6 22 7 23 8 24 9 25 10 26 11
REMARK SMILES IDX 27 12 28 13 29 14 30 15 31 16 32 17 15 18 14 19 13 20 12 21
REMARK SMILES IDX 11 22 10 23 9 24 8 25 7 26 6 27 5 28 4 29 3 30 2 31 1 32
REMARK H PARENT
REMARK Flexibility Score: inf
ROOT
ATOM      1  C   UNL     1      13.873   5.024  41.951  1.00  0.00     0.000 C 
ENDROOT
BRANCH   1   2
ATOM      2  C   UNL     1      13.281   5.661  43.223  1.00  0.00     0.000 C 
BRANCH   2   3
ATOM      3  C   UNL     1      12.167   4.832  43.901  1.00  0.00     0.000 C 
BRANCH   3   4
ATOM      4  C   UNL     1      12.312   4.734  45.431  1.00  0.00     0.000 C 
BRANCH   4   5
ATOM      5  C   UNL     1      13.432   5.603  46.033  1.00  0.00     0.000 C 
BRANCH   5   6
ATOM      6  C   UNL     1      14.333   4.889  47.063  1.00  0.00     0.000 C 
BRANCH   6   7
ATOM      7  C   UNL     1      15.725   4.488  46.542  1.00  0.00     0.000 C 
BRANCH   7   8
ATOM      8  C   UNL     1      16.261   5.458  45.474  1.00  0.00     0.000 C 
BRANCH   8   9
ATOM      9  C   UNL     1      17.083   6.605  46.084  1.00  0.00     0.000 C 
BRANCH   9  10
ATOM     10  C   UNL     1      17.331   7.741  45.075  1.00  0.00     0.000 C 
BRANCH  10  11
ATOM     11  C   UNL     1      16.895   7.374  43.649  1.00  0.00     0.000 C 
BRANCH  11  12
ATOM     12  C   UNL     1      18.010   7.592  42.611  1.00  0.00     0.000 C 
BRANCH  12  13
ATOM     13  C   UNL     1      19.007   6.422  42.559  1.00  0.00     0.006 C 
BRANCH  13  14
ATOM     14  C   UNL     1      20.446   6.859  42.871  1.00  0.00     0.053 C 
BRANCH  14  15
ATOM     15  C   UNL     1      21.404   5.718  42.713  1.00  0.00     0.041 C 
ATOM     16  O   UNL     1      21.153   4.791  41.898  1.00  0.00    -0.550 OA
ATOM     17  O   UNL     1      22.602   5.705  43.419  1.00  0.00    -0.550 OA
ENDBRANCH  14  15
ENDBRANCH  13  14
ENDBRANCH  12  13
ENDBRANCH  11  12
ENDBRANCH  10  11
ENDBRANCH   9  10
ENDBRANCH   8   9
ENDBRANCH   7   8
ENDBRANCH   6   7
ENDBRANCH   5   6
ENDBRANCH   4   5
ENDBRANCH   3   4
ENDBRANCH   2   3
ENDBRANCH   1   2
BRANCH   1  18
ATOM     18  C   UNL     1      15.375   4.673  42.014  1.00  0.00     0.000 C 
BRANCH  18  19
ATOM     19  C   UNL     1      16.138   4.759  40.680  1.00  0.00     0.000 C 
BRANCH  19  20
ATOM     20  C   UNL     1      17.285   3.740  40.576  1.00  0.00     0.000 C 
BRANCH  20  21
ATOM     21  C   UNL     1      17.029   2.467  41.402  1.00  0.00     0.000 C 
BRANCH  21  22
ATOM     22  C   UNL     1      16.474   1.284  40.580  1.00  0.00     0.000 C 
BRANCH  22  23
ATOM     23  C   UNL     1      15.130   0.764  41.125  1.00  0.00     0.000 C 
BRANCH  23  24
ATOM     24  C   UNL     1      14.729  -0.593  40.524  1.00  0.00    -0.000 C 
BRANCH  24  25
ATOM     25  C   UNL     1      13.242  -0.923  40.735  1.00  0.00    -0.000 C 
BRANCH  25  26
ATOM     26  C   UNL     1      12.580   0.108  41.661  1.00  0.00    -0.000 C 
BRANCH  26  27
ATOM     27  C   UNL     1      11.325   0.754  41.047  1.00  0.00    -0.000 C 
BRANCH  27  28
ATOM     28  C   UNL     1      11.098   2.240  41.404  1.00  0.00    -0.000 C 
BRANCH  28  29
ATOM     29  C   UNL     1      11.031   3.198  40.199  1.00  0.00    -0.000 C 
BRANCH  29  30
ATOM     30  C   UNL     1      10.545   4.621  40.564  1.00  0.00    -0.000 C 
BRANCH  30  31
ATOM     31  C   UNL     1      10.592   5.602  39.382  1.00  0.00    -0.003 C 
ATOM     32  C   UNL     1      11.683   6.661  39.537  1.00  0.00     0.004 C 
ENDBRANCH  30  31
ENDBRANCH  29  30
ENDBRANCH  28  29
ENDBRANCH  27  28
ENDBRANCH  26  27
ENDBRANCH  25  26
ENDBRANCH  24  25
ENDBRANCH  23  24
ENDBRANCH  22  23
ENDBRANCH  21  22
ENDBRANCH  20  21
ENDBRANCH  19  20
ENDBRANCH  18  19
ENDBRANCH   1  18
TORSDOF 28
ENDMDL
MODEL 7
REMARK VINA RESULT:    -4.525      2.026      5.410
REMARK INTER + INTRA:         -16.014
REMARK INTER:                 -11.259
REMARK INTRA:                  -4.755
REMARK UNBOUND:                -4.083
REMARK SMILES CCCCCCCCCCCCCCCCCCCCCCCCCCCCCC(=O)[O-]
REMARK SMILES IDX 16 1 17 2 18 3 19 4 20 5 21 6 22 7 23 8 24 9 25 10 26 11
REMARK SMILES IDX 27 12 28 13 29 14 30 15 31 16 32 17 15 18 14 19 13 20 12 21
REMARK SMILES IDX 11 22 10 23 9 24 8 25 7 26 6 27 5 28 4 29 3 30 2 31 1 32
REMARK H PARENT
REMARK Flexibility Score: inf
ROOT
ATOM      1  C   UNL     1      16.622   4.685  40.767  1.00  0.00     0.000 C 
ENDROOT
BRANCH   1   2
ATOM      2  C   UNL     1      15.256   5.396  40.850  1.00  0.00     0.000 C 
BRANCH   2   3
ATOM      3  C   UNL     1      14.266   4.773  41.859  1.00  0.00     0.000 C 
BRANCH   3   4
ATOM      4  C   UNL     1      12.875   4.482  41.263  1.00  0.00     0.000 C 
BRANCH   4   5
ATOM      5  C   UNL     1      12.180   3.228  41.823  1.00  0.00     0.000 C 
BRANCH   5   6
ATOM      6  C   UNL     1      10.994   3.505  42.772  1.00  0.00     0.000 C 
BRANCH   6   7
ATOM      7  C   UNL     1      10.622   4.990  42.931  1.00  0.00     0.000 C 
BRANCH   7   8
ATOM      8  C   UNL     1      10.757   5.483  44.382  1.00  0.00     0.000 C 
BRANCH   8   9
ATOM      9  C   UNL     1      11.670   4.579  45.226  1.00  0.00     0.000 C 
BRANCH   9  10
ATOM     10  C   UNL     1      13.108   5.122  45.308  1.00  0.00     0.000 C 
BRANCH  10  11
ATOM     11  C   UNL     1      13.794   4.785  46.640  1.00  0.00     0.000 C 
BRANCH  11  12
ATOM     12  C   UNL     1      15.317   5.006  46.599  1.00  0.00     0.000 C 
BRANCH  12  13
ATOM     13  C   UNL     1      15.816   5.424  45.206  1.00  0.00     0.006 C 
BRANCH  13  14
ATOM     14  C   UNL     1      16.654   6.710  45.240  1.00  0.00     0.053 C 
BRANCH  14  15
ATOM     15  C   UNL     1      17.015   7.158  43.856  1.00  0.00     0.041 C 
ATOM     16  O   UNL     1      16.202   7.844  43.183  1.00  0.00    -0.550 OA
ATOM     17  O   UNL     1      18.270   6.870  43.331  1.00  0.00    -0.550 OA
ENDBRANCH  14  15
ENDBRANCH  13  14
ENDBRANCH  12  13
ENDBRANCH  11  12
ENDBRANCH  10  11
ENDBRANCH   9  10
ENDBRANCH   8   9
ENDBRANCH   7   8
ENDBRANCH   6   7
ENDBRANCH   5   6
ENDBRANCH   4   5
ENDBRANCH   3   4
ENDBRANCH   2   3
ENDBRANCH   1   2
BRANCH   1  18
ATOM     18  C   UNL     1      17.011   3.836  41.997  1.00  0.00     0.000 C 
BRANCH  18  19
ATOM     19  C   UNL     1      17.435   2.386  41.700  1.00  0.00     0.000 C 
BRANCH  19  20
ATOM     20  C   UNL     1      16.602   1.731  40.587  1.00  0.00     0.000 C 
BRANCH  20  21
ATOM     21  C   UNL     1      15.289   1.119  41.106  1.00  0.00     0.000 C 
BRANCH  21  22
ATOM     22  C   UNL     1      15.085  -0.360  40.715  1.00  0.00     0.000 C 
BRANCH  22  23
ATOM     23  C   UNL     1      13.987  -1.047  41.547  1.00  0.00     0.000 C 
BRANCH  23  24
ATOM     24  C   UNL     1      12.638  -0.312  41.477  1.00  0.00    -0.000 C 
BRANCH  24  25
ATOM     25  C   UNL     1      11.739  -0.820  40.339  1.00  0.00    -0.000 C 
BRANCH  25  26
ATOM     26  C   UNL     1      11.263   0.344  39.457  1.00  0.00    -0.000 C 
BRANCH  26  27
ATOM     27  C   UNL     1       9.731   0.476  39.405  1.00  0.00    -0.000 C 
BRANCH  27  28
ATOM     28  C   UNL     1       9.143   1.706  40.131  1.00  0.00    -0.000 C 
BRANCH  28  29
ATOM     29  C   UNL     1       8.903   2.939  39.239  1.00  0.00    -0.000 C 
BRANCH  29  30
ATOM     30  C   UNL     1      10.202   3.676  38.836  1.00  0.00    -0.000 C 
BRANCH  30  31
ATOM     31  C   UNL     1       9.997   5.180  38.588  1.00  0.00    -0.003 C 
ATOM     32  C   UNL     1      11.315   5.948  38.497  1.00  0.00     0.004 C 
ENDBRANCH  30  31
ENDBRANCH  29  30
ENDBRANCH  28  29
ENDBRANCH  27  28
ENDBRANCH  26  27
ENDBRANCH  25  26
ENDBRANCH  24  25
ENDBRANCH  23  24
ENDBRANCH  22  23
ENDBRANCH  21  22
ENDBRANCH  20  21
ENDBRANCH  19  20
ENDBRANCH  18  19
ENDBRANCH   1  18
TORSDOF 28
ENDMDL
MODEL 8
REMARK VINA RESULT:    -4.491      3.763      7.442
REMARK INTER + INTRA:         -15.924
REMARK INTER:                 -11.180
REMARK INTRA:                  -4.744
REMARK UNBOUND:                -4.083
REMARK SMILES CCCCCCCCCCCCCCCCCCCCCCCCCCCCCC(=O)[O-]
REMARK SMILES IDX 16 1 17 2 18 3 19 4 20 5 21 6 22 7 23 8 24 9 25 10 26 11
REMARK SMILES IDX 27 12 28 13 29 14 30 15 31 16 32 17 15 18 14 19 13 20 12 21
REMARK SMILES IDX 11 22 10 23 9 24 8 25 7 26 6 27 5 28 4 29 3 30 2 31 1 32
REMARK H PARENT
REMARK Flexibility Score: inf
ROOT
ATOM      1  C   UNL     1      11.681  -0.873  40.377  1.00  0.00     0.000 C 
ENDROOT
BRANCH   1   2
ATOM      2  C   UNL     1      13.077  -1.308  39.888  1.00  0.00     0.000 C 
BRANCH   2   3
ATOM      3  C   UNL     1      14.041  -1.759  41.008  1.00  0.00     0.000 C 
BRANCH   3   4
ATOM      4  C   UNL     1      15.130  -0.722  41.343  1.00  0.00     0.000 C 
BRANCH   4   5
ATOM      5  C   UNL     1      15.139   0.522  40.437  1.00  0.00     0.000 C 
BRANCH   5   6
ATOM      6  C   UNL     1      15.953   1.719  40.975  1.00  0.00     0.000 C 
BRANCH   6   7
ATOM      7  C   UNL     1      17.433   1.741  40.551  1.00  0.00     0.000 C 
BRANCH   7   8
ATOM      8  C   UNL     1      18.006   3.167  40.476  1.00  0.00     0.000 C 
BRANCH   8   9
ATOM      9  C   UNL     1      16.909   4.243  40.511  1.00  0.00     0.000 C 
BRANCH   9  10
ATOM     10  C   UNL     1      16.878   4.997  41.853  1.00  0.00     0.000 C 
BRANCH  10  11
ATOM     11  C   UNL     1      15.494   5.581  42.173  1.00  0.00     0.000 C 
BRANCH  11  12
ATOM     12  C   UNL     1      14.422   5.167  41.148  1.00  0.00     0.000 C 
BRANCH  12  13
ATOM     13  C   UNL     1      13.255   4.398  41.790  1.00  0.00     0.006 C 
BRANCH  13  14
ATOM     14  C   UNL     1      12.788   5.029  43.110  1.00  0.00     0.053 C 
BRANCH  14  15
ATOM     15  C   UNL     1      11.301   4.923  43.264  1.00  0.00     0.041 C 
ATOM     16  O   UNL     1      10.540   5.609  42.531  1.00  0.00    -0.550 OA
ATOM     17  O   UNL     1      10.751   4.025  44.172  1.00  0.00    -0.550 OA
ENDBRANCH  14  15
ENDBRANCH  13  14
ENDBRANCH  12  13
ENDBRANCH  11  12
ENDBRANCH  10  11
ENDBRANCH   9  10
ENDBRANCH   8   9
ENDBRANCH   7   8
ENDBRANCH   6   7
ENDBRANCH   5   6
ENDBRANCH   4   5
ENDBRANCH   3   4
ENDBRANCH   2   3
ENDBRANCH   1   2
BRANCH   1  18
ATOM     18  C   UNL     1      11.638  -0.196  41.764  1.00  0.00     0.000 C 
BRANCH  18  19
ATOM     19  C   UNL     1      11.399   1.324  41.758  1.00  0.00     0.000 C 
BRANCH  19  20
ATOM     20  C   UNL     1      10.838   1.840  40.423  1.00  0.00     0.000 C 
BRANCH  20  21
ATOM     21  C   UNL     1       9.683   2.839  40.606  1.00  0.00     0.000 C 
BRANCH  21  22
ATOM     22  C   UNL     1       8.742   2.504  41.784  1.00  0.00     0.000 C 
BRANCH  22  23
ATOM     23  C   UNL     1       7.544   1.635  41.356  1.00  0.00     0.000 C 
BRANCH  23  24
ATOM     24  C   UNL     1       7.707   0.160  41.754  1.00  0.00    -0.000 C 
BRANCH  24  25
ATOM     25  C   UNL     1       7.103  -0.807  40.723  1.00  0.00    -0.000 C 
BRANCH  25  26
ATOM     26  C   UNL     1       8.169  -1.781  40.198  1.00  0.00    -0.000 C 
BRANCH  26  27
ATOM     27  C   UNL     1       8.490  -1.579  38.707  1.00  0.00    -0.000 C 
BRANCH  27  28
ATOM     28  C   UNL     1       8.614  -0.109  38.246  1.00  0.00    -0.000 C 
BRANCH  28  29
ATOM     29  C   UNL     1       9.786   0.179  37.287  1.00  0.00    -0.000 C 
BRANCH  29  30
ATOM     30  C   UNL     1       9.338   0.691  35.897  1.00  0.00    -0.000 C 
BRANCH  30  31
ATOM     31  C   UNL     1       9.413   2.220  35.759  1.00  0.00    -0.003 C 
ATOM     32  C   UNL     1      10.841   2.753  35.873  1.00  0.00     0.004 C 
ENDBRANCH  30  31
ENDBRANCH  29  30
ENDBRANCH  28  29
ENDBRANCH  27  28
ENDBRANCH  26  27
ENDBRANCH  25  26
ENDBRANCH  24  25
ENDBRANCH  23  24
ENDBRANCH  22  23
ENDBRANCH  21  22
ENDBRANCH  20  21
ENDBRANCH  19  20
ENDBRANCH  18  19
ENDBRANCH   1  18
TORSDOF 28
ENDMDL
MODEL 9
REMARK VINA RESULT:    -4.480      3.313      7.926
REMARK INTER + INTRA:         -15.896
REMARK INTER:                 -11.603
REMARK INTRA:                  -4.294
REMARK UNBOUND:                -4.083
REMARK SMILES CCCCCCCCCCCCCCCCCCCCCCCCCCCCCC(=O)[O-]
REMARK SMILES IDX 16 1 17 2 18 3 19 4 20 5 21 6 22 7 23 8 24 9 25 10 26 11
REMARK SMILES IDX 27 12 28 13 29 14 30 15 31 16 32 17 15 18 14 19 13 20 12 21
REMARK SMILES IDX 11 22 10 23 9 24 8 25 7 26 6 27 5 28 4 29 3 30 2 31 1 32
REMARK H PARENT
REMARK Flexibility Score: inf
ROOT
ATOM      1  C   UNL     1      16.043   4.825  40.743  1.00  0.00     0.000 C 
ENDROOT
BRANCH   1   2
ATOM      2  C   UNL     1      17.414   4.239  41.136  1.00  0.00     0.000 C 
BRANCH   2   3
ATOM      3  C   UNL     1      17.360   2.814  41.729  1.00  0.00     0.000 C 
BRANCH   3   4
ATOM      4  C   UNL     1      16.887   1.743  40.727  1.00  0.00     0.000 C 
BRANCH   4   5
ATOM      5  C   UNL     1      15.437   1.265  40.927  1.00  0.00     0.000 C 
BRANCH   5   6
ATOM      6  C   UNL     1      15.237  -0.264  40.868  1.00  0.00     0.000 C 
BRANCH   6   7
ATOM      7  C   UNL     1      14.135  -0.740  39.905  1.00  0.00     0.000 C 
BRANCH   7   8
ATOM      8  C   UNL     1      12.937  -1.368  40.638  1.00  0.00     0.000 C 
BRANCH   8   9
ATOM      9  C   UNL     1      11.588  -0.886  40.079  1.00  0.00     0.000 C 
BRANCH   9  10
ATOM     10  C   UNL     1      10.692  -0.274  41.171  1.00  0.00     0.000 C 
BRANCH  10  11
ATOM     11  C   UNL     1      11.305   0.984  41.804  1.00  0.00     0.000 C 
BRANCH  11  12
ATOM     12  C   UNL     1      11.453   2.144  40.803  1.00  0.00     0.000 C 
BRANCH  12  13
ATOM     13  C   UNL     1      11.482   3.519  41.490  1.00  0.00     0.006 C 
BRANCH  13  14
ATOM     14  C   UNL     1      11.714   4.669  40.500  1.00  0.00     0.053 C 
BRANCH  14  15
ATOM     15  C   UNL     1      10.641   4.707  39.454  1.00  0.00     0.041 C 
ATOM     16  O   UNL     1      10.949   4.675  38.233  1.00  0.00    -0.550 OA
ATOM     17  O   UNL     1       9.301   4.718  39.824  1.00  0.00    -0.550 OA
ENDBRANCH  14  15
ENDBRANCH  13  14
ENDBRANCH  12  13
ENDBRANCH  11  12
ENDBRANCH  10  11
ENDBRANCH   9  10
ENDBRANCH   8   9
ENDBRANCH   7   8
ENDBRANCH   6   7
ENDBRANCH   5   6
ENDBRANCH   4   5
ENDBRANCH   3   4
ENDBRANCH   2   3
ENDBRANCH   1   2
BRANCH   1  18
ATOM     18  C   UNL     1      14.941   4.732  41.821  1.00  0.00     0.000 C 
BRANCH  18  19
ATOM     19  C   UNL     1      14.925   5.869  42.858  1.00  0.00     0.000 C 
BRANCH  19  20
ATOM     20  C   UNL     1      13.550   6.059  43.520  1.00  0.00     0.000 C 
BRANCH  20  21
ATOM     21  C   UNL     1      13.300   5.070  44.672  1.00  0.00     0.000 C 
BRANCH  21  22
ATOM     22  C   UNL     1      13.503   5.675  46.078  1.00  0.00     0.000 C 
BRANCH  22  23
ATOM     23  C   UNL     1      14.557   4.914  46.904  1.00  0.00     0.000 C 
BRANCH  23  24
ATOM     24  C   UNL     1      15.942   4.903  46.237  1.00  0.00    -0.000 C 
BRANCH  24  25
ATOM     25  C   UNL     1      16.794   6.127  46.610  1.00  0.00    -0.000 C 
BRANCH  25  26
ATOM     26  C   UNL     1      16.790   7.162  45.475  1.00  0.00    -0.000 C 
BRANCH  26  27
ATOM     27  C   UNL     1      17.958   6.983  44.489  1.00  0.00    -0.000 C 
BRANCH  27  28
ATOM     28  C   UNL     1      18.244   8.190  43.568  1.00  0.00    -0.000 C 
BRANCH  28  29
ATOM     29  C   UNL     1      18.402   7.849  42.073  1.00  0.00    -0.000 C 
BRANCH  29  30
ATOM     30  C   UNL     1      17.213   8.316  41.201  1.00  0.00    -0.000 C 
BRANCH  30  31
ATOM     31  C   UNL     1      16.537   9.593  41.727  1.00  0.00    -0.003 C 
ATOM     32  C   UNL     1      15.023   9.444  41.868  1.00  0.00     0.004 C 
ENDBRANCH  30  31
ENDBRANCH  29  30
ENDBRANCH  28  29
ENDBRANCH  27  28
ENDBRANCH  26  27
ENDBRANCH  25  26
ENDBRANCH  24  25
ENDBRANCH  23  24
ENDBRANCH  22  23
ENDBRANCH  21  22
ENDBRANCH  20  21
ENDBRANCH  19  20
ENDBRANCH  18  19
ENDBRANCH   1  18
TORSDOF 28
ENDMDL
