MODEL 1
REMARK VINA RESULT:    -5.209      0.000      0.000
REMARK INTER + INTRA:          -9.413
REMARK INTER:                  -8.254
REMARK INTRA:                  -1.159
REMARK UNBOUND:                -1.159
REMARK SMILES CCCCCCCCCCCC(=O)[O-]
REMARK SMILES IDX 7 1 8 2 9 3 10 4 11 5 12 6 13 7 14 8 6 9 5 10 4 11 3 12 2 13
REMARK SMILES IDX 1 14
REMARK H PARENT
REMARK Flexibility Score: inf
ROOT
ATOM      1  C   UNL     1     -11.279 -13.150  10.079  1.00  0.00     0.000 C 
ENDROOT
BRANCH   1   2
ATOM      2  C   UNL     1     -10.356 -13.200   8.845  1.00  0.00     0.000 C 
BRANCH   2   3
ATOM      3  C   UNL     1     -10.708 -12.205   7.725  1.00  0.00     0.000 C 
BRANCH   3   4
ATOM      4  C   UNL     1      -9.472 -11.523   7.123  1.00  0.00     0.006 C 
BRANCH   4   5
ATOM      5  C   UNL     1      -8.927 -10.444   8.064  1.00  0.00     0.053 C 
BRANCH   5   6
ATOM      6  C   UNL     1      -7.925  -9.588   7.358  1.00  0.00     0.041 C 
ATOM      7  O   UNL     1      -6.810 -10.064   7.020  1.00  0.00    -0.550 OA
ATOM      8  O   UNL     1      -8.203  -8.248   7.117  1.00  0.00    -0.550 OA
ENDBRANCH   5   6
ENDBRANCH   4   5
ENDBRANCH   3   4
ENDBRANCH   2   3
ENDBRANCH   1   2
BRANCH   1   9
ATOM      9  C   UNL     1     -12.739 -12.755   9.792  1.00  0.00     0.000 C 
BRANCH   9  10
ATOM     10  C   UNL     1     -13.184 -11.506  10.571  1.00  0.00    -0.000 C 
BRANCH  10  11
ATOM     11  C   UNL     1     -12.150 -11.067  11.621  1.00  0.00    -0.000 C 
BRANCH  11  12
ATOM     12  C   UNL     1     -11.748  -9.589  11.471  1.00  0.00    -0.000 C 
BRANCH  12  13
ATOM     13  C   UNL     1     -11.866  -9.092  10.021  1.00  0.00    -0.003 C 
ATOM     14  C   UNL     1     -11.007  -7.858   9.745  1.00  0.00     0.004 C 
ENDBRANCH  12  13
ENDBRANCH  11  12
ENDBRANCH  10  11
ENDBRANCH   9  10
ENDBRANCH   1   9
TORSDOF 10
ENDMDL
MODEL 2
REMARK VINA RESULT:    -5.206      1.875      4.509
REMARK INTER + INTRA:          -9.409
REMARK INTER:                  -8.351
REMARK INTRA:                  -1.057
REMARK UNBOUND:                -1.159
REMARK SMILES CCCCCCCCCCCC(=O)[O-]
REMARK SMILES IDX 7 1 8 2 9 3 10 4 11 5 12 6 13 7 14 8 6 9 5 10 4 11 3 12 2 13
REMARK SMILES IDX 1 14
REMARK H PARENT
REMARK Flexibility Score: inf
ROOT
ATOM      1  C   UNL     1     -13.373 -10.617  10.770  1.00  0.00     0.000 C 
ENDROOT
BRANCH   1   2
ATOM      2  C   UNL     1     -12.892  -9.225  10.311  1.00  0.00     0.000 C 
BRANCH   2   3
ATOM      3  C   UNL     1     -11.461  -8.854  10.741  1.00  0.00     0.000 C 
BRANCH   3   4
ATOM      4  C   UNL     1     -10.519  -8.633   9.549  1.00  0.00     0.006 C 
BRANCH   4   5
ATOM      5  C   UNL     1      -9.525  -9.790   9.413  1.00  0.00     0.053 C 
BRANCH   5   6
ATOM      6  C   UNL     1      -9.762 -10.540   8.141  1.00  0.00     0.041 C 
ATOM      7  O   UNL     1     -10.901 -10.532   7.604  1.00  0.00    -0.550 OA
ATOM      8  O   UNL     1      -8.739 -11.290   7.575  1.00  0.00    -0.550 OA
ENDBRANCH   5   6
ENDBRANCH   4   5
ENDBRANCH   3   4
ENDBRANCH   2   3
ENDBRANCH   1   2
BRANCH   1   9
ATOM      9  C   UNL     1     -12.255 -11.634  11.064  1.00  0.00     0.000 C 
BRANCH   9  10
ATOM     10  C   UNL     1     -12.176 -12.754  10.013  1.00  0.00    -0.000 C 
BRANCH  10  11
ATOM     11  C   UNL     1     -10.818 -13.475  10.019  1.00  0.00    -0.000 C 
BRANCH  11  12
ATOM     12  C   UNL     1     -10.643 -14.414   8.813  1.00  0.00    -0.000 C 
BRANCH  12  13
ATOM     13  C   UNL     1     -10.018 -15.762   9.204  1.00  0.00    -0.003 C 
ATOM     14  C   UNL     1     -11.041 -16.898   9.252  1.00  0.00     0.004 C 
ENDBRANCH  12  13
ENDBRANCH  11  12
ENDBRANCH  10  11
ENDBRANCH   9  10
ENDBRANCH   1   9
TORSDOF 10
ENDMDL
MODEL 3
REMARK VINA RESULT:    -5.156      3.061      4.683
REMARK INTER + INTRA:          -9.329
REMARK INTER:                  -8.220
REMARK INTRA:                  -1.109
REMARK UNBOUND:                -1.159
REMARK SMILES CCCCCCCCCCCC(=O)[O-]
REMARK SMILES IDX 7 1 8 2 9 3 10 4 11 5 12 6 13 7 14 8 6 9 5 10 4 11 3 12 2 13
REMARK SMILES IDX 1 14
REMARK H PARENT
REMARK Flexibility Score: inf
ROOT
ATOM      1  C   UNL     1     -12.312 -11.248  11.479  1.00  0.00     0.000 C 
ENDROOT
BRANCH   1   2
ATOM      2  C   UNL     1     -12.052 -12.088  10.212  1.00  0.00     0.000 C 
BRANCH   2   3
ATOM      3  C   UNL     1     -10.664 -12.749  10.139  1.00  0.00     0.000 C 
BRANCH   3   4
ATOM      4  C   UNL     1     -10.430 -13.502   8.821  1.00  0.00     0.006 C 
BRANCH   4   5
ATOM      5  C   UNL     1     -11.290 -14.768   8.753  1.00  0.00     0.053 C 
BRANCH   5   6
ATOM      6  C   UNL     1     -10.434 -15.990   8.861  1.00  0.00     0.041 C 
ATOM      7  O   UNL     1     -10.934 -17.082   9.239  1.00  0.00    -0.550 OA
ATOM      8  O   UNL     1      -9.073 -15.911   8.595  1.00  0.00    -0.550 OA
ENDBRANCH   5   6
ENDBRANCH   4   5
ENDBRANCH   3   4
ENDBRANCH   2   3
ENDBRANCH   1   2
BRANCH   1   9
ATOM      9  C   UNL     1     -11.655  -9.856  11.489  1.00  0.00     0.000 C 
BRANCH   9  10
ATOM     10  C   UNL     1     -11.905  -9.069  10.191  1.00  0.00    -0.000 C 
BRANCH  10  11
ATOM     11  C   UNL     1     -10.638  -8.370   9.672  1.00  0.00    -0.000 C 
BRANCH  11  12
ATOM     12  C   UNL     1      -9.505  -9.362   9.353  1.00  0.00    -0.000 C 
BRANCH  12  13
ATOM     13  C   UNL     1      -9.571  -9.886   7.910  1.00  0.00    -0.003 C 
ATOM     14  C   UNL     1      -8.271 -10.553   7.461  1.00  0.00     0.004 C 
ENDBRANCH  12  13
ENDBRANCH  11  12
ENDBRANCH  10  11
ENDBRANCH   9  10
ENDBRANCH   1   9
TORSDOF 10
ENDMDL
MODEL 4
REMARK VINA RESULT:    -5.154      3.083      4.417
REMARK INTER + INTRA:          -9.325
REMARK INTER:                  -7.918
REMARK INTRA:                  -1.407
REMARK UNBOUND:                -1.159
REMARK SMILES CCCCCCCCCCCC(=O)[O-]
REMARK SMILES IDX 7 1 8 2 9 3 10 4 11 5 12 6 13 7 14 8 6 9 5 10 4 11 3 12 2 13
REMARK SMILES IDX 1 14
REMARK H PARENT
REMARK Flexibility Score: inf
ROOT
ATOM      1  C   UNL     1      -9.340  -9.820   9.126  1.00  0.00     0.000 C 
ENDROOT
BRANCH   1   2
ATOM      2  C   UNL     1      -9.200 -11.071   8.234  1.00  0.00     0.000 C 
BRANCH   2   3
ATOM      3  C   UNL     1     -10.437 -11.409   7.384  1.00  0.00     0.000 C 
BRANCH   3   4
ATOM      4  C   UNL     1     -11.211 -12.625   7.913  1.00  0.00     0.006 C 
BRANCH   4   5
ATOM      5  C   UNL     1     -10.311 -13.516   8.774  1.00  0.00     0.053 C 
BRANCH   5   6
ATOM      6  C   UNL     1     -10.908 -14.879   8.922  1.00  0.00     0.041 C 
ATOM      7  O   UNL     1     -11.993 -15.161   8.350  1.00  0.00    -0.550 OA
ATOM      8  O   UNL     1     -10.291 -15.824   9.733  1.00  0.00    -0.550 OA
ENDBRANCH   5   6
ENDBRANCH   4   5
ENDBRANCH   3   4
ENDBRANCH   2   3
ENDBRANCH   1   2
BRANCH   1   9
ATOM      9  C   UNL     1     -10.480  -8.861   8.736  1.00  0.00     0.000 C 
BRANCH   9  10
ATOM     10  C   UNL     1     -10.911  -7.946   9.894  1.00  0.00    -0.000 C 
BRANCH  10  11
ATOM     11  C   UNL     1     -11.988  -8.588  10.784  1.00  0.00    -0.000 C 
BRANCH  11  12
ATOM     12  C   UNL     1     -13.008  -9.409   9.976  1.00  0.00    -0.000 C 
BRANCH  12  13
ATOM     13  C   UNL     1     -13.172 -10.839  10.514  1.00  0.00    -0.003 C 
ATOM     14  C   UNL     1     -12.070 -11.231  11.499  1.00  0.00     0.004 C 
ENDBRANCH  12  13
ENDBRANCH  11  12
ENDBRANCH  10  11
ENDBRANCH   9  10
ENDBRANCH   1   9
TORSDOF 10
ENDMDL
MODEL 5
REMARK VINA RESULT:    -5.122      0.833      3.187
REMARK INTER + INTRA:          -9.275
REMARK INTER:                  -7.829
REMARK INTRA:                  -1.446
REMARK UNBOUND:                -1.159
REMARK SMILES CCCCCCCCCCCC(=O)[O-]
REMARK SMILES IDX 7 1 8 2 9 3 10 4 11 5 12 6 13 7 14 8 6 9 5 10 4 11 3 12 2 13
REMARK SMILES IDX 1 14
REMARK H PARENT
REMARK Flexibility Score: inf
ROOT
ATOM      1  C   UNL     1     -12.324  -8.950  10.436  1.00  0.00     0.000 C 
ENDROOT
BRANCH   1   2
ATOM      2  C   UNL     1     -11.196  -8.854   9.387  1.00  0.00     0.000 C 
BRANCH   2   3
ATOM      3  C   UNL     1     -11.489  -9.552   8.047  1.00  0.00     0.000 C 
BRANCH   3   4
ATOM      4  C   UNL     1     -10.363 -10.501   7.611  1.00  0.00     0.006 C 
BRANCH   4   5
ATOM      5  C   UNL     1      -9.066 -10.197   8.367  1.00  0.00     0.053 C 
BRANCH   5   6
ATOM      6  C   UNL     1      -8.061  -9.570   7.454  1.00  0.00     0.041 C 
ATOM      7  O   UNL     1      -7.049 -10.221   7.083  1.00  0.00    -0.550 OA
ATOM      8  O   UNL     1      -8.215  -8.248   7.055  1.00  0.00    -0.550 OA
ENDBRANCH   5   6
ENDBRANCH   4   5
ENDBRANCH   3   4
ENDBRANCH   2   3
ENDBRANCH   1   2
BRANCH   1   9
ATOM      9  C   UNL     1     -11.954  -9.697  11.730  1.00  0.00     0.000 C 
BRANCH   9  10
ATOM     10  C   UNL     1     -11.905 -11.223  11.544  1.00  0.00    -0.000 C 
BRANCH  10  11
ATOM     11  C   UNL     1     -13.009 -11.739  10.606  1.00  0.00    -0.000 C 
BRANCH  11  12
ATOM     12  C   UNL     1     -12.520 -12.873   9.688  1.00  0.00    -0.000 C 
BRANCH  12  13
ATOM     13  C   UNL     1     -11.031 -13.194   9.892  1.00  0.00    -0.003 C 
ATOM     14  C   UNL     1     -10.539 -14.324   8.988  1.00  0.00     0.004 C 
ENDBRANCH  12  13
ENDBRANCH  11  12
ENDBRANCH  10  11
ENDBRANCH   9  10
ENDBRANCH   1   9
TORSDOF 10
ENDMDL
MODEL 6
REMARK VINA RESULT:    -5.081      2.766      4.837
REMARK INTER + INTRA:          -9.211
REMARK INTER:                  -8.097
REMARK INTRA:                  -1.114
REMARK UNBOUND:                -1.159
REMARK SMILES CCCCCCCCCCCC(=O)[O-]
REMARK SMILES IDX 7 1 8 2 9 3 10 4 11 5 12 6 13 7 14 8 6 9 5 10 4 11 3 12 2 13
REMARK SMILES IDX 1 14
REMARK H PARENT
REMARK Flexibility Score: inf
ROOT
ATOM      1  C   UNL     1     -13.065  -9.115  10.078  1.00  0.00     0.000 C 
ENDROOT
BRANCH   1   2
ATOM      2  C   UNL     1     -13.492 -10.407  10.805  1.00  0.00     0.000 C 
BRANCH   2   3
ATOM      3  C   UNL     1     -12.368 -11.434  11.026  1.00  0.00     0.000 C 
BRANCH   3   4
ATOM      4  C   UNL     1     -12.004 -12.205   9.749  1.00  0.00     0.006 C 
BRANCH   4   5
ATOM      5  C   UNL     1     -10.904 -13.234  10.024  1.00  0.00     0.053 C 
BRANCH   5   6
ATOM      6  C   UNL     1     -10.995 -14.371   9.057  1.00  0.00     0.041 C 
ATOM      7  O   UNL     1     -10.158 -15.311   9.104  1.00  0.00    -0.550 OA
ATOM      8  O   UNL     1     -11.973 -14.368   8.070  1.00  0.00    -0.550 OA
ENDBRANCH   5   6
ENDBRANCH   4   5
ENDBRANCH   3   4
ENDBRANCH   2   3
ENDBRANCH   1   2
BRANCH   1   9
ATOM      9  C   UNL     1     -11.835  -8.404  10.672  1.00  0.00     0.000 C 
BRANCH   9  10
ATOM     10  C   UNL     1     -10.840  -7.936   9.596  1.00  0.00    -0.000 C 
BRANCH  10  11
ATOM     11  C   UNL     1     -10.481  -9.051   8.600  1.00  0.00    -0.000 C 
BRANCH  11  12
ATOM     12  C   UNL     1      -9.086  -9.647   8.860  1.00  0.00    -0.000 C 
BRANCH  12  13
ATOM     13  C   UNL     1      -8.485 -10.305   7.608  1.00  0.00    -0.003 C 
ATOM     14  C   UNL     1      -9.167 -11.624   7.245  1.00  0.00     0.004 C 
ENDBRANCH  12  13
ENDBRANCH  11  12
ENDBRANCH  10  11
ENDBRANCH   9  10
ENDBRANCH   1   9
TORSDOF 10
ENDMDL
MODEL 7
REMARK VINA RESULT:    -5.051      3.065      5.661
REMARK INTER + INTRA:          -9.162
REMARK INTER:                  -8.256
REMARK INTRA:                  -0.907
REMARK UNBOUND:                -1.159
REMARK SMILES CCCCCCCCCCCC(=O)[O-]
REMARK SMILES IDX 7 1 8 2 9 3 10 4 11 5 12 6 13 7 14 8 6 9 5 10 4 11 3 12 2 13
REMARK SMILES IDX 1 14
REMARK H PARENT
REMARK Flexibility Score: inf
ROOT
ATOM      1  C   UNL     1      -8.953 -10.364   8.118  1.00  0.00     0.000 C 
ENDROOT
BRANCH   1   2
ATOM      2  C   UNL     1      -9.458 -10.000   9.530  1.00  0.00     0.000 C 
BRANCH   2   3
ATOM      3  C   UNL     1     -10.404  -8.787   9.593  1.00  0.00     0.000 C 
BRANCH   3   4
ATOM      4  C   UNL     1     -11.489  -8.932  10.669  1.00  0.00     0.006 C 
BRANCH   4   5
ATOM      5  C   UNL     1     -11.655 -10.396  11.086  1.00  0.00     0.053 C 
BRANCH   5   6
ATOM      6  C   UNL     1     -13.023 -10.890  10.735  1.00  0.00     0.041 C 
ATOM      7  O   UNL     1     -13.991 -10.087  10.675  1.00  0.00    -0.550 OA
ATOM      8  O   UNL     1     -13.238 -12.247  10.525  1.00  0.00    -0.550 OA
ENDBRANCH   5   6
ENDBRANCH   4   5
ENDBRANCH   3   4
ENDBRANCH   2   3
ENDBRANCH   1   2
BRANCH   1   9
ATOM      9  C   UNL     1      -9.369 -11.757   7.612  1.00  0.00     0.000 C 
BRANCH   9  10
ATOM     10  C   UNL     1     -10.831 -12.101   7.943  1.00  0.00    -0.000 C 
BRANCH  10  11
ATOM     11  C   UNL     1     -11.097 -13.615   7.935  1.00  0.00    -0.000 C 
BRANCH  11  12
ATOM     12  C   UNL     1     -10.658 -14.298   9.243  1.00  0.00    -0.000 C 
BRANCH  12  13
ATOM     13  C   UNL     1     -10.009 -15.669   9.000  1.00  0.00    -0.003 C 
ATOM     14  C   UNL     1     -10.975 -16.832   9.227  1.00  0.00     0.004 C 
ENDBRANCH  12  13
ENDBRANCH  11  12
ENDBRANCH  10  11
ENDBRANCH   9  10
ENDBRANCH   1   9
TORSDOF 10
ENDMDL
MODEL 8
REMARK VINA RESULT:    -4.915      2.083      4.844
REMARK INTER + INTRA:          -8.947
REMARK INTER:                  -7.970
REMARK INTRA:                  -0.977
REMARK UNBOUND:                -1.159
REMARK SMILES CCCCCCCCCCCC(=O)[O-]
REMARK SMILES IDX 7 1 8 2 9 3 10 4 11 5 12 6 13 7 14 8 6 9 5 10 4 11 3 12 2 13
REMARK SMILES IDX 1 14
REMARK H PARENT
REMARK Flexibility Score: inf
ROOT
ATOM      1  C   UNL     1     -10.423 -11.161  10.367  1.00  0.00     0.000 C 
ENDROOT
BRANCH   1   2
ATOM      2  C   UNL     1     -11.886 -11.177  10.853  1.00  0.00     0.000 C 
BRANCH   2   3
ATOM      3  C   UNL     1     -12.628  -9.832  10.739  1.00  0.00     0.000 C 
BRANCH   3   4
ATOM      4  C   UNL     1     -11.676  -8.630  10.667  1.00  0.00     0.006 C 
BRANCH   4   5
ATOM      5  C   UNL     1     -11.983  -7.760   9.444  1.00  0.00     0.053 C 
BRANCH   5   6
ATOM      6  C   UNL     1     -11.305  -8.306   8.227  1.00  0.00     0.041 C 
ATOM      7  O   UNL     1     -11.986  -8.798   7.290  1.00  0.00    -0.550 OA
ATOM      8  O   UNL     1      -9.917  -8.318   8.151  1.00  0.00    -0.550 OA
ENDBRANCH   5   6
ENDBRANCH   4   5
ENDBRANCH   3   4
ENDBRANCH   2   3
ENDBRANCH   1   2
BRANCH   1   9
ATOM      9  C   UNL     1     -10.162 -11.907   9.046  1.00  0.00     0.000 C 
BRANCH   9  10
ATOM     10  C   UNL     1     -11.456 -12.378   8.362  1.00  0.00    -0.000 C 
BRANCH  10  11
ATOM     11  C   UNL     1     -11.572 -13.911   8.310  1.00  0.00    -0.000 C 
BRANCH  11  12
ATOM     12  C   UNL     1     -10.681 -14.605   9.355  1.00  0.00    -0.000 C 
BRANCH  12  13
ATOM     13  C   UNL     1     -10.173 -15.975   8.877  1.00  0.00    -0.003 C 
ATOM     14  C   UNL     1     -11.117 -17.119   9.245  1.00  0.00     0.004 C 
ENDBRANCH  12  13
ENDBRANCH  11  12
ENDBRANCH  10  11
ENDBRANCH   9  10
ENDBRANCH   1   9
TORSDOF 10
ENDMDL
MODEL 9
REMARK VINA RESULT:    -4.873      2.179      4.345
REMARK INTER + INTRA:          -8.880
REMARK INTER:                  -7.506
REMARK INTRA:                  -1.374
REMARK UNBOUND:                -1.159
REMARK SMILES CCCCCCCCCCCC(=O)[O-]
REMARK SMILES IDX 7 1 8 2 9 3 10 4 11 5 12 6 13 7 14 8 6 9 5 10 4 11 3 12 2 13
REMARK SMILES IDX 1 14
REMARK H PARENT
REMARK Flexibility Score: inf
ROOT
ATOM      1  C   UNL     1     -13.135 -11.706  10.777  1.00  0.00     0.000 C 
ENDROOT
BRANCH   1   2
ATOM      2  C   UNL     1     -12.092 -11.008  11.674  1.00  0.00     0.000 C 
BRANCH   2   3
ATOM      3  C   UNL     1     -11.878  -9.512  11.385  1.00  0.00     0.000 C 
BRANCH   3   4
ATOM      4  C   UNL     1     -12.841  -8.966  10.321  1.00  0.00     0.006 C 
BRANCH   4   5
ATOM      5  C   UNL     1     -12.486  -7.523   9.950  1.00  0.00     0.053 C 
BRANCH   5   6
ATOM      6  C   UNL     1     -12.871  -7.235   8.533  1.00  0.00     0.041 C 
ATOM      7  O   UNL     1     -13.556  -6.216   8.257  1.00  0.00    -0.550 OA
ATOM      8  O   UNL     1     -12.516  -8.121   7.523  1.00  0.00    -0.550 OA
ENDBRANCH   5   6
ENDBRANCH   4   5
ENDBRANCH   3   4
ENDBRANCH   2   3
ENDBRANCH   1   2
BRANCH   1   9
ATOM      9  C   UNL     1     -12.566 -12.748   9.797  1.00  0.00     0.000 C 
BRANCH   9  10
ATOM     10  C   UNL     1     -11.052 -12.959   9.965  1.00  0.00    -0.000 C 
BRANCH  10  11
ATOM     11  C   UNL     1     -10.298 -12.916   8.625  1.00  0.00    -0.000 C 
BRANCH  11  12
ATOM     12  C   UNL     1     -10.120 -11.482   8.095  1.00  0.00    -0.000 C 
BRANCH  12  13
ATOM     13  C   UNL     1      -9.368 -10.579   9.085  1.00  0.00    -0.003 C 
ATOM     14  C   UNL     1      -9.301  -9.122   8.625  1.00  0.00     0.004 C 
ENDBRANCH  12  13
ENDBRANCH  11  12
ENDBRANCH  10  11
ENDBRANCH   9  10
ENDBRANCH   1   9
TORSDOF 10
ENDMDL
