MODEL 1
REMARK VINA RESULT:    -4.252      0.000      0.000
REMARK INTER + INTRA:          -5.265
REMARK INTER:                  -4.998
REMARK INTRA:                  -0.267
REMARK UNBOUND:                -0.267
REMARK SMILES O=C([O-])C=Cc1ccc(O)c(O)c1
REMARK SMILES IDX 6 1 13 2 7 3 11 4 8 5 9 6 5 7 4 8 2 9 1 10 3 11 12 12 10 14
REMARK H PARENT 12 13 10 15
REMARK Flexibility Score: inf
ROOT
ATOM      1  C   UNL     1      48.354 -27.281 -31.528  1.00  0.00    -0.022 A 
ATOM      2  C   UNL     1      48.803 -27.983 -32.658  1.00  0.00     0.058 A 
ATOM      3  C   UNL     1      49.287 -26.633 -30.710  1.00  0.00     0.012 A 
ATOM      4  C   UNL     1      50.159 -27.997 -33.003  1.00  0.00     0.157 A 
ATOM      5  C   UNL     1      50.642 -26.639 -31.046  1.00  0.00     0.051 A 
ATOM      6  C   UNL     1      51.092 -27.310 -32.189  1.00  0.00     0.157 A 
ENDROOT
BRANCH   1   7
ATOM      7  C   UNL     1      46.933 -27.303 -31.126  1.00  0.00     0.010 C 
ATOM      8  C   UNL     1      46.387 -28.151 -30.239  1.00  0.00     0.025 C 
BRANCH   8   9
ATOM      9  C   UNL     1      47.058 -29.323 -29.643  1.00  0.00     0.064 C 
ATOM     10  O   UNL     1      46.831 -30.491 -30.054  1.00  0.00    -0.545 OA
ATOM     11  O   UNL     1      47.904 -29.138 -28.557  1.00  0.00    -0.545 OA
ENDBRANCH   8   9
ENDBRANCH   1   7
BRANCH   4  12
ATOM     12  O   UNL     1      50.534 -28.706 -34.146  1.00  0.00    -0.504 OA
ATOM     13  H   UNL     1      49.916 -29.319 -34.659  1.00  0.00     0.293 HD
ENDBRANCH   4  12
BRANCH   6  14
ATOM     14  O   UNL     1      52.458 -27.271 -32.474  1.00  0.00    -0.504 OA
ATOM     15  H   UNL     1      53.089 -28.043 -32.316  1.00  0.00     0.293 HD
ENDBRANCH   6  14
TORSDOF 4
ENDMDL
MODEL 2
REMARK VINA RESULT:    -4.127      2.454      4.142
REMARK INTER + INTRA:          -5.117
REMARK INTER:                  -5.042
REMARK INTRA:                  -0.075
REMARK UNBOUND:                -0.267
REMARK SMILES O=C([O-])C=Cc1ccc(O)c(O)c1
REMARK SMILES IDX 6 1 13 2 7 3 11 4 8 5 9 6 5 7 4 8 2 9 1 10 3 11 12 12 10 14
REMARK H PARENT 12 13 10 15
REMARK Flexibility Score: inf
ROOT
ATOM      1  C   UNL     1      50.098 -27.719 -31.985  1.00  0.00    -0.022 A 
ATOM      2  C   UNL     1      48.791 -27.980 -32.427  1.00  0.00     0.058 A 
ATOM      3  C   UNL     1      50.308 -26.735 -31.012  1.00  0.00     0.012 A 
ATOM      4  C   UNL     1      47.697 -27.308 -31.869  1.00  0.00     0.157 A 
ATOM      5  C   UNL     1      49.224 -26.060 -30.448  1.00  0.00     0.051 A 
ATOM      6  C   UNL     1      47.916 -26.338 -30.861  1.00  0.00     0.157 A 
ENDROOT
BRANCH   1   7
ATOM      7  C   UNL     1      51.264 -28.385 -32.603  1.00  0.00     0.010 C 
ATOM      8  C   UNL     1      52.123 -29.199 -31.968  1.00  0.00     0.025 C 
BRANCH   8   9
ATOM      9  C   UNL     1      52.169 -29.436 -30.512  1.00  0.00     0.064 C 
ATOM     10  O   UNL     1      51.356 -30.211 -29.945  1.00  0.00    -0.545 OA
ATOM     11  O   UNL     1      53.086 -28.732 -29.742  1.00  0.00    -0.545 OA
ENDBRANCH   8   9
ENDBRANCH   1   7
BRANCH   4  12
ATOM     12  O   UNL     1      46.424 -27.625 -32.347  1.00  0.00    -0.504 OA
ATOM     13  H   UNL     1      45.922 -27.073 -33.027  1.00  0.00     0.293 HD
ENDBRANCH   4  12
BRANCH   6  14
ATOM     14  O   UNL     1      46.876 -25.634 -30.251  1.00  0.00    -0.504 OA
ATOM     15  H   UNL     1      46.404 -25.939 -29.412  1.00  0.00     0.293 HD
ENDBRANCH   6  14
TORSDOF 4
ENDMDL
MODEL 3
REMARK VINA RESULT:    -4.119      2.077      4.643
REMARK INTER + INTRA:          -5.109
REMARK INTER:                  -5.048
REMARK INTRA:                  -0.060
REMARK UNBOUND:                -0.267
REMARK SMILES O=C([O-])C=Cc1ccc(O)c(O)c1
REMARK SMILES IDX 6 1 13 2 7 3 11 4 8 5 9 6 5 7 4 8 2 9 1 10 3 11 12 12 10 14
REMARK H PARENT 12 13 10 15
REMARK Flexibility Score: inf
ROOT
ATOM      1  C   UNL     1      48.939 -28.392 -31.836  1.00  0.00    -0.022 A 
ATOM      2  C   UNL     1      47.703 -28.017 -32.387  1.00  0.00     0.058 A 
ATOM      3  C   UNL     1      48.961 -29.134 -30.649  1.00  0.00     0.012 A 
ATOM      4  C   UNL     1      46.500 -28.420 -31.795  1.00  0.00     0.157 A 
ATOM      5  C   UNL     1      47.767 -29.542 -30.051  1.00  0.00     0.051 A 
ATOM      6  C   UNL     1      46.532 -29.199 -30.614  1.00  0.00     0.157 A 
ENDROOT
BRANCH   1   7
ATOM      7  C   UNL     1      50.213 -27.929 -32.422  1.00  0.00     0.010 C 
ATOM      8  C   UNL     1      51.122 -27.159 -31.802  1.00  0.00     0.025 C 
BRANCH   8   9
ATOM      9  C   UNL     1      50.939 -26.489 -30.499  1.00  0.00     0.064 C 
ATOM     10  O   UNL     1      50.118 -25.545 -30.354  1.00  0.00    -0.545 OA
ATOM     11  O   UNL     1      51.740 -26.862 -29.429  1.00  0.00    -0.545 OA
ENDBRANCH   8   9
ENDBRANCH   1   7
BRANCH   4  12
ATOM     12  O   UNL     1      45.308 -28.021 -32.403  1.00  0.00    -0.504 OA
ATOM     13  H   UNL     1      44.747 -27.242 -32.089  1.00  0.00     0.293 HD
ENDBRANCH   4  12
BRANCH   6  14
ATOM     14  O   UNL     1      45.376 -29.645 -29.971  1.00  0.00    -0.504 OA
ATOM     15  H   UNL     1      44.771 -29.052 -29.423  1.00  0.00     0.293 HD
ENDBRANCH   6  14
TORSDOF 4
ENDMDL
MODEL 4
REMARK VINA RESULT:    -4.040      2.450      4.308
REMARK INTER + INTRA:          -5.016
REMARK INTER:                  -4.733
REMARK INTRA:                  -0.283
REMARK UNBOUND:                -0.267
REMARK SMILES O=C([O-])C=Cc1ccc(O)c(O)c1
REMARK SMILES IDX 6 1 13 2 7 3 11 4 8 5 9 6 5 7 4 8 2 9 1 10 3 11 12 12 10 14
REMARK H PARENT 12 13 10 15
REMARK Flexibility Score: inf
ROOT
ATOM      1  C   UNL     1      50.108 -27.135 -31.526  1.00  0.00    -0.022 A 
ATOM      2  C   UNL     1      49.126 -26.481 -30.764  1.00  0.00     0.058 A 
ATOM      3  C   UNL     1      49.714 -28.024 -32.533  1.00  0.00     0.012 A 
ATOM      4  C   UNL     1      47.765 -26.667 -31.035  1.00  0.00     0.157 A 
ATOM      5  C   UNL     1      48.360 -28.215 -32.813  1.00  0.00     0.051 A 
ATOM      6  C   UNL     1      47.376 -27.542 -32.079  1.00  0.00     0.157 A 
ENDROOT
BRANCH   1   7
ATOM      7  C   UNL     1      51.545 -26.987 -31.215  1.00  0.00     0.010 C 
ATOM      8  C   UNL     1      52.264 -27.816 -30.442  1.00  0.00     0.025 C 
BRANCH   8   9
ATOM      9  C   UNL     1      51.722 -28.917 -29.622  1.00  0.00     0.064 C 
ATOM     10  O   UNL     1      51.788 -30.116 -30.001  1.00  0.00    -0.545 OA
ATOM     11  O   UNL     1      51.061 -28.616 -28.438  1.00  0.00    -0.545 OA
ENDBRANCH   8   9
ENDBRANCH   1   7
BRANCH   4  12
ATOM     12  O   UNL     1      46.843 -25.977 -30.247  1.00  0.00    -0.504 OA
ATOM     13  H   UNL     1      46.429 -25.092 -30.506  1.00  0.00     0.293 HD
ENDBRANCH   4  12
BRANCH   6  14
ATOM     14  O   UNL     1      46.040 -27.771 -32.413  1.00  0.00    -0.504 OA
ATOM     15  H   UNL     1      45.662 -28.681 -32.633  1.00  0.00     0.293 HD
ENDBRANCH   6  14
TORSDOF 4
ENDMDL
MODEL 5
REMARK VINA RESULT:    -4.035      2.446      4.142
REMARK INTER + INTRA:          -5.009
REMARK INTER:                  -4.723
REMARK INTRA:                  -0.286
REMARK UNBOUND:                -0.267
REMARK SMILES O=C([O-])C=Cc1ccc(O)c(O)c1
REMARK SMILES IDX 6 1 13 2 7 3 11 4 8 5 9 6 5 7 4 8 2 9 1 10 3 11 12 12 10 14
REMARK H PARENT 12 13 10 15
REMARK Flexibility Score: inf
ROOT
ATOM      1  C   UNL     1      49.343 -29.143 -30.619  1.00  0.00    -0.022 A 
ATOM      2  C   UNL     1      49.380 -28.419 -31.821  1.00  0.00     0.058 A 
ATOM      3  C   UNL     1      48.105 -29.456 -30.046  1.00  0.00     0.012 A 
ATOM      4  C   UNL     1      48.198 -28.053 -32.476  1.00  0.00     0.157 A 
ATOM      5  C   UNL     1      46.920 -29.097 -30.692  1.00  0.00     0.051 A 
ATOM      6  C   UNL     1      46.950 -28.403 -31.907  1.00  0.00     0.157 A 
ENDROOT
BRANCH   1   7
ATOM      7  C   UNL     1      50.582 -29.489 -29.893  1.00  0.00     0.010 C 
ATOM      8  C   UNL     1      51.172 -28.731 -28.953  1.00  0.00     0.025 C 
BRANCH   8   9
ATOM      9  C   UNL     1      50.798 -27.347 -28.603  1.00  0.00     0.064 C 
ATOM     10  O   UNL     1      50.077 -27.092 -27.603  1.00  0.00    -0.545 OA
ATOM     11  O   UNL     1      51.193 -26.309 -29.437  1.00  0.00    -0.545 OA
ENDBRANCH   8   9
ENDBRANCH   1   7
BRANCH   4  12
ATOM     12  O   UNL     1      48.309 -27.344 -33.673  1.00  0.00    -0.504 OA
ATOM     13  H   UNL     1      48.846 -27.659 -34.469  1.00  0.00     0.293 HD
ENDBRANCH   4  12
BRANCH   6  14
ATOM     14  O   UNL     1      45.731 -28.081 -32.505  1.00  0.00    -0.504 OA
ATOM     15  H   UNL     1      45.035 -28.764 -32.770  1.00  0.00     0.293 HD
ENDBRANCH   6  14
TORSDOF 4
ENDMDL
MODEL 6
REMARK VINA RESULT:    -4.010      2.027      2.338
REMARK INTER + INTRA:          -4.980
REMARK INTER:                  -4.845
REMARK INTRA:                  -0.134
REMARK UNBOUND:                -0.267
REMARK SMILES O=C([O-])C=Cc1ccc(O)c(O)c1
REMARK SMILES IDX 6 1 13 2 7 3 11 4 8 5 9 6 5 7 4 8 2 9 1 10 3 11 12 12 10 14
REMARK H PARENT 12 13 10 15
REMARK Flexibility Score: inf
ROOT
ATOM      1  C   UNL     1      49.788 -27.510 -30.974  1.00  0.00    -0.022 A 
ATOM      2  C   UNL     1      50.455 -27.954 -32.127  1.00  0.00     0.058 A 
ATOM      3  C   UNL     1      50.143 -28.045 -29.730  1.00  0.00     0.012 A 
ATOM      4  C   UNL     1      51.501 -28.881 -32.040  1.00  0.00     0.157 A 
ATOM      5  C   UNL     1      51.185 -28.969 -29.632  1.00  0.00     0.051 A 
ATOM      6  C   UNL     1      51.876 -29.391 -30.774  1.00  0.00     0.157 A 
ENDROOT
BRANCH   1   7
ATOM      7  C   UNL     1      48.649 -26.573 -31.059  1.00  0.00     0.010 C 
ATOM      8  C   UNL     1      47.358 -26.924 -31.171  1.00  0.00     0.025 C 
BRANCH   8   9
ATOM      9  C   UNL     1      46.854 -28.291 -31.411  1.00  0.00     0.064 C 
ATOM     10  O   UNL     1      47.208 -28.956 -32.419  1.00  0.00    -0.545 OA
ATOM     11  O   UNL     1      45.915 -28.827 -30.539  1.00  0.00    -0.545 OA
ENDBRANCH   8   9
ENDBRANCH   1   7
BRANCH   4  12
ATOM     12  O   UNL     1      52.128 -29.269 -33.225  1.00  0.00    -0.504 OA
ATOM     13  H   UNL     1      53.021 -29.739 -33.264  1.00  0.00     0.293 HD
ENDBRANCH   4  12
BRANCH   6  14
ATOM     14  O   UNL     1      52.913 -30.310 -30.607  1.00  0.00    -0.504 OA
ATOM     15  H   UNL     1      53.730 -30.351 -31.199  1.00  0.00     0.293 HD
ENDBRANCH   6  14
TORSDOF 4
ENDMDL
MODEL 7
REMARK VINA RESULT:    -3.998      2.628      5.006
REMARK INTER + INTRA:          -4.966
REMARK INTER:                  -4.696
REMARK INTRA:                  -0.271
REMARK UNBOUND:                -0.267
REMARK SMILES O=C([O-])C=Cc1ccc(O)c(O)c1
REMARK SMILES IDX 6 1 13 2 7 3 11 4 8 5 9 6 5 7 4 8 2 9 1 10 3 11 12 12 10 14
REMARK H PARENT 12 13 10 15
REMARK Flexibility Score: inf
ROOT
ATOM      1  C   UNL     1      51.393 -29.006 -30.780  1.00  0.00    -0.022 A 
ATOM      2  C   UNL     1      51.174 -28.708 -32.135  1.00  0.00     0.058 A 
ATOM      3  C   UNL     1      50.546 -28.454 -29.812  1.00  0.00     0.012 A 
ATOM      4  C   UNL     1      50.092 -27.912 -32.529  1.00  0.00     0.157 A 
ATOM      5  C   UNL     1      49.462 -27.661 -30.195  1.00  0.00     0.051 A 
ATOM      6  C   UNL     1      49.219 -27.387 -31.546  1.00  0.00     0.157 A 
ENDROOT
BRANCH   1   7
ATOM      7  C   UNL     1      52.562 -29.800 -30.348  1.00  0.00     0.010 C 
ATOM      8  C   UNL     1      53.784 -29.309 -30.088  1.00  0.00     0.025 C 
BRANCH   8   9
ATOM      9  C   UNL     1      54.233 -27.928 -30.356  1.00  0.00     0.064 C 
ATOM     10  O   UNL     1      54.288 -27.065 -29.441  1.00  0.00    -0.545 OA
ATOM     11  O   UNL     1      54.534 -27.556 -31.659  1.00  0.00    -0.545 OA
ENDBRANCH   8   9
ENDBRANCH   1   7
BRANCH   4  12
ATOM     12  O   UNL     1      49.927 -27.666 -33.893  1.00  0.00    -0.504 OA
ATOM     13  H   UNL     1      50.591 -27.945 -34.602  1.00  0.00     0.293 HD
ENDBRANCH   4  12
BRANCH   6  14
ATOM     14  O   UNL     1      48.115 -26.594 -31.862  1.00  0.00    -0.504 OA
ATOM     15  H   UNL     1      47.684 -26.566 -32.775  1.00  0.00     0.293 HD
ENDBRANCH   6  14
TORSDOF 4
ENDMDL
MODEL 8
REMARK VINA RESULT:    -3.978      2.422      3.639
REMARK INTER + INTRA:          -4.942
REMARK INTER:                  -4.726
REMARK INTRA:                  -0.216
REMARK UNBOUND:                -0.267
REMARK SMILES O=C([O-])C=Cc1ccc(O)c(O)c1
REMARK SMILES IDX 6 1 13 2 7 3 11 4 8 5 9 6 5 7 4 8 2 9 1 10 3 11 12 12 10 14
REMARK H PARENT 12 13 10 15
REMARK Flexibility Score: inf
ROOT
ATOM      1  C   UNL     1      47.269 -29.424 -29.555  1.00  0.00    -0.022 A 
ATOM      2  C   UNL     1      46.268 -29.002 -30.445  1.00  0.00     0.058 A 
ATOM      3  C   UNL     1      48.611 -29.334 -29.943  1.00  0.00     0.012 A 
ATOM      4  C   UNL     1      46.598 -28.447 -31.687  1.00  0.00     0.157 A 
ATOM      5  C   UNL     1      48.951 -28.781 -31.179  1.00  0.00     0.051 A 
ATOM      6  C   UNL     1      47.959 -28.329 -32.057  1.00  0.00     0.157 A 
ENDROOT
BRANCH   1   7
ATOM      7  C   UNL     1      46.930 -30.058 -28.265  1.00  0.00     0.010 C 
ATOM      8  C   UNL     1      47.040 -31.368 -27.988  1.00  0.00     0.025 C 
BRANCH   8   9
ATOM      9  C   UNL     1      47.343 -32.432 -28.965  1.00  0.00     0.064 C 
ATOM     10  O   UNL     1      46.437 -32.975 -29.651  1.00  0.00    -0.545 OA
ATOM     11  O   UNL     1      48.648 -32.894 -29.079  1.00  0.00    -0.545 OA
ENDBRANCH   8   9
ENDBRANCH   1   7
BRANCH   4  12
ATOM     12  O   UNL     1      45.553 -28.037 -32.517  1.00  0.00    -0.504 OA
ATOM     13  H   UNL     1      44.929 -27.271 -32.304  1.00  0.00     0.293 HD
ENDBRANCH   4  12
BRANCH   6  14
ATOM     14  O   UNL     1      48.367 -27.778 -33.274  1.00  0.00    -0.504 OA
ATOM     15  H   UNL     1      47.761 -27.248 -33.884  1.00  0.00     0.293 HD
ENDBRANCH   6  14
TORSDOF 4
ENDMDL
MODEL 9
REMARK VINA RESULT:    -3.954     14.659     15.417
REMARK INTER + INTRA:          -4.915
REMARK INTER:                  -4.629
REMARK INTRA:                  -0.286
REMARK UNBOUND:                -0.267
REMARK SMILES O=C([O-])C=Cc1ccc(O)c(O)c1
REMARK SMILES IDX 6 1 13 2 7 3 11 4 8 5 9 6 5 7 4 8 2 9 1 10 3 11 12 12 10 14
REMARK H PARENT 12 13 10 15
REMARK Flexibility Score: inf
ROOT
ATOM      1  C   UNL     1      55.857 -42.348 -29.930  1.00  0.00    -0.022 A 
ATOM      2  C   UNL     1      56.423 -41.214 -30.534  1.00  0.00     0.058 A 
ATOM      3  C   UNL     1      54.514 -42.657 -30.177  1.00  0.00     0.012 A 
ATOM      4  C   UNL     1      55.678 -40.423 -31.417  1.00  0.00     0.157 A 
ATOM      5  C   UNL     1      53.763 -41.875 -31.057  1.00  0.00     0.051 A 
ATOM      6  C   UNL     1      54.331 -40.762 -31.688  1.00  0.00     0.157 A 
ENDROOT
BRANCH   1   7
ATOM      7  C   UNL     1      56.617 -43.160 -28.958  1.00  0.00     0.010 C 
ATOM      8  C   UNL     1      56.608 -42.989 -27.625  1.00  0.00     0.025 C 
BRANCH   8   9
ATOM      9  C   UNL     1      55.987 -41.860 -26.905  1.00  0.00     0.064 C 
ATOM     10  O   UNL     1      54.863 -41.972 -26.349  1.00  0.00    -0.545 OA
ATOM     11  O   UNL     1      56.626 -40.627 -26.903  1.00  0.00    -0.545 OA
ENDBRANCH   8   9
ENDBRANCH   1   7
BRANCH   4  12
ATOM     12  O   UNL     1      56.308 -39.317 -31.991  1.00  0.00    -0.504 OA
ATOM     13  H   UNL     1      56.785 -39.338 -32.881  1.00  0.00     0.293 HD
ENDBRANCH   4  12
BRANCH   6  14
ATOM     14  O   UNL     1      53.528 -40.028 -32.563  1.00  0.00    -0.504 OA
ATOM     15  H   UNL     1      52.570 -40.261 -32.780  1.00  0.00     0.293 HD
ENDBRANCH   6  14
TORSDOF 4
ENDMDL
