MODEL 1
REMARK VINA RESULT:    -4.347      0.000      0.000
REMARK INTER + INTRA:         -15.565
REMARK INTER:                 -10.954
REMARK INTRA:                  -4.611
REMARK UNBOUND:                -4.611
REMARK SMILES CCCCCCCCCCCCCCCCCCCCCCCCCCCC(=O)[O-]
REMARK SMILES IDX 15 1 16 2 17 3 18 4 19 5 20 6 21 7 22 8 23 9 24 10 25 11
REMARK SMILES IDX 26 12 27 13 28 14 29 15 30 16 14 17 13 18 12 19 11 20 10 21
REMARK SMILES IDX 9 22 8 23 7 24 6 25 5 26 4 27 3 28 2 29 1 30
REMARK H PARENT
REMARK Flexibility Score: inf
ROOT
ATOM      1  C   UNL     1     -11.418   4.071   8.882  1.00  0.00     0.000 C 
ENDROOT
BRANCH   1   2
ATOM      2  C   UNL     1     -10.355   5.180   8.736  1.00  0.00     0.000 C 
BRANCH   2   3
ATOM      3  C   UNL     1      -9.767   5.337   7.323  1.00  0.00     0.000 C 
BRANCH   3   4
ATOM      4  C   UNL     1     -10.232   6.625   6.627  1.00  0.00     0.000 C 
BRANCH   4   5
ATOM      5  C   UNL     1     -11.454   6.359   5.735  1.00  0.00     0.000 C 
BRANCH   5   6
ATOM      6  C   UNL     1     -11.509   4.915   5.215  1.00  0.00     0.000 C 
BRANCH   6   7
ATOM      7  C   UNL     1     -12.939   4.359   5.148  1.00  0.00     0.000 C 
BRANCH   7   8
ATOM      8  C   UNL     1     -13.944   5.472   4.827  1.00  0.00     0.000 C 
BRANCH   8   9
ATOM      9  C   UNL     1     -13.984   5.765   3.321  1.00  0.00     0.000 C 
BRANCH   9  10
ATOM     10  C   UNL     1     -14.665   7.104   2.987  1.00  0.00     0.000 C 
BRANCH  10  11
ATOM     11  C   UNL     1     -14.110   8.325   3.743  1.00  0.00     0.000 C 
BRANCH  11  12
ATOM     12  C   UNL     1     -14.249   9.637   2.954  1.00  0.00     0.006 C 
BRANCH  12  13
ATOM     13  C   UNL     1     -13.585   9.554   1.573  1.00  0.00     0.053 C 
BRANCH  13  14
ATOM     14  C   UNL     1     -12.561  10.631   1.382  1.00  0.00     0.041 C 
ATOM     15  O   UNL     1     -11.808  10.618   0.375  1.00  0.00    -0.550 OA
ATOM     16  O   UNL     1     -12.430  11.641   2.328  1.00  0.00    -0.550 OA
ENDBRANCH  13  14
ENDBRANCH  12  13
ENDBRANCH  11  12
ENDBRANCH  10  11
ENDBRANCH   9  10
ENDBRANCH   8   9
ENDBRANCH   7   8
ENDBRANCH   6   7
ENDBRANCH   5   6
ENDBRANCH   4   5
ENDBRANCH   3   4
ENDBRANCH   2   3
ENDBRANCH   1   2
BRANCH   1  17
ATOM     17  C   UNL     1     -12.880   4.557   8.856  1.00  0.00     0.000 C 
BRANCH  17  18
ATOM     18  C   UNL     1     -13.065   6.084   8.936  1.00  0.00     0.000 C 
BRANCH  18  19
ATOM     19  C   UNL     1     -14.383   6.591   8.313  1.00  0.00     0.000 C 
BRANCH  19  20
ATOM     20  C   UNL     1     -14.209   7.917   7.548  1.00  0.00     0.000 C 
BRANCH  20  21
ATOM     21  C   UNL     1     -13.793   9.074   8.472  1.00  0.00     0.000 C 
BRANCH  21  22
ATOM     22  C   UNL     1     -12.489   9.747   8.012  1.00  0.00    -0.000 C 
BRANCH  22  23
ATOM     23  C   UNL     1     -12.361   9.801   6.475  1.00  0.00    -0.000 C 
BRANCH  23  24
ATOM     24  C   UNL     1     -11.705  11.090   5.944  1.00  0.00    -0.000 C 
BRANCH  24  25
ATOM     25  C   UNL     1     -10.467  11.565   6.726  1.00  0.00    -0.000 C 
BRANCH  25  26
ATOM     26  C   UNL     1      -9.339  10.518   6.747  1.00  0.00    -0.000 C 
BRANCH  26  27
ATOM     27  C   UNL     1      -9.010   9.970   5.348  1.00  0.00    -0.000 C 
BRANCH  27  28
ATOM     28  C   UNL     1      -7.608   9.343   5.275  1.00  0.00    -0.000 C 
BRANCH  28  29
ATOM     29  C   UNL     1      -6.822   9.512   6.585  1.00  0.00    -0.003 C 
ATOM     30  C   UNL     1      -5.464  10.183   6.383  1.00  0.00     0.004 C 
ENDBRANCH  28  29
ENDBRANCH  27  28
ENDBRANCH  26  27
ENDBRANCH  25  26
ENDBRANCH  24  25
ENDBRANCH  23  24
ENDBRANCH  22  23
ENDBRANCH  21  22
ENDBRANCH  20  21
ENDBRANCH  19  20
ENDBRANCH  18  19
ENDBRANCH  17  18
ENDBRANCH   1  17
TORSDOF 26
ENDMDL
MODEL 2
REMARK VINA RESULT:    -4.060      2.130      5.975
REMARK INTER + INTRA:         -14.841
REMARK INTER:                 -10.247
REMARK INTRA:                  -4.594
REMARK UNBOUND:                -4.611
REMARK SMILES CCCCCCCCCCCCCCCCCCCCCCCCCCCC(=O)[O-]
REMARK SMILES IDX 15 1 16 2 17 3 18 4 19 5 20 6 21 7 22 8 23 9 24 10 25 11
REMARK SMILES IDX 26 12 27 13 28 14 29 15 30 16 14 17 13 18 12 19 11 20 10 21
REMARK SMILES IDX 9 22 8 23 7 24 6 25 5 26 4 27 3 28 2 29 1 30
REMARK H PARENT
REMARK Flexibility Score: inf
ROOT
ATOM      1  C   UNL     1     -12.503   4.192   8.939  1.00  0.00     0.000 C 
ENDROOT
BRANCH   1   2
ATOM      2  C   UNL     1     -13.072   5.626   8.979  1.00  0.00     0.000 C 
BRANCH   2   3
ATOM      3  C   UNL     1     -14.220   5.899   7.991  1.00  0.00     0.000 C 
BRANCH   3   4
ATOM      4  C   UNL     1     -14.422   7.397   7.717  1.00  0.00     0.000 C 
BRANCH   4   5
ATOM      5  C   UNL     1     -13.320   8.234   8.383  1.00  0.00     0.000 C 
BRANCH   5   6
ATOM      6  C   UNL     1     -12.465   9.009   7.368  1.00  0.00     0.000 C 
BRANCH   6   7
ATOM      7  C   UNL     1     -13.290   9.984   6.515  1.00  0.00     0.000 C 
BRANCH   7   8
ATOM      8  C   UNL     1     -13.181  11.413   7.059  1.00  0.00     0.000 C 
BRANCH   8   9
ATOM      9  C   UNL     1     -11.772  11.694   7.601  1.00  0.00     0.000 C 
BRANCH   9  10
ATOM     10  C   UNL     1     -10.759  12.034   6.493  1.00  0.00     0.000 C 
BRANCH  10  11
ATOM     11  C   UNL     1      -9.372  11.385   6.654  1.00  0.00     0.000 C 
BRANCH  11  12
ATOM     12  C   UNL     1      -9.155  10.187   5.716  1.00  0.00     0.006 C 
BRANCH  12  13
ATOM     13  C   UNL     1      -7.965   9.321   6.148  1.00  0.00     0.053 C 
BRANCH  13  14
ATOM     14  C   UNL     1      -6.693  10.110   6.205  1.00  0.00     0.041 C 
ATOM     15  O   UNL     1      -6.014  10.143   7.264  1.00  0.00    -0.550 OA
ATOM     16  O   UNL     1      -6.267  10.823   5.091  1.00  0.00    -0.550 OA
ENDBRANCH  13  14
ENDBRANCH  12  13
ENDBRANCH  11  12
ENDBRANCH  10  11
ENDBRANCH   9  10
ENDBRANCH   8   9
ENDBRANCH   7   8
ENDBRANCH   6   7
ENDBRANCH   5   6
ENDBRANCH   4   5
ENDBRANCH   3   4
ENDBRANCH   2   3
ENDBRANCH   1   2
BRANCH   1  17
ATOM     17  C   UNL     1     -10.972   4.098   8.801  1.00  0.00     0.000 C 
BRANCH  17  18
ATOM     18  C   UNL     1     -10.283   5.367   8.261  1.00  0.00     0.000 C 
BRANCH  18  19
ATOM     19  C   UNL     1      -9.650   5.191   6.864  1.00  0.00     0.000 C 
BRANCH  19  20
ATOM     20  C   UNL     1     -10.143   6.242   5.850  1.00  0.00     0.000 C 
BRANCH  20  21
ATOM     21  C   UNL     1     -11.660   6.158   5.614  1.00  0.00     0.000 C 
BRANCH  21  22
ATOM     22  C   UNL     1     -12.095   4.774   5.103  1.00  0.00    -0.000 C 
BRANCH  22  23
ATOM     23  C   UNL     1     -13.568   4.749   4.642  1.00  0.00    -0.000 C 
BRANCH  23  24
ATOM     24  C   UNL     1     -13.905   5.791   3.559  1.00  0.00    -0.000 C 
BRANCH  24  25
ATOM     25  C   UNL     1     -14.873   6.904   3.999  1.00  0.00    -0.000 C 
BRANCH  25  26
ATOM     26  C   UNL     1     -14.384   8.309   3.602  1.00  0.00    -0.000 C 
BRANCH  26  27
ATOM     27  C   UNL     1     -14.071   8.426   2.100  1.00  0.00    -0.000 C 
BRANCH  27  28
ATOM     28  C   UNL     1     -14.066   9.885   1.612  1.00  0.00    -0.000 C 
BRANCH  28  29
ATOM     29  C   UNL     1     -12.667  10.519   1.673  1.00  0.00    -0.003 C 
ATOM     30  C   UNL     1     -12.454  11.370   2.925  1.00  0.00     0.004 C 
ENDBRANCH  28  29
ENDBRANCH  27  28
ENDBRANCH  26  27
ENDBRANCH  25  26
ENDBRANCH  24  25
ENDBRANCH  23  24
ENDBRANCH  22  23
ENDBRANCH  21  22
ENDBRANCH  20  21
ENDBRANCH  19  20
ENDBRANCH  18  19
ENDBRANCH  17  18
ENDBRANCH   1  17
TORSDOF 26
ENDMDL
MODEL 3
REMARK VINA RESULT:    -3.815      1.207      4.242
REMARK INTER + INTRA:         -14.225
REMARK INTER:                 -10.861
REMARK INTRA:                  -3.364
REMARK UNBOUND:                -4.611
REMARK SMILES CCCCCCCCCCCCCCCCCCCCCCCCCCCC(=O)[O-]
REMARK SMILES IDX 15 1 16 2 17 3 18 4 19 5 20 6 21 7 22 8 23 9 24 10 25 11
REMARK SMILES IDX 26 12 27 13 28 14 29 15 30 16 14 17 13 18 12 19 11 20 10 21
REMARK SMILES IDX 9 22 8 23 7 24 6 25 5 26 4 27 3 28 2 29 1 30
REMARK H PARENT
REMARK Flexibility Score: inf
ROOT
ATOM      1  C   UNL     1     -10.522   6.383   6.926  1.00  0.00     0.000 C 
ENDROOT
BRANCH   1   2
ATOM      2  C   UNL     1     -10.549   5.345   8.069  1.00  0.00     0.000 C 
BRANCH   2   3
ATOM      3  C   UNL     1     -10.691   3.881   7.616  1.00  0.00     0.000 C 
BRANCH   3   4
ATOM      4  C   UNL     1     -12.147   3.491   7.322  1.00  0.00     0.000 C 
BRANCH   4   5
ATOM      5  C   UNL     1     -13.110   4.628   7.696  1.00  0.00     0.000 C 
BRANCH   5   6
ATOM      6  C   UNL     1     -13.944   5.118   6.502  1.00  0.00     0.000 C 
BRANCH   6   7
ATOM      7  C   UNL     1     -13.262   4.861   5.151  1.00  0.00     0.000 C 
BRANCH   7   8
ATOM      8  C   UNL     1     -13.991   5.598   4.021  1.00  0.00     0.000 C 
BRANCH   8   9
ATOM      9  C   UNL     1     -14.542   6.946   4.505  1.00  0.00     0.000 C 
BRANCH   9  10
ATOM     10  C   UNL     1     -14.273   8.095   3.518  1.00  0.00     0.000 C 
BRANCH  10  11
ATOM     11  C   UNL     1     -14.745   9.484   3.987  1.00  0.00     0.000 C 
BRANCH  11  12
ATOM     12  C   UNL     1     -14.489  10.589   2.950  1.00  0.00     0.006 C 
BRANCH  12  13
ATOM     13  C   UNL     1     -13.734  10.066   1.721  1.00  0.00     0.053 C 
BRANCH  13  14
ATOM     14  C   UNL     1     -12.432  10.780   1.521  1.00  0.00     0.041 C 
ATOM     15  O   UNL     1     -11.796  10.649   0.443  1.00  0.00    -0.550 OA
ATOM     16  O   UNL     1     -11.914  11.578   2.534  1.00  0.00    -0.550 OA
ENDBRANCH  13  14
ENDBRANCH  12  13
ENDBRANCH  11  12
ENDBRANCH  10  11
ENDBRANCH   9  10
ENDBRANCH   8   9
ENDBRANCH   7   8
ENDBRANCH   6   7
ENDBRANCH   5   6
ENDBRANCH   4   5
ENDBRANCH   3   4
ENDBRANCH   2   3
ENDBRANCH   1   2
BRANCH   1  17
ATOM     17  C   UNL     1      -9.121   6.735   6.394  1.00  0.00     0.000 C 
BRANCH  17  18
ATOM     18  C   UNL     1      -8.807   8.242   6.319  1.00  0.00     0.000 C 
BRANCH  18  19
ATOM     19  C   UNL     1      -7.517   8.576   5.540  1.00  0.00     0.000 C 
BRANCH  19  20
ATOM     20  C   UNL     1      -7.579   9.950   4.846  1.00  0.00     0.000 C 
BRANCH  20  21
ATOM     21  C   UNL     1      -6.499  10.915   5.363  1.00  0.00     0.000 C 
BRANCH  21  22
ATOM     22  C   UNL     1      -5.952  10.495   6.738  1.00  0.00    -0.000 C 
BRANCH  22  23
ATOM     23  C   UNL     1      -6.300  11.509   7.848  1.00  0.00    -0.000 C 
BRANCH  23  24
ATOM     24  C   UNL     1      -7.760  11.433   8.333  1.00  0.00    -0.000 C 
BRANCH  24  25
ATOM     25  C   UNL     1      -8.790  12.125   7.423  1.00  0.00    -0.000 C 
BRANCH  25  26
ATOM     26  C   UNL     1     -10.223  11.607   7.646  1.00  0.00    -0.000 C 
BRANCH  26  27
ATOM     27  C   UNL     1     -10.823  10.960   6.385  1.00  0.00    -0.000 C 
BRANCH  27  28
ATOM     28  C   UNL     1     -12.293  10.550   6.577  1.00  0.00    -0.000 C 
BRANCH  28  29
ATOM     29  C   UNL     1     -12.438   9.232   7.352  1.00  0.00    -0.003 C 
ATOM     30  C   UNL     1     -13.895   8.825   7.571  1.00  0.00     0.004 C 
ENDBRANCH  28  29
ENDBRANCH  27  28
ENDBRANCH  26  27
ENDBRANCH  25  26
ENDBRANCH  24  25
ENDBRANCH  23  24
ENDBRANCH  22  23
ENDBRANCH  21  22
ENDBRANCH  20  21
ENDBRANCH  19  20
ENDBRANCH  18  19
ENDBRANCH  17  18
ENDBRANCH   1  17
TORSDOF 26
ENDMDL
MODEL 4
REMARK VINA RESULT:    -3.721      2.049      5.793
REMARK INTER + INTRA:         -13.989
REMARK INTER:                  -9.911
REMARK INTRA:                  -4.078
REMARK UNBOUND:                -4.611
REMARK SMILES CCCCCCCCCCCCCCCCCCCCCCCCCCCC(=O)[O-]
REMARK SMILES IDX 15 1 16 2 17 3 18 4 19 5 20 6 21 7 22 8 23 9 24 10 25 11
REMARK SMILES IDX 26 12 27 13 28 14 29 15 30 16 14 17 13 18 12 19 11 20 10 21
REMARK SMILES IDX 9 22 8 23 7 24 6 25 5 26 4 27 3 28 2 29 1 30
REMARK H PARENT
REMARK Flexibility Score: inf
ROOT
ATOM      1  C   UNL     1     -11.034   5.463   8.753  1.00  0.00     0.000 C 
ENDROOT
BRANCH   1   2
ATOM      2  C   UNL     1     -12.330   4.702   9.104  1.00  0.00     0.000 C 
BRANCH   2   3
ATOM      3  C   UNL     1     -13.623   5.329   8.553  1.00  0.00     0.000 C 
BRANCH   3   4
ATOM      4  C   UNL     1     -13.888   6.733   9.116  1.00  0.00     0.000 C 
BRANCH   4   5
ATOM      5  C   UNL     1     -13.625   7.811   8.055  1.00  0.00     0.000 C 
BRANCH   5   6
ATOM      6  C   UNL     1     -14.773   8.826   7.940  1.00  0.00     0.000 C 
BRANCH   6   7
ATOM      7  C   UNL     1     -14.392  10.220   8.461  1.00  0.00     0.000 C 
BRANCH   7   8
ATOM      8  C   UNL     1     -12.871  10.355   8.598  1.00  0.00     0.000 C 
BRANCH   8   9
ATOM      9  C   UNL     1     -12.258  11.007   7.349  1.00  0.00     0.000 C 
BRANCH   9  10
ATOM     10  C   UNL     1     -11.031  11.879   7.667  1.00  0.00     0.000 C 
BRANCH  10  11
ATOM     11  C   UNL     1      -9.703  11.380   7.068  1.00  0.00     0.000 C 
BRANCH  11  12
ATOM     12  C   UNL     1      -9.893  10.272   6.021  1.00  0.00     0.006 C 
BRANCH  12  13
ATOM     13  C   UNL     1      -8.856   9.151   6.169  1.00  0.00     0.053 C 
BRANCH  13  14
ATOM     14  C   UNL     1      -7.465   9.639   5.893  1.00  0.00     0.041 C 
ATOM     15  O   UNL     1      -7.191  10.184   4.794  1.00  0.00    -0.550 OA
ATOM     16  O   UNL     1      -6.470   9.474   6.849  1.00  0.00    -0.550 OA
ENDBRANCH  13  14
ENDBRANCH  12  13
ENDBRANCH  11  12
ENDBRANCH  10  11
ENDBRANCH   9  10
ENDBRANCH   8   9
ENDBRANCH   7   8
ENDBRANCH   6   7
ENDBRANCH   5   6
ENDBRANCH   4   5
ENDBRANCH   3   4
ENDBRANCH   2   3
ENDBRANCH   1   2
BRANCH   1  17
ATOM     17  C   UNL     1     -10.094   4.737   7.773  1.00  0.00     0.000 C 
BRANCH  17  18
ATOM     18  C   UNL     1      -9.979   5.380   6.377  1.00  0.00     0.000 C 
BRANCH  18  19
ATOM     19  C   UNL     1     -11.311   5.934   5.829  1.00  0.00     0.000 C 
BRANCH  19  20
ATOM     20  C   UNL     1     -12.106   4.888   5.025  1.00  0.00     0.000 C 
BRANCH  20  21
ATOM     21  C   UNL     1     -13.606   5.223   4.954  1.00  0.00     0.000 C 
BRANCH  21  22
ATOM     22  C   UNL     1     -14.099   5.385   3.506  1.00  0.00    -0.000 C 
BRANCH  22  23
ATOM     23  C   UNL     1     -14.542   6.830   3.190  1.00  0.00    -0.000 C 
BRANCH  23  24
ATOM     24  C   UNL     1     -14.688   7.727   4.433  1.00  0.00    -0.000 C 
BRANCH  24  25
ATOM     25  C   UNL     1     -13.885   9.040   4.392  1.00  0.00    -0.000 C 
BRANCH  25  26
ATOM     26  C   UNL     1     -14.760  10.280   4.650  1.00  0.00    -0.000 C 
BRANCH  26  27
ATOM     27  C   UNL     1     -14.591  11.361   3.568  1.00  0.00    -0.000 C 
BRANCH  27  28
ATOM     28  C   UNL     1     -14.125  10.780   2.223  1.00  0.00    -0.000 C 
BRANCH  28  29
ATOM     29  C   UNL     1     -12.903  11.521   1.657  1.00  0.00    -0.003 C 
ATOM     30  C   UNL     1     -12.068  10.657   0.711  1.00  0.00     0.004 C 
ENDBRANCH  28  29
ENDBRANCH  27  28
ENDBRANCH  26  27
ENDBRANCH  25  26
ENDBRANCH  24  25
ENDBRANCH  23  24
ENDBRANCH  22  23
ENDBRANCH  21  22
ENDBRANCH  20  21
ENDBRANCH  19  20
ENDBRANCH  18  19
ENDBRANCH  17  18
ENDBRANCH   1  17
TORSDOF 26
ENDMDL
MODEL 5
REMARK VINA RESULT:    -3.663      1.031      1.700
REMARK INTER + INTRA:         -13.842
REMARK INTER:                  -9.947
REMARK INTRA:                  -3.894
REMARK UNBOUND:                -4.611
REMARK SMILES CCCCCCCCCCCCCCCCCCCCCCCCCCCC(=O)[O-]
REMARK SMILES IDX 15 1 16 2 17 3 18 4 19 5 20 6 21 7 22 8 23 9 24 10 25 11
REMARK SMILES IDX 26 12 27 13 28 14 29 15 30 16 14 17 13 18 12 19 11 20 10 21
REMARK SMILES IDX 9 22 8 23 7 24 6 25 5 26 4 27 3 28 2 29 1 30
REMARK H PARENT
REMARK Flexibility Score: inf
ROOT
ATOM      1  C   UNL     1     -10.096   5.396   8.298  1.00  0.00     0.000 C 
ENDROOT
BRANCH   1   2
ATOM      2  C   UNL     1      -9.513   5.823   6.934  1.00  0.00     0.000 C 
BRANCH   2   3
ATOM      3  C   UNL     1     -10.526   5.859   5.776  1.00  0.00     0.000 C 
BRANCH   3   4
ATOM      4  C   UNL     1     -10.616   4.522   5.026  1.00  0.00     0.000 C 
BRANCH   4   5
ATOM      5  C   UNL     1     -12.003   4.339   4.390  1.00  0.00     0.000 C 
BRANCH   5   6
ATOM      6  C   UNL     1     -12.982   5.461   4.765  1.00  0.00     0.000 C 
BRANCH   6   7
ATOM      7  C   UNL     1     -14.350   5.311   4.083  1.00  0.00     0.000 C 
BRANCH   7   8
ATOM      8  C   UNL     1     -14.862   6.667   3.580  1.00  0.00     0.000 C 
BRANCH   8   9
ATOM      9  C   UNL     1     -14.141   7.826   4.283  1.00  0.00     0.000 C 
BRANCH   9  10
ATOM     10  C   UNL     1     -15.076   9.001   4.618  1.00  0.00     0.000 C 
BRANCH  10  11
ATOM     11  C   UNL     1     -14.967  10.212   3.674  1.00  0.00     0.000 C 
BRANCH  11  12
ATOM     12  C   UNL     1     -13.950  10.003   2.541  1.00  0.00     0.006 C 
BRANCH  12  13
ATOM     13  C   UNL     1     -13.668  11.300   1.770  1.00  0.00     0.053 C 
BRANCH  13  14
ATOM     14  C   UNL     1     -12.203  11.492   1.521  1.00  0.00     0.041 C 
ATOM     15  O   UNL     1     -11.477  12.030   2.397  1.00  0.00    -0.550 OA
ATOM     16  O   UNL     1     -11.645  11.091   0.313  1.00  0.00    -0.550 OA
ENDBRANCH  13  14
ENDBRANCH  12  13
ENDBRANCH  11  12
ENDBRANCH  10  11
ENDBRANCH   9  10
ENDBRANCH   8   9
ENDBRANCH   7   8
ENDBRANCH   6   7
ENDBRANCH   5   6
ENDBRANCH   4   5
ENDBRANCH   3   4
ENDBRANCH   2   3
ENDBRANCH   1   2
BRANCH   1  17
ATOM     17  C   UNL     1     -11.558   4.915   8.264  1.00  0.00     0.000 C 
BRANCH  17  18
ATOM     18  C   UNL     1     -12.544   5.749   9.106  1.00  0.00     0.000 C 
BRANCH  18  19
ATOM     19  C   UNL     1     -13.520   6.603   8.268  1.00  0.00     0.000 C 
BRANCH  19  20
ATOM     20  C   UNL     1     -12.852   7.855   7.668  1.00  0.00     0.000 C 
BRANCH  20  21
ATOM     21  C   UNL     1     -13.220   9.137   8.435  1.00  0.00     0.000 C 
BRANCH  21  22
ATOM     22  C   UNL     1     -13.865  10.196   7.525  1.00  0.00    -0.000 C 
BRANCH  22  23
ATOM     23  C   UNL     1     -12.952  11.419   7.301  1.00  0.00    -0.000 C 
BRANCH  23  24
ATOM     24  C   UNL     1     -11.619  11.357   8.071  1.00  0.00    -0.000 C 
BRANCH  24  25
ATOM     25  C   UNL     1     -10.354  11.361   7.195  1.00  0.00    -0.000 C 
BRANCH  25  26
ATOM     26  C   UNL     1     -10.185  10.061   6.389  1.00  0.00    -0.000 C 
BRANCH  26  27
ATOM     27  C   UNL     1      -9.061  10.153   5.342  1.00  0.00    -0.000 C 
BRANCH  27  28
ATOM     28  C   UNL     1      -8.023   9.028   5.492  1.00  0.00    -0.000 C 
BRANCH  28  29
ATOM     29  C   UNL     1      -6.824   9.448   6.357  1.00  0.00    -0.003 C 
ATOM     30  C   UNL     1      -6.643  10.965   6.428  1.00  0.00     0.004 C 
ENDBRANCH  28  29
ENDBRANCH  27  28
ENDBRANCH  26  27
ENDBRANCH  25  26
ENDBRANCH  24  25
ENDBRANCH  23  24
ENDBRANCH  22  23
ENDBRANCH  21  22
ENDBRANCH  20  21
ENDBRANCH  19  20
ENDBRANCH  18  19
ENDBRANCH  17  18
ENDBRANCH   1  17
TORSDOF 26
ENDMDL
MODEL 6
REMARK VINA RESULT:    -3.612      1.393      5.688
REMARK INTER + INTRA:         -13.713
REMARK INTER:                  -9.344
REMARK INTRA:                  -4.369
REMARK UNBOUND:                -4.611
REMARK SMILES CCCCCCCCCCCCCCCCCCCCCCCCCCCC(=O)[O-]
REMARK SMILES IDX 15 1 16 2 17 3 18 4 19 5 20 6 21 7 22 8 23 9 24 10 25 11
REMARK SMILES IDX 26 12 27 13 28 14 29 15 30 16 14 17 13 18 12 19 11 20 10 21
REMARK SMILES IDX 9 22 8 23 7 24 6 25 5 26 4 27 3 28 2 29 1 30
REMARK H PARENT
REMARK Flexibility Score: inf
ROOT
ATOM      1  C   UNL     1     -10.478   7.612   6.585  1.00  0.00     0.000 C 
ENDROOT
BRANCH   1   2
ATOM      2  C   UNL     1      -9.152   7.463   5.809  1.00  0.00     0.000 C 
BRANCH   2   3
ATOM      3  C   UNL     1      -8.051   8.463   6.203  1.00  0.00     0.000 C 
BRANCH   3   4
ATOM      4  C   UNL     1      -7.569   9.312   5.016  1.00  0.00     0.000 C 
BRANCH   4   5
ATOM      5  C   UNL     1      -7.511  10.800   5.390  1.00  0.00     0.000 C 
BRANCH   5   6
ATOM      6  C   UNL     1      -6.773  11.053   6.714  1.00  0.00     0.000 C 
BRANCH   6   7
ATOM      7  C   UNL     1      -7.727  11.206   7.909  1.00  0.00     0.000 C 
BRANCH   7   8
ATOM      8  C   UNL     1      -8.904  12.123   7.555  1.00  0.00     0.000 C 
BRANCH   8   9
ATOM      9  C   UNL     1     -10.186  11.311   7.318  1.00  0.00     0.000 C 
BRANCH   9  10
ATOM     10  C   UNL     1     -11.036  11.854   6.156  1.00  0.00     0.000 C 
BRANCH  10  11
ATOM     11  C   UNL     1     -11.230  10.881   4.979  1.00  0.00     0.000 C 
BRANCH  11  12
ATOM     12  C   UNL     1     -11.929  11.527   3.772  1.00  0.00     0.006 C 
BRANCH  12  13
ATOM     13  C   UNL     1     -13.161  10.731   3.322  1.00  0.00     0.053 C 
BRANCH  13  14
ATOM     14  C   UNL     1     -13.062  10.317   1.885  1.00  0.00     0.041 C 
ATOM     15  O   UNL     1     -13.928   9.555   1.384  1.00  0.00    -0.550 OA
ATOM     16  O   UNL     1     -12.001  10.763   1.105  1.00  0.00    -0.550 OA
ENDBRANCH  13  14
ENDBRANCH  12  13
ENDBRANCH  11  12
ENDBRANCH  10  11
ENDBRANCH   9  10
ENDBRANCH   8   9
ENDBRANCH   7   8
ENDBRANCH   6   7
ENDBRANCH   5   6
ENDBRANCH   4   5
ENDBRANCH   3   4
ENDBRANCH   2   3
ENDBRANCH   1   2
BRANCH   1  17
ATOM     17  C   UNL     1     -10.749   6.518   7.635  1.00  0.00     0.000 C 
BRANCH  17  18
ATOM     18  C   UNL     1     -12.213   6.406   8.103  1.00  0.00     0.000 C 
BRANCH  18  19
ATOM     19  C   UNL     1     -12.527   5.108   8.877  1.00  0.00     0.000 C 
BRANCH  19  20
ATOM     20  C   UNL     1     -12.830   3.917   7.948  1.00  0.00     0.000 C 
BRANCH  20  21
ATOM     21  C   UNL     1     -11.554   3.322   7.327  1.00  0.00     0.000 C 
BRANCH  21  22
ATOM     22  C   UNL     1     -11.682   3.128   5.807  1.00  0.00    -0.000 C 
BRANCH  22  23
ATOM     23  C   UNL     1     -11.726   4.467   5.041  1.00  0.00    -0.000 C 
BRANCH  23  24
ATOM     24  C   UNL     1     -13.044   4.713   4.282  1.00  0.00    -0.000 C 
BRANCH  24  25
ATOM     25  C   UNL     1     -14.060   5.614   5.006  1.00  0.00    -0.000 C 
BRANCH  25  26
ATOM     26  C   UNL     1     -13.742   7.113   4.850  1.00  0.00    -0.000 C 
BRANCH  26  27
ATOM     27  C   UNL     1     -14.961   8.010   5.121  1.00  0.00    -0.000 C 
BRANCH  27  28
ATOM     28  C   UNL     1     -14.994   8.538   6.566  1.00  0.00    -0.000 C 
BRANCH  28  29
ATOM     29  C   UNL     1     -13.864   9.540   6.850  1.00  0.00    -0.003 C 
ATOM     30  C   UNL     1     -13.588   9.719   8.343  1.00  0.00     0.004 C 
ENDBRANCH  28  29
ENDBRANCH  27  28
ENDBRANCH  26  27
ENDBRANCH  25  26
ENDBRANCH  24  25
ENDBRANCH  23  24
ENDBRANCH  22  23
ENDBRANCH  21  22
ENDBRANCH  20  21
ENDBRANCH  19  20
ENDBRANCH  18  19
ENDBRANCH  17  18
ENDBRANCH   1  17
TORSDOF 26
ENDMDL
MODEL 7
REMARK VINA RESULT:    -3.522      1.437      5.895
REMARK INTER + INTRA:         -13.486
REMARK INTER:                  -9.862
REMARK INTRA:                  -3.624
REMARK UNBOUND:                -4.611
REMARK SMILES CCCCCCCCCCCCCCCCCCCCCCCCCCCC(=O)[O-]
REMARK SMILES IDX 15 1 16 2 17 3 18 4 19 5 20 6 21 7 22 8 23 9 24 10 25 11
REMARK SMILES IDX 26 12 27 13 28 14 29 15 30 16 14 17 13 18 12 19 11 20 10 21
REMARK SMILES IDX 9 22 8 23 7 24 6 25 5 26 4 27 3 28 2 29 1 30
REMARK H PARENT
REMARK Flexibility Score: inf
ROOT
ATOM      1  C   UNL     1      -7.235   9.027   5.295  1.00  0.00     0.000 C 
ENDROOT
BRANCH   1   2
ATOM      2  C   UNL     1      -7.507  10.492   5.696  1.00  0.00     0.000 C 
BRANCH   2   3
ATOM      3  C   UNL     1      -6.999  10.889   7.094  1.00  0.00     0.000 C 
BRANCH   3   4
ATOM      4  C   UNL     1      -8.118  11.423   8.001  1.00  0.00     0.000 C 
BRANCH   4   5
ATOM      5  C   UNL     1      -9.208  12.124   7.178  1.00  0.00     0.000 C 
BRANCH   5   6
ATOM      6  C   UNL     1     -10.567  11.411   7.261  1.00  0.00     0.000 C 
BRANCH   6   7
ATOM      7  C   UNL     1     -11.150  11.075   5.880  1.00  0.00     0.000 C 
BRANCH   7   8
ATOM      8  C   UNL     1     -12.424  10.233   6.015  1.00  0.00     0.000 C 
BRANCH   8   9
ATOM      9  C   UNL     1     -13.673  11.124   6.076  1.00  0.00     0.000 C 
BRANCH   9  10
ATOM     10  C   UNL     1     -14.912  10.466   5.444  1.00  0.00     0.000 C 
BRANCH  10  11
ATOM     11  C   UNL     1     -14.763  10.083   3.960  1.00  0.00     0.000 C 
BRANCH  11  12
ATOM     12  C   UNL     1     -14.497  11.292   3.050  1.00  0.00     0.006 C 
BRANCH  12  13
ATOM     13  C   UNL     1     -14.033  10.872   1.649  1.00  0.00     0.053 C 
BRANCH  13  14
ATOM     14  C   UNL     1     -12.548  10.994   1.494  1.00  0.00     0.041 C 
ATOM     15  O   UNL     1     -12.026  10.971   0.350  1.00  0.00    -0.550 OA
ATOM     16  O   UNL     1     -11.740  11.118   2.618  1.00  0.00    -0.550 OA
ENDBRANCH  13  14
ENDBRANCH  12  13
ENDBRANCH  11  12
ENDBRANCH  10  11
ENDBRANCH   9  10
ENDBRANCH   8   9
ENDBRANCH   7   8
ENDBRANCH   6   7
ENDBRANCH   5   6
ENDBRANCH   4   5
ENDBRANCH   3   4
ENDBRANCH   2   3
ENDBRANCH   1   2
BRANCH   1  17
ATOM     17  C   UNL     1      -8.492   8.182   5.013  1.00  0.00     0.000 C 
BRANCH  17  18
ATOM     18  C   UNL     1      -8.914   7.234   6.153  1.00  0.00     0.000 C 
BRANCH  18  19
ATOM     19  C   UNL     1     -10.419   7.290   6.491  1.00  0.00     0.000 C 
BRANCH  19  20
ATOM     20  C   UNL     1     -10.808   6.338   7.638  1.00  0.00     0.000 C 
BRANCH  20  21
ATOM     21  C   UNL     1     -10.057   4.997   7.563  1.00  0.00     0.000 C 
BRANCH  21  22
ATOM     22  C   UNL     1     -11.016   3.797   7.471  1.00  0.00    -0.000 C 
BRANCH  22  23
ATOM     23  C   UNL     1     -11.599   3.613   6.054  1.00  0.00    -0.000 C 
BRANCH  23  24
ATOM     24  C   UNL     1     -13.039   4.137   5.895  1.00  0.00    -0.000 C 
BRANCH  24  25
ATOM     25  C   UNL     1     -13.636   4.803   7.148  1.00  0.00    -0.000 C 
BRANCH  25  26
ATOM     26  C   UNL     1     -14.345   6.133   6.832  1.00  0.00    -0.000 C 
BRANCH  26  27
ATOM     27  C   UNL     1     -13.856   6.770   5.520  1.00  0.00    -0.000 C 
BRANCH  27  28
ATOM     28  C   UNL     1     -14.896   6.669   4.392  1.00  0.00    -0.000 C 
BRANCH  28  29
ATOM     29  C   UNL     1     -14.297   6.116   3.090  1.00  0.00    -0.003 C 
ATOM     30  C   UNL     1     -14.338   7.123   1.940  1.00  0.00     0.004 C 
ENDBRANCH  28  29
ENDBRANCH  27  28
ENDBRANCH  26  27
ENDBRANCH  25  26
ENDBRANCH  24  25
ENDBRANCH  23  24
ENDBRANCH  22  23
ENDBRANCH  21  22
ENDBRANCH  20  21
ENDBRANCH  19  20
ENDBRANCH  18  19
ENDBRANCH  17  18
ENDBRANCH   1  17
TORSDOF 26
ENDMDL
MODEL 8
REMARK VINA RESULT:    -3.509      1.707      4.057
REMARK INTER + INTRA:         -13.454
REMARK INTER:                 -10.712
REMARK INTRA:                  -2.742
REMARK UNBOUND:                -4.611
REMARK SMILES CCCCCCCCCCCCCCCCCCCCCCCCCCCC(=O)[O-]
REMARK SMILES IDX 15 1 16 2 17 3 18 4 19 5 20 6 21 7 22 8 23 9 24 10 25 11
REMARK SMILES IDX 26 12 27 13 28 14 29 15 30 16 14 17 13 18 12 19 11 20 10 21
REMARK SMILES IDX 9 22 8 23 7 24 6 25 5 26 4 27 3 28 2 29 1 30
REMARK H PARENT
REMARK Flexibility Score: inf
ROOT
ATOM      1  C   UNL     1     -12.896   4.024   7.041  1.00  0.00     0.000 C 
ENDROOT
BRANCH   1   2
ATOM      2  C   UNL     1     -12.445   4.218   8.505  1.00  0.00     0.000 C 
BRANCH   2   3
ATOM      3  C   UNL     1     -12.694   5.623   9.081  1.00  0.00     0.000 C 
BRANCH   3   4
ATOM      4  C   UNL     1     -13.278   6.595   8.044  1.00  0.00     0.000 C 
BRANCH   4   5
ATOM      5  C   UNL     1     -14.021   7.751   8.729  1.00  0.00     0.000 C 
BRANCH   5   6
ATOM      6  C   UNL     1     -13.418   9.125   8.400  1.00  0.00     0.000 C 
BRANCH   6   7
ATOM      7  C   UNL     1     -12.457   9.084   7.203  1.00  0.00     0.000 C 
BRANCH   7   8
ATOM      8  C   UNL     1     -12.498  10.403   6.423  1.00  0.00     0.000 C 
BRANCH   8   9
ATOM      9  C   UNL     1     -13.757  11.212   6.768  1.00  0.00     0.000 C 
BRANCH   9  10
ATOM     10  C   UNL     1     -14.421  11.848   5.534  1.00  0.00     0.000 C 
BRANCH  10  11
ATOM     11  C   UNL     1     -14.984  10.848   4.508  1.00  0.00     0.000 C 
BRANCH  11  12
ATOM     12  C   UNL     1     -14.635  11.214   3.056  1.00  0.00     0.006 C 
BRANCH  12  13
ATOM     13  C   UNL     1     -13.137  11.055   2.764  1.00  0.00     0.053 C 
BRANCH  13  14
ATOM     14  C   UNL     1     -12.895  10.318   1.482  1.00  0.00     0.041 C 
ATOM     15  O   UNL     1     -13.539   9.269   1.223  1.00  0.00    -0.550 OA
ATOM     16  O   UNL     1     -11.944  10.784   0.582  1.00  0.00    -0.550 OA
ENDBRANCH  13  14
ENDBRANCH  12  13
ENDBRANCH  11  12
ENDBRANCH  10  11
ENDBRANCH   9  10
ENDBRANCH   8   9
ENDBRANCH   7   8
ENDBRANCH   6   7
ENDBRANCH   5   6
ENDBRANCH   4   5
ENDBRANCH   3   4
ENDBRANCH   2   3
ENDBRANCH   1   2
BRANCH   1  17
ATOM     17  C   UNL     1     -11.765   3.709   6.044  1.00  0.00     0.000 C 
BRANCH  17  18
ATOM     18  C   UNL     1     -11.120   4.938   5.374  1.00  0.00     0.000 C 
BRANCH  18  19
ATOM     19  C   UNL     1      -9.893   5.493   6.128  1.00  0.00     0.000 C 
BRANCH  19  20
ATOM     20  C   UNL     1      -9.822   7.031   6.100  1.00  0.00     0.000 C 
BRANCH  20  21
ATOM     21  C   UNL     1      -8.387   7.553   6.290  1.00  0.00     0.000 C 
BRANCH  21  22
ATOM     22  C   UNL     1      -8.078   8.755   5.382  1.00  0.00    -0.000 C 
BRANCH  22  23
ATOM     23  C   UNL     1      -8.960   9.981   5.702  1.00  0.00    -0.000 C 
BRANCH  23  24
ATOM     24  C   UNL     1      -8.165  11.269   5.988  1.00  0.00    -0.000 C 
BRANCH  24  25
ATOM     25  C   UNL     1      -7.388  11.279   7.317  1.00  0.00    -0.000 C 
BRANCH  25  26
ATOM     26  C   UNL     1      -6.013  10.597   7.207  1.00  0.00    -0.000 C 
BRANCH  26  27
ATOM     27  C   UNL     1      -4.910  11.557   6.728  1.00  0.00    -0.000 C 
BRANCH  27  28
ATOM     28  C   UNL     1      -4.474  11.279   5.280  1.00  0.00    -0.000 C 
BRANCH  28  29
ATOM     29  C   UNL     1      -2.989  11.594   5.043  1.00  0.00    -0.003 C 
ATOM     30  C   UNL     1      -2.674  11.918   3.583  1.00  0.00     0.004 C 
ENDBRANCH  28  29
ENDBRANCH  27  28
ENDBRANCH  26  27
ENDBRANCH  25  26
ENDBRANCH  24  25
ENDBRANCH  23  24
ENDBRANCH  22  23
ENDBRANCH  21  22
ENDBRANCH  20  21
ENDBRANCH  19  20
ENDBRANCH  18  19
ENDBRANCH  17  18
ENDBRANCH   1  17
TORSDOF 26
ENDMDL
MODEL 9
REMARK VINA RESULT:    -3.427      2.724      5.539
REMARK INTER + INTRA:         -13.248
REMARK INTER:                  -8.840
REMARK INTRA:                  -4.409
REMARK UNBOUND:                -4.611
REMARK SMILES CCCCCCCCCCCCCCCCCCCCCCCCCCCC(=O)[O-]
REMARK SMILES IDX 15 1 16 2 17 3 18 4 19 5 20 6 21 7 22 8 23 9 24 10 25 11
REMARK SMILES IDX 26 12 27 13 28 14 29 15 30 16 14 17 13 18 12 19 11 20 10 21
REMARK SMILES IDX 9 22 8 23 7 24 6 25 5 26 4 27 3 28 2 29 1 30
REMARK H PARENT
REMARK Flexibility Score: inf
ROOT
ATOM      1  C   UNL     1      -9.563   7.391   6.126  1.00  0.00     0.000 C 
ENDROOT
BRANCH   1   2
ATOM      2  C   UNL     1      -9.230   6.080   6.870  1.00  0.00     0.000 C 
BRANCH   2   3
ATOM      3  C   UNL     1     -10.287   5.626   7.892  1.00  0.00     0.000 C 
BRANCH   3   4
ATOM      4  C   UNL     1     -11.498   6.569   7.952  1.00  0.00     0.000 C 
BRANCH   4   5
ATOM      5  C   UNL     1     -12.638   5.950   8.773  1.00  0.00     0.000 C 
BRANCH   5   6
ATOM      6  C   UNL     1     -13.738   6.964   9.123  1.00  0.00     0.000 C 
BRANCH   6   7
ATOM      7  C   UNL     1     -14.806   7.089   8.026  1.00  0.00     0.000 C 
BRANCH   7   8
ATOM      8  C   UNL     1     -14.358   8.071   6.937  1.00  0.00     0.000 C 
BRANCH   8   9
ATOM      9  C   UNL     1     -15.124   7.834   5.628  1.00  0.00     0.000 C 
BRANCH   9  10
ATOM     10  C   UNL     1     -14.199   7.540   4.434  1.00  0.00     0.000 C 
BRANCH  10  11
ATOM     11  C   UNL     1     -13.057   6.547   4.721  1.00  0.00     0.000 C 
BRANCH  11  12
ATOM     12  C   UNL     1     -13.470   5.081   4.520  1.00  0.00     0.006 C 
BRANCH  12  13
ATOM     13  C   UNL     1     -13.158   4.218   5.750  1.00  0.00     0.053 C 
BRANCH  13  14
ATOM     14  C   UNL     1     -11.823   3.545   5.633  1.00  0.00     0.041 C 
ATOM     15  O   UNL     1     -11.471   2.685   6.481  1.00  0.00    -0.550 OA
ATOM     16  O   UNL     1     -10.963   3.883   4.596  1.00  0.00    -0.550 OA
ENDBRANCH  13  14
ENDBRANCH  12  13
ENDBRANCH  11  12
ENDBRANCH  10  11
ENDBRANCH   9  10
ENDBRANCH   8   9
ENDBRANCH   7   8
ENDBRANCH   6   7
ENDBRANCH   5   6
ENDBRANCH   4   5
ENDBRANCH   3   4
ENDBRANCH   2   3
ENDBRANCH   1   2
BRANCH   1  17
ATOM     17  C   UNL     1      -8.382   8.037   5.378  1.00  0.00     0.000 C 
BRANCH  17  18
ATOM     18  C   UNL     1      -7.569   9.061   6.194  1.00  0.00     0.000 C 
BRANCH  18  19
ATOM     19  C   UNL     1      -7.260  10.368   5.433  1.00  0.00     0.000 C 
BRANCH  19  20
ATOM     20  C   UNL     1      -7.806  11.618   6.148  1.00  0.00     0.000 C 
BRANCH  20  21
ATOM     21  C   UNL     1      -9.330  11.758   5.997  1.00  0.00     0.000 C 
BRANCH  21  22
ATOM     22  C   UNL     1     -10.081  11.376   7.284  1.00  0.00    -0.000 C 
BRANCH  22  23
ATOM     23  C   UNL     1     -11.385  10.601   7.000  1.00  0.00    -0.000 C 
BRANCH  23  24
ATOM     24  C   UNL     1     -12.490  10.827   8.049  1.00  0.00    -0.000 C 
BRANCH  24  25
ATOM     25  C   UNL     1     -13.709  11.627   7.556  1.00  0.00    -0.000 C 
BRANCH  25  26
ATOM     26  C   UNL     1     -13.553  12.113   6.104  1.00  0.00    -0.000 C 
BRANCH  26  27
ATOM     27  C   UNL     1     -14.433  11.327   5.116  1.00  0.00    -0.000 C 
BRANCH  27  28
ATOM     28  C   UNL     1     -14.107  11.653   3.649  1.00  0.00    -0.000 C 
BRANCH  28  29
ATOM     29  C   UNL     1     -12.595  11.665   3.373  1.00  0.00    -0.003 C 
ATOM     30  C   UNL     1     -12.233  11.066   2.014  1.00  0.00     0.004 C 
ENDBRANCH  28  29
ENDBRANCH  27  28
ENDBRANCH  26  27
ENDBRANCH  25  26
ENDBRANCH  24  25
ENDBRANCH  23  24
ENDBRANCH  22  23
ENDBRANCH  21  22
ENDBRANCH  20  21
ENDBRANCH  19  20
ENDBRANCH  18  19
ENDBRANCH  17  18
ENDBRANCH   1  17
TORSDOF 26
ENDMDL
