MODEL 1
REMARK VINA RESULT:    -2.380      0.000      0.000
REMARK INTER + INTRA:          -6.872
REMARK INTER:                  -5.162
REMARK INTRA:                  -1.710
REMARK UNBOUND:                -1.710
REMARK SMILES CCCCCCCCCCCCCCCCCCCCCC(=O)[O-]
REMARK SMILES IDX 12 1 11 2 10 3 9 4 8 5 7 6 6 7 5 8 4 9 3 10 2 11 1 12 13 13
REMARK SMILES IDX 14 14 15 15 16 16 17 17 18 18 19 19 20 20 21 21 22 22 23 23
REMARK SMILES IDX 24 24
REMARK H PARENT
REMARK Flexibility Score: inf
ROOT
ATOM      1  C   UNL     1      55.174   2.543  22.628  1.00  0.00     0.000 C 
ENDROOT
BRANCH   1   2
ATOM      2  C   UNL     1      54.008   3.123  23.438  1.00  0.00     0.000 C 
BRANCH   2   3
ATOM      3  C   UNL     1      52.838   2.135  23.505  1.00  0.00     0.000 C 
BRANCH   3   4
ATOM      4  C   UNL     1      51.494   2.866  23.373  1.00  0.00    -0.000 C 
BRANCH   4   5
ATOM      5  C   UNL     1      50.292   1.905  23.299  1.00  0.00    -0.000 C 
BRANCH   5   6
ATOM      6  C   UNL     1      50.150   0.945  24.495  1.00  0.00    -0.000 C 
BRANCH   6   7
ATOM      7  C   UNL     1      50.268  -0.552  24.150  1.00  0.00    -0.000 C 
BRANCH   7   8
ATOM      8  C   UNL     1      49.956  -0.878  22.674  1.00  0.00    -0.000 C 
BRANCH   8   9
ATOM      9  C   UNL     1      51.083  -1.670  21.991  1.00  0.00    -0.000 C 
BRANCH   9  10
ATOM     10  C   UNL     1      51.390  -1.170  20.568  1.00  0.00    -0.000 C 
BRANCH  10  11
ATOM     11  C   UNL     1      52.296   0.079  20.535  1.00  0.00    -0.003 C 
ATOM     12  C   UNL     1      51.620   1.271  19.858  1.00  0.00     0.004 C 
ENDBRANCH  10  11
ENDBRANCH   9  10
ENDBRANCH   8   9
ENDBRANCH   7   8
ENDBRANCH   6   7
ENDBRANCH   5   6
ENDBRANCH   4   5
ENDBRANCH   3   4
ENDBRANCH   2   3
ENDBRANCH   1   2
BRANCH   1  13
ATOM     13  C   UNL     1      56.021   1.591  23.486  1.00  0.00     0.000 C 
BRANCH  13  14
ATOM     14  C   UNL     1      55.725   0.112  23.192  1.00  0.00     0.000 C 
BRANCH  14  15
ATOM     15  C   UNL     1      56.867  -0.817  23.642  1.00  0.00     0.000 C 
BRANCH  15  16
ATOM     16  C   UNL     1      57.507  -1.574  22.466  1.00  0.00     0.000 C 
BRANCH  16  17
ATOM     17  C   UNL     1      58.882  -2.164  22.824  1.00  0.00     0.000 C 
BRANCH  17  18
ATOM     18  C   UNL     1      59.038  -2.437  24.330  1.00  0.00     0.000 C 
BRANCH  18  19
ATOM     19  C   UNL     1      59.753  -1.325  25.123  1.00  0.00     0.000 C 
BRANCH  19  20
ATOM     20  C   UNL     1      61.293  -1.362  25.061  1.00  0.00     0.006 C 
BRANCH  20  21
ATOM     21  C   UNL     1      61.963   0.019  25.124  1.00  0.00     0.053 C 
BRANCH  21  22
ATOM     22  C   UNL     1      63.455  -0.078  25.052  1.00  0.00     0.041 C 
ATOM     23  O   UNL     1      64.015  -1.206  25.008  1.00  0.00    -0.550 OA
ATOM     24  O   UNL     1      64.228   1.076  25.003  1.00  0.00    -0.550 OA
ENDBRANCH  21  22
ENDBRANCH  20  21
ENDBRANCH  19  20
ENDBRANCH  18  19
ENDBRANCH  17  18
ENDBRANCH  16  17
ENDBRANCH  15  16
ENDBRANCH  14  15
ENDBRANCH  13  14
ENDBRANCH   1  13
TORSDOF 20
ENDMDL
MODEL 2
REMARK VINA RESULT:    -2.322      3.773      9.066
REMARK INTER + INTRA:          -6.747
REMARK INTER:                  -5.129
REMARK INTRA:                  -1.618
REMARK UNBOUND:                -1.710
REMARK SMILES CCCCCCCCCCCCCCCCCCCCCC(=O)[O-]
REMARK SMILES IDX 12 1 11 2 10 3 9 4 8 5 7 6 6 7 5 8 4 9 3 10 2 11 1 12 13 13
REMARK SMILES IDX 14 14 15 15 16 16 17 17 18 18 19 19 20 20 21 21 22 22 23 23
REMARK SMILES IDX 24 24
REMARK H PARENT
REMARK Flexibility Score: inf
ROOT
ATOM      1  C   UNL     1      54.745   1.069  24.077  1.00  0.00     0.000 C 
ENDROOT
BRANCH   1   2
ATOM      2  C   UNL     1      55.775   2.203  24.026  1.00  0.00     0.000 C 
BRANCH   2   3
ATOM      3  C   UNL     1      57.047   1.761  23.292  1.00  0.00     0.000 C 
BRANCH   3   4
ATOM      4  C   UNL     1      56.710   1.186  21.909  1.00  0.00    -0.000 C 
BRANCH   4   5
ATOM      5  C   UNL     1      56.869  -0.344  21.839  1.00  0.00    -0.000 C 
BRANCH   5   6
ATOM      6  C   UNL     1      58.316  -0.856  21.974  1.00  0.00    -0.000 C 
BRANCH   6   7
ATOM      7  C   UNL     1      58.462  -2.232  22.652  1.00  0.00    -0.000 C 
BRANCH   7   8
ATOM      8  C   UNL     1      58.442  -2.172  24.195  1.00  0.00    -0.000 C 
BRANCH   8   9
ATOM      9  C   UNL     1      59.399  -1.110  24.759  1.00  0.00    -0.000 C 
BRANCH   9  10
ATOM     10  C   UNL     1      60.786  -1.678  25.108  1.00  0.00    -0.000 C 
BRANCH  10  11
ATOM     11  C   UNL     1      61.927  -1.088  24.253  1.00  0.00    -0.003 C 
ATOM     12  C   UNL     1      63.141  -0.694  25.095  1.00  0.00     0.004 C 
ENDBRANCH  10  11
ENDBRANCH   9  10
ENDBRANCH   8   9
ENDBRANCH   7   8
ENDBRANCH   6   7
ENDBRANCH   5   6
ENDBRANCH   4   5
ENDBRANCH   3   4
ENDBRANCH   2   3
ENDBRANCH   1   2
BRANCH   1  13
ATOM     13  C   UNL     1      53.561   1.440  24.983  1.00  0.00     0.000 C 
BRANCH  13  14
ATOM     14  C   UNL     1      52.575   2.400  24.300  1.00  0.00     0.000 C 
BRANCH  14  15
ATOM     15  C   UNL     1      52.958   2.697  22.839  1.00  0.00     0.000 C 
BRANCH  15  16
ATOM     16  C   UNL     1      51.738   3.047  21.971  1.00  0.00     0.000 C 
BRANCH  16  17
ATOM     17  C   UNL     1      52.082   3.123  20.474  1.00  0.00     0.000 C 
BRANCH  17  18
ATOM     18  C   UNL     1      50.853   2.924  19.570  1.00  0.00     0.000 C 
BRANCH  18  19
ATOM     19  C   UNL     1      49.877   1.823  20.031  1.00  0.00     0.000 C 
BRANCH  19  20
ATOM     20  C   UNL     1      50.365   0.378  19.800  1.00  0.00     0.006 C 
BRANCH  20  21
ATOM     21  C   UNL     1      50.473  -0.467  21.079  1.00  0.00     0.053 C 
BRANCH  21  22
ATOM     22  C   UNL     1      51.896  -0.768  21.432  1.00  0.00     0.041 C 
ATOM     23  O   UNL     1      52.161  -1.563  22.373  1.00  0.00    -0.550 OA
ATOM     24  O   UNL     1      52.932  -0.195  20.703  1.00  0.00    -0.550 OA
ENDBRANCH  21  22
ENDBRANCH  20  21
ENDBRANCH  19  20
ENDBRANCH  18  19
ENDBRANCH  17  18
ENDBRANCH  16  17
ENDBRANCH  15  16
ENDBRANCH  14  15
ENDBRANCH  13  14
ENDBRANCH   1  13
TORSDOF 20
ENDMDL
MODEL 3
REMARK VINA RESULT:    -2.244      3.938      8.323
REMARK INTER + INTRA:          -6.577
REMARK INTER:                  -5.022
REMARK INTRA:                  -1.554
REMARK UNBOUND:                -1.710
REMARK SMILES CCCCCCCCCCCCCCCCCCCCCC(=O)[O-]
REMARK SMILES IDX 12 1 11 2 10 3 9 4 8 5 7 6 6 7 5 8 4 9 3 10 2 11 1 12 13 13
REMARK SMILES IDX 14 14 15 15 16 16 17 17 18 18 19 19 20 20 21 21 22 22 23 23
REMARK SMILES IDX 24 24
REMARK H PARENT
REMARK Flexibility Score: inf
ROOT
ATOM      1  C   UNL     1      54.543  -0.019  21.427  1.00  0.00     0.000 C 
ENDROOT
BRANCH   1   2
ATOM      2  C   UNL     1      55.049   0.737  22.661  1.00  0.00     0.000 C 
BRANCH   2   3
ATOM      3  C   UNL     1      54.722   2.232  22.564  1.00  0.00     0.000 C 
BRANCH   3   4
ATOM      4  C   UNL     1      56.002   3.079  22.620  1.00  0.00    -0.000 C 
BRANCH   4   5
ATOM      5  C   UNL     1      57.217   2.297  23.153  1.00  0.00    -0.000 C 
BRANCH   5   6
ATOM      6  C   UNL     1      57.231   2.076  24.678  1.00  0.00    -0.000 C 
BRANCH   6   7
ATOM      7  C   UNL     1      57.219   0.602  25.125  1.00  0.00    -0.000 C 
BRANCH   7   8
ATOM      8  C   UNL     1      58.608  -0.070  25.097  1.00  0.00    -0.000 C 
BRANCH   8   9
ATOM      9  C   UNL     1      58.541  -1.554  24.698  1.00  0.00    -0.000 C 
BRANCH   9  10
ATOM     10  C   UNL     1      58.975  -1.803  23.243  1.00  0.00    -0.000 C 
BRANCH  10  11
ATOM     11  C   UNL     1      57.795  -1.886  22.252  1.00  0.00    -0.003 C 
ATOM     12  C   UNL     1      57.811  -0.749  21.230  1.00  0.00     0.004 C 
ENDBRANCH  10  11
ENDBRANCH   9  10
ENDBRANCH   8   9
ENDBRANCH   7   8
ENDBRANCH   6   7
ENDBRANCH   5   6
ENDBRANCH   4   5
ENDBRANCH   3   4
ENDBRANCH   2   3
ENDBRANCH   1   2
BRANCH   1  13
ATOM     13  C   UNL     1      53.007  -0.032  21.381  1.00  0.00     0.000 C 
BRANCH  13  14
ATOM     14  C   UNL     1      52.440   0.948  20.341  1.00  0.00     0.000 C 
BRANCH  14  15
ATOM     15  C   UNL     1      51.000   0.597  19.926  1.00  0.00     0.000 C 
BRANCH  15  16
ATOM     16  C   UNL     1      50.874  -0.842  19.399  1.00  0.00     0.000 C 
BRANCH  16  17
ATOM     17  C   UNL     1      49.904  -1.693  20.236  1.00  0.00     0.000 C 
BRANCH  17  18
ATOM     18  C   UNL     1      50.548  -2.233  21.525  1.00  0.00     0.000 C 
BRANCH  18  19
ATOM     19  C   UNL     1      49.875  -1.769  22.833  1.00  0.00     0.000 C 
BRANCH  19  20
ATOM     20  C   UNL     1      49.933  -0.251  23.096  1.00  0.00     0.006 C 
BRANCH  20  21
ATOM     21  C   UNL     1      50.172   0.129  24.566  1.00  0.00     0.053 C 
BRANCH  21  22
ATOM     22  C   UNL     1      50.993   1.374  24.696  1.00  0.00     0.041 C 
ATOM     23  O   UNL     1      52.234   1.296  24.897  1.00  0.00    -0.550 OA
ATOM     24  O   UNL     1      50.394   2.621  24.567  1.00  0.00    -0.550 OA
ENDBRANCH  21  22
ENDBRANCH  20  21
ENDBRANCH  19  20
ENDBRANCH  18  19
ENDBRANCH  17  18
ENDBRANCH  16  17
ENDBRANCH  15  16
ENDBRANCH  14  15
ENDBRANCH  13  14
ENDBRANCH   1  13
TORSDOF 20
ENDMDL
MODEL 4
REMARK VINA RESULT:    -2.231      2.717      3.630
REMARK INTER + INTRA:          -6.550
REMARK INTER:                  -4.870
REMARK INTRA:                  -1.680
REMARK UNBOUND:                -1.710
REMARK SMILES CCCCCCCCCCCCCCCCCCCCCC(=O)[O-]
REMARK SMILES IDX 12 1 11 2 10 3 9 4 8 5 7 6 6 7 5 8 4 9 3 10 2 11 1 12 13 13
REMARK SMILES IDX 14 14 15 15 16 16 17 17 18 18 19 19 20 20 21 21 22 22 23 23
REMARK SMILES IDX 24 24
REMARK H PARENT
REMARK Flexibility Score: inf
ROOT
ATOM      1  C   UNL     1      54.759   0.921  21.933  1.00  0.00     0.000 C 
ENDROOT
BRANCH   1   2
ATOM      2  C   UNL     1      53.494   1.668  22.374  1.00  0.00     0.000 C 
BRANCH   2   3
ATOM      3  C   UNL     1      52.885   1.028  23.628  1.00  0.00     0.000 C 
BRANCH   3   4
ATOM      4  C   UNL     1      51.355   1.154  23.621  1.00  0.00    -0.000 C 
BRANCH   4   5
ATOM      5  C   UNL     1      50.661   0.100  24.505  1.00  0.00    -0.000 C 
BRANCH   5   6
ATOM      6  C   UNL     1      50.297  -1.214  23.787  1.00  0.00    -0.000 C 
BRANCH   6   7
ATOM      7  C   UNL     1      50.904  -1.380  22.381  1.00  0.00    -0.000 C 
BRANCH   7   8
ATOM      8  C   UNL     1      50.049  -0.760  21.255  1.00  0.00    -0.000 C 
BRANCH   8   9
ATOM      9  C   UNL     1      50.817  -0.630  19.930  1.00  0.00    -0.000 C 
BRANCH   9  10
ATOM     10  C   UNL     1      50.557   0.708  19.215  1.00  0.00    -0.000 C 
BRANCH  10  11
ATOM     11  C   UNL     1      50.096   1.835  20.164  1.00  0.00    -0.003 C 
ATOM     12  C   UNL     1      51.055   3.024  20.164  1.00  0.00     0.004 C 
ENDBRANCH  10  11
ENDBRANCH   9  10
ENDBRANCH   8   9
ENDBRANCH   7   8
ENDBRANCH   6   7
ENDBRANCH   5   6
ENDBRANCH   4   5
ENDBRANCH   3   4
ENDBRANCH   2   3
ENDBRANCH   1   2
BRANCH   1  13
ATOM     13  C   UNL     1      56.012   1.779  22.166  1.00  0.00     0.000 C 
BRANCH  13  14
ATOM     14  C   UNL     1      55.722   3.032  23.006  1.00  0.00     0.000 C 
BRANCH  14  15
ATOM     15  C   UNL     1      55.752   2.747  24.519  1.00  0.00     0.000 C 
BRANCH  15  16
ATOM     16  C   UNL     1      57.184   2.633  25.068  1.00  0.00     0.000 C 
BRANCH  16  17
ATOM     17  C   UNL     1      57.721   1.193  25.019  1.00  0.00     0.000 C 
BRANCH  17  18
ATOM     18  C   UNL     1      56.605   0.139  25.124  1.00  0.00     0.000 C 
BRANCH  18  19
ATOM     19  C   UNL     1      56.961  -1.247  24.548  1.00  0.00     0.000 C 
BRANCH  19  20
ATOM     20  C   UNL     1      58.443  -1.650  24.683  1.00  0.00     0.006 C 
BRANCH  20  21
ATOM     21  C   UNL     1      59.207  -1.712  23.351  1.00  0.00     0.053 C 
BRANCH  21  22
ATOM     22  C   UNL     1      58.282  -1.795  22.178  1.00  0.00     0.041 C 
ATOM     23  O   UNL     1      57.970  -0.753  21.542  1.00  0.00    -0.550 OA
ATOM     24  O   UNL     1      57.787  -3.026  21.765  1.00  0.00    -0.550 OA
ENDBRANCH  21  22
ENDBRANCH  20  21
ENDBRANCH  19  20
ENDBRANCH  18  19
ENDBRANCH  17  18
ENDBRANCH  16  17
ENDBRANCH  15  16
ENDBRANCH  14  15
ENDBRANCH  13  14
ENDBRANCH   1  13
TORSDOF 20
ENDMDL
MODEL 5
REMARK VINA RESULT:    -1.918      4.179      9.467
REMARK INTER + INTRA:          -5.871
REMARK INTER:                  -3.974
REMARK INTRA:                  -1.897
REMARK UNBOUND:                -1.710
REMARK SMILES CCCCCCCCCCCCCCCCCCCCCC(=O)[O-]
REMARK SMILES IDX 12 1 11 2 10 3 9 4 8 5 7 6 6 7 5 8 4 9 3 10 2 11 1 12 13 13
REMARK SMILES IDX 14 14 15 15 16 16 17 17 18 18 19 19 20 20 21 21 22 22 23 23
REMARK SMILES IDX 24 24
REMARK H PARENT
REMARK Flexibility Score: inf
ROOT
ATOM      1  C   UNL     1      55.340   1.857  22.427  1.00  0.00     0.000 C 
ENDROOT
BRANCH   1   2
ATOM      2  C   UNL     1      56.589   0.999  22.666  1.00  0.00     0.000 C 
BRANCH   2   3
ATOM      3  C   UNL     1      57.377   0.798  21.366  1.00  0.00     0.000 C 
BRANCH   3   4
ATOM      4  C   UNL     1      58.227  -0.479  21.430  1.00  0.00    -0.000 C 
BRANCH   4   5
ATOM      5  C   UNL     1      57.571  -1.596  22.264  1.00  0.00    -0.000 C 
BRANCH   5   6
ATOM      6  C   UNL     1      58.545  -2.651  22.822  1.00  0.00    -0.000 C 
BRANCH   6   7
ATOM      7  C   UNL     1      58.690  -2.661  24.356  1.00  0.00    -0.000 C 
BRANCH   7   8
ATOM      8  C   UNL     1      58.657  -1.257  24.995  1.00  0.00    -0.000 C 
BRANCH   8   9
ATOM      9  C   UNL     1      59.919  -0.434  24.685  1.00  0.00    -0.000 C 
BRANCH   9  10
ATOM     10  C   UNL     1      61.214  -1.138  25.125  1.00  0.00    -0.000 C 
BRANCH  10  11
ATOM     11  C   UNL     1      62.439  -0.775  24.258  1.00  0.00    -0.003 C 
ATOM     12  C   UNL     1      63.565  -0.145  25.077  1.00  0.00     0.004 C 
ENDBRANCH  10  11
ENDBRANCH   9  10
ENDBRANCH   8   9
ENDBRANCH   7   8
ENDBRANCH   6   7
ENDBRANCH   5   6
ENDBRANCH   4   5
ENDBRANCH   3   4
ENDBRANCH   2   3
ENDBRANCH   1   2
BRANCH   1  13
ATOM     13  C   UNL     1      54.093   1.196  23.034  1.00  0.00     0.000 C 
BRANCH  13  14
ATOM     14  C   UNL     1      53.560   1.957  24.258  1.00  0.00     0.000 C 
BRANCH  14  15
ATOM     15  C   UNL     1      52.357   2.854  23.915  1.00  0.00     0.000 C 
BRANCH  15  16
ATOM     16  C   UNL     1      51.297   2.868  25.029  1.00  0.00     0.000 C 
BRANCH  16  17
ATOM     17  C   UNL     1      49.895   2.502  24.513  1.00  0.00     0.000 C 
BRANCH  17  18
ATOM     18  C   UNL     1      49.935   1.540  23.313  1.00  0.00     0.000 C 
BRANCH  18  19
ATOM     19  C   UNL     1      50.035   0.046  23.679  1.00  0.00     0.000 C 
BRANCH  19  20
ATOM     20  C   UNL     1      50.921  -0.800  22.743  1.00  0.00     0.006 C 
BRANCH  20  21
ATOM     21  C   UNL     1      50.333  -1.018  21.340  1.00  0.00     0.053 C 
BRANCH  21  22
ATOM     22  C   UNL     1      50.960  -0.115  20.324  1.00  0.00     0.041 C 
ATOM     23  O   UNL     1      52.139  -0.323  19.933  1.00  0.00    -0.550 OA
ATOM     24  O   UNL     1      50.233   0.940  19.785  1.00  0.00    -0.550 OA
ENDBRANCH  21  22
ENDBRANCH  20  21
ENDBRANCH  19  20
ENDBRANCH  18  19
ENDBRANCH  17  18
ENDBRANCH  16  17
ENDBRANCH  15  16
ENDBRANCH  14  15
ENDBRANCH  13  14
ENDBRANCH   1  13
TORSDOF 20
ENDMDL
MODEL 6
REMARK VINA RESULT:    -1.855     19.919     23.432
REMARK INTER + INTRA:          -5.734
REMARK INTER:                  -5.085
REMARK INTRA:                  -0.649
REMARK UNBOUND:                -1.710
REMARK SMILES CCCCCCCCCCCCCCCCCCCCCC(=O)[O-]
REMARK SMILES IDX 12 1 11 2 10 3 9 4 8 5 7 6 6 7 5 8 4 9 3 10 2 11 1 12 13 13
REMARK SMILES IDX 14 14 15 15 16 16 17 17 18 18 19 19 20 20 21 21 22 22 23 23
REMARK SMILES IDX 24 24
REMARK H PARENT
REMARK Flexibility Score: inf
ROOT
ATOM      1  C   UNL     1      58.638 -15.890  13.962  1.00  0.00     0.000 C 
ENDROOT
BRANCH   1   2
ATOM      2  C   UNL     1      59.579 -16.653  13.021  1.00  0.00     0.000 C 
BRANCH   2   3
ATOM      3  C   UNL     1      60.839 -17.119  13.760  1.00  0.00     0.000 C 
BRANCH   3   4
ATOM      4  C   UNL     1      62.062 -17.088  12.833  1.00  0.00    -0.000 C 
BRANCH   4   5
ATOM      5  C   UNL     1      63.398 -17.125  13.599  1.00  0.00    -0.000 C 
BRANCH   5   6
ATOM      6  C   UNL     1      64.647 -16.826  12.747  1.00  0.00    -0.000 C 
BRANCH   6   7
ATOM      7  C   UNL     1      65.425 -15.559  13.150  1.00  0.00    -0.000 C 
BRANCH   7   8
ATOM      8  C   UNL     1      66.950 -15.670  12.941  1.00  0.00    -0.000 C 
BRANCH   8   9
ATOM      9  C   UNL     1      67.569 -16.849  13.710  1.00  0.00    -0.000 C 
BRANCH   9  10
ATOM     10  C   UNL     1      69.063 -16.645  14.017  1.00  0.00    -0.000 C 
BRANCH  10  11
ATOM     11  C   UNL     1      69.400 -16.720  15.521  1.00  0.00    -0.003 C 
ATOM     12  C   UNL     1      68.193 -16.402  16.404  1.00  0.00     0.004 C 
ENDBRANCH  10  11
ENDBRANCH   9  10
ENDBRANCH   8   9
ENDBRANCH   7   8
ENDBRANCH   6   7
ENDBRANCH   5   6
ENDBRANCH   4   5
ENDBRANCH   3   4
ENDBRANCH   2   3
ENDBRANCH   1   2
BRANCH   1  13
ATOM     13  C   UNL     1      57.172 -16.256  13.690  1.00  0.00     0.000 C 
BRANCH  13  14
ATOM     14  C   UNL     1      57.004 -17.124  12.433  1.00  0.00     0.000 C 
BRANCH  14  15
ATOM     15  C   UNL     1      55.917 -16.585  11.485  1.00  0.00     0.000 C 
BRANCH  15  16
ATOM     16  C   UNL     1      56.323 -15.260  10.818  1.00  0.00     0.000 C 
BRANCH  16  17
ATOM     17  C   UNL     1      57.197 -15.472   9.570  1.00  0.00     0.000 C 
BRANCH  17  18
ATOM     18  C   UNL     1      56.541 -16.406   8.538  1.00  0.00     0.000 C 
BRANCH  18  19
ATOM     19  C   UNL     1      55.591 -15.711   7.542  1.00  0.00     0.000 C 
BRANCH  19  20
ATOM     20  C   UNL     1      55.126 -16.587   6.361  1.00  0.00     0.006 C 
BRANCH  20  21
ATOM     21  C   UNL     1      56.034 -16.517   5.124  1.00  0.00     0.053 C 
BRANCH  21  22
ATOM     22  C   UNL     1      57.432 -16.113   5.477  1.00  0.00     0.041 C 
ATOM     23  O   UNL     1      57.805 -14.921   5.322  1.00  0.00    -0.550 OA
ATOM     24  O   UNL     1      58.315 -17.048   6.006  1.00  0.00    -0.550 OA
ENDBRANCH  21  22
ENDBRANCH  20  21
ENDBRANCH  19  20
ENDBRANCH  18  19
ENDBRANCH  17  18
ENDBRANCH  16  17
ENDBRANCH  15  16
ENDBRANCH  14  15
ENDBRANCH  13  14
ENDBRANCH   1  13
TORSDOF 20
ENDMDL
MODEL 7
REMARK VINA RESULT:    -1.621      3.784      5.402
REMARK INTER + INTRA:          -5.227
REMARK INTER:                  -3.980
REMARK INTRA:                  -1.247
REMARK UNBOUND:                -1.710
REMARK SMILES CCCCCCCCCCCCCCCCCCCCCC(=O)[O-]
REMARK SMILES IDX 12 1 11 2 10 3 9 4 8 5 7 6 6 7 5 8 4 9 3 10 2 11 1 12 13 13
REMARK SMILES IDX 14 14 15 15 16 16 17 17 18 18 19 19 20 20 21 21 22 22 23 23
REMARK SMILES IDX 24 24
REMARK H PARENT
REMARK Flexibility Score: inf
ROOT
ATOM      1  C   UNL     1      56.559   1.337  24.101  1.00  0.00     0.000 C 
ENDROOT
BRANCH   1   2
ATOM      2  C   UNL     1      55.282   1.443  24.944  1.00  0.00     0.000 C 
BRANCH   2   3
ATOM      3  C   UNL     1      54.616   2.813  24.766  1.00  0.00     0.000 C 
BRANCH   3   4
ATOM      4  C   UNL     1      53.125   2.750  25.124  1.00  0.00    -0.000 C 
BRANCH   4   5
ATOM      5  C   UNL     1      52.477   1.400  24.764  1.00  0.00    -0.000 C 
BRANCH   5   6
ATOM      6  C   UNL     1      50.963   1.310  25.039  1.00  0.00    -0.000 C 
BRANCH   6   7
ATOM      7  C   UNL     1      50.060   1.649  23.838  1.00  0.00    -0.000 C 
BRANCH   7   8
ATOM      8  C   UNL     1      50.248   3.085  23.302  1.00  0.00    -0.000 C 
BRANCH   8   9
ATOM      9  C   UNL     1      51.028   3.124  21.977  1.00  0.00    -0.000 C 
BRANCH   9  10
ATOM     10  C   UNL     1      50.115   3.027  20.743  1.00  0.00    -0.000 C 
BRANCH  10  11
ATOM     11  C   UNL     1      50.314   1.731  19.928  1.00  0.00    -0.003 C 
ATOM     12  C   UNL     1      50.233   1.972  18.421  1.00  0.00     0.004 C 
ENDBRANCH  10  11
ENDBRANCH   9  10
ENDBRANCH   8   9
ENDBRANCH   7   8
ENDBRANCH   6   7
ENDBRANCH   5   6
ENDBRANCH   4   5
ENDBRANCH   3   4
ENDBRANCH   2   3
ENDBRANCH   1   2
BRANCH   1  13
ATOM     13  C   UNL     1      57.624   0.496  24.821  1.00  0.00     0.000 C 
BRANCH  13  14
ATOM     14  C   UNL     1      57.277  -1.000  24.845  1.00  0.00     0.000 C 
BRANCH  14  15
ATOM     15  C   UNL     1      58.512  -1.895  24.632  1.00  0.00     0.000 C 
BRANCH  15  16
ATOM     16  C   UNL     1      58.948  -1.953  23.159  1.00  0.00     0.000 C 
BRANCH  16  17
ATOM     17  C   UNL     1      57.776  -1.728  22.188  1.00  0.00     0.000 C 
BRANCH  17  18
ATOM     18  C   UNL     1      57.943  -0.457  21.338  1.00  0.00     0.000 C 
BRANCH  18  19
ATOM     19  C   UNL     1      56.625   0.209  20.896  1.00  0.00     0.000 C 
BRANCH  19  20
ATOM     20  C   UNL     1      55.454   0.066  21.889  1.00  0.00     0.006 C 
BRANCH  20  21
ATOM     21  C   UNL     1      54.062   0.132  21.241  1.00  0.00     0.053 C 
BRANCH  21  22
ATOM     22  C   UNL     1      53.142  -0.917  21.783  1.00  0.00     0.041 C 
ATOM     23  O   UNL     1      51.898  -0.721  21.799  1.00  0.00    -0.550 OA
ATOM     24  O   UNL     1      53.655  -2.124  22.244  1.00  0.00    -0.550 OA
ENDBRANCH  21  22
ENDBRANCH  20  21
ENDBRANCH  19  20
ENDBRANCH  18  19
ENDBRANCH  17  18
ENDBRANCH  16  17
ENDBRANCH  15  16
ENDBRANCH  14  15
ENDBRANCH  13  14
ENDBRANCH   1  13
TORSDOF 20
ENDMDL
MODEL 8
REMARK VINA RESULT:    -1.540      1.355      2.714
REMARK INTER + INTRA:          -5.049
REMARK INTER:                  -2.961
REMARK INTRA:                  -2.088
REMARK UNBOUND:                -1.710
REMARK SMILES CCCCCCCCCCCCCCCCCCCCCC(=O)[O-]
REMARK SMILES IDX 12 1 11 2 10 3 9 4 8 5 7 6 6 7 5 8 4 9 3 10 2 11 1 12 13 13
REMARK SMILES IDX 14 14 15 15 16 16 17 17 18 18 19 19 20 20 21 21 22 22 23 23
REMARK SMILES IDX 24 24
REMARK H PARENT
REMARK Flexibility Score: inf
ROOT
ATOM      1  C   UNL     1      57.360   1.488  21.835  1.00  0.00     0.000 C 
ENDROOT
BRANCH   1   2
ATOM      2  C   UNL     1      56.087   2.341  21.777  1.00  0.00     0.000 C 
BRANCH   2   3
ATOM      3  C   UNL     1      55.165   2.037  22.964  1.00  0.00     0.000 C 
BRANCH   3   4
ATOM      4  C   UNL     1      53.870   2.858  22.878  1.00  0.00    -0.000 C 
BRANCH   4   5
ATOM      5  C   UNL     1      53.114   2.652  21.552  1.00  0.00    -0.000 C 
BRANCH   5   6
ATOM      6  C   UNL     1      52.656   1.206  21.281  1.00  0.00    -0.000 C 
BRANCH   6   7
ATOM      7  C   UNL     1      51.407   1.072  20.389  1.00  0.00    -0.000 C 
BRANCH   7   8
ATOM      8  C   UNL     1      51.177  -0.356  19.848  1.00  0.00    -0.000 C 
BRANCH   8   9
ATOM      9  C   UNL     1      51.067  -1.403  20.968  1.00  0.00    -0.000 C 
BRANCH   9  10
ATOM     10  C   UNL     1      49.996  -1.049  22.014  1.00  0.00    -0.000 C 
BRANCH  10  11
ATOM     11  C   UNL     1      50.511  -1.106  23.468  1.00  0.00    -0.003 C 
ATOM     12  C   UNL     1      50.771   0.284  24.048  1.00  0.00     0.004 C 
ENDBRANCH  10  11
ENDBRANCH   9  10
ENDBRANCH   8   9
ENDBRANCH   7   8
ENDBRANCH   6   7
ENDBRANCH   5   6
ENDBRANCH   4   5
ENDBRANCH   3   4
ENDBRANCH   2   3
ENDBRANCH   1   2
BRANCH   1  13
ATOM     13  C   UNL     1      57.431   0.524  20.641  1.00  0.00     0.000 C 
BRANCH  13  14
ATOM     14  C   UNL     1      56.832  -0.855  20.960  1.00  0.00     0.000 C 
BRANCH  14  15
ATOM     15  C   UNL     1      57.451  -1.488  22.220  1.00  0.00     0.000 C 
BRANCH  15  16
ATOM     16  C   UNL     1      56.453  -1.569  23.388  1.00  0.00     0.000 C 
BRANCH  16  17
ATOM     17  C   UNL     1      57.115  -1.286  24.748  1.00  0.00     0.000 C 
BRANCH  17  18
ATOM     18  C   UNL     1      57.934   0.016  24.751  1.00  0.00     0.000 C 
BRANCH  18  19
ATOM     19  C   UNL     1      59.426  -0.154  25.103  1.00  0.00     0.000 C 
BRANCH  19  20
ATOM     20  C   UNL     1      60.172  -1.231  24.291  1.00  0.00     0.006 C 
BRANCH  20  21
ATOM     21  C   UNL     1      61.107  -2.121  25.125  1.00  0.00     0.053 C 
BRANCH  21  22
ATOM     22  C   UNL     1      62.548  -1.780  24.904  1.00  0.00     0.041 C 
ATOM     23  O   UNL     1      63.427  -2.681  24.952  1.00  0.00    -0.550 OA
ATOM     24  O   UNL     1      62.919  -0.472  24.616  1.00  0.00    -0.550 OA
ENDBRANCH  21  22
ENDBRANCH  20  21
ENDBRANCH  19  20
ENDBRANCH  18  19
ENDBRANCH  17  18
ENDBRANCH  16  17
ENDBRANCH  15  16
ENDBRANCH  14  15
ENDBRANCH  13  14
ENDBRANCH   1  13
TORSDOF 20
ENDMDL
