MODEL 1
REMARK VINA RESULT:    -4.277      0.000      0.000
REMARK INTER + INTRA:          -9.691
REMARK INTER:                  -7.778
REMARK INTRA:                  -1.913
REMARK UNBOUND:                -1.913
REMARK SMILES CCCCCCCCCCCCCCCC(=O)[O-]
REMARK SMILES IDX 9 1 10 2 11 3 12 4 13 5 14 6 15 7 16 8 17 9 18 10 8 11 7 12
REMARK SMILES IDX 6 13 5 14 4 15 3 16 2 17 1 18
REMARK H PARENT
REMARK Flexibility Score: inf
ROOT
ATOM      1  C   UNL     1      -2.484   8.583 -58.812  1.00  0.00     0.000 C 
ENDROOT
BRANCH   1   2
ATOM      2  C   UNL     1      -2.007   7.231 -59.364  1.00  0.00     0.000 C 
BRANCH   2   3
ATOM      3  C   UNL     1      -0.893   6.601 -58.506  1.00  0.00     0.000 C 
BRANCH   3   4
ATOM      4  C   UNL     1      -1.225   5.167 -58.064  1.00  0.00     0.000 C 
BRANCH   4   5
ATOM      5  C   UNL     1      -1.330   5.030 -56.536  1.00  0.00     0.000 C 
BRANCH   5   6
ATOM      6  C   UNL     1      -0.463   6.059 -55.786  1.00  0.00     0.006 C 
BRANCH   6   7
ATOM      7  C   UNL     1      -1.219   6.869 -54.720  1.00  0.00     0.053 C 
BRANCH   7   8
ATOM      8  C   UNL     1      -0.359   7.179 -53.534  1.00  0.00     0.041 C 
ATOM      9  O   UNL     1      -0.348   6.407 -52.539  1.00  0.00    -0.550 OA
ATOM     10  O   UNL     1       0.407   8.338 -53.515  1.00  0.00    -0.550 OA
ENDBRANCH   7   8
ENDBRANCH   6   7
ENDBRANCH   5   6
ENDBRANCH   4   5
ENDBRANCH   3   4
ENDBRANCH   2   3
ENDBRANCH   1   2
BRANCH   1  11
ATOM     11  C   UNL     1      -3.967   8.852 -59.110  1.00  0.00     0.000 C 
BRANCH  11  12
ATOM     12  C   UNL     1      -4.795   8.846 -57.820  1.00  0.00    -0.000 C 
BRANCH  12  13
ATOM     13  C   UNL     1      -4.140   7.960 -56.749  1.00  0.00    -0.000 C 
BRANCH  13  14
ATOM     14  C   UNL     1      -4.942   6.679 -56.469  1.00  0.00    -0.000 C 
BRANCH  14  15
ATOM     15  C   UNL     1      -4.931   5.702 -57.655  1.00  0.00    -0.000 C 
BRANCH  15  16
ATOM     16  C   UNL     1      -6.313   5.093 -57.941  1.00  0.00    -0.000 C 
BRANCH  16  17
ATOM     17  C   UNL     1      -7.486   6.033 -57.593  1.00  0.00    -0.003 C 
ATOM     18  C   UNL     1      -8.836   5.316 -57.615  1.00  0.00     0.004 C 
ENDBRANCH  16  17
ENDBRANCH  15  16
ENDBRANCH  14  15
ENDBRANCH  13  14
ENDBRANCH  12  13
ENDBRANCH  11  12
ENDBRANCH   1  11
TORSDOF 14
ENDMDL
MODEL 2
REMARK VINA RESULT:    -4.208      3.353      6.360
REMARK INTER + INTRA:          -9.564
REMARK INTER:                  -8.058
REMARK INTRA:                  -1.506
REMARK UNBOUND:                -1.913
REMARK SMILES CCCCCCCCCCCCCCCC(=O)[O-]
REMARK SMILES IDX 9 1 10 2 11 3 12 4 13 5 14 6 15 7 16 8 17 9 18 10 8 11 7 12
REMARK SMILES IDX 6 13 5 14 4 15 3 16 2 17 1 18
REMARK H PARENT
REMARK Flexibility Score: inf
ROOT
ATOM      1  C   UNL     1      -2.406   8.131 -58.704  1.00  0.00     0.000 C 
ENDROOT
BRANCH   1   2
ATOM      2  C   UNL     1      -3.888   8.431 -58.977  1.00  0.00     0.000 C 
BRANCH   2   3
ATOM      3  C   UNL     1      -4.720   8.528 -57.685  1.00  0.00     0.000 C 
BRANCH   3   4
ATOM      4  C   UNL     1      -4.163   7.650 -56.554  1.00  0.00     0.000 C 
BRANCH   4   5
ATOM      5  C   UNL     1      -4.818   6.259 -56.509  1.00  0.00     0.000 C 
BRANCH   5   6
ATOM      6  C   UNL     1      -5.606   5.932 -57.791  1.00  0.00     0.006 C 
BRANCH   6   7
ATOM      7  C   UNL     1      -6.874   5.093 -57.560  1.00  0.00     0.053 C 
BRANCH   7   8
ATOM      8  C   UNL     1      -8.121   5.909 -57.693  1.00  0.00     0.041 C 
ATOM      9  O   UNL     1      -9.244   5.344 -57.770  1.00  0.00    -0.550 OA
ATOM     10  O   UNL     1      -8.042   7.295 -57.765  1.00  0.00    -0.550 OA
ENDBRANCH   7   8
ENDBRANCH   6   7
ENDBRANCH   5   6
ENDBRANCH   4   5
ENDBRANCH   3   4
ENDBRANCH   2   3
ENDBRANCH   1   2
BRANCH   1  11
ATOM     11  C   UNL     1      -1.921   6.858 -59.413  1.00  0.00     0.000 C 
BRANCH  11  12
ATOM     12  C   UNL     1      -0.882   6.118 -58.562  1.00  0.00    -0.000 C 
BRANCH  12  13
ATOM     13  C   UNL     1      -1.543   5.009 -57.730  1.00  0.00    -0.000 C 
BRANCH  13  14
ATOM     14  C   UNL     1      -1.332   5.197 -56.219  1.00  0.00    -0.000 C 
BRANCH  14  15
ATOM     15  C   UNL     1      -0.137   6.109 -55.897  1.00  0.00    -0.000 C 
BRANCH  15  16
ATOM     16  C   UNL     1       0.219   6.120 -54.402  1.00  0.00    -0.000 C 
BRANCH  16  17
ATOM     17  C   UNL     1      -0.570   7.165 -53.587  1.00  0.00    -0.003 C 
ATOM     18  C   UNL     1       0.258   8.412 -53.279  1.00  0.00     0.004 C 
ENDBRANCH  16  17
ENDBRANCH  15  16
ENDBRANCH  14  15
ENDBRANCH  13  14
ENDBRANCH  12  13
ENDBRANCH  11  12
ENDBRANCH   1  11
TORSDOF 14
ENDMDL
MODEL 3
REMARK VINA RESULT:    -4.179      1.234      2.874
REMARK INTER + INTRA:          -9.512
REMARK INTER:                  -7.480
REMARK INTRA:                  -2.032
REMARK UNBOUND:                -1.913
REMARK SMILES CCCCCCCCCCCCCCCC(=O)[O-]
REMARK SMILES IDX 9 1 10 2 11 3 12 4 13 5 14 6 15 7 16 8 17 9 18 10 8 11 7 12
REMARK SMILES IDX 6 13 5 14 4 15 3 16 2 17 1 18
REMARK H PARENT
REMARK Flexibility Score: inf
ROOT
ATOM      1  C   UNL     1      -1.892   6.817 -59.133  1.00  0.00     0.000 C 
ENDROOT
BRANCH   1   2
ATOM      2  C   UNL     1      -0.579   6.213 -58.612  1.00  0.00     0.000 C 
BRANCH   2   3
ATOM      3  C   UNL     1      -0.802   4.927 -57.795  1.00  0.00     0.000 C 
BRANCH   3   4
ATOM      4  C   UNL     1      -2.068   4.989 -56.924  1.00  0.00     0.000 C 
BRANCH   4   5
ATOM      5  C   UNL     1      -1.751   5.247 -55.442  1.00  0.00     0.000 C 
BRANCH   5   6
ATOM      6  C   UNL     1      -1.391   6.718 -55.158  1.00  0.00     0.006 C 
BRANCH   6   7
ATOM      7  C   UNL     1       0.062   6.940 -54.707  1.00  0.00     0.053 C 
BRANCH   7   8
ATOM      8  C   UNL     1       0.142   7.507 -53.324  1.00  0.00     0.041 C 
ATOM      9  O   UNL     1       0.452   8.715 -53.151  1.00  0.00    -0.550 OA
ATOM     10  O   UNL     1      -0.096   6.693 -52.223  1.00  0.00    -0.550 OA
ENDBRANCH   7   8
ENDBRANCH   6   7
ENDBRANCH   5   6
ENDBRANCH   4   5
ENDBRANCH   3   4
ENDBRANCH   2   3
ENDBRANCH   1   2
BRANCH   1  11
ATOM     11  C   UNL     1      -2.662   5.854 -60.051  1.00  0.00     0.000 C 
BRANCH  11  12
ATOM     12  C   UNL     1      -4.174   6.083 -59.941  1.00  0.00    -0.000 C 
BRANCH  12  13
ATOM     13  C   UNL     1      -4.819   5.055 -59.000  1.00  0.00    -0.000 C 
BRANCH  13  14
ATOM     14  C   UNL     1      -5.634   5.712 -57.875  1.00  0.00    -0.000 C 
BRANCH  14  15
ATOM     15  C   UNL     1      -5.484   7.242 -57.852  1.00  0.00    -0.000 C 
BRANCH  15  16
ATOM     16  C   UNL     1      -4.650   7.743 -56.662  1.00  0.00    -0.000 C 
BRANCH  16  17
ATOM     17  C   UNL     1      -3.696   8.901 -57.020  1.00  0.00    -0.003 C 
ATOM     18  C   UNL     1      -4.047   9.555 -58.357  1.00  0.00     0.004 C 
ENDBRANCH  16  17
ENDBRANCH  15  16
ENDBRANCH  14  15
ENDBRANCH  13  14
ENDBRANCH  12  13
ENDBRANCH  11  12
ENDBRANCH   1  11
TORSDOF 14
ENDMDL
MODEL 4
REMARK VINA RESULT:    -4.140      3.455      5.944
REMARK INTER + INTRA:          -9.441
REMARK INTER:                  -7.411
REMARK INTRA:                  -2.029
REMARK UNBOUND:                -1.913
REMARK SMILES CCCCCCCCCCCCCCCC(=O)[O-]
REMARK SMILES IDX 9 1 10 2 11 3 12 4 13 5 14 6 15 7 16 8 17 9 18 10 8 11 7 12
REMARK SMILES IDX 6 13 5 14 4 15 3 16 2 17 1 18
REMARK H PARENT
REMARK Flexibility Score: inf
ROOT
ATOM      1  C   UNL     1      -3.939   8.892 -58.675  1.00  0.00     0.000 C 
ENDROOT
BRANCH   1   2
ATOM      2  C   UNL     1      -4.616   7.836 -59.562  1.00  0.00     0.000 C 
BRANCH   2   3
ATOM      3  C   UNL     1      -3.730   6.596 -59.787  1.00  0.00     0.000 C 
BRANCH   3   4
ATOM      4  C   UNL     1      -4.484   5.278 -59.548  1.00  0.00     0.000 C 
BRANCH   4   5
ATOM      5  C   UNL     1      -4.551   4.900 -58.059  1.00  0.00     0.000 C 
BRANCH   5   6
ATOM      6  C   UNL     1      -5.989   4.903 -57.508  1.00  0.00     0.006 C 
BRANCH   6   7
ATOM      7  C   UNL     1      -6.469   6.270 -56.994  1.00  0.00     0.053 C 
BRANCH   7   8
ATOM      8  C   UNL     1      -7.736   6.709 -57.659  1.00  0.00     0.041 C 
ATOM      9  O   UNL     1      -8.678   5.890 -57.830  1.00  0.00    -0.550 OA
ATOM     10  O   UNL     1      -7.866   8.013 -58.119  1.00  0.00    -0.550 OA
ENDBRANCH   7   8
ENDBRANCH   6   7
ENDBRANCH   5   6
ENDBRANCH   4   5
ENDBRANCH   3   4
ENDBRANCH   2   3
ENDBRANCH   1   2
BRANCH   1  11
ATOM     11  C   UNL     1      -2.792   8.310 -57.834  1.00  0.00     0.000 C 
BRANCH  11  12
ATOM     12  C   UNL     1      -3.184   8.228 -56.354  1.00  0.00    -0.000 C 
BRANCH  12  13
ATOM     13  C   UNL     1      -2.510   7.028 -55.672  1.00  0.00    -0.000 C 
BRANCH  13  14
ATOM     14  C   UNL     1      -1.596   6.242 -56.626  1.00  0.00    -0.000 C 
BRANCH  14  15
ATOM     15  C   UNL     1      -0.161   6.107 -56.092  1.00  0.00    -0.000 C 
BRANCH  15  16
ATOM     16  C   UNL     1      -0.014   6.602 -54.644  1.00  0.00    -0.000 C 
BRANCH  16  17
ATOM     17  C   UNL     1       0.005   5.466 -53.601  1.00  0.00    -0.003 C 
ATOM     18  C   UNL     1      -0.945   5.730 -52.433  1.00  0.00     0.004 C 
ENDBRANCH  16  17
ENDBRANCH  15  16
ENDBRANCH  14  15
ENDBRANCH  13  14
ENDBRANCH  12  13
ENDBRANCH  11  12
ENDBRANCH   1  11
TORSDOF 14
ENDMDL
MODEL 5
REMARK VINA RESULT:    -4.131      2.484      5.709
REMARK INTER + INTRA:          -9.424
REMARK INTER:                  -7.579
REMARK INTRA:                  -1.845
REMARK UNBOUND:                -1.913
REMARK SMILES CCCCCCCCCCCCCCCC(=O)[O-]
REMARK SMILES IDX 9 1 10 2 11 3 12 4 13 5 14 6 15 7 16 8 17 9 18 10 8 11 7 12
REMARK SMILES IDX 6 13 5 14 4 15 3 16 2 17 1 18
REMARK H PARENT
REMARK Flexibility Score: inf
ROOT
ATOM      1  C   UNL     1      -2.390   5.809 -60.215  1.00  0.00     0.000 C 
ENDROOT
BRANCH   1   2
ATOM      2  C   UNL     1      -3.921   5.706 -60.269  1.00  0.00     0.000 C 
BRANCH   2   3
ATOM      3  C   UNL     1      -4.500   4.875 -59.109  1.00  0.00     0.000 C 
BRANCH   3   4
ATOM      4  C   UNL     1      -5.392   5.706 -58.173  1.00  0.00     0.000 C 
BRANCH   4   5
ATOM      5  C   UNL     1      -4.692   6.057 -56.849  1.00  0.00     0.000 C 
BRANCH   5   6
ATOM      6  C   UNL     1      -4.648   7.573 -56.583  1.00  0.00     0.006 C 
BRANCH   6   7
ATOM      7  C   UNL     1      -5.228   8.434 -57.718  1.00  0.00     0.053 C 
BRANCH   7   8
ATOM      8  C   UNL     1      -4.209   9.367 -58.293  1.00  0.00     0.041 C 
ATOM      9  O   UNL     1      -4.288   9.728 -59.497  1.00  0.00    -0.550 OA
ATOM     10  O   UNL     1      -3.152   9.813 -57.509  1.00  0.00    -0.550 OA
ENDBRANCH   7   8
ENDBRANCH   6   7
ENDBRANCH   5   6
ENDBRANCH   4   5
ENDBRANCH   3   4
ENDBRANCH   2   3
ENDBRANCH   1   2
BRANCH   1  11
ATOM     11  C   UNL     1      -1.907   7.025 -59.410  1.00  0.00     0.000 C 
BRANCH  11  12
ATOM     12  C   UNL     1      -0.797   6.629 -58.429  1.00  0.00    -0.000 C 
BRANCH  12  13
ATOM     13  C   UNL     1      -1.104   5.278 -57.767  1.00  0.00    -0.000 C 
BRANCH  13  14
ATOM     14  C   UNL     1      -1.207   5.379 -56.237  1.00  0.00    -0.000 C 
BRANCH  14  15
ATOM     15  C   UNL     1      -0.015   6.119 -55.611  1.00  0.00    -0.000 C 
BRANCH  15  16
ATOM     16  C   UNL     1       0.217   5.741 -54.139  1.00  0.00    -0.000 C 
BRANCH  16  17
ATOM     17  C   UNL     1      -0.309   6.793 -53.141  1.00  0.00    -0.003 C 
ATOM     18  C   UNL     1       0.221   8.196 -53.438  1.00  0.00     0.004 C 
ENDBRANCH  16  17
ENDBRANCH  15  16
ENDBRANCH  14  15
ENDBRANCH  13  14
ENDBRANCH  12  13
ENDBRANCH  11  12
ENDBRANCH   1  11
TORSDOF 14
ENDMDL
MODEL 6
REMARK VINA RESULT:    -4.130     11.624     14.536
REMARK INTER + INTRA:          -9.424
REMARK INTER:                  -7.719
REMARK INTRA:                  -1.705
REMARK UNBOUND:                -1.913
REMARK SMILES CCCCCCCCCCCCCCCC(=O)[O-]
REMARK SMILES IDX 9 1 10 2 11 3 12 4 13 5 14 6 15 7 16 8 17 9 18 10 8 11 7 12
REMARK SMILES IDX 6 13 5 14 4 15 3 16 2 17 1 18
REMARK H PARENT
REMARK Flexibility Score: inf
ROOT
ATOM      1  C   UNL     1      -6.571  20.949 -61.560  1.00  0.00     0.000 C 
ENDROOT
BRANCH   1   2
ATOM      2  C   UNL     1      -5.594  21.308 -60.430  1.00  0.00     0.000 C 
BRANCH   2   3
ATOM      3  C   UNL     1      -5.236  20.096 -59.550  1.00  0.00     0.000 C 
BRANCH   3   4
ATOM      4  C   UNL     1      -4.676  18.917 -60.363  1.00  0.00     0.000 C 
BRANCH   4   5
ATOM      5  C   UNL     1      -5.385  17.591 -60.043  1.00  0.00     0.000 C 
BRANCH   5   6
ATOM      6  C   UNL     1      -5.973  16.913 -61.294  1.00  0.00     0.006 C 
BRANCH   6   7
ATOM      7  C   UNL     1      -7.479  17.146 -61.494  1.00  0.00     0.053 C 
BRANCH   7   8
ATOM      8  C   UNL     1      -8.256  15.867 -61.462  1.00  0.00     0.041 C 
ATOM      9  O   UNL     1      -9.340  15.767 -62.095  1.00  0.00    -0.550 OA
ATOM     10  O   UNL     1      -7.800  14.794 -60.706  1.00  0.00    -0.550 OA
ENDBRANCH   7   8
ENDBRANCH   6   7
ENDBRANCH   5   6
ENDBRANCH   4   5
ENDBRANCH   3   4
ENDBRANCH   2   3
ENDBRANCH   1   2
BRANCH   1  11
ATOM     11  C   UNL     1      -5.903  20.959 -62.944  1.00  0.00     0.000 C 
BRANCH  11  12
ATOM     12  C   UNL     1      -6.363  19.762 -63.784  1.00  0.00    -0.000 C 
BRANCH  12  13
ATOM     13  C   UNL     1      -5.160  18.979 -64.331  1.00  0.00    -0.000 C 
BRANCH  13  14
ATOM     14  C   UNL     1      -3.816  19.637 -63.980  1.00  0.00    -0.000 C 
BRANCH  14  15
ATOM     15  C   UNL     1      -2.748  19.416 -65.063  1.00  0.00    -0.000 C 
BRANCH  15  16
ATOM     16  C   UNL     1      -1.371  19.973 -64.665  1.00  0.00    -0.000 C 
BRANCH  16  17
ATOM     17  C   UNL     1      -0.203  19.016 -64.981  1.00  0.00    -0.003 C 
ATOM     18  C   UNL     1       0.228  18.200 -63.763  1.00  0.00     0.004 C 
ENDBRANCH  16  17
ENDBRANCH  15  16
ENDBRANCH  14  15
ENDBRANCH  13  14
ENDBRANCH  12  13
ENDBRANCH  11  12
ENDBRANCH   1  11
TORSDOF 14
ENDMDL
MODEL 7
REMARK VINA RESULT:    -4.093      2.552      5.526
REMARK INTER + INTRA:          -9.357
REMARK INTER:                  -7.313
REMARK INTRA:                  -2.043
REMARK UNBOUND:                -1.913
REMARK SMILES CCCCCCCCCCCCCCCC(=O)[O-]
REMARK SMILES IDX 9 1 10 2 11 3 12 4 13 5 14 6 15 7 16 8 17 9 18 10 8 11 7 12
REMARK SMILES IDX 6 13 5 14 4 15 3 16 2 17 1 18
REMARK H PARENT
REMARK Flexibility Score: inf
ROOT
ATOM      1  C   UNL     1      -3.226   6.371 -56.133  1.00  0.00     0.000 C 
ENDROOT
BRANCH   1   2
ATOM      2  C   UNL     1      -4.218   5.198 -56.139  1.00  0.00     0.000 C 
BRANCH   2   3
ATOM      3  C   UNL     1      -5.078   5.156 -57.415  1.00  0.00     0.000 C 
BRANCH   3   4
ATOM      4  C   UNL     1      -6.575   5.355 -57.129  1.00  0.00     0.000 C 
BRANCH   4   5
ATOM      5  C   UNL     1      -7.093   6.716 -57.625  1.00  0.00     0.000 C 
BRANCH   5   6
ATOM      6  C   UNL     1      -6.015   7.530 -58.363  1.00  0.00     0.006 C 
BRANCH   6   7
ATOM      7  C   UNL     1      -5.519   8.768 -57.598  1.00  0.00     0.053 C 
BRANCH   7   8
ATOM      8  C   UNL     1      -4.260   9.326 -58.185  1.00  0.00     0.041 C 
ATOM      9  O   UNL     1      -3.272   9.577 -57.444  1.00  0.00    -0.550 OA
ATOM     10  O   UNL     1      -4.187   9.598 -59.545  1.00  0.00    -0.550 OA
ENDBRANCH   7   8
ENDBRANCH   6   7
ENDBRANCH   5   6
ENDBRANCH   4   5
ENDBRANCH   3   4
ENDBRANCH   2   3
ENDBRANCH   1   2
BRANCH   1  11
ATOM     11  C   UNL     1      -2.013   6.114 -55.226  1.00  0.00     0.000 C 
BRANCH  11  12
ATOM     12  C   UNL     1      -1.235   4.875 -55.687  1.00  0.00    -0.000 C 
BRANCH  12  13
ATOM     13  C   UNL     1      -0.098   5.264 -56.643  1.00  0.00    -0.000 C 
BRANCH  13  14
ATOM     14  C   UNL     1      -0.537   5.266 -58.116  1.00  0.00    -0.000 C 
BRANCH  14  15
ATOM     15  C   UNL     1      -0.640   6.684 -58.700  1.00  0.00    -0.000 C 
BRANCH  15  16
ATOM     16  C   UNL     1      -1.952   6.921 -59.465  1.00  0.00    -0.000 C 
BRANCH  16  17
ATOM     17  C   UNL     1      -2.673   5.619 -59.872  1.00  0.00    -0.003 C 
ATOM     18  C   UNL     1      -3.813   5.867 -60.859  1.00  0.00     0.004 C 
ENDBRANCH  16  17
ENDBRANCH  15  16
ENDBRANCH  14  15
ENDBRANCH  13  14
ENDBRANCH  12  13
ENDBRANCH  11  12
ENDBRANCH   1  11
TORSDOF 14
ENDMDL
MODEL 8
REMARK VINA RESULT:    -4.072      3.387      6.327
REMARK INTER + INTRA:          -9.318
REMARK INTER:                  -7.496
REMARK INTRA:                  -1.822
REMARK UNBOUND:                -1.913
REMARK SMILES CCCCCCCCCCCCCCCC(=O)[O-]
REMARK SMILES IDX 9 1 10 2 11 3 12 4 13 5 14 6 15 7 16 8 17 9 18 10 8 11 7 12
REMARK SMILES IDX 6 13 5 14 4 15 3 16 2 17 1 18
REMARK H PARENT
REMARK Flexibility Score: inf
ROOT
ATOM      1  C   UNL     1      -3.840   8.491 -56.303  1.00  0.00     0.000 C 
ENDROOT
BRANCH   1   2
ATOM      2  C   UNL     1      -3.523   9.423 -57.482  1.00  0.00     0.000 C 
BRANCH   2   3
ATOM      3  C   UNL     1      -4.144   8.937 -58.805  1.00  0.00     0.000 C 
BRANCH   3   4
ATOM      4  C   UNL     1      -3.766   7.486 -59.141  1.00  0.00     0.000 C 
BRANCH   4   5
ATOM      5  C   UNL     1      -4.984   6.637 -59.542  1.00  0.00     0.000 C 
BRANCH   5   6
ATOM      6  C   UNL     1      -5.360   5.594 -58.473  1.00  0.00     0.006 C 
BRANCH   6   7
ATOM      7  C   UNL     1      -6.124   6.166 -57.268  1.00  0.00     0.053 C 
BRANCH   7   8
ATOM      8  C   UNL     1      -7.519   6.571 -57.628  1.00  0.00     0.041 C 
ATOM      9  O   UNL     1      -8.447   5.719 -57.628  1.00  0.00    -0.550 OA
ATOM     10  O   UNL     1      -7.791   7.884 -57.994  1.00  0.00    -0.550 OA
ENDBRANCH   7   8
ENDBRANCH   6   7
ENDBRANCH   5   6
ENDBRANCH   4   5
ENDBRANCH   3   4
ENDBRANCH   2   3
ENDBRANCH   1   2
BRANCH   1  11
ATOM     11  C   UNL     1      -2.590   7.788 -55.752  1.00  0.00     0.000 C 
BRANCH  11  12
ATOM     12  C   UNL     1      -2.694   6.268 -55.923  1.00  0.00    -0.000 C 
BRANCH  12  13
ATOM     13  C   UNL     1      -1.597   5.743 -56.860  1.00  0.00    -0.000 C 
BRANCH  13  14
ATOM     14  C   UNL     1      -0.220   5.678 -56.180  1.00  0.00    -0.000 C 
BRANCH  14  15
ATOM     15  C   UNL     1      -0.245   4.877 -54.869  1.00  0.00    -0.000 C 
BRANCH  15  16
ATOM     16  C   UNL     1       0.466   5.602 -53.713  1.00  0.00    -0.000 C 
BRANCH  16  17
ATOM     17  C   UNL     1      -0.350   6.770 -53.122  1.00  0.00    -0.003 C 
ATOM     18  C   UNL     1       0.247   8.134 -53.469  1.00  0.00     0.004 C 
ENDBRANCH  16  17
ENDBRANCH  15  16
ENDBRANCH  14  15
ENDBRANCH  13  14
ENDBRANCH  12  13
ENDBRANCH  11  12
ENDBRANCH   1  11
TORSDOF 14
ENDMDL
