MODEL 1
REMARK VINA RESULT:    -3.601      0.000      0.000
REMARK INTER + INTRA:         -11.146
REMARK INTER:                  -9.496
REMARK INTRA:                  -1.650
REMARK UNBOUND:                -1.650
REMARK SMILES CCCCCCCCCCCCCCCCCCCCCCCCCCCCCC(=O)[O-]
REMARK SMILES IDX 16 1 17 2 18 3 19 4 20 5 21 6 22 7 23 8 24 9 25 10 26 11
REMARK SMILES IDX 27 12 28 13 29 14 30 15 31 16 32 17 15 18 14 19 13 20 12 21
REMARK SMILES IDX 11 22 10 23 9 24 8 25 7 26 6 27 5 28 4 29 3 30 2 31 1 32
REMARK H PARENT
REMARK Flexibility Score: inf
ROOT
ATOM      1  C   UNL     1       4.744  14.424  23.061  1.00  0.00     0.000 C 
ENDROOT
BRANCH   1   2
ATOM      2  C   UNL     1       5.555  13.133  22.857  1.00  0.00     0.000 C 
BRANCH   2   3
ATOM      3  C   UNL     1       7.070  13.371  22.661  1.00  0.00     0.000 C 
BRANCH   3   4
ATOM      4  C   UNL     1       7.905  12.080  22.740  1.00  0.00     0.000 C 
BRANCH   4   5
ATOM      5  C   UNL     1       9.422  12.348  22.874  1.00  0.00     0.000 C 
BRANCH   5   6
ATOM      6  C   UNL     1      10.227  11.042  22.979  1.00  0.00     0.000 C 
BRANCH   6   7
ATOM      7  C   UNL     1      10.714  10.546  21.599  1.00  0.00     0.000 C 
BRANCH   7   8
ATOM      8  C   UNL     1      10.025   9.251  21.143  1.00  0.00     0.000 C 
BRANCH   8   9
ATOM      9  C   UNL     1      10.266   8.943  19.656  1.00  0.00     0.000 C 
BRANCH   9  10
ATOM     10  C   UNL     1      11.091  10.049  18.963  1.00  0.00     0.000 C 
BRANCH  10  11
ATOM     11  C   UNL     1      10.232  11.104  18.246  1.00  0.00     0.000 C 
BRANCH  11  12
ATOM     12  C   UNL     1      10.965  12.440  18.047  1.00  0.00     0.000 C 
BRANCH  12  13
ATOM     13  C   UNL     1      10.929  13.329  19.304  1.00  0.00     0.006 C 
BRANCH  13  14
ATOM     14  C   UNL     1      11.025  14.835  19.010  1.00  0.00     0.053 C 
BRANCH  14  15
ATOM     15  C   UNL     1      10.460  15.660  20.126  1.00  0.00     0.041 C 
ATOM     16  O   UNL     1      10.733  15.379  21.323  1.00  0.00    -0.550 OA
ATOM     17  O   UNL     1       9.607  16.719  19.845  1.00  0.00    -0.550 OA
ENDBRANCH  14  15
ENDBRANCH  13  14
ENDBRANCH  12  13
ENDBRANCH  11  12
ENDBRANCH  10  11
ENDBRANCH   9  10
ENDBRANCH   8   9
ENDBRANCH   7   8
ENDBRANCH   6   7
ENDBRANCH   5   6
ENDBRANCH   4   5
ENDBRANCH   3   4
ENDBRANCH   2   3
ENDBRANCH   1   2
BRANCH   1  18
ATOM     18  C   UNL     1       4.766  15.344  21.828  1.00  0.00     0.000 C 
BRANCH  18  19
ATOM     19  C   UNL     1       3.843  16.569  21.978  1.00  0.00     0.000 C 
BRANCH  19  20
ATOM     20  C   UNL     1       2.504  16.261  22.676  1.00  0.00     0.000 C 
BRANCH  20  21
ATOM     21  C   UNL     1       1.315  16.019  21.728  1.00  0.00     0.000 C 
BRANCH  21  22
ATOM     22  C   UNL     1      -0.076  16.038  22.396  1.00  0.00     0.000 C 
BRANCH  22  23
ATOM     23  C   UNL     1      -1.199  16.676  21.559  1.00  0.00     0.000 C 
BRANCH  23  24
ATOM     24  C   UNL     1      -2.321  15.686  21.203  1.00  0.00    -0.000 C 
BRANCH  24  25
ATOM     25  C   UNL     1      -3.660  16.041  21.875  1.00  0.00    -0.000 C 
BRANCH  25  26
ATOM     26  C   UNL     1      -4.884  15.277  21.334  1.00  0.00    -0.000 C 
BRANCH  26  27
ATOM     27  C   UNL     1      -6.249  15.923  21.643  1.00  0.00    -0.000 C 
BRANCH  27  28
ATOM     28  C   UNL     1      -6.253  17.462  21.648  1.00  0.00    -0.000 C 
BRANCH  28  29
ATOM     29  C   UNL     1      -7.321  18.054  22.578  1.00  0.00    -0.000 C 
BRANCH  29  30
ATOM     30  C   UNL     1      -8.029  19.242  21.915  1.00  0.00    -0.000 C 
BRANCH  30  31
ATOM     31  C   UNL     1      -9.101  18.762  20.932  1.00  0.00    -0.003 C 
ATOM     32  C   UNL     1      -8.741  19.136  19.497  1.00  0.00     0.004 C 
ENDBRANCH  30  31
ENDBRANCH  29  30
ENDBRANCH  28  29
ENDBRANCH  27  28
ENDBRANCH  26  27
ENDBRANCH  25  26
ENDBRANCH  24  25
ENDBRANCH  23  24
ENDBRANCH  22  23
ENDBRANCH  21  22
ENDBRANCH  20  21
ENDBRANCH  19  20
ENDBRANCH  18  19
ENDBRANCH   1  18
TORSDOF 28
ENDMDL
MODEL 2
REMARK VINA RESULT:    -3.309      2.260      3.964
REMARK INTER + INTRA:         -10.375
REMARK INTER:                  -8.504
REMARK INTRA:                  -1.871
REMARK UNBOUND:                -1.650
REMARK SMILES CCCCCCCCCCCCCCCCCCCCCCCCCCCCCC(=O)[O-]
REMARK SMILES IDX 16 1 17 2 18 3 19 4 20 5 21 6 22 7 23 8 24 9 25 10 26 11
REMARK SMILES IDX 27 12 28 13 29 14 30 15 31 16 32 17 15 18 14 19 13 20 12 21
REMARK SMILES IDX 11 22 10 23 9 24 8 25 7 26 6 27 5 28 4 29 3 30 2 31 1 32
REMARK H PARENT
REMARK Flexibility Score: inf
ROOT
ATOM      1  C   UNL     1       4.680  14.778  22.020  1.00  0.00     0.000 C 
ENDROOT
BRANCH   1   2
ATOM      2  C   UNL     1       5.853  15.460  21.294  1.00  0.00     0.000 C 
BRANCH   2   3
ATOM      3  C   UNL     1       6.900  16.082  22.246  1.00  0.00     0.000 C 
BRANCH   3   4
ATOM      4  C   UNL     1       7.995  16.877  21.512  1.00  0.00     0.000 C 
BRANCH   4   5
ATOM      5  C   UNL     1       9.303  16.073  21.324  1.00  0.00     0.000 C 
BRANCH   5   6
ATOM      6  C   UNL     1       9.474  14.998  22.409  1.00  0.00     0.000 C 
BRANCH   6   7
ATOM      7  C   UNL     1      10.807  14.230  22.261  1.00  0.00     0.000 C 
BRANCH   7   8
ATOM      8  C   UNL     1      10.824  12.894  23.020  1.00  0.00     0.000 C 
BRANCH   8   9
ATOM      9  C   UNL     1       9.434  12.243  23.107  1.00  0.00     0.000 C 
BRANCH   9  10
ATOM     10  C   UNL     1       9.430  10.812  22.528  1.00  0.00     0.000 C 
BRANCH  10  11
ATOM     11  C   UNL     1      10.720  10.025  22.813  1.00  0.00     0.000 C 
BRANCH  11  12
ATOM     12  C   UNL     1      10.998   8.931  21.771  1.00  0.00     0.000 C 
BRANCH  12  13
ATOM     13  C   UNL     1       9.947   8.902  20.646  1.00  0.00     0.006 C 
BRANCH  13  14
ATOM     14  C   UNL     1      10.540   8.744  19.237  1.00  0.00     0.053 C 
BRANCH  14  15
ATOM     15  C   UNL     1       9.665   9.363  18.190  1.00  0.00     0.041 C 
ATOM     16  O   UNL     1       8.789   8.673  17.606  1.00  0.00    -0.550 OA
ATOM     17  O   UNL     1       9.837  10.696  17.838  1.00  0.00    -0.550 OA
ENDBRANCH  14  15
ENDBRANCH  13  14
ENDBRANCH  12  13
ENDBRANCH  11  12
ENDBRANCH  10  11
ENDBRANCH   9  10
ENDBRANCH   8   9
ENDBRANCH   7   8
ENDBRANCH   6   7
ENDBRANCH   5   6
ENDBRANCH   4   5
ENDBRANCH   3   4
ENDBRANCH   2   3
ENDBRANCH   1   2
BRANCH   1  18
ATOM     18  C   UNL     1       3.887  15.747  22.914  1.00  0.00     0.000 C 
BRANCH  18  19
ATOM     19  C   UNL     1       2.803  16.525  22.140  1.00  0.00     0.000 C 
BRANCH  19  20
ATOM     20  C   UNL     1       1.508  15.724  21.905  1.00  0.00     0.000 C 
BRANCH  20  21
ATOM     21  C   UNL     1       0.267  16.260  22.642  1.00  0.00     0.000 C 
BRANCH  21  22
ATOM     22  C   UNL     1      -0.885  16.739  21.732  1.00  0.00     0.000 C 
BRANCH  22  23
ATOM     23  C   UNL     1      -2.292  16.281  22.156  1.00  0.00     0.000 C 
BRANCH  23  24
ATOM     24  C   UNL     1      -3.003  17.292  23.071  1.00  0.00    -0.000 C 
BRANCH  24  25
ATOM     25  C   UNL     1      -4.531  17.103  23.089  1.00  0.00    -0.000 C 
BRANCH  25  26
ATOM     26  C   UNL     1      -5.330  18.172  22.318  1.00  0.00    -0.000 C 
BRANCH  26  27
ATOM     27  C   UNL     1      -6.772  18.397  22.816  1.00  0.00    -0.000 C 
BRANCH  27  28
ATOM     28  C   UNL     1      -7.783  18.784  21.722  1.00  0.00    -0.000 C 
BRANCH  28  29
ATOM     29  C   UNL     1      -7.886  17.735  20.605  1.00  0.00    -0.000 C 
BRANCH  29  30
ATOM     30  C   UNL     1      -8.199  16.348  21.181  1.00  0.00    -0.000 C 
BRANCH  30  31
ATOM     31  C   UNL     1      -7.160  15.318  20.724  1.00  0.00    -0.003 C 
ATOM     32  C   UNL     1      -6.742  14.408  21.876  1.00  0.00     0.004 C 
ENDBRANCH  30  31
ENDBRANCH  29  30
ENDBRANCH  28  29
ENDBRANCH  27  28
ENDBRANCH  26  27
ENDBRANCH  25  26
ENDBRANCH  24  25
ENDBRANCH  23  24
ENDBRANCH  22  23
ENDBRANCH  21  22
ENDBRANCH  20  21
ENDBRANCH  19  20
ENDBRANCH  18  19
ENDBRANCH   1  18
TORSDOF 28
ENDMDL
MODEL 3
REMARK VINA RESULT:    -3.119      2.150      4.729
REMARK INTER + INTRA:          -9.875
REMARK INTER:                  -8.192
REMARK INTRA:                  -1.683
REMARK UNBOUND:                -1.650
REMARK SMILES CCCCCCCCCCCCCCCCCCCCCCCCCCCCCC(=O)[O-]
REMARK SMILES IDX 16 1 17 2 18 3 19 4 20 5 21 6 22 7 23 8 24 9 25 10 26 11
REMARK SMILES IDX 27 12 28 13 29 14 30 15 31 16 32 17 15 18 14 19 13 20 12 21
REMARK SMILES IDX 11 22 10 23 9 24 8 25 7 26 6 27 5 28 4 29 3 30 2 31 1 32
REMARK H PARENT
REMARK Flexibility Score: inf
ROOT
ATOM      1  C   UNL     1       1.623  15.794  21.929  1.00  0.00     0.000 C 
ENDROOT
BRANCH   1   2
ATOM      2  C   UNL     1       3.067  16.326  21.907  1.00  0.00     0.000 C 
BRANCH   2   3
ATOM      3  C   UNL     1       4.138  15.220  21.768  1.00  0.00     0.000 C 
BRANCH   3   4
ATOM      4  C   UNL     1       4.875  14.917  23.086  1.00  0.00     0.000 C 
BRANCH   4   5
ATOM      5  C   UNL     1       6.315  15.480  23.116  1.00  0.00     0.000 C 
BRANCH   5   6
ATOM      6  C   UNL     1       6.682  16.186  21.801  1.00  0.00     0.000 C 
BRANCH   6   7
ATOM      7  C   UNL     1       8.199  16.458  21.690  1.00  0.00     0.000 C 
BRANCH   7   8
ATOM      8  C   UNL     1       8.580  17.267  20.441  1.00  0.00     0.000 C 
BRANCH   8   9
ATOM      9  C   UNL     1      10.082  17.191  20.120  1.00  0.00     0.000 C 
BRANCH   9  10
ATOM     10  C   UNL     1      10.731  15.912  20.692  1.00  0.00     0.000 C 
BRANCH  10  11
ATOM     11  C   UNL     1      11.059  14.855  19.623  1.00  0.00     0.000 C 
BRANCH  11  12
ATOM     12  C   UNL     1      10.091  13.661  19.644  1.00  0.00     0.000 C 
BRANCH  12  13
ATOM     13  C   UNL     1       9.962  13.026  21.042  1.00  0.00     0.006 C 
BRANCH  13  14
ATOM     14  C   UNL     1      10.767  11.729  21.219  1.00  0.00     0.053 C 
BRANCH  14  15
ATOM     15  C   UNL     1      10.086  10.771  22.149  1.00  0.00     0.041 C 
ATOM     16  O   UNL     1       9.018  11.101  22.728  1.00  0.00    -0.550 OA
ATOM     17  O   UNL     1      10.647   9.526  22.398  1.00  0.00    -0.550 OA
ENDBRANCH  14  15
ENDBRANCH  13  14
ENDBRANCH  12  13
ENDBRANCH  11  12
ENDBRANCH  10  11
ENDBRANCH   9  10
ENDBRANCH   8   9
ENDBRANCH   7   8
ENDBRANCH   6   7
ENDBRANCH   5   6
ENDBRANCH   4   5
ENDBRANCH   3   4
ENDBRANCH   2   3
ENDBRANCH   1   2
BRANCH   1  18
ATOM     18  C   UNL     1       0.802  16.345  23.108  1.00  0.00     0.000 C 
BRANCH  18  19
ATOM     19  C   UNL     1      -0.719  16.241  22.879  1.00  0.00     0.000 C 
BRANCH  19  20
ATOM     20  C   UNL     1      -1.189  16.830  21.535  1.00  0.00     0.000 C 
BRANCH  20  21
ATOM     21  C   UNL     1      -2.709  16.772  21.295  1.00  0.00     0.000 C 
BRANCH  21  22
ATOM     22  C   UNL     1      -3.494  15.850  22.252  1.00  0.00     0.000 C 
BRANCH  22  23
ATOM     23  C   UNL     1      -4.953  16.265  22.517  1.00  0.00     0.000 C 
BRANCH  23  24
ATOM     24  C   UNL     1      -5.962  15.514  21.633  1.00  0.00    -0.000 C 
BRANCH  24  25
ATOM     25  C   UNL     1      -7.227  16.342  21.341  1.00  0.00    -0.000 C 
BRANCH  25  26
ATOM     26  C   UNL     1      -8.025  16.774  22.586  1.00  0.00    -0.000 C 
BRANCH  26  27
ATOM     27  C   UNL     1      -9.035  17.915  22.353  1.00  0.00    -0.000 C 
BRANCH  27  28
ATOM     28  C   UNL     1      -8.737  19.213  23.125  1.00  0.00    -0.000 C 
BRANCH  28  29
ATOM     29  C   UNL     1      -8.319  20.371  22.208  1.00  0.00    -0.000 C 
BRANCH  29  30
ATOM     30  C   UNL     1      -7.966  21.620  23.026  1.00  0.00    -0.000 C 
BRANCH  30  31
ATOM     31  C   UNL     1      -7.313  22.688  22.141  1.00  0.00    -0.003 C 
ATOM     32  C   UNL     1      -5.967  23.128  22.710  1.00  0.00     0.004 C 
ENDBRANCH  30  31
ENDBRANCH  29  30
ENDBRANCH  28  29
ENDBRANCH  27  28
ENDBRANCH  26  27
ENDBRANCH  25  26
ENDBRANCH  24  25
ENDBRANCH  23  24
ENDBRANCH  22  23
ENDBRANCH  21  22
ENDBRANCH  20  21
ENDBRANCH  19  20
ENDBRANCH  18  19
ENDBRANCH   1  18
TORSDOF 28
ENDMDL
MODEL 4
REMARK VINA RESULT:    -3.085      4.691     15.062
REMARK INTER + INTRA:          -9.785
REMARK INTER:                  -7.873
REMARK INTRA:                  -1.912
REMARK UNBOUND:                -1.650
REMARK SMILES CCCCCCCCCCCCCCCCCCCCCCCCCCCCCC(=O)[O-]
REMARK SMILES IDX 16 1 17 2 18 3 19 4 20 5 21 6 22 7 23 8 24 9 25 10 26 11
REMARK SMILES IDX 27 12 28 13 29 14 30 15 31 16 32 17 15 18 14 19 13 20 12 21
REMARK SMILES IDX 11 22 10 23 9 24 8 25 7 26 6 27 5 28 4 29 3 30 2 31 1 32
REMARK H PARENT
REMARK Flexibility Score: inf
ROOT
ATOM      1  C   UNL     1       3.809  15.176  22.499  1.00  0.00     0.000 C 
ENDROOT
BRANCH   1   2
ATOM      2  C   UNL     1       2.693  16.035  23.117  1.00  0.00     0.000 C 
BRANCH   2   3
ATOM      3  C   UNL     1       1.675  16.572  22.085  1.00  0.00     0.000 C 
BRANCH   3   4
ATOM      4  C   UNL     1       0.749  15.481  21.516  1.00  0.00     0.000 C 
BRANCH   4   5
ATOM      5  C   UNL     1      -0.752  15.806  21.697  1.00  0.00     0.000 C 
BRANCH   5   6
ATOM      6  C   UNL     1      -0.972  17.261  22.143  1.00  0.00     0.000 C 
BRANCH   6   7
ATOM      7  C   UNL     1      -2.471  17.595  22.314  1.00  0.00     0.000 C 
BRANCH   7   8
ATOM      8  C   UNL     1      -3.324  16.377  22.700  1.00  0.00     0.000 C 
BRANCH   8   9
ATOM      9  C   UNL     1      -4.543  16.191  21.782  1.00  0.00     0.000 C 
BRANCH   9  10
ATOM     10  C   UNL     1      -5.569  15.203  22.376  1.00  0.00     0.000 C 
BRANCH  10  11
ATOM     11  C   UNL     1      -6.506  14.579  21.328  1.00  0.00     0.000 C 
BRANCH  11  12
ATOM     12  C   UNL     1      -7.993  14.826  21.630  1.00  0.00     0.000 C 
BRANCH  12  13
ATOM     13  C   UNL     1      -8.276  16.273  22.073  1.00  0.00     0.006 C 
BRANCH  13  14
ATOM     14  C   UNL     1      -8.474  17.258  20.910  1.00  0.00     0.053 C 
BRANCH  14  15
ATOM     15  C   UNL     1      -8.060  18.650  21.279  1.00  0.00     0.041 C 
ATOM     16  O   UNL     1      -7.039  18.839  21.992  1.00  0.00    -0.550 OA
ATOM     17  O   UNL     1      -8.818  19.736  20.861  1.00  0.00    -0.550 OA
ENDBRANCH  14  15
ENDBRANCH  13  14
ENDBRANCH  12  13
ENDBRANCH  11  12
ENDBRANCH  10  11
ENDBRANCH   9  10
ENDBRANCH   8   9
ENDBRANCH   7   8
ENDBRANCH   6   7
ENDBRANCH   5   6
ENDBRANCH   4   5
ENDBRANCH   3   4
ENDBRANCH   2   3
ENDBRANCH   1   2
BRANCH   1  18
ATOM     18  C   UNL     1       4.890  16.016  21.797  1.00  0.00     0.000 C 
BRANCH  18  19
ATOM     19  C   UNL     1       6.308  15.437  21.974  1.00  0.00     0.000 C 
BRANCH  19  20
ATOM     20  C   UNL     1       7.292  16.399  22.668  1.00  0.00     0.000 C 
BRANCH  20  21
ATOM     21  C   UNL     1       8.778  16.155  22.346  1.00  0.00     0.000 C 
BRANCH  21  22
ATOM     22  C   UNL     1       9.146  14.699  21.992  1.00  0.00     0.000 C 
BRANCH  22  23
ATOM     23  C   UNL     1      10.628  14.328  22.185  1.00  0.00     0.000 C 
BRANCH  23  24
ATOM     24  C   UNL     1      10.876  12.811  22.160  1.00  0.00    -0.000 C 
BRANCH  24  25
ATOM     25  C   UNL     1       9.865  12.030  23.020  1.00  0.00    -0.000 C 
BRANCH  25  26
ATOM     26  C   UNL     1       9.024  10.989  22.256  1.00  0.00    -0.000 C 
BRANCH  26  27
ATOM     27  C   UNL     1       9.431   9.521  22.489  1.00  0.00    -0.000 C 
BRANCH  27  28
ATOM     28  C   UNL     1      10.820   9.138  21.948  1.00  0.00    -0.000 C 
BRANCH  28  29
ATOM     29  C   UNL     1      11.125   9.770  20.583  1.00  0.00    -0.000 C 
BRANCH  29  30
ATOM     30  C   UNL     1      10.623   8.879  19.440  1.00  0.00    -0.000 C 
BRANCH  30  31
ATOM     31  C   UNL     1       9.998   9.722  18.322  1.00  0.00    -0.003 C 
ATOM     32  C   UNL     1      10.388  11.192  18.456  1.00  0.00     0.004 C 
ENDBRANCH  30  31
ENDBRANCH  29  30
ENDBRANCH  28  29
ENDBRANCH  27  28
ENDBRANCH  26  27
ENDBRANCH  25  26
ENDBRANCH  24  25
ENDBRANCH  23  24
ENDBRANCH  22  23
ENDBRANCH  21  22
ENDBRANCH  20  21
ENDBRANCH  19  20
ENDBRANCH  18  19
ENDBRANCH   1  18
TORSDOF 28
ENDMDL
MODEL 5
REMARK VINA RESULT:    -3.001      2.169      3.595
REMARK INTER + INTRA:          -9.564
REMARK INTER:                  -8.666
REMARK INTRA:                  -0.898
REMARK UNBOUND:                -1.650
REMARK SMILES CCCCCCCCCCCCCCCCCCCCCCCCCCCCCC(=O)[O-]
REMARK SMILES IDX 16 1 17 2 18 3 19 4 20 5 21 6 22 7 23 8 24 9 25 10 26 11
REMARK SMILES IDX 27 12 28 13 29 14 30 15 31 16 32 17 15 18 14 19 13 20 12 21
REMARK SMILES IDX 11 22 10 23 9 24 8 25 7 26 6 27 5 28 4 29 3 30 2 31 1 32
REMARK H PARENT
REMARK Flexibility Score: inf
ROOT
ATOM      1  C   UNL     1       4.383  16.859  21.605  1.00  0.00     0.000 C 
ENDROOT
BRANCH   1   2
ATOM      2  C   UNL     1       5.731  16.157  21.367  1.00  0.00     0.000 C 
BRANCH   2   3
ATOM      3  C   UNL     1       6.934  17.125  21.284  1.00  0.00     0.000 C 
BRANCH   3   4
ATOM      4  C   UNL     1       8.297  16.411  21.346  1.00  0.00     0.000 C 
BRANCH   4   5
ATOM      5  C   UNL     1       8.188  14.938  21.805  1.00  0.00     0.000 C 
BRANCH   5   6
ATOM      6  C   UNL     1       8.980  14.682  23.097  1.00  0.00     0.000 C 
BRANCH   6   7
ATOM      7  C   UNL     1      10.483  14.456  22.823  1.00  0.00     0.000 C 
BRANCH   7   8
ATOM      8  C   UNL     1      10.794  14.175  21.344  1.00  0.00     0.000 C 
BRANCH   8   9
ATOM      9  C   UNL     1      11.016  12.681  21.059  1.00  0.00     0.000 C 
BRANCH   9  10
ATOM     10  C   UNL     1       9.885  11.806  21.643  1.00  0.00     0.000 C 
BRANCH  10  11
ATOM     11  C   UNL     1      10.389  10.660  22.536  1.00  0.00     0.000 C 
BRANCH  11  12
ATOM     12  C   UNL     1       9.756   9.304  22.186  1.00  0.00     0.000 C 
BRANCH  12  13
ATOM     13  C   UNL     1      10.464   8.604  21.012  1.00  0.00     0.006 C 
BRANCH  13  14
ATOM     14  C   UNL     1      11.119   9.567  20.009  1.00  0.00     0.053 C 
BRANCH  14  15
ATOM     15  C   UNL     1      10.344   9.654  18.730  1.00  0.00     0.041 C 
ATOM     16  O   UNL     1       9.654   8.676  18.339  1.00  0.00    -0.550 OA
ATOM     17  O   UNL     1      10.408  10.804  17.955  1.00  0.00    -0.550 OA
ENDBRANCH  14  15
ENDBRANCH  13  14
ENDBRANCH  12  13
ENDBRANCH  11  12
ENDBRANCH  10  11
ENDBRANCH   9  10
ENDBRANCH   8   9
ENDBRANCH   7   8
ENDBRANCH   6   7
ENDBRANCH   5   6
ENDBRANCH   4   5
ENDBRANCH   3   4
ENDBRANCH   2   3
ENDBRANCH   1   2
BRANCH   1  18
ATOM     18  C   UNL     1       3.215  15.871  21.762  1.00  0.00     0.000 C 
BRANCH  18  19
ATOM     19  C   UNL     1       2.504  15.994  23.125  1.00  0.00     0.000 C 
BRANCH  19  20
ATOM     20  C   UNL     1       0.979  16.179  23.019  1.00  0.00     0.000 C 
BRANCH  20  21
ATOM     21  C   UNL     1       0.444  16.373  21.588  1.00  0.00     0.000 C 
BRANCH  21  22
ATOM     22  C   UNL     1      -1.031  15.974  21.375  1.00  0.00     0.000 C 
BRANCH  22  23
ATOM     23  C   UNL     1      -2.033  16.606  22.358  1.00  0.00     0.000 C 
BRANCH  23  24
ATOM     24  C   UNL     1      -3.412  16.865  21.727  1.00  0.00    -0.000 C 
BRANCH  24  25
ATOM     25  C   UNL     1      -4.531  16.037  22.386  1.00  0.00    -0.000 C 
BRANCH  25  26
ATOM     26  C   UNL     1      -5.238  15.036  21.453  1.00  0.00    -0.000 C 
BRANCH  26  27
ATOM     27  C   UNL     1      -6.753  15.259  21.280  1.00  0.00    -0.000 C 
BRANCH  27  28
ATOM     28  C   UNL     1      -7.455  15.912  22.484  1.00  0.00    -0.000 C 
BRANCH  28  29
ATOM     29  C   UNL     1      -8.445  17.011  22.075  1.00  0.00    -0.000 C 
BRANCH  29  30
ATOM     30  C   UNL     1      -7.863  17.889  20.961  1.00  0.00    -0.000 C 
BRANCH  30  31
ATOM     31  C   UNL     1      -8.900  18.137  19.860  1.00  0.00    -0.003 C 
ATOM     32  C   UNL     1      -8.556  19.384  19.050  1.00  0.00     0.004 C 
ENDBRANCH  30  31
ENDBRANCH  29  30
ENDBRANCH  28  29
ENDBRANCH  27  28
ENDBRANCH  26  27
ENDBRANCH  25  26
ENDBRANCH  24  25
ENDBRANCH  23  24
ENDBRANCH  22  23
ENDBRANCH  21  22
ENDBRANCH  20  21
ENDBRANCH  19  20
ENDBRANCH  18  19
ENDBRANCH   1  18
TORSDOF 28
ENDMDL
MODEL 6
REMARK VINA RESULT:    -2.912      5.070     15.257
REMARK INTER + INTRA:          -9.330
REMARK INTER:                  -7.672
REMARK INTRA:                  -1.657
REMARK UNBOUND:                -1.650
REMARK SMILES CCCCCCCCCCCCCCCCCCCCCCCCCCCCCC(=O)[O-]
REMARK SMILES IDX 16 1 17 2 18 3 19 4 20 5 21 6 22 7 23 8 24 9 25 10 26 11
REMARK SMILES IDX 27 12 28 13 29 14 30 15 31 16 32 17 15 18 14 19 13 20 12 21
REMARK SMILES IDX 11 22 10 23 9 24 8 25 7 26 6 27 5 28 4 29 3 30 2 31 1 32
REMARK H PARENT
REMARK Flexibility Score: inf
ROOT
ATOM      1  C   UNL     1       2.006  15.938  21.817  1.00  0.00     0.000 C 
ENDROOT
BRANCH   1   2
ATOM      2  C   UNL     1       1.194  15.955  23.124  1.00  0.00     0.000 C 
BRANCH   2   3
ATOM      3  C   UNL     1      -0.336  15.994  22.908  1.00  0.00     0.000 C 
BRANCH   3   4
ATOM      4  C   UNL     1      -0.944  17.395  23.103  1.00  0.00     0.000 C 
BRANCH   4   5
ATOM      5  C   UNL     1      -2.198  17.638  22.230  1.00  0.00     0.000 C 
BRANCH   5   6
ATOM      6  C   UNL     1      -3.266  16.554  22.450  1.00  0.00     0.000 C 
BRANCH   6   7
ATOM      7  C   UNL     1      -3.367  15.586  21.249  1.00  0.00     0.000 C 
BRANCH   7   8
ATOM      8  C   UNL     1      -4.816  15.250  20.863  1.00  0.00     0.000 C 
BRANCH   8   9
ATOM      9  C   UNL     1      -5.656  14.781  22.062  1.00  0.00     0.000 C 
BRANCH   9  10
ATOM     10  C   UNL     1      -7.151  14.643  21.702  1.00  0.00     0.000 C 
BRANCH  10  11
ATOM     11  C   UNL     1      -8.064  15.612  22.472  1.00  0.00     0.000 C 
BRANCH  11  12
ATOM     12  C   UNL     1      -7.992  17.053  21.940  1.00  0.00     0.000 C 
BRANCH  12  13
ATOM     13  C   UNL     1      -7.940  17.116  20.402  1.00  0.00     0.006 C 
BRANCH  13  14
ATOM     14  C   UNL     1      -9.087  17.920  19.768  1.00  0.00     0.053 C 
BRANCH  14  15
ATOM     15  C   UNL     1      -8.915  19.394  19.971  1.00  0.00     0.041 C 
ATOM     16  O   UNL     1      -8.741  20.154  18.983  1.00  0.00    -0.550 OA
ATOM     17  O   UNL     1      -8.916  19.924  21.254  1.00  0.00    -0.550 OA
ENDBRANCH  14  15
ENDBRANCH  13  14
ENDBRANCH  12  13
ENDBRANCH  11  12
ENDBRANCH  10  11
ENDBRANCH   9  10
ENDBRANCH   8   9
ENDBRANCH   7   8
ENDBRANCH   6   7
ENDBRANCH   5   6
ENDBRANCH   4   5
ENDBRANCH   3   4
ENDBRANCH   2   3
ENDBRANCH   1   2
BRANCH   1  18
ATOM     18  C   UNL     1       3.516  16.122  22.050  1.00  0.00     0.000 C 
BRANCH  18  19
ATOM     19  C   UNL     1       4.126  15.015  22.933  1.00  0.00     0.000 C 
BRANCH  19  20
ATOM     20  C   UNL     1       5.666  14.997  22.935  1.00  0.00     0.000 C 
BRANCH  20  21
ATOM     21  C   UNL     1       6.334  16.372  23.123  1.00  0.00     0.000 C 
BRANCH  21  22
ATOM     22  C   UNL     1       7.810  16.456  22.681  1.00  0.00     0.000 C 
BRANCH  22  23
ATOM     23  C   UNL     1       8.072  16.137  21.198  1.00  0.00     0.000 C 
BRANCH  23  24
ATOM     24  C   UNL     1       9.563  15.934  20.880  1.00  0.00    -0.000 C 
BRANCH  24  25
ATOM     25  C   UNL     1      10.141  14.665  21.534  1.00  0.00    -0.000 C 
BRANCH  25  26
ATOM     26  C   UNL     1       9.353  13.370  21.255  1.00  0.00    -0.000 C 
BRANCH  26  27
ATOM     27  C   UNL     1       8.845  12.630  22.508  1.00  0.00    -0.000 C 
BRANCH  27  28
ATOM     28  C   UNL     1       8.953  11.096  22.444  1.00  0.00    -0.000 C 
BRANCH  28  29
ATOM     29  C   UNL     1      10.349  10.612  22.029  1.00  0.00    -0.000 C 
BRANCH  29  30
ATOM     30  C   UNL     1      10.338   9.112  21.710  1.00  0.00    -0.000 C 
BRANCH  30  31
ATOM     31  C   UNL     1      11.125   8.818  20.427  1.00  0.00    -0.003 C 
ATOM     32  C   UNL     1      10.311   9.175  19.187  1.00  0.00     0.004 C 
ENDBRANCH  30  31
ENDBRANCH  29  30
ENDBRANCH  28  29
ENDBRANCH  27  28
ENDBRANCH  26  27
ENDBRANCH  25  26
ENDBRANCH  24  25
ENDBRANCH  23  24
ENDBRANCH  22  23
ENDBRANCH  21  22
ENDBRANCH  20  21
ENDBRANCH  19  20
ENDBRANCH  18  19
ENDBRANCH   1  18
TORSDOF 28
ENDMDL
MODEL 7
REMARK VINA RESULT:    -2.700      2.787      5.961
REMARK INTER + INTRA:          -8.770
REMARK INTER:                  -8.051
REMARK INTRA:                  -0.718
REMARK UNBOUND:                -1.650
REMARK SMILES CCCCCCCCCCCCCCCCCCCCCCCCCCCCCC(=O)[O-]
REMARK SMILES IDX 16 1 17 2 18 3 19 4 20 5 21 6 22 7 23 8 24 9 25 10 26 11
REMARK SMILES IDX 27 12 28 13 29 14 30 15 31 16 32 17 15 18 14 19 13 20 12 21
REMARK SMILES IDX 11 22 10 23 9 24 8 25 7 26 6 27 5 28 4 29 3 30 2 31 1 32
REMARK H PARENT
REMARK Flexibility Score: inf
ROOT
ATOM      1  C   UNL     1      -0.772  15.904  21.399  1.00  0.00     0.000 C 
ENDROOT
BRANCH   1   2
ATOM      2  C   UNL     1       0.559  16.647  21.609  1.00  0.00     0.000 C 
BRANCH   2   3
ATOM      3  C   UNL     1       1.688  15.758  22.179  1.00  0.00     0.000 C 
BRANCH   3   4
ATOM      4  C   UNL     1       3.099  16.270  21.835  1.00  0.00     0.000 C 
BRANCH   4   5
ATOM      5  C   UNL     1       4.154  15.900  22.903  1.00  0.00     0.000 C 
BRANCH   5   6
ATOM      6  C   UNL     1       5.265  15.009  22.325  1.00  0.00     0.000 C 
BRANCH   6   7
ATOM      7  C   UNL     1       6.659  15.387  22.875  1.00  0.00     0.000 C 
BRANCH   7   8
ATOM      8  C   UNL     1       7.755  15.393  21.798  1.00  0.00     0.000 C 
BRANCH   8   9
ATOM      9  C   UNL     1       9.155  15.648  22.378  1.00  0.00     0.000 C 
BRANCH   9  10
ATOM     10  C   UNL     1      10.128  14.488  22.073  1.00  0.00     0.000 C 
BRANCH  10  11
ATOM     11  C   UNL     1      10.100  13.365  23.124  1.00  0.00     0.000 C 
BRANCH  11  12
ATOM     12  C   UNL     1      11.024  12.189  22.769  1.00  0.00     0.000 C 
BRANCH  12  13
ATOM     13  C   UNL     1      10.364  10.820  23.019  1.00  0.00     0.006 C 
BRANCH  13  14
ATOM     14  C   UNL     1       9.999  10.055  21.737  1.00  0.00     0.053 C 
BRANCH  14  15
ATOM     15  C   UNL     1       9.797   8.593  21.997  1.00  0.00     0.041 C 
ATOM     16  O   UNL     1       8.667   8.162  22.345  1.00  0.00    -0.550 OA
ATOM     17  O   UNL     1      10.865   7.713  21.883  1.00  0.00    -0.550 OA
ENDBRANCH  14  15
ENDBRANCH  13  14
ENDBRANCH  12  13
ENDBRANCH  11  12
ENDBRANCH  10  11
ENDBRANCH   9  10
ENDBRANCH   8   9
ENDBRANCH   7   8
ENDBRANCH   6   7
ENDBRANCH   5   6
ENDBRANCH   4   5
ENDBRANCH   3   4
ENDBRANCH   2   3
ENDBRANCH   1   2
BRANCH   1  18
ATOM     18  C   UNL     1      -2.000  16.795  21.654  1.00  0.00     0.000 C 
BRANCH  18  19
ATOM     19  C   UNL     1      -3.148  16.045  22.359  1.00  0.00     0.000 C 
BRANCH  19  20
ATOM     20  C   UNL     1      -4.410  16.902  22.579  1.00  0.00     0.000 C 
BRANCH  20  21
ATOM     21  C   UNL     1      -5.670  16.407  21.847  1.00  0.00     0.000 C 
BRANCH  21  22
ATOM     22  C   UNL     1      -5.867  14.876  21.834  1.00  0.00     0.000 C 
BRANCH  22  23
ATOM     23  C   UNL     1      -7.293  14.398  21.503  1.00  0.00     0.000 C 
BRANCH  23  24
ATOM     24  C   UNL     1      -8.350  15.502  21.666  1.00  0.00    -0.000 C 
BRANCH  24  25
ATOM     25  C   UNL     1      -8.252  16.222  23.023  1.00  0.00    -0.000 C 
BRANCH  25  26
ATOM     26  C   UNL     1      -8.843  17.645  23.052  1.00  0.00    -0.000 C 
BRANCH  26  27
ATOM     27  C   UNL     1      -9.119  18.267  21.668  1.00  0.00    -0.000 C 
BRANCH  27  28
ATOM     28  C   UNL     1      -8.291  19.524  21.344  1.00  0.00    -0.000 C 
BRANCH  28  29
ATOM     29  C   UNL     1      -9.072  20.827  21.566  1.00  0.00    -0.000 C 
BRANCH  29  30
ATOM     30  C   UNL     1      -8.265  21.812  22.420  1.00  0.00    -0.000 C 
BRANCH  30  31
ATOM     31  C   UNL     1      -8.391  23.240  21.877  1.00  0.00    -0.003 C 
ATOM     32  C   UNL     1      -8.331  23.257  20.352  1.00  0.00     0.004 C 
ENDBRANCH  30  31
ENDBRANCH  29  30
ENDBRANCH  28  29
ENDBRANCH  27  28
ENDBRANCH  26  27
ENDBRANCH  25  26
ENDBRANCH  24  25
ENDBRANCH  23  24
ENDBRANCH  22  23
ENDBRANCH  21  22
ENDBRANCH  20  21
ENDBRANCH  19  20
ENDBRANCH  18  19
ENDBRANCH   1  18
TORSDOF 28
ENDMDL
MODEL 8
REMARK VINA RESULT:    -1.005      4.846     14.349
REMARK INTER + INTRA:          -4.300
REMARK INTER:                  -2.346
REMARK INTRA:                  -1.954
REMARK UNBOUND:                -1.650
REMARK SMILES CCCCCCCCCCCCCCCCCCCCCCCCCCCCCC(=O)[O-]
REMARK SMILES IDX 16 1 17 2 18 3 19 4 20 5 21 6 22 7 23 8 24 9 25 10 26 11
REMARK SMILES IDX 27 12 28 13 29 14 30 15 31 16 32 17 15 18 14 19 13 20 12 21
REMARK SMILES IDX 11 22 10 23 9 24 8 25 7 26 6 27 5 28 4 29 3 30 2 31 1 32
REMARK H PARENT
REMARK Flexibility Score: inf
ROOT
ATOM      1  C   UNL     1       5.324  13.969  22.210  1.00  0.00     0.000 C 
ENDROOT
BRANCH   1   2
ATOM      2  C   UNL     1       4.205  14.576  23.073  1.00  0.00     0.000 C 
BRANCH   2   3
ATOM      3  C   UNL     1       3.556  15.837  22.459  1.00  0.00     0.000 C 
BRANCH   3   4
ATOM      4  C   UNL     1       2.134  16.109  22.983  1.00  0.00     0.000 C 
BRANCH   4   5
ATOM      5  C   UNL     1       1.031  15.714  21.974  1.00  0.00     0.000 C 
BRANCH   5   6
ATOM      6  C   UNL     1       0.009  16.844  21.772  1.00  0.00     0.000 C 
BRANCH   6   7
ATOM      7  C   UNL     1      -1.291  16.601  22.571  1.00  0.00     0.000 C 
BRANCH   7   8
ATOM      8  C   UNL     1      -2.514  16.344  21.676  1.00  0.00     0.000 C 
BRANCH   8   9
ATOM      9  C   UNL     1      -3.764  15.949  22.479  1.00  0.00     0.000 C 
BRANCH   9  10
ATOM     10  C   UNL     1      -5.060  16.147  21.664  1.00  0.00     0.000 C 
BRANCH  10  11
ATOM     11  C   UNL     1      -5.732  14.830  21.241  1.00  0.00     0.000 C 
BRANCH  11  12
ATOM     12  C   UNL     1      -7.172  14.698  21.760  1.00  0.00     0.000 C 
BRANCH  12  13
ATOM     13  C   UNL     1      -7.846  16.062  21.995  1.00  0.00     0.006 C 
BRANCH  13  14
ATOM     14  C   UNL     1      -8.430  16.701  20.724  1.00  0.00     0.053 C 
BRANCH  14  15
ATOM     15  C   UNL     1      -8.402  18.198  20.787  1.00  0.00     0.041 C 
ATOM     16  O   UNL     1      -8.733  18.794  21.845  1.00  0.00    -0.550 OA
ATOM     17  O   UNL     1      -8.038  18.934  19.667  1.00  0.00    -0.550 OA
ENDBRANCH  14  15
ENDBRANCH  13  14
ENDBRANCH  12  13
ENDBRANCH  11  12
ENDBRANCH  10  11
ENDBRANCH   9  10
ENDBRANCH   8   9
ENDBRANCH   7   8
ENDBRANCH   6   7
ENDBRANCH   5   6
ENDBRANCH   4   5
ENDBRANCH   3   4
ENDBRANCH   2   3
ENDBRANCH   1   2
BRANCH   1  18
ATOM     18  C   UNL     1       6.212  12.984  22.991  1.00  0.00     0.000 C 
BRANCH  18  19
ATOM     19  C   UNL     1       5.579  11.584  23.125  1.00  0.00     0.000 C 
BRANCH  19  20
ATOM     20  C   UNL     1       6.560  10.427  22.852  1.00  0.00     0.000 C 
BRANCH  20  21
ATOM     21  C   UNL     1       8.041  10.751  23.124  1.00  0.00     0.000 C 
BRANCH  21  22
ATOM     22  C   UNL     1       9.038  10.202  22.082  1.00  0.00     0.000 C 
BRANCH  22  23
ATOM     23  C   UNL     1      10.448  10.818  22.131  1.00  0.00     0.000 C 
BRANCH  23  24
ATOM     24  C   UNL     1      10.441  12.305  22.524  1.00  0.00    -0.000 C 
BRANCH  24  25
ATOM     25  C   UNL     1      11.074  13.206  21.447  1.00  0.00    -0.000 C 
BRANCH  25  26
ATOM     26  C   UNL     1      10.187  13.471  20.215  1.00  0.00    -0.000 C 
BRANCH  26  27
ATOM     27  C   UNL     1      10.852  14.295  19.095  1.00  0.00    -0.000 C 
BRANCH  27  28
ATOM     28  C   UNL     1      10.626  15.814  19.184  1.00  0.00    -0.000 C 
BRANCH  28  29
ATOM     29  C   UNL     1      10.341  16.293  20.614  1.00  0.00    -0.000 C 
BRANCH  29  30
ATOM     30  C   UNL     1       9.107  17.204  20.653  1.00  0.00    -0.000 C 
BRANCH  30  31
ATOM     31  C   UNL     1       7.920  16.490  21.310  1.00  0.00    -0.003 C 
ATOM     32  C   UNL     1       8.151  16.297  22.806  1.00  0.00     0.004 C 
ENDBRANCH  30  31
ENDBRANCH  29  30
ENDBRANCH  28  29
ENDBRANCH  27  28
ENDBRANCH  26  27
ENDBRANCH  25  26
ENDBRANCH  24  25
ENDBRANCH  23  24
ENDBRANCH  22  23
ENDBRANCH  21  22
ENDBRANCH  20  21
ENDBRANCH  19  20
ENDBRANCH  18  19
ENDBRANCH   1  18
TORSDOF 28
ENDMDL
MODEL 9
REMARK VINA RESULT:    -0.698      2.121      3.614
REMARK INTER + INTRA:          -3.491
REMARK INTER:                  -1.875
REMARK INTRA:                  -1.617
REMARK UNBOUND:                -1.650
REMARK SMILES CCCCCCCCCCCCCCCCCCCCCCCCCCCCCC(=O)[O-]
REMARK SMILES IDX 16 1 17 2 18 3 19 4 20 5 21 6 22 7 23 8 24 9 25 10 26 11
REMARK SMILES IDX 27 12 28 13 29 14 30 15 31 16 32 17 15 18 14 19 13 20 12 21
REMARK SMILES IDX 11 22 10 23 9 24 8 25 7 26 6 27 5 28 4 29 3 30 2 31 1 32
REMARK H PARENT
REMARK Flexibility Score: inf
ROOT
ATOM      1  C   UNL     1       4.046  15.434  22.526  1.00  0.00     0.000 C 
ENDROOT
BRANCH   1   2
ATOM      2  C   UNL     1       5.379  16.069  22.094  1.00  0.00     0.000 C 
BRANCH   2   3
ATOM      3  C   UNL     1       6.597  15.581  22.912  1.00  0.00     0.000 C 
BRANCH   3   4
ATOM      4  C   UNL     1       6.725  14.047  22.958  1.00  0.00     0.000 C 
BRANCH   4   5
ATOM      5  C   UNL     1       8.110  13.541  22.493  1.00  0.00     0.000 C 
BRANCH   5   6
ATOM      6  C   UNL     1       8.516  14.147  21.140  1.00  0.00     0.000 C 
BRANCH   6   7
ATOM      7  C   UNL     1      10.049  14.273  20.995  1.00  0.00     0.000 C 
BRANCH   7   8
ATOM      8  C   UNL     1      10.492  14.703  19.587  1.00  0.00     0.000 C 
BRANCH   8   9
ATOM      9  C   UNL     1      11.125  13.553  18.788  1.00  0.00     0.000 C 
BRANCH   9  10
ATOM     10  C   UNL     1      10.092  12.465  18.422  1.00  0.00     0.000 C 
BRANCH  10  11
ATOM     11  C   UNL     1      10.514  11.046  18.839  1.00  0.00     0.000 C 
BRANCH  11  12
ATOM     12  C   UNL     1      11.102  10.989  20.258  1.00  0.00     0.000 C 
BRANCH  12  13
ATOM     13  C   UNL     1      11.108   9.563  20.841  1.00  0.00     0.006 C 
BRANCH  13  14
ATOM     14  C   UNL     1      10.669   9.484  22.312  1.00  0.00     0.053 C 
BRANCH  14  15
ATOM     15  C   UNL     1       9.197   9.234  22.443  1.00  0.00     0.041 C 
ATOM     16  O   UNL     1       8.422  10.170  22.773  1.00  0.00    -0.550 OA
ATOM     17  O   UNL     1       8.686   7.961  22.229  1.00  0.00    -0.550 OA
ENDBRANCH  14  15
ENDBRANCH  13  14
ENDBRANCH  12  13
ENDBRANCH  11  12
ENDBRANCH  10  11
ENDBRANCH   9  10
ENDBRANCH   8   9
ENDBRANCH   7   8
ENDBRANCH   6   7
ENDBRANCH   5   6
ENDBRANCH   4   5
ENDBRANCH   3   4
ENDBRANCH   2   3
ENDBRANCH   1   2
BRANCH   1  18
ATOM     18  C   UNL     1       2.829  16.312  22.187  1.00  0.00     0.000 C 
BRANCH  18  19
ATOM     19  C   UNL     1       1.549  15.876  22.928  1.00  0.00     0.000 C 
BRANCH  19  20
ATOM     20  C   UNL     1       0.246  16.283  22.215  1.00  0.00     0.000 C 
BRANCH  20  21
ATOM     21  C   UNL     1      -0.824  16.915  23.124  1.00  0.00     0.000 C 
BRANCH  21  22
ATOM     22  C   UNL     1      -2.160  17.257  22.431  1.00  0.00     0.000 C 
BRANCH  22  23
ATOM     23  C   UNL     1      -3.314  16.275  22.705  1.00  0.00     0.000 C 
BRANCH  23  24
ATOM     24  C   UNL     1      -3.622  15.360  21.508  1.00  0.00    -0.000 C 
BRANCH  24  25
ATOM     25  C   UNL     1      -5.120  15.328  21.155  1.00  0.00    -0.000 C 
BRANCH  25  26
ATOM     26  C   UNL     1      -6.051  15.972  22.201  1.00  0.00    -0.000 C 
BRANCH  26  27
ATOM     27  C   UNL     1      -7.484  15.406  22.239  1.00  0.00    -0.000 C 
BRANCH  27  28
ATOM     28  C   UNL     1      -8.567  16.343  21.674  1.00  0.00    -0.000 C 
BRANCH  28  29
ATOM     29  C   UNL     1      -8.037  17.750  21.363  1.00  0.00    -0.000 C 
BRANCH  29  30
ATOM     30  C   UNL     1      -8.353  18.721  22.507  1.00  0.00    -0.000 C 
BRANCH  30  31
ATOM     31  C   UNL     1      -8.983  20.011  21.972  1.00  0.00    -0.003 C 
ATOM     32  C   UNL     1      -8.123  21.226  22.308  1.00  0.00     0.004 C 
ENDBRANCH  30  31
ENDBRANCH  29  30
ENDBRANCH  28  29
ENDBRANCH  27  28
ENDBRANCH  26  27
ENDBRANCH  25  26
ENDBRANCH  24  25
ENDBRANCH  23  24
ENDBRANCH  22  23
ENDBRANCH  21  22
ENDBRANCH  20  21
ENDBRANCH  19  20
ENDBRANCH  18  19
ENDBRANCH   1  18
TORSDOF 28
ENDMDL
