MODEL 1
REMARK VINA RESULT:    -5.521      0.000      0.000
REMARK INTER + INTRA:         -14.310
REMARK INTER:                 -11.976
REMARK INTRA:                  -2.335
REMARK UNBOUND:                -2.335
REMARK SMILES CCCCCCCCCCCCCCCCCCCCCC(=O)[O-]
REMARK SMILES IDX 12 1 11 2 10 3 9 4 8 5 7 6 6 7 5 8 4 9 3 10 2 11 1 12 13 13
REMARK SMILES IDX 14 14 15 15 16 16 17 17 18 18 19 19 20 20 21 21 22 22 23 23
REMARK SMILES IDX 24 24
REMARK H PARENT
REMARK Flexibility Score: inf
ROOT
ATOM      1  C   UNL     1       6.755  22.906 -10.544  1.00  0.00     0.000 C 
ENDROOT
BRANCH   1   2
ATOM      2  C   UNL     1       5.500  22.088 -10.191  1.00  0.00     0.000 C 
BRANCH   2   3
ATOM      3  C   UNL     1       4.418  22.952  -9.511  1.00  0.00     0.000 C 
BRANCH   3   4
ATOM      4  C   UNL     1       3.747  22.262  -8.311  1.00  0.00    -0.000 C 
BRANCH   4   5
ATOM      5  C   UNL     1       3.851  23.081  -7.013  1.00  0.00    -0.000 C 
BRANCH   5   6
ATOM      6  C   UNL     1       5.201  22.870  -6.290  1.00  0.00    -0.000 C 
BRANCH   6   7
ATOM      7  C   UNL     1       6.243  23.968  -6.582  1.00  0.00    -0.000 C 
BRANCH   7   8
ATOM      8  C   UNL     1       7.702  23.580  -6.288  1.00  0.00    -0.000 C 
BRANCH   8   9
ATOM      9  C   UNL     1       7.902  22.701  -5.037  1.00  0.00    -0.000 C 
BRANCH   9  10
ATOM     10  C   UNL     1       8.852  21.504  -5.258  1.00  0.00    -0.000 C 
BRANCH  10  11
ATOM     11  C   UNL     1       9.812  21.725  -6.437  1.00  0.00    -0.003 C 
ATOM     12  C   UNL     1      10.040  20.432  -7.215  1.00  0.00     0.004 C 
ENDBRANCH  10  11
ENDBRANCH   9  10
ENDBRANCH   8   9
ENDBRANCH   7   8
ENDBRANCH   6   7
ENDBRANCH   5   6
ENDBRANCH   4   5
ENDBRANCH   3   4
ENDBRANCH   2   3
ENDBRANCH   1   2
BRANCH   1  13
ATOM     13  C   UNL     1       8.047  22.300  -9.964  1.00  0.00     0.000 C 
BRANCH  13  14
ATOM     14  C   UNL     1       9.107  23.333  -9.537  1.00  0.00     0.000 C 
BRANCH  14  15
ATOM     15  C   UNL     1      10.544  22.881  -9.851  1.00  0.00     0.000 C 
BRANCH  15  16
ATOM     16  C   UNL     1      11.565  24.028  -9.680  1.00  0.00     0.000 C 
BRANCH  16  17
ATOM     17  C   UNL     1      12.388  23.923  -8.386  1.00  0.00     0.000 C 
BRANCH  17  18
ATOM     18  C   UNL     1      12.922  22.500  -8.145  1.00  0.00     0.000 C 
BRANCH  18  19
ATOM     19  C   UNL     1      14.325  22.481  -7.513  1.00  0.00     0.000 C 
BRANCH  19  20
ATOM     20  C   UNL     1      14.699  23.742  -6.707  1.00  0.00     0.006 C 
BRANCH  20  21
ATOM     21  C   UNL     1      15.884  24.537  -7.278  1.00  0.00     0.053 C 
BRANCH  21  22
ATOM     22  C   UNL     1      16.125  25.814  -6.532  1.00  0.00     0.041 C 
ATOM     23  O   UNL     1      15.567  26.015  -5.420  1.00  0.00    -0.550 OA
ATOM     24  O   UNL     1      16.954  26.790  -7.071  1.00  0.00    -0.550 OA
ENDBRANCH  21  22
ENDBRANCH  20  21
ENDBRANCH  19  20
ENDBRANCH  18  19
ENDBRANCH  17  18
ENDBRANCH  16  17
ENDBRANCH  15  16
ENDBRANCH  14  15
ENDBRANCH  13  14
ENDBRANCH   1  13
TORSDOF 20
ENDMDL
MODEL 2
REMARK VINA RESULT:    -5.429      2.103      4.513
REMARK INTER + INTRA:         -14.112
REMARK INTER:                 -11.556
REMARK INTRA:                  -2.556
REMARK UNBOUND:                -2.335
REMARK SMILES CCCCCCCCCCCCCCCCCCCCCC(=O)[O-]
REMARK SMILES IDX 12 1 11 2 10 3 9 4 8 5 7 6 6 7 5 8 4 9 3 10 2 11 1 12 13 13
REMARK SMILES IDX 14 14 15 15 16 16 17 17 18 18 19 19 20 20 21 21 22 22 23 23
REMARK SMILES IDX 24 24
REMARK H PARENT
REMARK Flexibility Score: inf
ROOT
ATOM      1  C   UNL     1      10.067  22.921  -9.320  1.00  0.00     0.000 C 
ENDROOT
BRANCH   1   2
ATOM      2  C   UNL     1       9.647  21.495  -8.921  1.00  0.00     0.000 C 
BRANCH   2   3
ATOM      3  C   UNL     1      10.156  21.112  -7.516  1.00  0.00     0.000 C 
BRANCH   3   4
ATOM      4  C   UNL     1       9.876  22.184  -6.449  1.00  0.00    -0.000 C 
BRANCH   4   5
ATOM      5  C   UNL     1       8.598  21.907  -5.640  1.00  0.00    -0.000 C 
BRANCH   5   6
ATOM      6  C   UNL     1       7.713  23.165  -5.489  1.00  0.00    -0.000 C 
BRANCH   6   7
ATOM      7  C   UNL     1       6.691  23.349  -6.629  1.00  0.00    -0.000 C 
BRANCH   7   8
ATOM      8  C   UNL     1       6.903  24.599  -7.500  1.00  0.00    -0.000 C 
BRANCH   8   9
ATOM      9  C   UNL     1       6.944  24.335  -9.019  1.00  0.00    -0.000 C 
BRANCH   9  10
ATOM     10  C   UNL     1       6.319  22.986  -9.438  1.00  0.00    -0.000 C 
BRANCH  10  11
ATOM     11  C   UNL     1       5.171  23.158 -10.444  1.00  0.00    -0.003 C 
ATOM     12  C   UNL     1       5.086  24.598 -10.945  1.00  0.00     0.004 C 
ENDBRANCH  10  11
ENDBRANCH   9  10
ENDBRANCH   8   9
ENDBRANCH   7   8
ENDBRANCH   6   7
ENDBRANCH   5   6
ENDBRANCH   4   5
ENDBRANCH   3   4
ENDBRANCH   2   3
ENDBRANCH   1   2
BRANCH   1  13
ATOM     13  C   UNL     1      11.574  23.042  -9.610  1.00  0.00     0.000 C 
BRANCH  13  14
ATOM     14  C   UNL     1      12.217  24.360  -9.141  1.00  0.00     0.000 C 
BRANCH  14  15
ATOM     15  C   UNL     1      13.244  24.158  -8.013  1.00  0.00     0.000 C 
BRANCH  15  16
ATOM     16  C   UNL     1      13.624  22.671  -7.833  1.00  0.00     0.000 C 
BRANCH  16  17
ATOM     17  C   UNL     1      15.139  22.442  -7.702  1.00  0.00     0.000 C 
BRANCH  17  18
ATOM     18  C   UNL     1      15.855  23.628  -7.034  1.00  0.00     0.000 C 
BRANCH  18  19
ATOM     19  C   UNL     1      16.243  23.351  -5.570  1.00  0.00     0.000 C 
BRANCH  19  20
ATOM     20  C   UNL     1      15.480  24.185  -4.521  1.00  0.00     0.006 C 
BRANCH  20  21
ATOM     21  C   UNL     1      15.056  23.402  -3.268  1.00  0.00     0.053 C 
BRANCH  21  22
ATOM     22  C   UNL     1      13.654  22.883  -3.369  1.00  0.00     0.041 C 
ATOM     23  O   UNL     1      13.207  22.469  -4.472  1.00  0.00    -0.550 OA
ATOM     24  O   UNL     1      12.835  22.870  -2.247  1.00  0.00    -0.550 OA
ENDBRANCH  21  22
ENDBRANCH  20  21
ENDBRANCH  19  20
ENDBRANCH  18  19
ENDBRANCH  17  18
ENDBRANCH  16  17
ENDBRANCH  15  16
ENDBRANCH  14  15
ENDBRANCH  13  14
ENDBRANCH   1  13
TORSDOF 20
ENDMDL
MODEL 3
REMARK VINA RESULT:    -5.378      3.166      5.558
REMARK INTER + INTRA:         -14.001
REMARK INTER:                 -11.941
REMARK INTRA:                  -2.061
REMARK UNBOUND:                -2.335
REMARK SMILES CCCCCCCCCCCCCCCCCCCCCC(=O)[O-]
REMARK SMILES IDX 12 1 11 2 10 3 9 4 8 5 7 6 6 7 5 8 4 9 3 10 2 11 1 12 13 13
REMARK SMILES IDX 14 14 15 15 16 16 17 17 18 18 19 19 20 20 21 21 22 22 23 23
REMARK SMILES IDX 24 24
REMARK H PARENT
REMARK Flexibility Score: inf
ROOT
ATOM      1  C   UNL     1       6.769  24.205  -7.040  1.00  0.00     0.000 C 
ENDROOT
BRANCH   1   2
ATOM      2  C   UNL     1       5.839  23.067  -6.583  1.00  0.00     0.000 C 
BRANCH   2   3
ATOM      3  C   UNL     1       4.375  23.308  -7.007  1.00  0.00     0.000 C 
BRANCH   3   4
ATOM      4  C   UNL     1       3.857  22.285  -8.030  1.00  0.00    -0.000 C 
BRANCH   4   5
ATOM      5  C   UNL     1       4.578  22.372  -9.385  1.00  0.00    -0.000 C 
BRANCH   5   6
ATOM      6  C   UNL     1       4.401  23.752 -10.059  1.00  0.00    -0.000 C 
BRANCH   6   7
ATOM      7  C   UNL     1       5.286  23.955 -11.305  1.00  0.00    -0.000 C 
BRANCH   7   8
ATOM      8  C   UNL     1       4.523  24.248 -12.608  1.00  0.00    -0.000 C 
BRANCH   8   9
ATOM      9  C   UNL     1       3.847  25.633 -12.670  1.00  0.00    -0.000 C 
BRANCH   9  10
ATOM     10  C   UNL     1       4.564  26.717 -11.835  1.00  0.00    -0.000 C 
BRANCH  10  11
ATOM     11  C   UNL     1       4.642  28.066 -12.566  1.00  0.00    -0.003 C 
ATOM     12  C   UNL     1       3.804  29.127 -11.858  1.00  0.00     0.004 C 
ENDBRANCH  10  11
ENDBRANCH   9  10
ENDBRANCH   8   9
ENDBRANCH   7   8
ENDBRANCH   6   7
ENDBRANCH   5   6
ENDBRANCH   4   5
ENDBRANCH   3   4
ENDBRANCH   2   3
ENDBRANCH   1   2
BRANCH   1  13
ATOM     13  C   UNL     1       8.121  23.696  -7.571  1.00  0.00     0.000 C 
BRANCH  13  14
ATOM     14  C   UNL     1       8.066  23.066  -8.976  1.00  0.00     0.000 C 
BRANCH  14  15
ATOM     15  C   UNL     1       9.009  21.859  -9.129  1.00  0.00     0.000 C 
BRANCH  15  16
ATOM     16  C   UNL     1       9.872  21.633  -7.867  1.00  0.00     0.000 C 
BRANCH  16  17
ATOM     17  C   UNL     1      10.847  20.451  -8.001  1.00  0.00     0.000 C 
BRANCH  17  18
ATOM     18  C   UNL     1      12.297  20.910  -8.231  1.00  0.00     0.000 C 
BRANCH  18  19
ATOM     19  C   UNL     1      12.676  22.149  -7.399  1.00  0.00     0.000 C 
BRANCH  19  20
ATOM     20  C   UNL     1      13.183  23.356  -8.214  1.00  0.00     0.006 C 
BRANCH  20  21
ATOM     21  C   UNL     1      12.090  24.358  -8.618  1.00  0.00     0.053 C 
BRANCH  21  22
ATOM     22  C   UNL     1      11.842  24.364 -10.096  1.00  0.00     0.041 C 
ATOM     23  O   UNL     1      12.113  25.386 -10.782  1.00  0.00    -0.550 OA
ATOM     24  O   UNL     1      11.298  23.246 -10.715  1.00  0.00    -0.550 OA
ENDBRANCH  21  22
ENDBRANCH  20  21
ENDBRANCH  19  20
ENDBRANCH  18  19
ENDBRANCH  17  18
ENDBRANCH  16  17
ENDBRANCH  15  16
ENDBRANCH  14  15
ENDBRANCH  13  14
ENDBRANCH   1  13
TORSDOF 20
ENDMDL
MODEL 4
REMARK VINA RESULT:    -5.375      5.867      9.988
REMARK INTER + INTRA:         -13.994
REMARK INTER:                 -11.654
REMARK INTRA:                  -2.340
REMARK UNBOUND:                -2.335
REMARK SMILES CCCCCCCCCCCCCCCCCCCCCC(=O)[O-]
REMARK SMILES IDX 12 1 11 2 10 3 9 4 8 5 7 6 6 7 5 8 4 9 3 10 2 11 1 12 13 13
REMARK SMILES IDX 14 14 15 15 16 16 17 17 18 18 19 19 20 20 21 21 22 22 23 23
REMARK SMILES IDX 24 24
REMARK H PARENT
REMARK Flexibility Score: inf
ROOT
ATOM      1  C   UNL     1       8.408  23.087  -9.331  1.00  0.00     0.000 C 
ENDROOT
BRANCH   1   2
ATOM      2  C   UNL     1       9.876  23.550  -9.357  1.00  0.00     0.000 C 
BRANCH   2   3
ATOM      3  C   UNL     1      10.836  22.410  -9.758  1.00  0.00     0.000 C 
BRANCH   3   4
ATOM      4  C   UNL     1      11.720  21.917  -8.601  1.00  0.00    -0.000 C 
BRANCH   4   5
ATOM      5  C   UNL     1      11.322  20.520  -8.096  1.00  0.00    -0.000 C 
BRANCH   5   6
ATOM      6  C   UNL     1      10.009  20.539  -7.282  1.00  0.00    -0.000 C 
BRANCH   6   7
ATOM      7  C   UNL     1       9.926  21.690  -6.259  1.00  0.00    -0.000 C 
BRANCH   7   8
ATOM      8  C   UNL     1       8.722  21.629  -5.303  1.00  0.00    -0.000 C 
BRANCH   8   9
ATOM      9  C   UNL     1       7.850  22.900  -5.273  1.00  0.00    -0.000 C 
BRANCH   9  10
ATOM     10  C   UNL     1       6.405  22.679  -5.772  1.00  0.00    -0.000 C 
BRANCH  10  11
ATOM     11  C   UNL     1       5.596  23.985  -5.826  1.00  0.00    -0.003 C 
ATOM     12  C   UNL     1       6.491  25.199  -5.593  1.00  0.00     0.004 C 
ENDBRANCH  10  11
ENDBRANCH   9  10
ENDBRANCH   8   9
ENDBRANCH   7   8
ENDBRANCH   6   7
ENDBRANCH   5   6
ENDBRANCH   4   5
ENDBRANCH   3   4
ENDBRANCH   2   3
ENDBRANCH   1   2
BRANCH   1  13
ATOM     13  C   UNL     1       7.429  24.223  -8.979  1.00  0.00     0.000 C 
BRANCH  13  14
ATOM     14  C   UNL     1       6.054  24.123  -9.666  1.00  0.00     0.000 C 
BRANCH  14  15
ATOM     15  C   UNL     1       5.409  22.734  -9.516  1.00  0.00     0.000 C 
BRANCH  15  16
ATOM     16  C   UNL     1       3.877  22.821  -9.334  1.00  0.00     0.000 C 
BRANCH  16  17
ATOM     17  C   UNL     1       3.382  22.179  -8.027  1.00  0.00     0.000 C 
BRANCH  17  18
ATOM     18  C   UNL     1       1.882  21.842  -8.072  1.00  0.00     0.000 C 
BRANCH  18  19
ATOM     19  C   UNL     1       1.604  20.329  -8.143  1.00  0.00     0.000 C 
BRANCH  19  20
ATOM     20  C   UNL     1       0.119  19.929  -8.041  1.00  0.00     0.006 C 
BRANCH  20  21
ATOM     21  C   UNL     1      -0.613  19.840  -9.389  1.00  0.00     0.053 C 
BRANCH  21  22
ATOM     22  C   UNL     1      -1.471  21.041  -9.650  1.00  0.00     0.041 C 
ATOM     23  O   UNL     1      -1.869  21.759  -8.694  1.00  0.00    -0.550 OA
ATOM     24  O   UNL     1      -1.844  21.360 -10.950  1.00  0.00    -0.550 OA
ENDBRANCH  21  22
ENDBRANCH  20  21
ENDBRANCH  19  20
ENDBRANCH  18  19
ENDBRANCH  17  18
ENDBRANCH  16  17
ENDBRANCH  15  16
ENDBRANCH  14  15
ENDBRANCH  13  14
ENDBRANCH   1  13
TORSDOF 20
ENDMDL
MODEL 5
REMARK VINA RESULT:    -5.330      2.093      3.425
REMARK INTER + INTRA:         -13.897
REMARK INTER:                 -11.346
REMARK INTRA:                  -2.551
REMARK UNBOUND:                -2.335
REMARK SMILES CCCCCCCCCCCCCCCCCCCCCC(=O)[O-]
REMARK SMILES IDX 12 1 11 2 10 3 9 4 8 5 7 6 6 7 5 8 4 9 3 10 2 11 1 12 13 13
REMARK SMILES IDX 14 14 15 15 16 16 17 17 18 18 19 19 20 20 21 21 22 22 23 23
REMARK SMILES IDX 24 24
REMARK H PARENT
REMARK Flexibility Score: inf
ROOT
ATOM      1  C   UNL     1      10.759  23.134  -9.766  1.00  0.00     0.000 C 
ENDROOT
BRANCH   1   2
ATOM      2  C   UNL     1       9.385  23.549  -9.212  1.00  0.00     0.000 C 
BRANCH   2   3
ATOM      3  C   UNL     1       8.276  22.550  -9.602  1.00  0.00     0.000 C 
BRANCH   3   4
ATOM      4  C   UNL     1       6.862  23.154  -9.558  1.00  0.00    -0.000 C 
BRANCH   4   5
ATOM      5  C   UNL     1       6.618  24.020  -8.311  1.00  0.00    -0.000 C 
BRANCH   5   6
ATOM      6  C   UNL     1       5.579  23.395  -7.353  1.00  0.00    -0.000 C 
BRANCH   6   7
ATOM      7  C   UNL     1       6.160  22.988  -5.983  1.00  0.00    -0.000 C 
BRANCH   7   8
ATOM      8  C   UNL     1       7.651  23.308  -5.785  1.00  0.00    -0.000 C 
BRANCH   8   9
ATOM      9  C   UNL     1       8.498  22.146  -5.229  1.00  0.00    -0.000 C 
BRANCH   9  10
ATOM     10  C   UNL     1       9.696  21.760  -6.123  1.00  0.00    -0.000 C 
BRANCH  10  11
ATOM     11  C   UNL     1       9.493  20.411  -6.829  1.00  0.00    -0.003 C 
ATOM     12  C   UNL     1      10.614  20.134  -7.827  1.00  0.00     0.004 C 
ENDBRANCH  10  11
ENDBRANCH   9  10
ENDBRANCH   8   9
ENDBRANCH   7   8
ENDBRANCH   6   7
ENDBRANCH   5   6
ENDBRANCH   4   5
ENDBRANCH   3   4
ENDBRANCH   2   3
ENDBRANCH   1   2
BRANCH   1  13
ATOM     13  C   UNL     1      11.761  24.302  -9.820  1.00  0.00     0.000 C 
BRANCH  13  14
ATOM     14  C   UNL     1      12.732  24.373  -8.627  1.00  0.00     0.000 C 
BRANCH  14  15
ATOM     15  C   UNL     1      12.729  23.091  -7.775  1.00  0.00     0.000 C 
BRANCH  15  16
ATOM     16  C   UNL     1      14.155  22.536  -7.556  1.00  0.00     0.000 C 
BRANCH  16  17
ATOM     17  C   UNL     1      15.199  23.632  -7.281  1.00  0.00     0.000 C 
BRANCH  17  18
ATOM     18  C   UNL     1      15.148  24.138  -5.830  1.00  0.00     0.000 C 
BRANCH  18  19
ATOM     19  C   UNL     1      14.737  23.047  -4.824  1.00  0.00     0.000 C 
BRANCH  19  20
ATOM     20  C   UNL     1      15.003  23.386  -3.343  1.00  0.00     0.006 C 
BRANCH  20  21
ATOM     21  C   UNL     1      13.761  23.836  -2.558  1.00  0.00     0.053 C 
BRANCH  21  22
ATOM     22  C   UNL     1      13.924  25.207  -1.975  1.00  0.00     0.041 C 
ATOM     23  O   UNL     1      13.583  25.436  -0.783  1.00  0.00    -0.550 OA
ATOM     24  O   UNL     1      14.438  26.237  -2.752  1.00  0.00    -0.550 OA
ENDBRANCH  21  22
ENDBRANCH  20  21
ENDBRANCH  19  20
ENDBRANCH  18  19
ENDBRANCH  17  18
ENDBRANCH  16  17
ENDBRANCH  15  16
ENDBRANCH  14  15
ENDBRANCH  13  14
ENDBRANCH   1  13
TORSDOF 20
ENDMDL
MODEL 6
REMARK VINA RESULT:    -5.294      2.168      4.314
REMARK INTER + INTRA:         -13.818
REMARK INTER:                 -11.389
REMARK INTRA:                  -2.429
REMARK UNBOUND:                -2.335
REMARK SMILES CCCCCCCCCCCCCCCCCCCCCC(=O)[O-]
REMARK SMILES IDX 12 1 11 2 10 3 9 4 8 5 7 6 6 7 5 8 4 9 3 10 2 11 1 12 13 13
REMARK SMILES IDX 14 14 15 15 16 16 17 17 18 18 19 19 20 20 21 21 22 22 23 23
REMARK SMILES IDX 24 24
REMARK H PARENT
REMARK Flexibility Score: inf
ROOT
ATOM      1  C   UNL     1      11.914  24.457  -9.482  1.00  0.00     0.000 C 
ENDROOT
BRANCH   1   2
ATOM      2  C   UNL     1      11.078  23.634 -10.478  1.00  0.00     0.000 C 
BRANCH   2   3
ATOM      3  C   UNL     1      10.311  22.489  -9.785  1.00  0.00     0.000 C 
BRANCH   3   4
ATOM      4  C   UNL     1       8.792  22.717  -9.724  1.00  0.00    -0.000 C 
BRANCH   4   5
ATOM      5  C   UNL     1       8.384  23.765  -8.675  1.00  0.00    -0.000 C 
BRANCH   5   6
ATOM      6  C   UNL     1       6.863  23.765  -8.402  1.00  0.00    -0.000 C 
BRANCH   6   7
ATOM      7  C   UNL     1       6.491  24.115  -6.947  1.00  0.00    -0.000 C 
BRANCH   7   8
ATOM      8  C   UNL     1       7.556  23.758  -5.896  1.00  0.00    -0.000 C 
BRANCH   8   9
ATOM      9  C   UNL     1       7.414  22.352  -5.277  1.00  0.00    -0.000 C 
BRANCH   9  10
ATOM     10  C   UNL     1       8.763  21.656  -4.989  1.00  0.00    -0.000 C 
BRANCH  10  11
ATOM     11  C   UNL     1       9.765  21.817  -6.142  1.00  0.00    -0.003 C 
ATOM     12  C   UNL     1       9.899  20.525  -6.943  1.00  0.00     0.004 C 
ENDBRANCH  10  11
ENDBRANCH   9  10
ENDBRANCH   8   9
ENDBRANCH   7   8
ENDBRANCH   6   7
ENDBRANCH   5   6
ENDBRANCH   4   5
ENDBRANCH   3   4
ENDBRANCH   2   3
ENDBRANCH   1   2
BRANCH   1  13
ATOM     13  C   UNL     1      12.370  23.636  -8.262  1.00  0.00     0.000 C 
BRANCH  13  14
ATOM     14  C   UNL     1      13.847  23.832  -7.870  1.00  0.00     0.000 C 
BRANCH  14  15
ATOM     15  C   UNL     1      14.550  22.512  -7.506  1.00  0.00     0.000 C 
BRANCH  15  16
ATOM     16  C   UNL     1      16.083  22.603  -7.683  1.00  0.00     0.000 C 
BRANCH  16  17
ATOM     17  C   UNL     1      16.646  24.005  -7.396  1.00  0.00     0.000 C 
BRANCH  17  18
ATOM     18  C   UNL     1      17.148  24.151  -5.950  1.00  0.00     0.000 C 
BRANCH  18  19
ATOM     19  C   UNL     1      16.070  24.680  -4.987  1.00  0.00     0.000 C 
BRANCH  19  20
ATOM     20  C   UNL     1      15.726  23.745  -3.810  1.00  0.00     0.006 C 
BRANCH  20  21
ATOM     21  C   UNL     1      14.297  23.181  -3.837  1.00  0.00     0.053 C 
BRANCH  21  22
ATOM     22  C   UNL     1      13.531  23.513  -2.593  1.00  0.00     0.041 C 
ATOM     23  O   UNL     1      13.539  24.686  -2.134  1.00  0.00    -0.550 OA
ATOM     24  O   UNL     1      12.819  22.521  -1.929  1.00  0.00    -0.550 OA
ENDBRANCH  21  22
ENDBRANCH  20  21
ENDBRANCH  19  20
ENDBRANCH  18  19
ENDBRANCH  17  18
ENDBRANCH  16  17
ENDBRANCH  15  16
ENDBRANCH  14  15
ENDBRANCH  13  14
ENDBRANCH   1  13
TORSDOF 20
ENDMDL
MODEL 7
REMARK VINA RESULT:    -5.279      3.620      7.941
REMARK INTER + INTRA:         -13.787
REMARK INTER:                 -10.939
REMARK INTRA:                  -2.848
REMARK UNBOUND:                -2.335
REMARK SMILES CCCCCCCCCCCCCCCCCCCCCC(=O)[O-]
REMARK SMILES IDX 12 1 11 2 10 3 9 4 8 5 7 6 6 7 5 8 4 9 3 10 2 11 1 12 13 13
REMARK SMILES IDX 14 14 15 15 16 16 17 17 18 18 19 19 20 20 21 21 22 22 23 23
REMARK SMILES IDX 24 24
REMARK H PARENT
REMARK Flexibility Score: inf
ROOT
ATOM      1  C   UNL     1      10.584  23.130 -10.058  1.00  0.00     0.000 C 
ENDROOT
BRANCH   1   2
ATOM      2  C   UNL     1      11.060  24.273  -9.144  1.00  0.00     0.000 C 
BRANCH   2   3
ATOM      3  C   UNL     1      12.599  24.378  -9.101  1.00  0.00     0.000 C 
BRANCH   3   4
ATOM      4  C   UNL     1      13.208  23.912  -7.768  1.00  0.00    -0.000 C 
BRANCH   4   5
ATOM      5  C   UNL     1      13.866  22.525  -7.861  1.00  0.00    -0.000 C 
BRANCH   5   6
ATOM      6  C   UNL     1      15.386  22.574  -7.587  1.00  0.00    -0.000 C 
BRANCH   6   7
ATOM      7  C   UNL     1      15.956  24.004  -7.490  1.00  0.00    -0.000 C 
BRANCH   7   8
ATOM      8  C   UNL     1      16.522  24.389  -6.113  1.00  0.00    -0.000 C 
BRANCH   8   9
ATOM      9  C   UNL     1      15.563  25.199  -5.218  1.00  0.00    -0.000 C 
BRANCH   9  10
ATOM     10  C   UNL     1      15.616  24.805  -3.725  1.00  0.00    -0.000 C 
BRANCH  10  11
ATOM     11  C   UNL     1      15.297  23.319  -3.499  1.00  0.00    -0.003 C 
ATOM     12  C   UNL     1      13.937  22.950  -4.084  1.00  0.00     0.004 C 
ENDBRANCH  10  11
ENDBRANCH   9  10
ENDBRANCH   8   9
ENDBRANCH   7   8
ENDBRANCH   6   7
ENDBRANCH   5   6
ENDBRANCH   4   5
ENDBRANCH   3   4
ENDBRANCH   2   3
ENDBRANCH   1   2
BRANCH   1  13
ATOM     13  C   UNL     1       9.791  22.049  -9.300  1.00  0.00     0.000 C 
BRANCH  13  14
ATOM     14  C   UNL     1      10.645  21.136  -8.401  1.00  0.00     0.000 C 
BRANCH  14  15
ATOM     15  C   UNL     1       9.914  20.708  -7.116  1.00  0.00     0.000 C 
BRANCH  15  16
ATOM     16  C   UNL     1       9.818  21.860  -6.090  1.00  0.00     0.000 C 
BRANCH  16  17
ATOM     17  C   UNL     1       8.625  21.722  -5.130  1.00  0.00     0.000 C 
BRANCH  17  18
ATOM     18  C   UNL     1       7.647  22.905  -5.236  1.00  0.00     0.000 C 
BRANCH  18  19
ATOM     19  C   UNL     1       7.779  23.679  -6.560  1.00  0.00     0.000 C 
BRANCH  19  20
ATOM     20  C   UNL     1       6.519  23.674  -7.451  1.00  0.00     0.006 C 
BRANCH  20  21
ATOM     21  C   UNL     1       6.756  24.147  -8.894  1.00  0.00     0.053 C 
BRANCH  21  22
ATOM     22  C   UNL     1       6.000  23.324  -9.892  1.00  0.00     0.041 C 
ATOM     23  O   UNL     1       6.601  22.797 -10.867  1.00  0.00    -0.550 OA
ATOM     24  O   UNL     1       4.628  23.151  -9.756  1.00  0.00    -0.550 OA
ENDBRANCH  21  22
ENDBRANCH  20  21
ENDBRANCH  19  20
ENDBRANCH  18  19
ENDBRANCH  17  18
ENDBRANCH  16  17
ENDBRANCH  15  16
ENDBRANCH  14  15
ENDBRANCH  13  14
ENDBRANCH   1  13
TORSDOF 20
ENDMDL
MODEL 8
REMARK VINA RESULT:    -5.243      3.464      5.617
REMARK INTER + INTRA:         -13.708
REMARK INTER:                 -11.561
REMARK INTRA:                  -2.147
REMARK UNBOUND:                -2.335
REMARK SMILES CCCCCCCCCCCCCCCCCCCCCC(=O)[O-]
REMARK SMILES IDX 12 1 11 2 10 3 9 4 8 5 7 6 6 7 5 8 4 9 3 10 2 11 1 12 13 13
REMARK SMILES IDX 14 14 15 15 16 16 17 17 18 18 19 19 20 20 21 21 22 22 23 23
REMARK SMILES IDX 24 24
REMARK H PARENT
REMARK Flexibility Score: inf
ROOT
ATOM      1  C   UNL     1      12.025  24.392  -9.434  1.00  0.00     0.000 C 
ENDROOT
BRANCH   1   2
ATOM      2  C   UNL     1      10.627  23.841  -9.102  1.00  0.00     0.000 C 
BRANCH   2   3
ATOM      3  C   UNL     1      10.511  22.332  -9.406  1.00  0.00     0.000 C 
BRANCH   3   4
ATOM      4  C   UNL     1       9.799  21.536  -8.299  1.00  0.00    -0.000 C 
BRANCH   4   5
ATOM      5  C   UNL     1       9.989  22.150  -6.902  1.00  0.00    -0.000 C 
BRANCH   5   6
ATOM      6  C   UNL     1       8.756  21.941  -5.994  1.00  0.00    -0.000 C 
BRANCH   6   7
ATOM      7  C   UNL     1       7.919  23.218  -5.776  1.00  0.00    -0.000 C 
BRANCH   7   8
ATOM      8  C   UNL     1       6.833  23.476  -6.834  1.00  0.00    -0.000 C 
BRANCH   8   9
ATOM      9  C   UNL     1       7.196  24.536  -7.894  1.00  0.00    -0.000 C 
BRANCH   9  10
ATOM     10  C   UNL     1       6.522  24.307  -9.265  1.00  0.00    -0.000 C 
BRANCH  10  11
ATOM     11  C   UNL     1       6.716  22.873  -9.782  1.00  0.00    -0.003 C 
ATOM     12  C   UNL     1       5.450  22.354 -10.459  1.00  0.00     0.004 C 
ENDBRANCH  10  11
ENDBRANCH   9  10
ENDBRANCH   8   9
ENDBRANCH   7   8
ENDBRANCH   6   7
ENDBRANCH   5   6
ENDBRANCH   4   5
ENDBRANCH   3   4
ENDBRANCH   2   3
ENDBRANCH   1   2
BRANCH   1  13
ATOM     13  C   UNL     1      12.999  24.307  -8.244  1.00  0.00     0.000 C 
BRANCH  13  14
ATOM     14  C   UNL     1      13.499  22.887  -7.921  1.00  0.00     0.000 C 
BRANCH  14  15
ATOM     15  C   UNL     1      13.799  22.682  -6.425  1.00  0.00     0.000 C 
BRANCH  15  16
ATOM     16  C   UNL     1      15.174  23.261  -6.024  1.00  0.00     0.000 C 
BRANCH  16  17
ATOM     17  C   UNL     1      15.135  24.072  -4.718  1.00  0.00     0.000 C 
BRANCH  17  18
ATOM     18  C   UNL     1      14.916  23.183  -3.482  1.00  0.00     0.000 C 
BRANCH  18  19
ATOM     19  C   UNL     1      13.526  23.364  -2.847  1.00  0.00     0.000 C 
BRANCH  19  20
ATOM     20  C   UNL     1      13.506  23.389  -1.305  1.00  0.00     0.006 C 
BRANCH  20  21
ATOM     21  C   UNL     1      13.592  24.794  -0.688  1.00  0.00     0.053 C 
BRANCH  21  22
ATOM     22  C   UNL     1      13.459  24.768   0.804  1.00  0.00     0.041 C 
ATOM     23  O   UNL     1      14.240  25.447   1.524  1.00  0.00    -0.550 OA
ATOM     24  O   UNL     1      12.483  23.982   1.403  1.00  0.00    -0.550 OA
ENDBRANCH  21  22
ENDBRANCH  20  21
ENDBRANCH  19  20
ENDBRANCH  18  19
ENDBRANCH  17  18
ENDBRANCH  16  17
ENDBRANCH  15  16
ENDBRANCH  14  15
ENDBRANCH  13  14
ENDBRANCH   1  13
TORSDOF 20
ENDMDL
MODEL 9
REMARK VINA RESULT:    -5.241      1.879      4.644
REMARK INTER + INTRA:         -13.704
REMARK INTER:                 -10.929
REMARK INTRA:                  -2.775
REMARK UNBOUND:                -2.335
REMARK SMILES CCCCCCCCCCCCCCCCCCCCCC(=O)[O-]
REMARK SMILES IDX 12 1 11 2 10 3 9 4 8 5 7 6 6 7 5 8 4 9 3 10 2 11 1 12 13 13
REMARK SMILES IDX 14 14 15 15 16 16 17 17 18 18 19 19 20 20 21 21 22 22 23 23
REMARK SMILES IDX 24 24
REMARK H PARENT
REMARK Flexibility Score: inf
ROOT
ATOM      1  C   UNL     1      11.933  24.586  -9.375  1.00  0.00     0.000 C 
ENDROOT
BRANCH   1   2
ATOM      2  C   UNL     1      11.260  23.292  -9.866  1.00  0.00     0.000 C 
BRANCH   2   3
ATOM      3  C   UNL     1       9.800  23.177  -9.381  1.00  0.00     0.000 C 
BRANCH   3   4
ATOM      4  C   UNL     1       9.373  21.736  -9.055  1.00  0.00    -0.000 C 
BRANCH   4   5
ATOM      5  C   UNL     1       9.843  21.269  -7.668  1.00  0.00    -0.000 C 
BRANCH   5   6
ATOM      6  C   UNL     1       9.612  22.338  -6.577  1.00  0.00    -0.000 C 
BRANCH   6   7
ATOM      7  C   UNL     1       8.308  22.142  -5.778  1.00  0.00    -0.000 C 
BRANCH   7   8
ATOM      8  C   UNL     1       7.420  23.392  -5.658  1.00  0.00    -0.000 C 
BRANCH   8   9
ATOM      9  C   UNL     1       7.128  24.113  -6.990  1.00  0.00    -0.000 C 
BRANCH   9  10
ATOM     10  C   UNL     1       6.091  23.390  -7.878  1.00  0.00    -0.000 C 
BRANCH  10  11
ATOM     11  C   UNL     1       6.192  23.805  -9.354  1.00  0.00    -0.003 C 
ATOM     12  C   UNL     1       5.946  22.617 -10.281  1.00  0.00     0.004 C 
ENDBRANCH  10  11
ENDBRANCH   9  10
ENDBRANCH   8   9
ENDBRANCH   7   8
ENDBRANCH   6   7
ENDBRANCH   5   6
ENDBRANCH   4   5
ENDBRANCH   3   4
ENDBRANCH   2   3
ENDBRANCH   1   2
BRANCH   1  13
ATOM     13  C   UNL     1      12.956  24.339  -8.252  1.00  0.00     0.000 C 
BRANCH  13  14
ATOM     14  C   UNL     1      13.286  22.857  -7.996  1.00  0.00     0.000 C 
BRANCH  14  15
ATOM     15  C   UNL     1      13.258  22.486  -6.502  1.00  0.00     0.000 C 
BRANCH  15  16
ATOM     16  C   UNL     1      14.554  22.907  -5.774  1.00  0.00     0.000 C 
BRANCH  16  17
ATOM     17  C   UNL     1      15.762  23.049  -6.716  1.00  0.00     0.000 C 
BRANCH  17  18
ATOM     18  C   UNL     1      16.377  24.458  -6.672  1.00  0.00     0.000 C 
BRANCH  18  19
ATOM     19  C   UNL     1      15.629  25.414  -5.725  1.00  0.00     0.000 C 
BRANCH  19  20
ATOM     20  C   UNL     1      16.413  25.837  -4.466  1.00  0.00     0.006 C 
BRANCH  20  21
ATOM     21  C   UNL     1      15.542  26.381  -3.323  1.00  0.00     0.053 C 
BRANCH  21  22
ATOM     22  C   UNL     1      15.021  25.290  -2.437  1.00  0.00     0.041 C 
ATOM     23  O   UNL     1      13.827  24.900  -2.544  1.00  0.00    -0.550 OA
ATOM     24  O   UNL     1      15.849  24.714  -1.482  1.00  0.00    -0.550 OA
ENDBRANCH  21  22
ENDBRANCH  20  21
ENDBRANCH  19  20
ENDBRANCH  18  19
ENDBRANCH  17  18
ENDBRANCH  16  17
ENDBRANCH  15  16
ENDBRANCH  14  15
ENDBRANCH  13  14
ENDBRANCH   1  13
TORSDOF 20
ENDMDL
