MODEL 1
REMARK VINA RESULT:    -5.784      0.000      0.000
REMARK INTER + INTRA:          -7.035
REMARK INTER:                  -6.799
REMARK INTRA:                  -0.236
REMARK UNBOUND:                -0.236
REMARK SMILES O=c1c(O)c(-c2ccc(O)cc2)oc2cc(O)cc(O)c12
REMARK SMILES IDX 5 1 3 2 2 3 1 4 21 5 19 6 18 7 16 8 15 9 14 10 13 11 6 12
REMARK SMILES IDX 7 13 8 14 9 15 12 16 11 17 10 18 4 20 20 22 17 24
REMARK H PARENT 10 19 4 21 20 23 17 25
REMARK Flexibility Score: inf
ROOT
ATOM      1  C   UNL     1      23.207   5.400 -22.334  1.00  0.00     0.180 A 
ATOM      2  C   UNL     1      24.328   5.507 -23.180  1.00  0.00     0.208 A 
ATOM      3  C   UNL     1      24.350   4.768 -24.373  1.00  0.00     0.238 A 
ATOM      4  O   UNL     1      25.353   4.848 -25.134  1.00  0.00    -0.285 OA
ATOM      5  C   UNL     1      23.249   3.954 -24.709  1.00  0.00     0.111 A 
ATOM      6  C   UNL     1      23.191   3.180 -25.894  1.00  0.00     0.134 A 
ATOM      7  C   UNL     1      22.054   2.402 -26.161  1.00  0.00     0.093 A 
ATOM      8  C   UNL     1      20.979   2.382 -25.271  1.00  0.00     0.123 A 
ATOM      9  C   UNL     1      21.031   3.143 -24.099  1.00  0.00     0.094 A 
ATOM     10  C   UNL     1      22.155   3.924 -23.813  1.00  0.00     0.146 A 
ATOM     11  O   UNL     1      22.181   4.634 -22.691  1.00  0.00    -0.452 OA
ENDROOT
BRANCH   1  12
ATOM     12  C   UNL     1      23.118   6.132 -21.050  1.00  0.00     0.021 A 
ATOM     13  C   UNL     1      22.808   7.502 -21.057  1.00  0.00     0.016 A 
ATOM     14  C   UNL     1      22.697   8.209 -19.855  1.00  0.00     0.047 A 
ATOM     15  C   UNL     1      22.879   7.551 -18.632  1.00  0.00     0.115 A 
ATOM     16  C   UNL     1      23.279   5.474 -19.818  1.00  0.00     0.016 A 
ATOM     17  C   UNL     1      23.168   6.183 -18.618  1.00  0.00     0.047 A 
BRANCH  15  18
ATOM     18  O   UNL     1      22.771   8.245 -17.430  1.00  0.00    -0.508 OA
ATOM     19  H   UNL     1      23.560   8.740 -17.031  1.00  0.00     0.293 HD
ENDBRANCH  15  18
ENDBRANCH   1  12
BRANCH   2  20
ATOM     20  O   UNL     1      25.385   6.360 -22.849  1.00  0.00    -0.502 OA
ATOM     21  H   UNL     1      25.463   6.799 -21.939  1.00  0.00     0.293 HD
ENDBRANCH   2  20
BRANCH   6  22
ATOM     22  O   UNL     1      24.249   3.180 -26.804  1.00  0.00    -0.507 OA
ATOM     23  H   UNL     1      24.992   2.493 -26.756  1.00  0.00     0.293 HD
ENDBRANCH   6  22
BRANCH   8  24
ATOM     24  O   UNL     1      19.862   1.601 -25.561  1.00  0.00    -0.508 OA
ATOM     25  H   UNL     1      19.036   1.619 -24.974  1.00  0.00     0.293 HD
ENDBRANCH   8  24
TORSDOF 5
ENDMDL
MODEL 2
REMARK VINA RESULT:    -5.563     15.640     16.737
REMARK INTER + INTRA:          -6.775
REMARK INTER:                  -6.494
REMARK INTRA:                  -0.282
REMARK UNBOUND:                -0.236
REMARK SMILES O=c1c(O)c(-c2ccc(O)cc2)oc2cc(O)cc(O)c12
REMARK SMILES IDX 5 1 3 2 2 3 1 4 21 5 19 6 18 7 16 8 15 9 14 10 13 11 6 12
REMARK SMILES IDX 7 13 8 14 9 15 12 16 11 17 10 18 4 20 20 22 17 24
REMARK H PARENT 10 19 4 21 20 23 17 25
REMARK Flexibility Score: inf
ROOT
ATOM      1  C   UNL     1      31.677  -8.425 -27.247  1.00  0.00     0.180 A 
ATOM      2  C   UNL     1      32.841  -8.489 -28.036  1.00  0.00     0.208 A 
ATOM      3  C   UNL     1      32.727  -8.343 -29.428  1.00  0.00     0.238 A 
ATOM      4  O   UNL     1      33.762  -8.408 -30.145  1.00  0.00    -0.285 OA
ATOM      5  C   UNL     1      31.459  -8.115 -30.002  1.00  0.00     0.111 A 
ATOM      6  C   UNL     1      31.259  -7.954 -31.395  1.00  0.00     0.134 A 
ATOM      7  C   UNL     1      29.966  -7.721 -31.888  1.00  0.00     0.093 A 
ATOM      8  C   UNL     1      28.875  -7.648 -31.021  1.00  0.00     0.123 A 
ATOM      9  C   UNL     1      29.066  -7.807 -29.645  1.00  0.00     0.094 A 
ATOM     10  C   UNL     1      30.346  -8.041 -29.133  1.00  0.00     0.146 A 
ATOM     11  O   UNL     1      30.500  -8.195 -27.823  1.00  0.00    -0.452 OA
ENDROOT
BRANCH   1  12
ATOM     12  C   UNL     1      31.713  -8.589 -25.776  1.00  0.00     0.021 A 
ATOM     13  C   UNL     1      31.510  -9.862 -25.218  1.00  0.00     0.016 A 
ATOM     14  C   UNL     1      31.561 -10.045 -23.833  1.00  0.00     0.047 A 
ATOM     15  C   UNL     1      31.832  -8.960 -22.989  1.00  0.00     0.115 A 
ATOM     16  C   UNL     1      32.005  -7.508 -24.924  1.00  0.00     0.016 A 
ATOM     17  C   UNL     1      32.056  -7.694 -23.539  1.00  0.00     0.047 A 
BRANCH  15  18
ATOM     18  O   UNL     1      31.886  -9.130 -21.608  1.00  0.00    -0.508 OA
ATOM     19  H   UNL     1      31.106  -9.519 -21.092  1.00  0.00     0.293 HD
ENDBRANCH  15  18
ENDBRANCH   1  12
BRANCH   2  20
ATOM     20  O   UNL     1      34.092  -8.665 -27.437  1.00  0.00    -0.502 OA
ATOM     21  H   UNL     1      34.277  -9.411 -26.777  1.00  0.00     0.293 HD
ENDBRANCH   2  20
BRANCH   6  22
ATOM     22  O   UNL     1      32.329  -8.021 -32.287  1.00  0.00    -0.507 OA
ATOM     23  H   UNL     1      33.291  -7.978 -31.970  1.00  0.00     0.293 HD
ENDBRANCH   6  22
BRANCH   8  24
ATOM     24  O   UNL     1      27.601  -7.415 -31.537  1.00  0.00    -0.508 OA
ATOM     25  H   UNL     1      27.406  -6.614 -32.126  1.00  0.00     0.293 HD
ENDBRANCH   8  24
TORSDOF 5
ENDMDL
MODEL 3
REMARK VINA RESULT:    -5.532      2.889      3.778
REMARK INTER + INTRA:          -6.739
REMARK INTER:                  -6.508
REMARK INTRA:                  -0.231
REMARK UNBOUND:                -0.236
REMARK SMILES O=c1c(O)c(-c2ccc(O)cc2)oc2cc(O)cc(O)c12
REMARK SMILES IDX 5 1 3 2 2 3 1 4 21 5 19 6 18 7 16 8 15 9 14 10 13 11 6 12
REMARK SMILES IDX 7 13 8 14 9 15 12 16 11 17 10 18 4 20 20 22 17 24
REMARK H PARENT 10 19 4 21 20 23 17 25
REMARK Flexibility Score: inf
ROOT
ATOM      1  C   UNL     1      24.578   7.407 -22.103  1.00  0.00     0.180 A 
ATOM      2  C   UNL     1      25.838   8.030 -22.192  1.00  0.00     0.208 A 
ATOM      3  C   UNL     1      26.509   8.031 -23.425  1.00  0.00     0.238 A 
ATOM      4  O   UNL     1      27.642   8.578 -23.514  1.00  0.00    -0.285 OA
ATOM      5  C   UNL     1      25.904   7.429 -24.547  1.00  0.00     0.111 A 
ATOM      6  C   UNL     1      26.512   7.390 -25.826  1.00  0.00     0.134 A 
ATOM      7  C   UNL     1      25.841   6.779 -26.896  1.00  0.00     0.093 A 
ATOM      8  C   UNL     1      24.579   6.210 -26.714  1.00  0.00     0.123 A 
ATOM      9  C   UNL     1      23.974   6.244 -25.453  1.00  0.00     0.094 A 
ATOM     10  C   UNL     1      24.627   6.847 -24.374  1.00  0.00     0.146 A 
ATOM     11  O   UNL     1      24.033   6.862 -23.186  1.00  0.00    -0.452 OA
ENDROOT
BRANCH   1  12
ATOM     12  C   UNL     1      23.818   7.348 -20.834  1.00  0.00     0.021 A 
ATOM     13  C   UNL     1      23.140   8.492 -20.380  1.00  0.00     0.016 A 
ATOM     14  C   UNL     1      22.399   8.452 -19.196  1.00  0.00     0.047 A 
ATOM     15  C   UNL     1      22.311   7.264 -18.459  1.00  0.00     0.115 A 
ATOM     16  C   UNL     1      23.709   6.153 -20.099  1.00  0.00     0.016 A 
ATOM     17  C   UNL     1      22.965   6.116 -18.915  1.00  0.00     0.047 A 
BRANCH  15  18
ATOM     18  O   UNL     1      21.575   7.214 -17.278  1.00  0.00    -0.508 OA
ATOM     19  H   UNL     1      21.190   6.344 -16.930  1.00  0.00     0.293 HD
ENDBRANCH  15  18
ENDBRANCH   1  12
BRANCH   2  20
ATOM     20  O   UNL     1      26.393   8.664 -21.076  1.00  0.00    -0.502 OA
ATOM     21  H   UNL     1      27.274   9.163 -21.118  1.00  0.00     0.293 HD
ENDBRANCH   2  20
BRANCH   6  22
ATOM     22  O   UNL     1      27.772   7.951 -26.040  1.00  0.00    -0.507 OA
ATOM     23  H   UNL     1      27.887   8.828 -26.536  1.00  0.00     0.293 HD
ENDBRANCH   6  22
BRANCH   8  24
ATOM     24  O   UNL     1      23.934   5.610 -27.794  1.00  0.00    -0.508 OA
ATOM     25  H   UNL     1      23.445   4.728 -27.696  1.00  0.00     0.293 HD
ENDBRANCH   8  24
TORSDOF 5
ENDMDL
MODEL 4
REMARK VINA RESULT:    -5.289      2.700      6.577
REMARK INTER + INTRA:          -6.453
REMARK INTER:                  -6.224
REMARK INTRA:                  -0.229
REMARK UNBOUND:                -0.236
REMARK SMILES O=c1c(O)c(-c2ccc(O)cc2)oc2cc(O)cc(O)c12
REMARK SMILES IDX 5 1 3 2 2 3 1 4 21 5 19 6 18 7 16 8 15 9 14 10 13 11 6 12
REMARK SMILES IDX 7 13 8 14 9 15 12 16 11 17 10 18 4 20 20 22 17 24
REMARK H PARENT 10 19 4 21 20 23 17 25
REMARK Flexibility Score: inf
ROOT
ATOM      1  C   UNL     1      24.313   5.919 -22.656  1.00  0.00     0.180 A 
ATOM      2  C   UNL     1      24.313   4.579 -22.223  1.00  0.00     0.208 A 
ATOM      3  C   UNL     1      23.877   4.287 -20.921  1.00  0.00     0.238 A 
ATOM      4  O   UNL     1      23.882   3.091 -20.518  1.00  0.00    -0.285 OA
ATOM      5  C   UNL     1      23.430   5.332 -20.085  1.00  0.00     0.111 A 
ATOM      6  C   UNL     1      22.971   5.121 -18.762  1.00  0.00     0.134 A 
ATOM      7  C   UNL     1      22.534   6.213 -17.996  1.00  0.00     0.093 A 
ATOM      8  C   UNL     1      22.547   7.505 -18.525  1.00  0.00     0.123 A 
ATOM      9  C   UNL     1      23.001   7.719 -19.831  1.00  0.00     0.094 A 
ATOM     10  C   UNL     1      23.442   6.645 -20.609  1.00  0.00     0.146 A 
ATOM     11  O   UNL     1      23.872   6.876 -21.845  1.00  0.00    -0.452 OA
ENDROOT
BRANCH   1  12
ATOM     12  C   UNL     1      24.777   6.309 -24.007  1.00  0.00     0.021 A 
ATOM     13  C   UNL     1      26.051   6.881 -24.161  1.00  0.00     0.016 A 
ATOM     14  C   UNL     1      26.518   7.238 -25.430  1.00  0.00     0.047 A 
ATOM     15  C   UNL     1      25.724   7.011 -26.562  1.00  0.00     0.115 A 
ATOM     16  C   UNL     1      23.994   6.065 -25.150  1.00  0.00     0.016 A 
ATOM     17  C   UNL     1      24.464   6.422 -26.418  1.00  0.00     0.047 A 
BRANCH  15  18
ATOM     18  O   UNL     1      26.180   7.361 -27.830  1.00  0.00    -0.508 OA
ATOM     19  H   UNL     1      25.658   7.995 -28.424  1.00  0.00     0.293 HD
ENDBRANCH  15  18
ENDBRANCH   1  12
BRANCH   2  20
ATOM     20  O   UNL     1      24.713   3.556 -23.087  1.00  0.00    -0.502 OA
ATOM     21  H   UNL     1      24.465   2.587 -22.933  1.00  0.00     0.293 HD
ENDBRANCH   2  20
BRANCH   6  22
ATOM     22  O   UNL     1      22.945   3.842 -18.205  1.00  0.00    -0.507 OA
ATOM     23  H   UNL     1      22.073   3.378 -17.977  1.00  0.00     0.293 HD
ENDBRANCH   6  22
BRANCH   8  24
ATOM     24  O   UNL     1      22.107   8.572 -17.743  1.00  0.00    -0.508 OA
ATOM     25  H   UNL     1      22.117   9.523 -18.092  1.00  0.00     0.293 HD
ENDBRANCH   8  24
TORSDOF 5
ENDMDL
MODEL 5
REMARK VINA RESULT:    -5.237     12.193     15.237
REMARK INTER + INTRA:          -6.392
REMARK INTER:                  -6.181
REMARK INTRA:                  -0.211
REMARK UNBOUND:                -0.236
REMARK SMILES O=c1c(O)c(-c2ccc(O)cc2)oc2cc(O)cc(O)c12
REMARK SMILES IDX 5 1 3 2 2 3 1 4 21 5 19 6 18 7 16 8 15 9 14 10 13 11 6 12
REMARK SMILES IDX 7 13 8 14 9 15 12 16 11 17 10 18 4 20 20 22 17 24
REMARK H PARENT 10 19 4 21 20 23 17 25
REMARK Flexibility Score: inf
ROOT
ATOM      1  C   UNL     1      28.023  -6.980 -28.598  1.00  0.00     0.180 A 
ATOM      2  C   UNL     1      27.946  -7.340 -29.958  1.00  0.00     0.208 A 
ATOM      3  C   UNL     1      29.120  -7.718 -30.627  1.00  0.00     0.238 A 
ATOM      4  O   UNL     1      29.065  -8.033 -31.847  1.00  0.00    -0.285 OA
ATOM      5  C   UNL     1      30.343  -7.751 -29.925  1.00  0.00     0.111 A 
ATOM      6  C   UNL     1      31.570  -8.125 -30.524  1.00  0.00     0.134 A 
ATOM      7  C   UNL     1      32.743  -8.141 -29.755  1.00  0.00     0.093 A 
ATOM      8  C   UNL     1      32.713  -7.792 -28.403  1.00  0.00     0.123 A 
ATOM      9  C   UNL     1      31.504  -7.421 -27.805  1.00  0.00     0.094 A 
ATOM     10  C   UNL     1      30.325  -7.397 -28.556  1.00  0.00     0.146 A 
ATOM     11  O   UNL     1      29.191  -7.037 -27.965  1.00  0.00    -0.452 OA
ENDROOT
BRANCH   1  12
ATOM     12  C   UNL     1      26.833  -6.551 -27.829  1.00  0.00     0.021 A 
ATOM     13  C   UNL     1      26.347  -7.367 -26.795  1.00  0.00     0.016 A 
ATOM     14  C   UNL     1      25.237  -6.971 -26.042  1.00  0.00     0.047 A 
ATOM     15  C   UNL     1      24.610  -5.747 -26.303  1.00  0.00     0.115 A 
ATOM     16  C   UNL     1      26.210  -5.313 -28.072  1.00  0.00     0.016 A 
ATOM     17  C   UNL     1      25.101  -4.919 -27.317  1.00  0.00     0.047 A 
BRANCH  15  18
ATOM     18  O   UNL     1      23.504  -5.342 -25.559  1.00  0.00    -0.508 OA
ATOM     19  H   UNL     1      23.176  -5.878 -24.765  1.00  0.00     0.293 HD
ENDBRANCH  15  18
ENDBRANCH   1  12
BRANCH   2  20
ATOM     20  O   UNL     1      26.714  -7.347 -30.618  1.00  0.00    -0.502 OA
ATOM     21  H   UNL     1      26.171  -8.193 -30.745  1.00  0.00     0.293 HD
ENDBRANCH   2  20
BRANCH   6  22
ATOM     22  O   UNL     1      31.632  -8.479 -31.872  1.00  0.00    -0.507 OA
ATOM     23  H   UNL     1      32.298  -8.051 -32.506  1.00  0.00     0.293 HD
ENDBRANCH   6  22
BRANCH   8  24
ATOM     24  O   UNL     1      33.893  -7.817 -27.661  1.00  0.00    -0.508 OA
ATOM     25  H   UNL     1      34.469  -8.649 -27.609  1.00  0.00     0.293 HD
ENDBRANCH   8  24
TORSDOF 5
ENDMDL
MODEL 6
REMARK VINA RESULT:    -5.207     10.254     13.205
REMARK INTER + INTRA:          -6.357
REMARK INTER:                  -6.249
REMARK INTRA:                  -0.108
REMARK UNBOUND:                -0.236
REMARK SMILES O=c1c(O)c(-c2ccc(O)cc2)oc2cc(O)cc(O)c12
REMARK SMILES IDX 5 1 3 2 2 3 1 4 21 5 19 6 18 7 16 8 15 9 14 10 13 11 6 12
REMARK SMILES IDX 7 13 8 14 9 15 12 16 11 17 10 18 4 20 20 22 17 24
REMARK H PARENT 10 19 4 21 20 23 17 25
REMARK Flexibility Score: inf
ROOT
ATOM      1  C   UNL     1      26.700  -5.096 -28.628  1.00  0.00     0.180 A 
ATOM      2  C   UNL     1      27.740  -4.151 -28.716  1.00  0.00     0.208 A 
ATOM      3  C   UNL     1      28.845  -4.433 -29.534  1.00  0.00     0.238 A 
ATOM      4  O   UNL     1      29.788  -3.598 -29.613  1.00  0.00    -0.285 OA
ATOM      5  C   UNL     1      28.882  -5.639 -30.263  1.00  0.00     0.111 A 
ATOM      6  C   UNL     1      29.957  -5.997 -31.113  1.00  0.00     0.134 A 
ATOM      7  C   UNL     1      29.915  -7.213 -31.812  1.00  0.00     0.093 A 
ATOM      8  C   UNL     1      28.825  -8.074 -31.680  1.00  0.00     0.123 A 
ATOM      9  C   UNL     1      27.760  -7.726 -30.841  1.00  0.00     0.094 A 
ATOM     10  C   UNL     1      27.784  -6.520 -30.134  1.00  0.00     0.146 A 
ATOM     11  O   UNL     1      26.762  -6.216 -29.341  1.00  0.00    -0.452 OA
ENDROOT
BRANCH   1  12
ATOM     12  C   UNL     1      25.511  -4.880 -27.772  1.00  0.00     0.021 A 
ATOM     13  C   UNL     1      24.633  -3.823 -28.063  1.00  0.00     0.016 A 
ATOM     14  C   UNL     1      23.493  -3.614 -27.280  1.00  0.00     0.047 A 
ATOM     15  C   UNL     1      23.209  -4.468 -26.208  1.00  0.00     0.115 A 
ATOM     16  C   UNL     1      25.209  -5.746 -26.705  1.00  0.00     0.016 A 
ATOM     17  C   UNL     1      24.067  -5.535 -25.925  1.00  0.00     0.047 A 
BRANCH  15  18
ATOM     18  O   UNL     1      22.076  -4.269 -25.422  1.00  0.00    -0.508 OA
ATOM     19  H   UNL     1      21.501  -5.044 -25.116  1.00  0.00     0.293 HD
ENDBRANCH  15  18
ENDBRANCH   1  12
BRANCH   2  20
ATOM     20  O   UNL     1      27.656  -2.940 -28.023  1.00  0.00    -0.502 OA
ATOM     21  H   UNL     1      27.804  -2.045 -28.473  1.00  0.00     0.293 HD
ENDBRANCH   2  20
BRANCH   6  22
ATOM     22  O   UNL     1      31.061  -5.158 -31.267  1.00  0.00    -0.507 OA
ATOM     23  H   UNL     1      31.995  -5.451 -31.002  1.00  0.00     0.293 HD
ENDBRANCH   6  22
BRANCH   8  24
ATOM     24  O   UNL     1      28.807  -9.275 -32.386  1.00  0.00    -0.508 OA
ATOM     25  H   UNL     1      27.965  -9.833 -32.463  1.00  0.00     0.293 HD
ENDBRANCH   8  24
TORSDOF 5
ENDMDL
MODEL 7
REMARK VINA RESULT:    -5.129     15.305     16.832
REMARK INTER + INTRA:          -6.265
REMARK INTER:                  -6.066
REMARK INTRA:                  -0.199
REMARK UNBOUND:                -0.236
REMARK SMILES O=c1c(O)c(-c2ccc(O)cc2)oc2cc(O)cc(O)c12
REMARK SMILES IDX 5 1 3 2 2 3 1 4 21 5 19 6 18 7 16 8 15 9 14 10 13 11 6 12
REMARK SMILES IDX 7 13 8 14 9 15 12 16 11 17 10 18 4 20 20 22 17 24
REMARK H PARENT 10 19 4 21 20 23 17 25
REMARK Flexibility Score: inf
ROOT
ATOM      1  C   UNL     1      31.499  -8.119 -27.320  1.00  0.00     0.180 A 
ATOM      2  C   UNL     1      30.229  -7.546 -27.525  1.00  0.00     0.208 A 
ATOM      3  C   UNL     1      29.855  -7.175 -28.827  1.00  0.00     0.238 A 
ATOM      4  O   UNL     1      28.723  -6.652 -29.021  1.00  0.00    -0.285 OA
ATOM      5  C   UNL     1      30.743  -7.401 -29.898  1.00  0.00     0.111 A 
ATOM      6  C   UNL     1      30.441  -7.060 -31.239  1.00  0.00     0.134 A 
ATOM      7  C   UNL     1      31.375  -7.326 -32.251  1.00  0.00     0.093 A 
ATOM      8  C   UNL     1      32.601  -7.923 -31.951  1.00  0.00     0.123 A 
ATOM      9  C   UNL     1      32.906  -8.262 -30.628  1.00  0.00     0.094 A 
ATOM     10  C   UNL     1      31.988  -8.004 -29.605  1.00  0.00     0.146 A 
ATOM     11  O   UNL     1      32.304  -8.330 -28.357  1.00  0.00    -0.452 OA
ENDROOT
BRANCH   1  12
ATOM     12  C   UNL     1      31.974  -8.518 -25.975  1.00  0.00     0.021 A 
ATOM     13  C   UNL     1      32.942  -7.735 -25.324  1.00  0.00     0.016 A 
ATOM     14  C   UNL     1      33.389  -8.081 -24.046  1.00  0.00     0.047 A 
ATOM     15  C   UNL     1      32.862  -9.204 -23.395  1.00  0.00     0.115 A 
ATOM     16  C   UNL     1      31.434  -9.632 -25.307  1.00  0.00     0.016 A 
ATOM     17  C   UNL     1      31.883  -9.975 -24.028  1.00  0.00     0.047 A 
BRANCH  15  18
ATOM     18  O   UNL     1      33.300  -9.557 -22.121  1.00  0.00    -0.508 OA
ATOM     19  H   UNL     1      32.672  -9.561 -21.327  1.00  0.00     0.293 HD
ENDBRANCH  15  18
ENDBRANCH   1  12
BRANCH   2  20
ATOM     20  O   UNL     1      29.347  -7.379 -26.454  1.00  0.00    -0.502 OA
ATOM     21  H   UNL     1      28.505  -6.821 -26.527  1.00  0.00     0.293 HD
ENDBRANCH   2  20
BRANCH   6  22
ATOM     22  O   UNL     1      29.224  -6.463 -31.572  1.00  0.00    -0.507 OA
ATOM     23  H   UNL     1      28.515  -6.274 -30.872  1.00  0.00     0.293 HD
ENDBRANCH   6  22
BRANCH   8  24
ATOM     24  O   UNL     1      33.511  -8.177 -32.975  1.00  0.00    -0.508 OA
ATOM     25  H   UNL     1      34.505  -8.025 -32.851  1.00  0.00     0.293 HD
ENDBRANCH   8  24
TORSDOF 5
ENDMDL
MODEL 8
REMARK VINA RESULT:    -4.948      1.784      3.837
REMARK INTER + INTRA:          -6.052
REMARK INTER:                  -5.844
REMARK INTRA:                  -0.208
REMARK UNBOUND:                -0.236
REMARK SMILES O=c1c(O)c(-c2ccc(O)cc2)oc2cc(O)cc(O)c12
REMARK SMILES IDX 5 1 3 2 2 3 1 4 21 5 19 6 18 7 16 8 15 9 14 10 13 11 6 12
REMARK SMILES IDX 7 13 8 14 9 15 12 16 11 17 10 18 4 20 20 22 17 24
REMARK H PARENT 10 19 4 21 20 23 17 25
REMARK Flexibility Score: inf
ROOT
ATOM      1  C   UNL     1      24.033   5.784 -22.279  1.00  0.00     0.180 A 
ATOM      2  C   UNL     1      23.302   4.887 -23.083  1.00  0.00     0.208 A 
ATOM      3  C   UNL     1      23.856   4.463 -24.301  1.00  0.00     0.238 A 
ATOM      4  O   UNL     1      23.206   3.667 -25.034  1.00  0.00    -0.285 OA
ATOM      5  C   UNL     1      25.133   4.923 -24.684  1.00  0.00     0.111 A 
ATOM      6  C   UNL     1      25.762   4.541 -25.893  1.00  0.00     0.134 A 
ATOM      7  C   UNL     1      27.039   5.036 -26.199  1.00  0.00     0.093 A 
ATOM      8  C   UNL     1      27.696   5.902 -25.323  1.00  0.00     0.123 A 
ATOM      9  C   UNL     1      27.079   6.284 -24.127  1.00  0.00     0.094 A 
ATOM     10  C   UNL     1      25.806   5.803 -23.806  1.00  0.00     0.146 A 
ATOM     11  O   UNL     1      25.240   6.185 -22.666  1.00  0.00    -0.452 OA
ENDROOT
BRANCH   1  12
ATOM     12  C   UNL     1      23.508   6.292 -20.991  1.00  0.00     0.021 A 
ATOM     13  C   UNL     1      23.026   7.609 -20.914  1.00  0.00     0.016 A 
ATOM     14  C   UNL     1      22.506   8.104 -19.713  1.00  0.00     0.047 A 
ATOM     15  C   UNL     1      22.448   7.282 -18.580  1.00  0.00     0.115 A 
ATOM     16  C   UNL     1      23.427   5.467 -19.855  1.00  0.00     0.016 A 
ATOM     17  C   UNL     1      22.906   5.963 -18.656  1.00  0.00     0.047 A 
BRANCH  15  18
ATOM     18  O   UNL     1      21.932   7.764 -17.380  1.00  0.00    -0.508 OA
ATOM     19  H   UNL     1      22.368   7.549 -16.491  1.00  0.00     0.293 HD
ENDBRANCH  15  18
ENDBRANCH   1  12
BRANCH   2  20
ATOM     20  O   UNL     1      22.061   4.406 -22.657  1.00  0.00    -0.502 OA
ATOM     21  H   UNL     1      21.702   3.503 -22.942  1.00  0.00     0.293 HD
ENDBRANCH   2  20
BRANCH   6  22
ATOM     22  O   UNL     1      25.132   3.676 -26.789  1.00  0.00    -0.507 OA
ATOM     23  H   UNL     1      25.661   3.048 -27.385  1.00  0.00     0.293 HD
ENDBRANCH   6  22
BRANCH   8  24
ATOM     24  O   UNL     1      28.964   6.379 -25.650  1.00  0.00    -0.508 OA
ATOM     25  H   UNL     1      29.385   6.190 -26.552  1.00  0.00     0.293 HD
ENDBRANCH   8  24
TORSDOF 5
ENDMDL
MODEL 9
REMARK VINA RESULT:    -4.832      2.014      2.816
REMARK INTER + INTRA:          -5.915
REMARK INTER:                  -6.109
REMARK INTRA:                   0.193
REMARK UNBOUND:                -0.236
REMARK SMILES O=c1c(O)c(-c2ccc(O)cc2)oc2cc(O)cc(O)c12
REMARK SMILES IDX 5 1 3 2 2 3 1 4 21 5 19 6 18 7 16 8 15 9 14 10 13 11 6 12
REMARK SMILES IDX 7 13 8 14 9 15 12 16 11 17 10 18 4 20 20 22 17 24
REMARK H PARENT 10 19 4 21 20 23 17 25
REMARK Flexibility Score: inf
ROOT
ATOM      1  C   UNL     1      23.821   5.603 -21.537  1.00  0.00     0.180 A 
ATOM      2  C   UNL     1      23.856   4.200 -21.417  1.00  0.00     0.208 A 
ATOM      3  C   UNL     1      23.962   3.422 -22.581  1.00  0.00     0.238 A 
ATOM      4  O   UNL     1      23.985   2.164 -22.487  1.00  0.00    -0.285 OA
ATOM      5  C   UNL     1      24.052   4.056 -23.838  1.00  0.00     0.111 A 
ATOM      6  C   UNL     1      24.165   3.345 -25.057  1.00  0.00     0.134 A 
ATOM      7  C   UNL     1      24.259   4.050 -26.266  1.00  0.00     0.093 A 
ATOM      8  C   UNL     1      24.242   5.446 -26.280  1.00  0.00     0.123 A 
ATOM      9  C   UNL     1      24.129   6.154 -25.079  1.00  0.00     0.094 A 
ATOM     10  C   UNL     1      24.033   5.470 -23.864  1.00  0.00     0.146 A 
ATOM     11  O   UNL     1      23.922   6.166 -22.738  1.00  0.00    -0.452 OA
ENDROOT
BRANCH   1  12
ATOM     12  C   UNL     1      23.690   6.490 -20.360  1.00  0.00     0.021 A 
ATOM     13  C   UNL     1      24.323   7.744 -20.365  1.00  0.00     0.016 A 
ATOM     14  C   UNL     1      24.195   8.607 -19.273  1.00  0.00     0.047 A 
ATOM     15  C   UNL     1      23.420   8.233 -18.168  1.00  0.00     0.115 A 
ATOM     16  C   UNL     1      22.896   6.130 -19.255  1.00  0.00     0.016 A 
ATOM     17  C   UNL     1      22.769   6.996 -18.164  1.00  0.00     0.047 A 
BRANCH  15  18
ATOM     18  O   UNL     1      23.286   9.085 -17.074  1.00  0.00    -0.508 OA
ATOM     19  H   UNL     1      22.861   8.774 -16.209  1.00  0.00     0.293 HD
ENDBRANCH  15  18
ENDBRANCH   1  12
BRANCH   2  20
ATOM     20  O   UNL     1      23.816   3.597 -20.157  1.00  0.00    -0.502 OA
ATOM     21  H   UNL     1      24.655   3.372 -19.637  1.00  0.00     0.293 HD
ENDBRANCH   2  20
BRANCH   6  22
ATOM     22  O   UNL     1      24.186   1.950 -25.076  1.00  0.00    -0.507 OA
ATOM     23  H   UNL     1      23.384   1.410 -25.379  1.00  0.00     0.293 HD
ENDBRANCH   6  22
BRANCH   8  24
ATOM     24  O   UNL     1      24.337   6.122 -27.495  1.00  0.00    -0.508 OA
ATOM     25  H   UNL     1      23.661   5.979 -28.236  1.00  0.00     0.293 HD
ENDBRANCH   8  24
TORSDOF 5
ENDMDL
