MODEL 1
REMARK VINA RESULT:    -6.763      0.000      0.000
REMARK INTER + INTRA:          -8.233
REMARK INTER:                  -7.949
REMARK INTRA:                  -0.284
REMARK UNBOUND:                -0.284
REMARK SMILES O=c1c(O)c(-c2ccc(O)cc2)oc2cc(O)cc(O)c12
REMARK SMILES IDX 5 1 3 2 2 3 1 4 21 5 19 6 18 7 16 8 15 9 14 10 13 11 6 12
REMARK SMILES IDX 7 13 8 14 9 15 12 16 11 17 10 18 4 20 20 22 17 24
REMARK H PARENT 10 19 4 21 20 23 17 25
REMARK Flexibility Score: inf
ROOT
ATOM      1  C   UNL     1      -2.029  -4.761  -4.422  1.00  0.00     0.180 A 
ATOM      2  C   UNL     1      -3.252  -5.441  -4.555  1.00  0.00     0.208 A 
ATOM      3  C   UNL     1      -4.425  -4.699  -4.766  1.00  0.00     0.238 A 
ATOM      4  O   UNL     1      -5.507  -5.316  -4.940  1.00  0.00    -0.285 OA
ATOM      5  C   UNL     1      -4.363  -3.285  -4.823  1.00  0.00     0.111 A 
ATOM      6  C   UNL     1      -5.495  -2.432  -4.991  1.00  0.00     0.134 A 
ATOM      7  C   UNL     1      -5.302  -1.056  -5.164  1.00  0.00     0.093 A 
ATOM      8  C   UNL     1      -4.023  -0.496  -5.109  1.00  0.00     0.123 A 
ATOM      9  C   UNL     1      -2.918  -1.313  -4.886  1.00  0.00     0.094 A 
ATOM     10  C   UNL     1      -3.076  -2.694  -4.746  1.00  0.00     0.146 A 
ATOM     11  O   UNL     1      -1.995  -3.439  -4.545  1.00  0.00    -0.452 OA
ENDROOT
BRANCH   1  12
ATOM     12  C   UNL     1      -0.754  -5.472  -4.172  1.00  0.00     0.021 A 
ATOM     13  C   UNL     1      -0.402  -5.820  -2.857  1.00  0.00     0.016 A 
ATOM     14  C   UNL     1       0.787  -6.511  -2.601  1.00  0.00     0.047 A 
ATOM     15  C   UNL     1       1.629  -6.875  -3.658  1.00  0.00     0.115 A 
ATOM     16  C   UNL     1       0.089  -5.860  -5.230  1.00  0.00     0.016 A 
ATOM     17  C   UNL     1       1.276  -6.551  -4.971  1.00  0.00     0.047 A 
BRANCH  15  18
ATOM     18  O   UNL     1       2.817  -7.564  -3.415  1.00  0.00    -0.508 OA
ATOM     19  H   UNL     1       2.818  -8.483  -2.989  1.00  0.00     0.293 HD
ENDBRANCH  15  18
ENDBRANCH   1  12
BRANCH   2  20
ATOM     20  O   UNL     1      -3.286  -6.839  -4.518  1.00  0.00    -0.502 OA
ATOM     21  H   UNL     1      -2.523  -7.410  -4.860  1.00  0.00     0.293 HD
ENDBRANCH   2  20
BRANCH   6  22
ATOM     22  O   UNL     1      -6.819  -2.878  -4.968  1.00  0.00    -0.507 OA
ATOM     23  H   UNL     1      -7.387  -2.954  -4.138  1.00  0.00     0.293 HD
ENDBRANCH   6  22
BRANCH   8  24
ATOM     24  O   UNL     1      -3.841   0.877  -5.266  1.00  0.00    -0.508 OA
ATOM     25  H   UNL     1      -4.628   1.507  -5.375  1.00  0.00     0.293 HD
ENDBRANCH   8  24
TORSDOF 5
ENDMDL
MODEL 2
REMARK VINA RESULT:    -6.759      0.445      1.143
REMARK INTER + INTRA:          -8.228
REMARK INTER:                  -7.943
REMARK INTRA:                  -0.285
REMARK UNBOUND:                -0.284
REMARK SMILES O=c1c(O)c(-c2ccc(O)cc2)oc2cc(O)cc(O)c12
REMARK SMILES IDX 5 1 3 2 2 3 1 4 21 5 19 6 18 7 16 8 15 9 14 10 13 11 6 12
REMARK SMILES IDX 7 13 8 14 9 15 12 16 11 17 10 18 4 20 20 22 17 24
REMARK H PARENT 10 19 4 21 20 23 17 25
REMARK Flexibility Score: inf
ROOT
ATOM      1  C   UNL     1      -2.384  -4.519  -4.466  1.00  0.00     0.180 A 
ATOM      2  C   UNL     1      -3.607  -5.192  -4.632  1.00  0.00     0.208 A 
ATOM      3  C   UNL     1      -4.776  -4.440  -4.833  1.00  0.00     0.238 A 
ATOM      4  O   UNL     1      -5.858  -5.049  -5.036  1.00  0.00    -0.285 OA
ATOM      5  C   UNL     1      -4.710  -3.026  -4.848  1.00  0.00     0.111 A 
ATOM      6  C   UNL     1      -5.838  -2.165  -5.003  1.00  0.00     0.134 A 
ATOM      7  C   UNL     1      -5.639  -0.785  -5.134  1.00  0.00     0.093 A 
ATOM      8  C   UNL     1      -4.360  -0.230  -5.050  1.00  0.00     0.123 A 
ATOM      9  C   UNL     1      -3.259  -1.057  -4.839  1.00  0.00     0.094 A 
ATOM     10  C   UNL     1      -3.422  -2.441  -4.741  1.00  0.00     0.146 A 
ATOM     11  O   UNL     1      -2.345  -3.194  -4.550  1.00  0.00    -0.452 OA
ENDROOT
BRANCH   1  12
ATOM     12  C   UNL     1      -1.114  -5.240  -4.224  1.00  0.00     0.021 A 
ATOM     13  C   UNL     1      -0.215  -5.434  -5.287  1.00  0.00     0.016 A 
ATOM     14  C   UNL     1       1.000  -6.093  -5.076  1.00  0.00     0.047 A 
ATOM     15  C   UNL     1       1.338  -6.554  -3.797  1.00  0.00     0.115 A 
ATOM     16  C   UNL     1      -0.757  -5.689  -2.939  1.00  0.00     0.016 A 
ATOM     17  C   UNL     1       0.458  -6.348  -2.731  1.00  0.00     0.047 A 
BRANCH  15  18
ATOM     18  O   UNL     1       2.546  -7.213  -3.576  1.00  0.00    -0.508 OA
ATOM     19  H   UNL     1       3.115  -7.547  -4.344  1.00  0.00     0.293 HD
ENDBRANCH  15  18
ENDBRANCH   1  12
BRANCH   2  20
ATOM     20  O   UNL     1      -3.645  -6.590  -4.636  1.00  0.00    -0.502 OA
ATOM     21  H   UNL     1      -4.485  -7.109  -4.860  1.00  0.00     0.293 HD
ENDBRANCH   2  20
BRANCH   6  22
ATOM     22  O   UNL     1      -7.163  -2.608  -5.008  1.00  0.00    -0.507 OA
ATOM     23  H   UNL     1      -7.915  -2.169  -5.518  1.00  0.00     0.293 HD
ENDBRANCH   6  22
BRANCH   8  24
ATOM     24  O   UNL     1      -4.173   1.146  -5.165  1.00  0.00    -0.508 OA
ATOM     25  H   UNL     1      -3.828   1.564  -6.021  1.00  0.00     0.293 HD
ENDBRANCH   8  24
TORSDOF 5
ENDMDL
MODEL 3
REMARK VINA RESULT:    -6.597      3.000      7.218
REMARK INTER + INTRA:          -8.038
REMARK INTER:                  -7.858
REMARK INTRA:                  -0.181
REMARK UNBOUND:                -0.284
REMARK SMILES O=c1c(O)c(-c2ccc(O)cc2)oc2cc(O)cc(O)c12
REMARK SMILES IDX 5 1 3 2 2 3 1 4 21 5 19 6 18 7 16 8 15 9 14 10 13 11 6 12
REMARK SMILES IDX 7 13 8 14 9 15 12 16 11 17 10 18 4 20 20 22 17 24
REMARK H PARENT 10 19 4 21 20 23 17 25
REMARK Flexibility Score: inf
ROOT
ATOM      1  C   UNL     1      -4.763  -1.883  -4.812  1.00  0.00     0.180 A 
ATOM      2  C   UNL     1      -3.457  -2.298  -4.499  1.00  0.00     0.208 A 
ATOM      3  C   UNL     1      -3.164  -3.671  -4.489  1.00  0.00     0.238 A 
ATOM      4  O   UNL     1      -1.981  -4.035  -4.262  1.00  0.00    -0.285 OA
ATOM      5  C   UNL     1      -4.184  -4.612  -4.774  1.00  0.00     0.111 A 
ATOM      6  C   UNL     1      -4.008  -6.028  -4.752  1.00  0.00     0.134 A 
ATOM      7  C   UNL     1      -5.051  -6.860  -5.178  1.00  0.00     0.093 A 
ATOM      8  C   UNL     1      -6.284  -6.328  -5.563  1.00  0.00     0.123 A 
ATOM      9  C   UNL     1      -6.484  -4.950  -5.531  1.00  0.00     0.094 A 
ATOM     10  C   UNL     1      -5.451  -4.093  -5.145  1.00  0.00     0.146 A 
ATOM     11  O   UNL     1      -5.681  -2.785  -5.139  1.00  0.00    -0.452 OA
ENDROOT
BRANCH   1  12
ATOM     12  C   UNL     1      -5.156  -0.455  -4.819  1.00  0.00     0.021 A 
ATOM     13  C   UNL     1      -4.689   0.386  -5.844  1.00  0.00     0.016 A 
ATOM     14  C   UNL     1      -5.065   1.733  -5.881  1.00  0.00     0.047 A 
ATOM     15  C   UNL     1      -5.923   2.251  -4.904  1.00  0.00     0.115 A 
ATOM     16  C   UNL     1      -6.033   0.070  -3.853  1.00  0.00     0.016 A 
ATOM     17  C   UNL     1      -6.407   1.416  -3.893  1.00  0.00     0.047 A 
BRANCH  15  18
ATOM     18  O   UNL     1      -6.304   3.591  -4.932  1.00  0.00    -0.508 OA
ATOM     19  H   UNL     1      -6.797   3.985  -5.723  1.00  0.00     0.293 HD
ENDBRANCH  15  18
ENDBRANCH   1  12
BRANCH   2  20
ATOM     20  O   UNL     1      -2.461  -1.352  -4.243  1.00  0.00    -0.502 OA
ATOM     21  H   UNL     1      -1.511  -1.613  -4.010  1.00  0.00     0.293 HD
ENDBRANCH   2  20
BRANCH   6  22
ATOM     22  O   UNL     1      -2.849  -6.664  -4.298  1.00  0.00    -0.507 OA
ATOM     23  H   UNL     1      -2.599  -7.620  -4.503  1.00  0.00     0.293 HD
ENDBRANCH   6  22
BRANCH   8  24
ATOM     24  O   UNL     1      -7.322  -7.164  -5.970  1.00  0.00    -0.508 OA
ATOM     25  H   UNL     1      -7.281  -8.167  -5.832  1.00  0.00     0.293 HD
ENDBRANCH   8  24
TORSDOF 5
ENDMDL
MODEL 4
REMARK VINA RESULT:    -6.352      1.687      7.069
REMARK INTER + INTRA:          -7.750
REMARK INTER:                  -7.468
REMARK INTRA:                  -0.282
REMARK UNBOUND:                -0.284
REMARK SMILES O=c1c(O)c(-c2ccc(O)cc2)oc2cc(O)cc(O)c12
REMARK SMILES IDX 5 1 3 2 2 3 1 4 21 5 19 6 18 7 16 8 15 9 14 10 13 11 6 12
REMARK SMILES IDX 7 13 8 14 9 15 12 16 11 17 10 18 4 20 20 22 17 24
REMARK H PARENT 10 19 4 21 20 23 17 25
REMARK Flexibility Score: inf
ROOT
ATOM      1  C   UNL     1      -1.907  -4.747  -4.469  1.00  0.00     0.180 A 
ATOM      2  C   UNL     1      -0.876  -4.752  -5.425  1.00  0.00     0.208 A 
ATOM      3  C   UNL     1       0.292  -5.486  -5.162  1.00  0.00     0.238 A 
ATOM      4  O   UNL     1       1.188  -5.532  -6.044  1.00  0.00    -0.285 OA
ATOM      5  C   UNL     1       0.422  -6.190  -3.941  1.00  0.00     0.111 A 
ATOM      6  C   UNL     1       1.578  -6.932  -3.553  1.00  0.00     0.134 A 
ATOM      7  C   UNL     1       1.546  -7.697  -2.380  1.00  0.00     0.093 A 
ATOM      8  C   UNL     1       0.423  -7.693  -1.549  1.00  0.00     0.123 A 
ATOM      9  C   UNL     1      -0.688  -6.925  -1.889  1.00  0.00     0.094 A 
ATOM     10  C   UNL     1      -0.699  -6.180  -3.071  1.00  0.00     0.146 A 
ATOM     11  O   UNL     1      -1.782  -5.470  -3.362  1.00  0.00    -0.452 OA
ENDROOT
BRANCH   1  12
ATOM     12  C   UNL     1      -3.157  -3.977  -4.662  1.00  0.00     0.021 A 
ATOM     13  C   UNL     1      -4.325  -4.644  -5.068  1.00  0.00     0.016 A 
ATOM     14  C   UNL     1      -5.522  -3.940  -5.235  1.00  0.00     0.047 A 
ATOM     15  C   UNL     1      -5.569  -2.564  -4.985  1.00  0.00     0.115 A 
ATOM     16  C   UNL     1      -3.218  -2.597  -4.394  1.00  0.00     0.016 A 
ATOM     17  C   UNL     1      -4.416  -1.896  -4.562  1.00  0.00     0.047 A 
BRANCH  15  18
ATOM     18  O   UNL     1      -6.756  -1.852  -5.150  1.00  0.00    -0.508 OA
ATOM     19  H   UNL     1      -7.278  -1.887  -6.016  1.00  0.00     0.293 HD
ENDBRANCH  15  18
ENDBRANCH   1  12
BRANCH   2  20
ATOM     20  O   UNL     1      -1.035  -4.068  -6.634  1.00  0.00    -0.502 OA
ATOM     21  H   UNL     1      -1.942  -3.912  -7.055  1.00  0.00     0.293 HD
ENDBRANCH   2  20
BRANCH   6  22
ATOM     22  O   UNL     1       2.781  -6.931  -4.264  1.00  0.00    -0.507 OA
ATOM     23  H   UNL     1       2.856  -7.008  -5.267  1.00  0.00     0.293 HD
ENDBRANCH   6  22
BRANCH   8  24
ATOM     24  O   UNL     1       0.405  -8.444  -0.375  1.00  0.00    -0.508 OA
ATOM     25  H   UNL     1       1.126  -9.127  -0.172  1.00  0.00     0.293 HD
ENDBRANCH   8  24
TORSDOF 5
ENDMDL
MODEL 5
REMARK VINA RESULT:    -6.321      2.401      4.950
REMARK INTER + INTRA:          -7.713
REMARK INTER:                  -7.459
REMARK INTRA:                  -0.255
REMARK UNBOUND:                -0.284
REMARK SMILES O=c1c(O)c(-c2ccc(O)cc2)oc2cc(O)cc(O)c12
REMARK SMILES IDX 5 1 3 2 2 3 1 4 21 5 19 6 18 7 16 8 15 9 14 10 13 11 6 12
REMARK SMILES IDX 7 13 8 14 9 15 12 16 11 17 10 18 4 20 20 22 17 24
REMARK H PARENT 10 19 4 21 20 23 17 25
REMARK Flexibility Score: inf
ROOT
ATOM      1  C   UNL     1      -4.573  -1.914  -5.089  1.00  0.00     0.180 A 
ATOM      2  C   UNL     1      -4.039  -0.619  -5.210  1.00  0.00     0.208 A 
ATOM      3  C   UNL     1      -4.906   0.483  -5.143  1.00  0.00     0.238 A 
ATOM      4  O   UNL     1      -4.416   1.641  -5.196  1.00  0.00    -0.285 OA
ATOM      5  C   UNL     1      -6.296   0.277  -4.974  1.00  0.00     0.111 A 
ATOM      6  C   UNL     1      -7.270   1.319  -4.935  1.00  0.00     0.134 A 
ATOM      7  C   UNL     1      -8.602   1.009  -4.632  1.00  0.00     0.093 A 
ATOM      8  C   UNL     1      -9.005  -0.315  -4.433  1.00  0.00     0.123 A 
ATOM      9  C   UNL     1      -8.073  -1.344  -4.530  1.00  0.00     0.094 A 
ATOM     10  C   UNL     1      -6.730  -1.062  -4.794  1.00  0.00     0.146 A 
ATOM     11  O   UNL     1      -5.872  -2.072  -4.866  1.00  0.00    -0.452 OA
ENDROOT
BRANCH   1  12
ATOM     12  C   UNL     1      -3.727  -3.126  -5.175  1.00  0.00     0.021 A 
ATOM     13  C   UNL     1      -3.654  -3.836  -6.386  1.00  0.00     0.016 A 
ATOM     14  C   UNL     1      -2.844  -4.970  -6.495  1.00  0.00     0.047 A 
ATOM     15  C   UNL     1      -2.086  -5.401  -5.400  1.00  0.00     0.115 A 
ATOM     16  C   UNL     1      -2.946  -3.555  -4.085  1.00  0.00     0.016 A 
ATOM     17  C   UNL     1      -2.137  -4.690  -4.198  1.00  0.00     0.047 A 
BRANCH  15  18
ATOM     18  O   UNL     1      -1.276  -6.531  -5.498  1.00  0.00    -0.508 OA
ATOM     19  H   UNL     1      -1.140  -7.155  -4.711  1.00  0.00     0.293 HD
ENDBRANCH  15  18
ENDBRANCH   1  12
BRANCH   2  20
ATOM     20  O   UNL     1      -2.660  -0.438  -5.353  1.00  0.00    -0.502 OA
ATOM     21  H   UNL     1      -2.014  -0.547  -4.581  1.00  0.00     0.293 HD
ENDBRANCH   2  20
BRANCH   6  22
ATOM     22  O   UNL     1      -6.990   2.661  -5.208  1.00  0.00    -0.507 OA
ATOM     23  H   UNL     1      -7.244   3.435  -4.613  1.00  0.00     0.293 HD
ENDBRANCH   6  22
BRANCH   8  24
ATOM     24  O   UNL     1     -10.335  -0.616  -4.149  1.00  0.00    -0.508 OA
ATOM     25  H   UNL     1     -10.589  -1.430  -3.601  1.00  0.00     0.293 HD
ENDBRANCH   8  24
TORSDOF 5
ENDMDL
MODEL 6
REMARK VINA RESULT:    -6.316      1.877      6.363
REMARK INTER + INTRA:          -7.708
REMARK INTER:                  -7.421
REMARK INTRA:                  -0.287
REMARK UNBOUND:                -0.284
REMARK SMILES O=c1c(O)c(-c2ccc(O)cc2)oc2cc(O)cc(O)c12
REMARK SMILES IDX 5 1 3 2 2 3 1 4 21 5 19 6 18 7 16 8 15 9 14 10 13 11 6 12
REMARK SMILES IDX 7 13 8 14 9 15 12 16 11 17 10 18 4 20 20 22 17 24
REMARK H PARENT 10 19 4 21 20 23 17 25
REMARK Flexibility Score: inf
ROOT
ATOM      1  C   UNL     1      -2.988  -3.916  -5.049  1.00  0.00     0.180 A 
ATOM      2  C   UNL     1      -3.494  -4.929  -5.882  1.00  0.00     0.208 A 
ATOM      3  C   UNL     1      -3.103  -6.258  -5.652  1.00  0.00     0.238 A 
ATOM      4  O   UNL     1      -3.602  -7.166  -6.365  1.00  0.00    -0.285 OA
ATOM      5  C   UNL     1      -2.198  -6.554  -4.605  1.00  0.00     0.111 A 
ATOM      6  C   UNL     1      -1.702  -7.860  -4.309  1.00  0.00     0.134 A 
ATOM      7  C   UNL     1      -0.913  -8.056  -3.169  1.00  0.00     0.093 A 
ATOM      8  C   UNL     1      -0.549  -6.983  -2.351  1.00  0.00     0.123 A 
ATOM      9  C   UNL     1      -0.978  -5.696  -2.666  1.00  0.00     0.094 A 
ATOM     10  C   UNL     1      -1.796  -5.475  -3.777  1.00  0.00     0.146 A 
ATOM     11  O   UNL     1      -2.192  -4.234  -4.035  1.00  0.00    -0.452 OA
ENDROOT
BRANCH   1  12
ATOM     12  C   UNL     1      -3.333  -2.489  -5.245  1.00  0.00     0.021 A 
ATOM     13  C   UNL     1      -4.316  -1.897  -4.432  1.00  0.00     0.016 A 
ATOM     14  C   UNL     1      -4.642  -0.546  -4.585  1.00  0.00     0.047 A 
ATOM     15  C   UNL     1      -3.980   0.233  -5.541  1.00  0.00     0.115 A 
ATOM     16  C   UNL     1      -2.659  -1.693  -6.189  1.00  0.00     0.016 A 
ATOM     17  C   UNL     1      -2.987  -0.343  -6.339  1.00  0.00     0.047 A 
BRANCH  15  18
ATOM     18  O   UNL     1      -4.297   1.581  -5.702  1.00  0.00    -0.508 OA
ATOM     19  H   UNL     1      -4.154   2.057  -6.584  1.00  0.00     0.293 HD
ENDBRANCH  15  18
ENDBRANCH   1  12
BRANCH   2  20
ATOM     20  O   UNL     1      -4.404  -4.616  -6.896  1.00  0.00    -0.502 OA
ATOM     21  H   UNL     1      -4.401  -5.085  -7.793  1.00  0.00     0.293 HD
ENDBRANCH   2  20
BRANCH   6  22
ATOM     22  O   UNL     1      -1.932  -8.982  -5.109  1.00  0.00    -0.507 OA
ATOM     23  H   UNL     1      -1.988  -9.930  -4.768  1.00  0.00     0.293 HD
ENDBRANCH   6  22
BRANCH   8  24
ATOM     24  O   UNL     1       0.250  -7.185  -1.228  1.00  0.00    -0.508 OA
ATOM     25  H   UNL     1      -0.152  -7.304  -0.306  1.00  0.00     0.293 HD
ENDBRANCH   8  24
TORSDOF 5
ENDMDL
MODEL 7
REMARK VINA RESULT:    -6.248      1.893      3.831
REMARK INTER + INTRA:          -7.628
REMARK INTER:                  -7.367
REMARK INTRA:                  -0.261
REMARK UNBOUND:                -0.284
REMARK SMILES O=c1c(O)c(-c2ccc(O)cc2)oc2cc(O)cc(O)c12
REMARK SMILES IDX 5 1 3 2 2 3 1 4 21 5 19 6 18 7 16 8 15 9 14 10 13 11 6 12
REMARK SMILES IDX 7 13 8 14 9 15 12 16 11 17 10 18 4 20 20 22 17 24
REMARK H PARENT 10 19 4 21 20 23 17 25
REMARK Flexibility Score: inf
ROOT
ATOM      1  C   UNL     1      -3.539  -3.162  -5.028  1.00  0.00     0.180 A 
ATOM      2  C   UNL     1      -3.562  -1.817  -4.620  1.00  0.00     0.208 A 
ATOM      3  C   UNL     1      -4.772  -1.108  -4.680  1.00  0.00     0.238 A 
ATOM      4  O   UNL     1      -4.799   0.078  -4.262  1.00  0.00    -0.285 OA
ATOM      5  C   UNL     1      -5.939  -1.747  -5.164  1.00  0.00     0.111 A 
ATOM      6  C   UNL     1      -7.210  -1.112  -5.307  1.00  0.00     0.134 A 
ATOM      7  C   UNL     1      -8.325  -1.876  -5.672  1.00  0.00     0.093 A 
ATOM      8  C   UNL     1      -8.203  -3.237  -5.963  1.00  0.00     0.123 A 
ATOM      9  C   UNL     1      -6.956  -3.852  -5.884  1.00  0.00     0.094 A 
ATOM     10  C   UNL     1      -5.831  -3.125  -5.487  1.00  0.00     0.146 A 
ATOM     11  O   UNL     1      -4.663  -3.752  -5.415  1.00  0.00    -0.452 OA
ENDROOT
BRANCH   1  12
ATOM     12  C   UNL     1      -2.296  -3.967  -5.017  1.00  0.00     0.021 A 
ATOM     13  C   UNL     1      -1.362  -3.814  -6.056  1.00  0.00     0.016 A 
ATOM     14  C   UNL     1      -0.173  -4.548  -6.054  1.00  0.00     0.047 A 
ATOM     15  C   UNL     1       0.106  -5.433  -5.006  1.00  0.00     0.115 A 
ATOM     16  C   UNL     1      -1.999  -4.844  -3.958  1.00  0.00     0.016 A 
ATOM     17  C   UNL     1      -0.809  -5.577  -3.958  1.00  0.00     0.047 A 
BRANCH  15  18
ATOM     18  O   UNL     1       1.289  -6.171  -4.994  1.00  0.00    -0.508 OA
ATOM     19  H   UNL     1       1.431  -6.953  -5.621  1.00  0.00     0.293 HD
ENDBRANCH  15  18
ENDBRANCH   1  12
BRANCH   2  20
ATOM     20  O   UNL     1      -2.403  -1.212  -4.124  1.00  0.00    -0.502 OA
ATOM     21  H   UNL     1      -1.603  -1.010  -4.711  1.00  0.00     0.293 HD
ENDBRANCH   2  20
BRANCH   6  22
ATOM     22  O   UNL     1      -7.422   0.257  -5.130  1.00  0.00    -0.507 OA
ATOM     23  H   UNL     1      -6.692   0.939  -4.986  1.00  0.00     0.293 HD
ENDBRANCH   6  22
BRANCH   8  24
ATOM     24  O   UNL     1      -9.315  -3.986  -6.341  1.00  0.00    -0.508 OA
ATOM     25  H   UNL     1      -9.914  -4.430  -5.654  1.00  0.00     0.293 HD
ENDBRANCH   8  24
TORSDOF 5
ENDMDL
MODEL 8
REMARK VINA RESULT:    -6.231      1.852      6.800
REMARK INTER + INTRA:          -7.608
REMARK INTER:                  -7.409
REMARK INTRA:                  -0.198
REMARK UNBOUND:                -0.284
REMARK SMILES O=c1c(O)c(-c2ccc(O)cc2)oc2cc(O)cc(O)c12
REMARK SMILES IDX 5 1 3 2 2 3 1 4 21 5 19 6 18 7 16 8 15 9 14 10 13 11 6 12
REMARK SMILES IDX 7 13 8 14 9 15 12 16 11 17 10 18 4 20 20 22 17 24
REMARK H PARENT 10 19 4 21 20 23 17 25
REMARK Flexibility Score: inf
ROOT
ATOM      1  C   UNL     1      -4.681  -2.323  -4.741  1.00  0.00     0.180 A 
ATOM      2  C   UNL     1      -5.581  -3.297  -5.207  1.00  0.00     0.208 A 
ATOM      3  C   UNL     1      -5.185  -4.644  -5.210  1.00  0.00     0.238 A 
ATOM      4  O   UNL     1      -6.013  -5.516  -5.577  1.00  0.00    -0.285 OA
ATOM      5  C   UNL     1      -3.888  -4.997  -4.765  1.00  0.00     0.111 A 
ATOM      6  C   UNL     1      -3.367  -6.326  -4.764  1.00  0.00     0.134 A 
ATOM      7  C   UNL     1      -2.120  -6.578  -4.180  1.00  0.00     0.093 A 
ATOM      8  C   UNL     1      -1.347  -5.538  -3.655  1.00  0.00     0.123 A 
ATOM      9  C   UNL     1      -1.821  -4.230  -3.706  1.00  0.00     0.094 A 
ATOM     10  C   UNL     1      -3.078  -3.953  -4.250  1.00  0.00     0.146 A 
ATOM     11  O   UNL     1      -3.497  -2.693  -4.269  1.00  0.00    -0.452 OA
ENDROOT
BRANCH   1  12
ATOM     12  C   UNL     1      -5.017  -0.880  -4.730  1.00  0.00     0.021 A 
ATOM     13  C   UNL     1      -4.438  -0.028  -5.686  1.00  0.00     0.016 A 
ATOM     14  C   UNL     1      -4.758   1.333  -5.708  1.00  0.00     0.047 A 
ATOM     15  C   UNL     1      -5.672   1.856  -4.784  1.00  0.00     0.115 A 
ATOM     16  C   UNL     1      -5.948  -0.350  -3.819  1.00  0.00     0.016 A 
ATOM     17  C   UNL     1      -6.266   1.010  -3.843  1.00  0.00     0.047 A 
BRANCH  15  18
ATOM     18  O   UNL     1      -5.997   3.211  -4.797  1.00  0.00    -0.508 OA
ATOM     19  H   UNL     1      -6.562   3.626  -4.065  1.00  0.00     0.293 HD
ENDBRANCH  15  18
ENDBRANCH   1  12
BRANCH   2  20
ATOM     20  O   UNL     1      -6.864  -2.927  -5.621  1.00  0.00    -0.502 OA
ATOM     21  H   UNL     1      -7.507  -2.428  -5.019  1.00  0.00     0.293 HD
ENDBRANCH   2  20
BRANCH   6  22
ATOM     22  O   UNL     1      -4.017  -7.420  -5.343  1.00  0.00    -0.507 OA
ATOM     23  H   UNL     1      -3.890  -7.726  -6.296  1.00  0.00     0.293 HD
ENDBRANCH   6  22
BRANCH   8  24
ATOM     24  O   UNL     1      -0.100  -5.796  -3.090  1.00  0.00    -0.508 OA
ATOM     25  H   UNL     1       0.626  -6.280  -3.605  1.00  0.00     0.293 HD
ENDBRANCH   8  24
TORSDOF 5
ENDMDL
MODEL 9
REMARK VINA RESULT:    -6.167      3.104      8.254
REMARK INTER + INTRA:          -7.532
REMARK INTER:                  -7.243
REMARK INTRA:                  -0.289
REMARK UNBOUND:                -0.284
REMARK SMILES O=c1c(O)c(-c2ccc(O)cc2)oc2cc(O)cc(O)c12
REMARK SMILES IDX 5 1 3 2 2 3 1 4 21 5 19 6 18 7 16 8 15 9 14 10 13 11 6 12
REMARK SMILES IDX 7 13 8 14 9 15 12 16 11 17 10 18 4 20 20 22 17 24
REMARK H PARENT 10 19 4 21 20 23 17 25
REMARK Flexibility Score: inf
ROOT
ATOM      1  C   UNL     1      -5.977  -0.665  -5.248  1.00  0.00     0.180 A 
ATOM      2  C   UNL     1      -4.617  -0.491  -4.937  1.00  0.00     0.208 A 
ATOM      3  C   UNL     1      -3.819  -1.625  -4.715  1.00  0.00     0.238 A 
ATOM      4  O   UNL     1      -2.591  -1.466  -4.491  1.00  0.00    -0.285 OA
ATOM      5  C   UNL     1      -4.394  -2.917  -4.791  1.00  0.00     0.111 A 
ATOM      6  C   UNL     1      -3.688  -4.133  -4.544  1.00  0.00     0.134 A 
ATOM      7  C   UNL     1      -4.324  -5.359  -4.775  1.00  0.00     0.093 A 
ATOM      8  C   UNL     1      -5.661  -5.412  -5.180  1.00  0.00     0.123 A 
ATOM      9  C   UNL     1      -6.375  -4.231  -5.366  1.00  0.00     0.094 A 
ATOM     10  C   UNL     1      -5.757  -2.992  -5.178  1.00  0.00     0.146 A 
ATOM     11  O   UNL     1      -6.471  -1.891  -5.376  1.00  0.00    -0.452 OA
ENDROOT
BRANCH   1  12
ATOM     12  C   UNL     1      -6.887   0.482  -5.470  1.00  0.00     0.021 A 
ATOM     13  C   UNL     1      -7.560   1.052  -4.376  1.00  0.00     0.016 A 
ATOM     14  C   UNL     1      -8.407   2.150  -4.559  1.00  0.00     0.047 A 
ATOM     15  C   UNL     1      -8.580   2.699  -5.836  1.00  0.00     0.115 A 
ATOM     16  C   UNL     1      -7.051   1.053  -6.745  1.00  0.00     0.016 A 
ATOM     17  C   UNL     1      -7.898   2.149  -6.925  1.00  0.00     0.047 A 
BRANCH  15  18
ATOM     18  O   UNL     1      -9.423   3.792  -6.030  1.00  0.00    -0.508 OA
ATOM     19  H   UNL     1     -10.428   3.683  -6.078  1.00  0.00     0.293 HD
ENDBRANCH  15  18
ENDBRANCH   1  12
BRANCH   2  20
ATOM     20  O   UNL     1      -4.065   0.792  -4.889  1.00  0.00    -0.502 OA
ATOM     21  H   UNL     1      -4.104   1.430  -5.675  1.00  0.00     0.293 HD
ENDBRANCH   2  20
BRANCH   6  22
ATOM     22  O   UNL     1      -2.382  -4.191  -4.051  1.00  0.00    -0.507 OA
ATOM     23  H   UNL     1      -1.968  -3.506  -3.437  1.00  0.00     0.293 HD
ENDBRANCH   6  22
BRANCH   8  24
ATOM     24  O   UNL     1      -6.291  -6.636  -5.392  1.00  0.00    -0.508 OA
ATOM     25  H   UNL     1      -6.333  -7.059  -6.312  1.00  0.00     0.293 HD
ENDBRANCH   8  24
TORSDOF 5
ENDMDL
