MODEL 1
REMARK VINA RESULT:     2.175      0.000      0.000
REMARK INTER + INTRA:           2.362
REMARK INTER:                   2.620
REMARK INTRA:                  -0.258
REMARK UNBOUND:                -0.258
REMARK SMILES O=c1c(O)c(-c2ccc(O)c(O)c2)oc2cc(O)cc(O)c12
REMARK SMILES IDX 5 1 3 2 2 3 1 4 22 5 20 6 19 7 17 8 16 9 15 10 14 11 6 12
REMARK SMILES IDX 7 13 8 14 9 15 13 16 11 17 10 18 12 20 4 22 21 24 18 26
REMARK H PARENT 10 19 12 21 4 23 21 25 18 27
REMARK Flexibility Score: inf
ROOT
ATOM      1  C   UNL     1      36.690 -29.995  -5.057  1.00  0.00     0.180 A 
ATOM      2  C   UNL     1      37.736 -30.215  -5.970  1.00  0.00     0.208 A 
ATOM      3  C   UNL     1      37.584 -29.779  -7.296  1.00  0.00     0.238 A 
ATOM      4  O   UNL     1      38.545 -29.929  -8.096  1.00  0.00    -0.285 OA
ATOM      5  C   UNL     1      36.383 -29.145  -7.697  1.00  0.00     0.111 A 
ATOM      6  C   UNL     1      36.106 -28.699  -9.024  1.00  0.00     0.134 A 
ATOM      7  C   UNL     1      34.939 -27.968  -9.277  1.00  0.00     0.093 A 
ATOM      8  C   UNL     1      34.008 -27.723  -8.264  1.00  0.00     0.123 A 
ATOM      9  C   UNL     1      34.243 -28.205  -6.978  1.00  0.00     0.094 A 
ATOM     10  C   UNL     1      35.414 -28.907  -6.687  1.00  0.00     0.146 A 
ATOM     11  O   UNL     1      35.603 -29.340  -5.446  1.00  0.00    -0.452 OA
ENDROOT
BRANCH   1  12
ATOM     12  C   UNL     1      36.766 -30.448  -3.649  1.00  0.00     0.025 A 
ATOM     13  C   UNL     1      37.020 -29.544  -2.602  1.00  0.00     0.016 A 
ATOM     14  C   UNL     1      37.112 -29.998  -1.284  1.00  0.00     0.051 A 
ATOM     15  C   UNL     1      36.964 -31.361  -0.993  1.00  0.00     0.157 A 
ATOM     16  C   UNL     1      36.639 -31.815  -3.354  1.00  0.00     0.062 A 
ATOM     17  C   UNL     1      36.730 -32.273  -2.035  1.00  0.00     0.158 A 
BRANCH  15  18
ATOM     18  O   UNL     1      37.053 -31.810   0.323  1.00  0.00    -0.504 OA
ATOM     19  H   UNL     1      37.268 -32.776   0.541  1.00  0.00     0.293 HD
ENDBRANCH  15  18
BRANCH  17  20
ATOM     20  O   UNL     1      36.585 -33.636  -1.779  1.00  0.00    -0.504 OA
ATOM     21  H   UNL     1      36.137 -34.264  -2.437  1.00  0.00     0.293 HD
ENDBRANCH  17  20
ENDBRANCH   1  12
BRANCH   2  22
ATOM     22  O   UNL     1      38.922 -30.823  -5.549  1.00  0.00    -0.502 OA
ATOM     23  H   UNL     1      39.771 -30.800  -6.100  1.00  0.00     0.293 HD
ENDBRANCH   2  22
BRANCH   6  24
ATOM     24  O   UNL     1      36.923 -28.970 -10.125  1.00  0.00    -0.507 OA
ATOM     25  H   UNL     1      37.867 -29.321 -10.068  1.00  0.00     0.293 HD
ENDBRANCH   6  24
BRANCH   8  26
ATOM     26  O   UNL     1      32.842 -27.008  -8.528  1.00  0.00    -0.508 OA
ATOM     27  H   UNL     1      32.081 -26.968  -7.860  1.00  0.00     0.293 HD
ENDBRANCH   8  26
TORSDOF 6
ENDMDL
MODEL 2
REMARK VINA RESULT:     2.925      3.320      4.865
REMARK INTER + INTRA:           3.266
REMARK INTER:                   3.061
REMARK INTRA:                   0.206
REMARK UNBOUND:                -0.258
REMARK SMILES O=c1c(O)c(-c2ccc(O)c(O)c2)oc2cc(O)cc(O)c12
REMARK SMILES IDX 5 1 3 2 2 3 1 4 22 5 20 6 19 7 17 8 16 9 15 10 14 11 6 12
REMARK SMILES IDX 7 13 8 14 9 15 13 16 11 17 10 18 12 20 4 22 21 24 18 26
REMARK H PARENT 10 19 12 21 4 23 21 25 18 27
REMARK Flexibility Score: inf
ROOT
ATOM      1  C   UNL     1      38.228 -31.606  -5.875  1.00  0.00     0.180 A 
ATOM      2  C   UNL     1      38.996 -30.766  -6.700  1.00  0.00     0.208 A 
ATOM      3  C   UNL     1      39.592 -31.302  -7.852  1.00  0.00     0.238 A 
ATOM      4  O   UNL     1      40.232 -30.533  -8.616  1.00  0.00    -0.285 OA
ATOM      5  C   UNL     1      39.426 -32.675  -8.157  1.00  0.00     0.111 A 
ATOM      6  C   UNL     1      40.018 -33.333  -9.277  1.00  0.00     0.134 A 
ATOM      7  C   UNL     1      39.680 -34.664  -9.553  1.00  0.00     0.093 A 
ATOM      8  C   UNL     1      38.823 -35.379  -8.712  1.00  0.00     0.123 A 
ATOM      9  C   UNL     1      38.287 -34.762  -7.584  1.00  0.00     0.094 A 
ATOM     10  C   UNL     1      38.578 -33.426  -7.302  1.00  0.00     0.146 A 
ATOM     11  O   UNL     1      38.038 -32.873  -6.222  1.00  0.00    -0.452 OA
ENDROOT
BRANCH   1  12
ATOM     12  C   UNL     1      37.590 -31.119  -4.631  1.00  0.00     0.025 A 
ATOM     13  C   UNL     1      37.061 -29.819  -4.539  1.00  0.00     0.016 A 
ATOM     14  C   UNL     1      36.485 -29.374  -3.347  1.00  0.00     0.051 A 
ATOM     15  C   UNL     1      36.441 -30.212  -2.226  1.00  0.00     0.157 A 
ATOM     16  C   UNL     1      37.562 -31.948  -3.497  1.00  0.00     0.062 A 
ATOM     17  C   UNL     1      36.986 -31.505  -2.302  1.00  0.00     0.158 A 
BRANCH  15  18
ATOM     18  O   UNL     1      35.864 -29.765  -1.038  1.00  0.00    -0.504 OA
ATOM     19  H   UNL     1      35.705 -28.780  -0.863  1.00  0.00     0.293 HD
ENDBRANCH  15  18
BRANCH  17  20
ATOM     20  O   UNL     1      36.964 -32.361  -1.202  1.00  0.00    -0.504 OA
ATOM     21  H   UNL     1      36.974 -32.016  -0.250  1.00  0.00     0.293 HD
ENDBRANCH  17  20
ENDBRANCH   1  12
BRANCH   2  22
ATOM     22  O   UNL     1      39.129 -29.408  -6.393  1.00  0.00    -0.502 OA
ATOM     23  H   UNL     1      38.742 -29.000  -5.551  1.00  0.00     0.293 HD
ENDBRANCH   2  22
BRANCH   6  24
ATOM     24  O   UNL     1      40.956 -32.739 -10.125  1.00  0.00    -0.507 OA
ATOM     25  H   UNL     1      41.512 -33.235 -10.804  1.00  0.00     0.293 HD
ENDBRANCH   6  24
BRANCH   8  26
ATOM     26  O   UNL     1      38.504 -36.708  -8.986  1.00  0.00    -0.508 OA
ATOM     27  H   UNL     1      37.555 -37.053  -8.904  1.00  0.00     0.293 HD
ENDBRANCH   8  26
TORSDOF 6
ENDMDL
MODEL 3
REMARK VINA RESULT:     3.823      1.641      3.555
REMARK INTER + INTRA:           4.348
REMARK INTER:                   4.499
REMARK INTRA:                  -0.151
REMARK UNBOUND:                -0.258
REMARK SMILES O=c1c(O)c(-c2ccc(O)c(O)c2)oc2cc(O)cc(O)c12
REMARK SMILES IDX 5 1 3 2 2 3 1 4 22 5 20 6 19 7 17 8 16 9 15 10 14 11 6 12
REMARK SMILES IDX 7 13 8 14 9 15 13 16 11 17 10 18 12 20 4 22 21 24 18 26
REMARK H PARENT 10 19 12 21 4 23 21 25 18 27
REMARK Flexibility Score: inf
ROOT
ATOM      1  C   UNL     1      37.249 -30.367  -4.916  1.00  0.00     0.180 A 
ATOM      2  C   UNL     1      36.355 -29.623  -5.706  1.00  0.00     0.208 A 
ATOM      3  C   UNL     1      36.616 -29.478  -7.078  1.00  0.00     0.238 A 
ATOM      4  O   UNL     1      35.783 -28.858  -7.789  1.00  0.00    -0.285 OA
ATOM      5  C   UNL     1      37.776 -30.063  -7.640  1.00  0.00     0.111 A 
ATOM      6  C   UNL     1      38.160 -29.946  -9.010  1.00  0.00     0.134 A 
ATOM      7  C   UNL     1      39.258 -30.675  -9.484  1.00  0.00     0.093 A 
ATOM      8  C   UNL     1      40.024 -31.465  -8.622  1.00  0.00     0.123 A 
ATOM      9  C   UNL     1      39.691 -31.539  -7.272  1.00  0.00     0.094 A 
ATOM     10  C   UNL     1      38.581 -30.852  -6.777  1.00  0.00     0.146 A 
ATOM     11  O   UNL     1      38.294 -30.957  -5.485  1.00  0.00    -0.452 OA
ENDROOT
BRANCH   1  12
ATOM     12  C   UNL     1      37.055 -30.543  -3.459  1.00  0.00     0.025 A 
ATOM     13  C   UNL     1      37.026 -29.441  -2.586  1.00  0.00     0.016 A 
ATOM     14  C   UNL     1      36.866 -29.633  -1.211  1.00  0.00     0.051 A 
ATOM     15  C   UNL     1      36.745 -30.927  -0.688  1.00  0.00     0.157 A 
ATOM     16  C   UNL     1      36.954 -31.838  -2.926  1.00  0.00     0.062 A 
ATOM     17  C   UNL     1      36.793 -32.034  -1.550  1.00  0.00     0.158 A 
BRANCH  15  18
ATOM     18  O   UNL     1      36.583 -31.115   0.684  1.00  0.00    -0.504 OA
ATOM     19  H   UNL     1      36.901 -30.426   1.356  1.00  0.00     0.293 HD
ENDBRANCH  15  18
BRANCH  17  20
ATOM     20  O   UNL     1      36.683 -33.335  -1.059  1.00  0.00    -0.504 OA
ATOM     21  H   UNL     1      37.495 -33.905  -0.856  1.00  0.00     0.293 HD
ENDBRANCH  17  20
ENDBRANCH   1  12
BRANCH   2  22
ATOM     22  O   UNL     1      35.204 -29.071  -5.135  1.00  0.00    -0.502 OA
ATOM     23  H   UNL     1      35.080 -28.985  -4.134  1.00  0.00     0.293 HD
ENDBRANCH   2  22
BRANCH   6  24
ATOM     24  O   UNL     1      37.520 -29.113  -9.931  1.00  0.00    -0.507 OA
ATOM     25  H   UNL     1      36.594 -29.267 -10.299  1.00  0.00     0.293 HD
ENDBRANCH   6  24
BRANCH   8  26
ATOM     26  O   UNL     1      41.124 -32.176  -9.099  1.00  0.00    -0.508 OA
ATOM     27  H   UNL     1      41.403 -33.059  -8.689  1.00  0.00     0.293 HD
ENDBRANCH   8  26
TORSDOF 6
ENDMDL
MODEL 4
REMARK VINA RESULT:     3.850      2.509      6.658
REMARK INTER + INTRA:           4.380
REMARK INTER:                   4.413
REMARK INTRA:                  -0.033
REMARK UNBOUND:                -0.258
REMARK SMILES O=c1c(O)c(-c2ccc(O)c(O)c2)oc2cc(O)cc(O)c12
REMARK SMILES IDX 5 1 3 2 2 3 1 4 22 5 20 6 19 7 17 8 16 9 15 10 14 11 6 12
REMARK SMILES IDX 7 13 8 14 9 15 13 16 11 17 10 18 12 20 4 22 21 24 18 26
REMARK H PARENT 10 19 12 21 4 23 21 25 18 27
REMARK Flexibility Score: inf
ROOT
ATOM      1  C   UNL     1      36.575 -29.705  -7.260  1.00  0.00     0.180 A 
ATOM      2  C   UNL     1      36.716 -30.107  -5.921  1.00  0.00     0.208 A 
ATOM      3  C   UNL     1      37.723 -31.027  -5.588  1.00  0.00     0.238 A 
ATOM      4  O   UNL     1      37.880 -31.342  -4.379  1.00  0.00    -0.285 OA
ATOM      5  C   UNL     1      38.565 -31.547  -6.601  1.00  0.00     0.111 A 
ATOM      6  C   UNL     1      39.592 -32.515  -6.383  1.00  0.00     0.134 A 
ATOM      7  C   UNL     1      40.450 -32.859  -7.435  1.00  0.00     0.093 A 
ATOM      8  C   UNL     1      40.276 -32.320  -8.712  1.00  0.00     0.123 A 
ATOM      9  C   UNL     1      39.240 -31.419  -8.948  1.00  0.00     0.094 A 
ATOM     10  C   UNL     1      38.391 -31.029  -7.911  1.00  0.00     0.146 A 
ATOM     11  O   UNL     1      37.422 -30.161  -8.176  1.00  0.00    -0.452 OA
ENDROOT
BRANCH   1  12
ATOM     12  C   UNL     1      35.522 -28.759  -7.692  1.00  0.00     0.025 A 
ATOM     13  C   UNL     1      35.370 -27.503  -7.079  1.00  0.00     0.016 A 
ATOM     14  C   UNL     1      34.353 -26.635  -7.487  1.00  0.00     0.051 A 
ATOM     15  C   UNL     1      33.466 -27.014  -8.502  1.00  0.00     0.157 A 
ATOM     16  C   UNL     1      34.616 -29.141  -8.695  1.00  0.00     0.062 A 
ATOM     17  C   UNL     1      33.597 -28.275  -9.106  1.00  0.00     0.158 A 
BRANCH  15  18
ATOM     18  O   UNL     1      32.454 -26.145  -8.908  1.00  0.00    -0.504 OA
ATOM     19  H   UNL     1      32.520 -25.146  -8.758  1.00  0.00     0.293 HD
ENDBRANCH  15  18
BRANCH  17  20
ATOM     20  O   UNL     1      32.725 -28.685 -10.115  1.00  0.00    -0.504 OA
ATOM     21  H   UNL     1      32.449 -29.652 -10.229  1.00  0.00     0.293 HD
ENDBRANCH  17  20
ENDBRANCH   1  12
BRANCH   2  22
ATOM     22  O   UNL     1      35.888 -29.566  -4.933  1.00  0.00    -0.502 OA
ATOM     23  H   UNL     1      35.651 -28.582  -4.900  1.00  0.00     0.293 HD
ENDBRANCH   2  22
BRANCH   6  24
ATOM     24  O   UNL     1      39.791 -33.181  -5.172  1.00  0.00    -0.507 OA
ATOM     25  H   UNL     1      39.058 -33.432  -4.526  1.00  0.00     0.293 HD
ENDBRANCH   6  24
BRANCH   8  26
ATOM     26  O   UNL     1      41.125 -32.680  -9.757  1.00  0.00    -0.508 OA
ATOM     27  H   UNL     1      41.931 -33.273  -9.605  1.00  0.00     0.293 HD
ENDBRANCH   8  26
TORSDOF 6
ENDMDL
MODEL 5
REMARK VINA RESULT:     4.653      2.808      5.311
REMARK INTER + INTRA:           5.347
REMARK INTER:                   5.500
REMARK INTRA:                  -0.153
REMARK UNBOUND:                -0.258
REMARK SMILES O=c1c(O)c(-c2ccc(O)c(O)c2)oc2cc(O)cc(O)c12
REMARK SMILES IDX 5 1 3 2 2 3 1 4 22 5 20 6 19 7 17 8 16 9 15 10 14 11 6 12
REMARK SMILES IDX 7 13 8 14 9 15 13 16 11 17 10 18 12 20 4 22 21 24 18 26
REMARK H PARENT 10 19 12 21 4 23 21 25 18 27
REMARK Flexibility Score: inf
ROOT
ATOM      1  C   UNL     1      37.621 -30.831  -7.495  1.00  0.00     0.180 A 
ATOM      2  C   UNL     1      37.579 -30.697  -6.096  1.00  0.00     0.208 A 
ATOM      3  C   UNL     1      36.684 -29.777  -5.526  1.00  0.00     0.238 A 
ATOM      4  O   UNL     1      36.612 -29.701  -4.271  1.00  0.00    -0.285 OA
ATOM      5  C   UNL     1      35.854 -28.991  -6.361  1.00  0.00     0.111 A 
ATOM      6  C   UNL     1      34.940 -28.000  -5.894  1.00  0.00     0.134 A 
ATOM      7  C   UNL     1      34.076 -27.374  -6.801  1.00  0.00     0.093 A 
ATOM      8  C   UNL     1      34.139 -27.657  -8.168  1.00  0.00     0.123 A 
ATOM      9  C   UNL     1      35.069 -28.580  -8.641  1.00  0.00     0.094 A 
ATOM     10  C   UNL     1      35.919 -29.246  -7.756  1.00  0.00     0.146 A 
ATOM     11  O   UNL     1      36.784 -30.126  -8.248  1.00  0.00    -0.452 OA
ENDROOT
BRANCH   1  12
ATOM     12  C   UNL     1      38.554 -31.760  -8.170  1.00  0.00     0.025 A 
ATOM     13  C   UNL     1      39.556 -31.290  -9.037  1.00  0.00     0.016 A 
ATOM     14  C   UNL     1      40.411 -32.188  -9.682  1.00  0.00     0.051 A 
ATOM     15  C   UNL     1      40.269 -33.567  -9.481  1.00  0.00     0.157 A 
ATOM     16  C   UNL     1      38.404 -33.145  -7.989  1.00  0.00     0.062 A 
ATOM     17  C   UNL     1      39.258 -34.047  -8.633  1.00  0.00     0.158 A 
BRANCH  15  18
ATOM     18  O   UNL     1      41.125 -34.460 -10.125  1.00  0.00    -0.504 OA
ATOM     19  H   UNL     1      41.064 -34.628 -11.122  1.00  0.00     0.293 HD
ENDBRANCH  15  18
BRANCH  17  20
ATOM     20  O   UNL     1      39.086 -35.414  -8.418  1.00  0.00    -0.504 OA
ATOM     21  H   UNL     1      38.995 -35.806  -7.489  1.00  0.00     0.293 HD
ENDBRANCH  17  20
ENDBRANCH   1  12
BRANCH   2  22
ATOM     22  O   UNL     1      38.390 -31.498  -5.288  1.00  0.00    -0.502 OA
ATOM     23  H   UNL     1      39.396 -31.387  -5.246  1.00  0.00     0.293 HD
ENDBRANCH   2  22
BRANCH   6  24
ATOM     24  O   UNL     1      34.861 -27.576  -4.564  1.00  0.00    -0.507 OA
ATOM     25  H   UNL     1      35.569 -27.039  -4.089  1.00  0.00     0.293 HD
ENDBRANCH   6  24
BRANCH   8  26
ATOM     26  O   UNL     1      33.286 -27.019  -9.066  1.00  0.00    -0.508 OA
ATOM     27  H   UNL     1      33.282 -26.012  -9.169  1.00  0.00     0.293 HD
ENDBRANCH   8  26
TORSDOF 6
ENDMDL
MODEL 6
REMARK VINA RESULT:     4.847      2.950      6.778
REMARK INTER + INTRA:           5.582
REMARK INTER:                   5.272
REMARK INTRA:                   0.310
REMARK UNBOUND:                -0.258
REMARK SMILES O=c1c(O)c(-c2ccc(O)c(O)c2)oc2cc(O)cc(O)c12
REMARK SMILES IDX 5 1 3 2 2 3 1 4 22 5 20 6 19 7 17 8 16 9 15 10 14 11 6 12
REMARK SMILES IDX 7 13 8 14 9 15 13 16 11 17 10 18 12 20 4 22 21 24 18 26
REMARK H PARENT 10 19 12 21 4 23 21 25 18 27
REMARK Flexibility Score: inf
ROOT
ATOM      1  C   UNL     1      38.046 -31.254  -5.310  1.00  0.00     0.180 A 
ATOM      2  C   UNL     1      37.633 -29.919  -5.155  1.00  0.00     0.208 A 
ATOM      3  C   UNL     1      37.016 -29.532  -3.954  1.00  0.00     0.238 A 
ATOM      4  O   UNL     1      36.698 -28.324  -3.800  1.00  0.00    -0.285 OA
ATOM      5  C   UNL     1      36.804 -30.488  -2.931  1.00  0.00     0.111 A 
ATOM      6  C   UNL     1      36.153 -30.215  -1.690  1.00  0.00     0.134 A 
ATOM      7  C   UNL     1      36.115 -31.203  -0.699  1.00  0.00     0.093 A 
ATOM      8  C   UNL     1      36.647 -32.475  -0.929  1.00  0.00     0.123 A 
ATOM      9  C   UNL     1      37.233 -32.768  -2.158  1.00  0.00     0.094 A 
ATOM     10  C   UNL     1      37.317 -31.792  -3.153  1.00  0.00     0.146 A 
ATOM     11  O   UNL     1      37.892 -32.111  -4.307  1.00  0.00    -0.452 OA
ENDROOT
BRANCH   1  12
ATOM     12  C   UNL     1      38.681 -31.743  -6.555  1.00  0.00     0.025 A 
ATOM     13  C   UNL     1      39.410 -30.880  -7.392  1.00  0.00     0.016 A 
ATOM     14  C   UNL     1      39.979 -31.359  -8.575  1.00  0.00     0.051 A 
ATOM     15  C   UNL     1      39.818 -32.700  -8.945  1.00  0.00     0.157 A 
ATOM     16  C   UNL     1      38.505 -33.082  -6.942  1.00  0.00     0.062 A 
ATOM     17  C   UNL     1      39.074 -33.564  -8.125  1.00  0.00     0.158 A 
BRANCH  15  18
ATOM     18  O   UNL     1      40.390 -33.175 -10.125  1.00  0.00    -0.504 OA
ATOM     19  H   UNL     1      39.950 -33.025 -11.025  1.00  0.00     0.293 HD
ENDBRANCH  15  18
BRANCH  17  20
ATOM     20  O   UNL     1      38.890 -34.903  -8.469  1.00  0.00    -0.504 OA
ATOM     21  H   UNL     1      39.428 -35.350  -9.201  1.00  0.00     0.293 HD
ENDBRANCH  17  20
ENDBRANCH   1  12
BRANCH   2  22
ATOM     22  O   UNL     1      37.871 -28.987  -6.169  1.00  0.00    -0.502 OA
ATOM     23  H   UNL     1      38.250 -28.066  -5.984  1.00  0.00     0.293 HD
ENDBRANCH   2  22
BRANCH   6  24
ATOM     24  O   UNL     1      35.509 -29.011  -1.396  1.00  0.00    -0.507 OA
ATOM     25  H   UNL     1      34.947 -28.845  -0.574  1.00  0.00     0.293 HD
ENDBRANCH   6  24
BRANCH   8  26
ATOM     26  O   UNL     1      36.592 -33.457   0.059  1.00  0.00    -0.508 OA
ATOM     27  H   UNL     1      36.346 -33.234   1.015  1.00  0.00     0.293 HD
ENDBRANCH   8  26
TORSDOF 6
ENDMDL
