MODEL 1
REMARK VINA RESULT:    -6.224      0.000      0.000
REMARK INTER + INTRA:         -13.343
REMARK INTER:                 -12.046
REMARK INTRA:                  -1.297
REMARK UNBOUND:                -1.297
REMARK SMILES CCCCCCCCCCCCCCCCCC(=O)[O-]
REMARK SMILES IDX 10 1 11 2 12 3 13 4 14 5 15 6 16 7 17 8 18 9 19 10 20 11
REMARK SMILES IDX 9 12 8 13 7 14 6 15 5 16 4 17 3 18 2 19 1 20
REMARK H PARENT
REMARK Flexibility Score: inf
ROOT
ATOM      1  C   UNL     1      -2.926  38.385 101.687  1.00  0.00     0.000 C 
ENDROOT
BRANCH   1   2
ATOM      2  C   UNL     1      -2.513  39.166 102.944  1.00  0.00     0.000 C 
BRANCH   2   3
ATOM      3  C   UNL     1      -1.350  40.140 102.692  1.00  0.00     0.000 C 
BRANCH   3   4
ATOM      4  C   UNL     1      -1.656  41.593 103.117  1.00  0.00     0.000 C 
BRANCH   4   5
ATOM      5  C   UNL     1      -3.141  41.949 102.938  1.00  0.00     0.000 C 
BRANCH   5   6
ATOM      6  C   UNL     1      -3.601  43.070 103.884  1.00  0.00     0.000 C 
BRANCH   6   7
ATOM      7  C   UNL     1      -4.923  42.741 104.593  1.00  0.00     0.006 C 
BRANCH   7   8
ATOM      8  C   UNL     1      -5.551  44.003 105.192  1.00  0.00     0.053 C 
BRANCH   8   9
ATOM      9  C   UNL     1      -6.643  44.517 104.307  1.00  0.00     0.041 C 
ATOM     10  O   UNL     1      -6.934  45.741 104.305  1.00  0.00    -0.550 OA
ATOM     11  O   UNL     1      -7.304  43.650 103.446  1.00  0.00    -0.550 OA
ENDBRANCH   8   9
ENDBRANCH   7   8
ENDBRANCH   6   7
ENDBRANCH   5   6
ENDBRANCH   4   5
ENDBRANCH   3   4
ENDBRANCH   2   3
ENDBRANCH   1   2
BRANCH   1  12
ATOM     12  C   UNL     1      -3.647  37.064 102.032  1.00  0.00     0.000 C 
BRANCH  12  13
ATOM     13  C   UNL     1      -4.765  36.700 101.039  1.00  0.00    -0.000 C 
BRANCH  13  14
ATOM     14  C   UNL     1      -4.530  35.349 100.344  1.00  0.00    -0.000 C 
BRANCH  14  15
ATOM     15  C   UNL     1      -3.071  35.154  99.902  1.00  0.00    -0.000 C 
BRANCH  15  16
ATOM     16  C   UNL     1      -2.912  35.159  98.371  1.00  0.00    -0.000 C 
BRANCH  16  17
ATOM     17  C   UNL     1      -3.198  36.537  97.754  1.00  0.00    -0.000 C 
BRANCH  17  18
ATOM     18  C   UNL     1      -4.598  36.629  97.128  1.00  0.00    -0.000 C 
BRANCH  18  19
ATOM     19  C   UNL     1      -5.115  38.072  97.147  1.00  0.00    -0.003 C 
ATOM     20  C   UNL     1      -4.514  38.857  98.309  1.00  0.00     0.004 C 
ENDBRANCH  18  19
ENDBRANCH  17  18
ENDBRANCH  16  17
ENDBRANCH  15  16
ENDBRANCH  14  15
ENDBRANCH  13  14
ENDBRANCH  12  13
ENDBRANCH   1  12
TORSDOF 16
ENDMDL
MODEL 2
REMARK VINA RESULT:    -6.142      1.617      2.928
REMARK INTER + INTRA:         -13.185
REMARK INTER:                 -11.254
REMARK INTRA:                  -1.931
REMARK UNBOUND:                -1.297
REMARK SMILES CCCCCCCCCCCCCCCCCC(=O)[O-]
REMARK SMILES IDX 10 1 11 2 12 3 13 4 14 5 15 6 16 7 17 8 18 9 19 10 20 11
REMARK SMILES IDX 9 12 8 13 7 14 6 15 5 16 4 17 3 18 2 19 1 20
REMARK H PARENT
REMARK Flexibility Score: inf
ROOT
ATOM      1  C   UNL     1      -2.478  38.084 100.853  1.00  0.00     0.000 C 
ENDROOT
BRANCH   1   2
ATOM      2  C   UNL     1      -3.258  37.661 102.108  1.00  0.00     0.000 C 
BRANCH   2   3
ATOM      3  C   UNL     1      -2.864  38.464 103.359  1.00  0.00     0.000 C 
BRANCH   3   4
ATOM      4  C   UNL     1      -2.069  39.750 103.045  1.00  0.00     0.000 C 
BRANCH   4   5
ATOM      5  C   UNL     1      -2.864  41.021 103.387  1.00  0.00     0.000 C 
BRANCH   5   6
ATOM      6  C   UNL     1      -3.303  41.801 102.138  1.00  0.00     0.000 C 
BRANCH   6   7
ATOM      7  C   UNL     1      -3.760  43.231 102.462  1.00  0.00     0.006 C 
BRANCH   7   8
ATOM      8  C   UNL     1      -4.208  43.345 103.922  1.00  0.00     0.053 C 
BRANCH   8   9
ATOM      9  C   UNL     1      -3.530  44.500 104.590  1.00  0.00     0.041 C 
ATOM     10  O   UNL     1      -2.391  44.873 104.207  1.00  0.00    -0.550 OA
ATOM     11  O   UNL     1      -4.179  45.195 105.602  1.00  0.00    -0.550 OA
ENDBRANCH   8   9
ENDBRANCH   7   8
ENDBRANCH   6   7
ENDBRANCH   5   6
ENDBRANCH   4   5
ENDBRANCH   3   4
ENDBRANCH   2   3
ENDBRANCH   1   2
BRANCH   1  12
ATOM     12  C   UNL     1      -3.345  38.912  99.880  1.00  0.00     0.000 C 
BRANCH  12  13
ATOM     13  C   UNL     1      -4.610  38.174  99.409  1.00  0.00    -0.000 C 
BRANCH  13  14
ATOM     14  C   UNL     1      -4.810  38.246  97.886  1.00  0.00    -0.000 C 
BRANCH  14  15
ATOM     15  C   UNL     1      -4.588  36.892  97.192  1.00  0.00    -0.000 C 
BRANCH  15  16
ATOM     16  C   UNL     1      -3.109  36.467  97.188  1.00  0.00    -0.000 C 
BRANCH  16  17
ATOM     17  C   UNL     1      -2.802  35.388  98.238  1.00  0.00    -0.000 C 
BRANCH  17  18
ATOM     18  C   UNL     1      -4.036  34.547  98.602  1.00  0.00    -0.000 C 
BRANCH  18  19
ATOM     19  C   UNL     1      -4.221  34.475 100.122  1.00  0.00    -0.003 C 
ATOM     20  C   UNL     1      -5.498  35.187 100.557  1.00  0.00     0.004 C 
ENDBRANCH  18  19
ENDBRANCH  17  18
ENDBRANCH  16  17
ENDBRANCH  15  16
ENDBRANCH  14  15
ENDBRANCH  13  14
ENDBRANCH  12  13
ENDBRANCH   1  12
TORSDOF 16
ENDMDL
MODEL 3
REMARK VINA RESULT:    -6.125      2.835      7.868
REMARK INTER + INTRA:         -13.151
REMARK INTER:                 -11.696
REMARK INTRA:                  -1.454
REMARK UNBOUND:                -1.297
REMARK SMILES CCCCCCCCCCCCCCCCCC(=O)[O-]
REMARK SMILES IDX 10 1 11 2 12 3 13 4 14 5 15 6 16 7 17 8 18 9 19 10 20 11
REMARK SMILES IDX 9 12 8 13 7 14 6 15 5 16 4 17 3 18 2 19 1 20
REMARK H PARENT
REMARK Flexibility Score: inf
ROOT
ATOM      1  C   UNL     1      -2.816  36.804 101.116  1.00  0.00     0.000 C 
ENDROOT
BRANCH   1   2
ATOM      2  C   UNL     1      -4.329  37.068 101.153  1.00  0.00     0.000 C 
BRANCH   2   3
ATOM      3  C   UNL     1      -5.162  35.848 100.722  1.00  0.00     0.000 C 
BRANCH   3   4
ATOM      4  C   UNL     1      -4.319  34.708 100.111  1.00  0.00     0.000 C 
BRANCH   4   5
ATOM      5  C   UNL     1      -4.349  34.725  98.573  1.00  0.00     0.000 C 
BRANCH   5   6
ATOM      6  C   UNL     1      -3.055  35.284  97.961  1.00  0.00     0.000 C 
BRANCH   6   7
ATOM      7  C   UNL     1      -3.209  36.731  97.470  1.00  0.00     0.006 C 
BRANCH   7   8
ATOM      8  C   UNL     1      -4.495  36.900  96.656  1.00  0.00     0.053 C 
BRANCH   8   9
ATOM      9  C   UNL     1      -5.364  37.956  97.263  1.00  0.00     0.041 C 
ATOM     10  O   UNL     1      -6.616  37.887  97.153  1.00  0.00    -0.550 OA
ATOM     11  O   UNL     1      -4.794  38.991  97.993  1.00  0.00    -0.550 OA
ENDBRANCH   8   9
ENDBRANCH   7   8
ENDBRANCH   6   7
ENDBRANCH   5   6
ENDBRANCH   4   5
ENDBRANCH   3   4
ENDBRANCH   2   3
ENDBRANCH   1   2
BRANCH   1  12
ATOM     12  C   UNL     1      -2.024  37.839 101.945  1.00  0.00     0.000 C 
BRANCH  12  13
ATOM     13  C   UNL     1      -2.867  38.525 103.034  1.00  0.00    -0.000 C 
BRANCH  13  14
ATOM     14  C   UNL     1      -2.887  40.056 102.896  1.00  0.00    -0.000 C 
BRANCH  14  15
ATOM     15  C   UNL     1      -1.478  40.668 102.856  1.00  0.00    -0.000 C 
BRANCH  15  16
ATOM     16  C   UNL     1      -1.454  42.126 103.348  1.00  0.00    -0.000 C 
BRANCH  16  17
ATOM     17  C   UNL     1      -2.741  42.888 102.996  1.00  0.00    -0.000 C 
BRANCH  17  18
ATOM     18  C   UNL     1      -3.424  43.500 104.230  1.00  0.00    -0.000 C 
BRANCH  18  19
ATOM     19  C   UNL     1      -4.714  42.747 104.573  1.00  0.00    -0.003 C 
ATOM     20  C   UNL     1      -5.836  43.712 104.942  1.00  0.00     0.004 C 
ENDBRANCH  18  19
ENDBRANCH  17  18
ENDBRANCH  16  17
ENDBRANCH  15  16
ENDBRANCH  14  15
ENDBRANCH  13  14
ENDBRANCH  12  13
ENDBRANCH   1  12
TORSDOF 16
ENDMDL
MODEL 4
REMARK VINA RESULT:    -6.063      1.370      1.819
REMARK INTER + INTRA:         -13.031
REMARK INTER:                 -11.280
REMARK INTRA:                  -1.751
REMARK UNBOUND:                -1.297
REMARK SMILES CCCCCCCCCCCCCCCCCC(=O)[O-]
REMARK SMILES IDX 10 1 11 2 12 3 13 4 14 5 15 6 16 7 17 8 18 9 19 10 20 11
REMARK SMILES IDX 9 12 8 13 7 14 6 15 5 16 4 17 3 18 2 19 1 20
REMARK H PARENT
REMARK Flexibility Score: inf
ROOT
ATOM      1  C   UNL     1      -2.657  38.393 100.959  1.00  0.00     0.000 C 
ENDROOT
BRANCH   1   2
ATOM      2  C   UNL     1      -1.829  39.251 101.929  1.00  0.00     0.000 C 
BRANCH   2   3
ATOM      3  C   UNL     1      -2.623  39.690 103.171  1.00  0.00     0.000 C 
BRANCH   3   4
ATOM      4  C   UNL     1      -2.825  41.217 103.268  1.00  0.00     0.000 C 
BRANCH   4   5
ATOM      5  C   UNL     1      -1.489  41.980 103.280  1.00  0.00     0.000 C 
BRANCH   5   6
ATOM      6  C   UNL     1      -1.647  43.446 103.713  1.00  0.00     0.000 C 
BRANCH   6   7
ATOM      7  C   UNL     1      -2.056  44.366 102.553  1.00  0.00     0.006 C 
BRANCH   7   8
ATOM      8  C   UNL     1      -3.116  45.376 103.004  1.00  0.00     0.053 C 
BRANCH   8   9
ATOM      9  C   UNL     1      -4.455  44.718 103.113  1.00  0.00     0.041 C 
ATOM     10  O   UNL     1      -4.860  43.951 102.201  1.00  0.00    -0.550 OA
ATOM     11  O   UNL     1      -5.234  44.911 104.247  1.00  0.00    -0.550 OA
ENDBRANCH   8   9
ENDBRANCH   7   8
ENDBRANCH   6   7
ENDBRANCH   5   6
ENDBRANCH   4   5
ENDBRANCH   3   4
ENDBRANCH   2   3
ENDBRANCH   1   2
BRANCH   1  12
ATOM     12  C   UNL     1      -3.194  37.110 101.630  1.00  0.00     0.000 C 
BRANCH  12  13
ATOM     13  C   UNL     1      -4.628  36.750 101.202  1.00  0.00    -0.000 C 
BRANCH  13  14
ATOM     14  C   UNL     1      -4.698  35.450 100.384  1.00  0.00    -0.000 C 
BRANCH  14  15
ATOM     15  C   UNL     1      -3.316  34.964  99.919  1.00  0.00    -0.000 C 
BRANCH  15  16
ATOM     16  C   UNL     1      -3.156  35.018  98.389  1.00  0.00    -0.000 C 
BRANCH  16  17
ATOM     17  C   UNL     1      -3.166  36.456  97.846  1.00  0.00    -0.000 C 
BRANCH  17  18
ATOM     18  C   UNL     1      -4.314  36.708  96.855  1.00  0.00    -0.000 C 
BRANCH  18  19
ATOM     19  C   UNL     1      -5.398  37.590  97.484  1.00  0.00    -0.003 C 
ATOM     20  C   UNL     1      -4.792  38.831  98.131  1.00  0.00     0.004 C 
ENDBRANCH  18  19
ENDBRANCH  17  18
ENDBRANCH  16  17
ENDBRANCH  15  16
ENDBRANCH  14  15
ENDBRANCH  13  14
ENDBRANCH  12  13
ENDBRANCH   1  12
TORSDOF 16
ENDMDL
MODEL 5
REMARK VINA RESULT:    -6.037      1.020      2.575
REMARK INTER + INTRA:         -12.980
REMARK INTER:                 -11.300
REMARK INTRA:                  -1.680
REMARK UNBOUND:                -1.297
REMARK SMILES CCCCCCCCCCCCCCCCCC(=O)[O-]
REMARK SMILES IDX 10 1 11 2 12 3 13 4 14 5 15 6 16 7 17 8 18 9 19 10 20 11
REMARK SMILES IDX 9 12 8 13 7 14 6 15 5 16 4 17 3 18 2 19 1 20
REMARK H PARENT
REMARK Flexibility Score: inf
ROOT
ATOM      1  C   UNL     1      -3.221  39.407 100.345  1.00  0.00     0.000 C 
ENDROOT
BRANCH   1   2
ATOM      2  C   UNL     1      -3.196  38.459 101.555  1.00  0.00     0.000 C 
BRANCH   2   3
ATOM      3  C   UNL     1      -2.752  39.155 102.853  1.00  0.00     0.000 C 
BRANCH   3   4
ATOM      4  C   UNL     1      -1.544  40.098 102.668  1.00  0.00     0.000 C 
BRANCH   4   5
ATOM      5  C   UNL     1      -1.829  41.516 103.191  1.00  0.00     0.000 C 
BRANCH   5   6
ATOM      6  C   UNL     1      -3.276  41.965 102.928  1.00  0.00     0.000 C 
BRANCH   6   7
ATOM      7  C   UNL     1      -3.667  43.208 103.741  1.00  0.00     0.006 C 
BRANCH   7   8
ATOM      8  C   UNL     1      -4.817  42.894 104.702  1.00  0.00     0.053 C 
BRANCH   8   9
ATOM      9  C   UNL     1      -5.931  43.878 104.527  1.00  0.00     0.041 C 
ATOM     10  O   UNL     1      -5.697  45.114 104.567  1.00  0.00    -0.550 OA
ATOM     11  O   UNL     1      -7.220  43.430 104.267  1.00  0.00    -0.550 OA
ENDBRANCH   8   9
ENDBRANCH   7   8
ENDBRANCH   6   7
ENDBRANCH   5   6
ENDBRANCH   4   5
ENDBRANCH   3   4
ENDBRANCH   2   3
ENDBRANCH   1   2
BRANCH   1  12
ATOM     12  C   UNL     1      -3.612  38.677  99.041  1.00  0.00     0.000 C 
BRANCH  12  13
ATOM     13  C   UNL     1      -4.987  37.991  99.113  1.00  0.00    -0.000 C 
BRANCH  13  14
ATOM     14  C   UNL     1      -5.587  37.711  97.725  1.00  0.00    -0.000 C 
BRANCH  14  15
ATOM     15  C   UNL     1      -5.294  36.288  97.227  1.00  0.00    -0.000 C 
BRANCH  15  16
ATOM     16  C   UNL     1      -5.688  35.210  98.252  1.00  0.00    -0.000 C 
BRANCH  16  17
ATOM     17  C   UNL     1      -4.501  34.324  98.662  1.00  0.00    -0.000 C 
BRANCH  17  18
ATOM     18  C   UNL     1      -3.143  34.953  98.313  1.00  0.00    -0.000 C 
BRANCH  18  19
ATOM     19  C   UNL     1      -2.388  35.368  99.581  1.00  0.00    -0.003 C 
ATOM     20  C   UNL     1      -3.180  35.014 100.836  1.00  0.00     0.004 C 
ENDBRANCH  18  19
ENDBRANCH  17  18
ENDBRANCH  16  17
ENDBRANCH  15  16
ENDBRANCH  14  15
ENDBRANCH  13  14
ENDBRANCH  12  13
ENDBRANCH   1  12
TORSDOF 16
ENDMDL
MODEL 6
REMARK VINA RESULT:    -6.014      1.181      2.079
REMARK INTER + INTRA:         -12.937
REMARK INTER:                 -11.661
REMARK INTRA:                  -1.276
REMARK UNBOUND:                -1.297
REMARK SMILES CCCCCCCCCCCCCCCCCC(=O)[O-]
REMARK SMILES IDX 10 1 11 2 12 3 13 4 14 5 15 6 16 7 17 8 18 9 19 10 20 11
REMARK SMILES IDX 9 12 8 13 7 14 6 15 5 16 4 17 3 18 2 19 1 20
REMARK H PARENT
REMARK Flexibility Score: inf
ROOT
ATOM      1  C   UNL     1      -1.872  39.369 102.489  1.00  0.00     0.000 C 
ENDROOT
BRANCH   1   2
ATOM      2  C   UNL     1      -2.838  40.446 103.009  1.00  0.00     0.000 C 
BRANCH   2   3
ATOM      3  C   UNL     1      -3.176  41.511 101.952  1.00  0.00     0.000 C 
BRANCH   3   4
ATOM      4  C   UNL     1      -3.707  42.831 102.551  1.00  0.00     0.000 C 
BRANCH   4   5
ATOM      5  C   UNL     1      -4.075  42.686 104.038  1.00  0.00     0.000 C 
BRANCH   5   6
ATOM      6  C   UNL     1      -4.077  44.031 104.782  1.00  0.00     0.000 C 
BRANCH   6   7
ATOM      7  C   UNL     1      -5.494  44.570 105.028  1.00  0.00     0.006 C 
BRANCH   7   8
ATOM      8  C   UNL     1      -6.551  43.570 104.550  1.00  0.00     0.053 C 
BRANCH   8   9
ATOM      9  C   UNL     1      -7.430  44.193 103.511  1.00  0.00     0.041 C 
ATOM     10  O   UNL     1      -8.597  44.559 103.806  1.00  0.00    -0.550 OA
ATOM     11  O   UNL     1      -6.941  44.416 102.230  1.00  0.00    -0.550 OA
ENDBRANCH   8   9
ENDBRANCH   7   8
ENDBRANCH   6   7
ENDBRANCH   5   6
ENDBRANCH   4   5
ENDBRANCH   3   4
ENDBRANCH   2   3
ENDBRANCH   1   2
BRANCH   1  12
ATOM     12  C   UNL     1      -2.434  38.628 101.258  1.00  0.00     0.000 C 
BRANCH  12  13
ATOM     13  C   UNL     1      -2.648  37.122 101.495  1.00  0.00    -0.000 C 
BRANCH  13  14
ATOM     14  C   UNL     1      -4.115  36.767 101.786  1.00  0.00    -0.000 C 
BRANCH  14  15
ATOM     15  C   UNL     1      -4.982  36.732 100.517  1.00  0.00    -0.000 C 
BRANCH  15  16
ATOM     16  C   UNL     1      -5.328  35.298 100.078  1.00  0.00    -0.000 C 
BRANCH  16  17
ATOM     17  C   UNL     1      -4.889  35.000  98.637  1.00  0.00    -0.000 C 
BRANCH  17  18
ATOM     18  C   UNL     1      -3.402  35.304  98.394  1.00  0.00    -0.000 C 
BRANCH  18  19
ATOM     19  C   UNL     1      -3.234  36.505  97.456  1.00  0.00    -0.003 C 
ATOM     20  C   UNL     1      -4.551  36.863  96.776  1.00  0.00     0.004 C 
ENDBRANCH  18  19
ENDBRANCH  17  18
ENDBRANCH  16  17
ENDBRANCH  15  16
ENDBRANCH  14  15
ENDBRANCH  13  14
ENDBRANCH  12  13
ENDBRANCH   1  12
TORSDOF 16
ENDMDL
MODEL 7
REMARK VINA RESULT:    -5.997      2.114      2.546
REMARK INTER + INTRA:         -12.903
REMARK INTER:                 -11.318
REMARK INTRA:                  -1.585
REMARK UNBOUND:                -1.297
REMARK SMILES CCCCCCCCCCCCCCCCCC(=O)[O-]
REMARK SMILES IDX 10 1 11 2 12 3 13 4 14 5 15 6 16 7 17 8 18 9 19 10 20 11
REMARK SMILES IDX 9 12 8 13 7 14 6 15 5 16 4 17 3 18 2 19 1 20
REMARK H PARENT
REMARK Flexibility Score: inf
ROOT
ATOM      1  C   UNL     1      -2.961  39.253 101.030  1.00  0.00     0.000 C 
ENDROOT
BRANCH   1   2
ATOM      2  C   UNL     1      -2.135  39.511 102.300  1.00  0.00     0.000 C 
BRANCH   2   3
ATOM      3  C   UNL     1      -2.883  40.360 103.341  1.00  0.00     0.000 C 
BRANCH   3   4
ATOM      4  C   UNL     1      -2.604  41.874 103.221  1.00  0.00     0.000 C 
BRANCH   4   5
ATOM      5  C   UNL     1      -3.626  42.582 102.316  1.00  0.00     0.000 C 
BRANCH   5   6
ATOM      6  C   UNL     1      -4.610  43.459 103.107  1.00  0.00     0.000 C 
BRANCH   6   7
ATOM      7  C   UNL     1      -4.438  43.323 104.627  1.00  0.00     0.006 C 
BRANCH   7   8
ATOM      8  C   UNL     1      -4.344  44.698 105.293  1.00  0.00     0.053 C 
BRANCH   8   9
ATOM      9  C   UNL     1      -2.958  44.941 105.804  1.00  0.00     0.041 C 
ATOM     10  O   UNL     1      -1.986  44.976 105.005  1.00  0.00    -0.550 OA
ATOM     11  O   UNL     1      -2.748  45.178 107.156  1.00  0.00    -0.550 OA
ENDBRANCH   8   9
ENDBRANCH   7   8
ENDBRANCH   6   7
ENDBRANCH   5   6
ENDBRANCH   4   5
ENDBRANCH   3   4
ENDBRANCH   2   3
ENDBRANCH   1   2
BRANCH   1  12
ATOM     12  C   UNL     1      -2.607  37.904 100.368  1.00  0.00     0.000 C 
BRANCH  12  13
ATOM     13  C   UNL     1      -3.153  36.685 101.133  1.00  0.00    -0.000 C 
BRANCH  13  14
ATOM     14  C   UNL     1      -2.757  35.348 100.485  1.00  0.00    -0.000 C 
BRANCH  14  15
ATOM     15  C   UNL     1      -3.968  34.451 100.183  1.00  0.00    -0.000 C 
BRANCH  15  16
ATOM     16  C   UNL     1      -5.279  35.249 100.068  1.00  0.00    -0.000 C 
BRANCH  16  17
ATOM     17  C   UNL     1      -5.730  35.434  98.611  1.00  0.00    -0.000 C 
BRANCH  17  18
ATOM     18  C   UNL     1      -5.476  36.856  98.086  1.00  0.00    -0.000 C 
BRANCH  18  19
ATOM     19  C   UNL     1      -4.702  36.823  96.764  1.00  0.00    -0.003 C 
ATOM     20  C   UNL     1      -3.201  36.699  97.006  1.00  0.00     0.004 C 
ENDBRANCH  18  19
ENDBRANCH  17  18
ENDBRANCH  16  17
ENDBRANCH  15  16
ENDBRANCH  14  15
ENDBRANCH  13  14
ENDBRANCH  12  13
ENDBRANCH   1  12
TORSDOF 16
ENDMDL
MODEL 8
REMARK VINA RESULT:    -5.837      1.864      3.442
REMARK INTER + INTRA:         -12.593
REMARK INTER:                 -11.450
REMARK INTRA:                  -1.144
REMARK UNBOUND:                -1.297
REMARK SMILES CCCCCCCCCCCCCCCCCC(=O)[O-]
REMARK SMILES IDX 10 1 11 2 12 3 13 4 14 5 15 6 16 7 17 8 18 9 19 10 20 11
REMARK SMILES IDX 9 12 8 13 7 14 6 15 5 16 4 17 3 18 2 19 1 20
REMARK H PARENT
REMARK Flexibility Score: inf
ROOT
ATOM      1  C   UNL     1      -2.426  40.810 103.124  1.00  0.00     0.000 C 
ENDROOT
BRANCH   1   2
ATOM      2  C   UNL     1      -3.307  41.986 102.671  1.00  0.00     0.000 C 
BRANCH   2   3
ATOM      3  C   UNL     1      -3.632  42.967 103.811  1.00  0.00     0.000 C 
BRANCH   3   4
ATOM      4  C   UNL     1      -4.925  42.617 104.578  1.00  0.00     0.000 C 
BRANCH   4   5
ATOM      5  C   UNL     1      -5.885  43.815 104.671  1.00  0.00     0.000 C 
BRANCH   5   6
ATOM      6  C   UNL     1      -6.951  43.810 103.564  1.00  0.00     0.000 C 
BRANCH   6   7
ATOM      7  C   UNL     1      -6.752  44.940 102.543  1.00  0.00     0.006 C 
BRANCH   7   8
ATOM      8  C   UNL     1      -7.727  44.797 101.371  1.00  0.00     0.053 C 
BRANCH   8   9
ATOM      9  C   UNL     1      -8.802  45.836 101.453  1.00  0.00     0.041 C 
ATOM     10  O   UNL     1      -8.634  46.965 100.924  1.00  0.00    -0.550 OA
ATOM     11  O   UNL     1     -10.010  45.538 102.071  1.00  0.00    -0.550 OA
ENDBRANCH   8   9
ENDBRANCH   7   8
ENDBRANCH   6   7
ENDBRANCH   5   6
ENDBRANCH   4   5
ENDBRANCH   3   4
ENDBRANCH   2   3
ENDBRANCH   1   2
BRANCH   1  12
ATOM     12  C   UNL     1      -2.219  39.771 102.001  1.00  0.00     0.000 C 
BRANCH  12  13
ATOM     13  C   UNL     1      -2.891  38.417 102.288  1.00  0.00    -0.000 C 
BRANCH  13  14
ATOM     14  C   UNL     1      -3.524  37.789 101.035  1.00  0.00    -0.000 C 
BRANCH  14  15
ATOM     15  C   UNL     1      -3.252  38.601  99.759  1.00  0.00    -0.000 C 
BRANCH  15  16
ATOM     16  C   UNL     1      -4.346  38.411  98.694  1.00  0.00    -0.000 C 
BRANCH  16  17
ATOM     17  C   UNL     1      -4.516  36.941  98.280  1.00  0.00    -0.000 C 
BRANCH  17  18
ATOM     18  C   UNL     1      -3.233  36.339  97.685  1.00  0.00    -0.000 C 
BRANCH  18  19
ATOM     19  C   UNL     1      -2.781  35.112  98.485  1.00  0.00    -0.003 C 
ATOM     20  C   UNL     1      -3.958  34.451  99.194  1.00  0.00     0.004 C 
ENDBRANCH  18  19
ENDBRANCH  17  18
ENDBRANCH  16  17
ENDBRANCH  15  16
ENDBRANCH  14  15
ENDBRANCH  13  14
ENDBRANCH  12  13
ENDBRANCH   1  12
TORSDOF 16
ENDMDL
MODEL 9
REMARK VINA RESULT:    -5.756      2.919      3.469
REMARK INTER + INTRA:         -12.436
REMARK INTER:                 -10.939
REMARK INTRA:                  -1.498
REMARK UNBOUND:                -1.297
REMARK SMILES CCCCCCCCCCCCCCCCCC(=O)[O-]
REMARK SMILES IDX 10 1 11 2 12 3 13 4 14 5 15 6 16 7 17 8 18 9 19 10 20 11
REMARK SMILES IDX 9 12 8 13 7 14 6 15 5 16 4 17 3 18 2 19 1 20
REMARK H PARENT
REMARK Flexibility Score: inf
ROOT
ATOM      1  C   UNL     1      -2.090  38.985 101.651  1.00  0.00     0.000 C 
ENDROOT
BRANCH   1   2
ATOM      2  C   UNL     1      -2.522  39.533 103.020  1.00  0.00     0.000 C 
BRANCH   2   3
ATOM      3  C   UNL     1      -2.391  41.062 103.123  1.00  0.00     0.000 C 
BRANCH   3   4
ATOM      4  C   UNL     1      -3.247  41.828 102.091  1.00  0.00     0.000 C 
BRANCH   4   5
ATOM      5  C   UNL     1      -3.560  43.263 102.548  1.00  0.00     0.000 C 
BRANCH   5   6
ATOM      6  C   UNL     1      -3.584  44.264 101.382  1.00  0.00     0.000 C 
BRANCH   6   7
ATOM      7  C   UNL     1      -4.768  44.038 100.431  1.00  0.00     0.006 C 
BRANCH   7   8
ATOM      8  C   UNL     1      -4.294  43.460  99.094  1.00  0.00     0.053 C 
BRANCH   8   9
ATOM      9  C   UNL     1      -4.406  44.485  98.010  1.00  0.00     0.041 C 
ATOM     10  O   UNL     1      -3.379  45.081  97.593  1.00  0.00    -0.550 OA
ATOM     11  O   UNL     1      -5.638  44.746  97.425  1.00  0.00    -0.550 OA
ENDBRANCH   8   9
ENDBRANCH   7   8
ENDBRANCH   6   7
ENDBRANCH   5   6
ENDBRANCH   4   5
ENDBRANCH   3   4
ENDBRANCH   2   3
ENDBRANCH   1   2
BRANCH   1  12
ATOM     12  C   UNL     1      -3.245  38.267 100.919  1.00  0.00     0.000 C 
BRANCH  12  13
ATOM     13  C   UNL     1      -3.654  36.938 101.578  1.00  0.00    -0.000 C 
BRANCH  13  14
ATOM     14  C   UNL     1      -5.069  36.487 101.181  1.00  0.00    -0.000 C 
BRANCH  14  15
ATOM     15  C   UNL     1      -5.066  35.245 100.276  1.00  0.00    -0.000 C 
BRANCH  15  16
ATOM     16  C   UNL     1      -3.651  34.858  99.809  1.00  0.00    -0.000 C 
BRANCH  16  17
ATOM     17  C   UNL     1      -3.492  34.936  98.282  1.00  0.00    -0.000 C 
BRANCH  17  18
ATOM     18  C   UNL     1      -3.160  36.354  97.792  1.00  0.00    -0.000 C 
BRANCH  18  19
ATOM     19  C   UNL     1      -4.283  36.907  96.908  1.00  0.00    -0.003 C 
ATOM     20  C   UNL     1      -5.129  37.926  97.663  1.00  0.00     0.004 C 
ENDBRANCH  18  19
ENDBRANCH  17  18
ENDBRANCH  16  17
ENDBRANCH  15  16
ENDBRANCH  14  15
ENDBRANCH  13  14
ENDBRANCH  12  13
ENDBRANCH   1  12
TORSDOF 16
ENDMDL
