MODEL 1
REMARK VINA RESULT:    -5.899      0.000      0.000
REMARK INTER + INTRA:          -7.218
REMARK INTER:                  -6.933
REMARK INTRA:                  -0.284
REMARK UNBOUND:                -0.284
REMARK SMILES O=c1cc(-c2ccc(O)c(O)c2)oc2cc(O)cc(O)c12
REMARK SMILES IDX 4 1 3 2 2 3 1 4 21 5 19 6 18 7 16 8 15 9 14 10 13 11 5 12
REMARK SMILES IDX 6 13 7 14 8 15 12 16 10 17 9 18 11 20 20 22 17 24
REMARK H PARENT 9 19 11 21 20 23 17 25
REMARK Flexibility Score: inf
ROOT
ATOM      1  C   UNL     1      -0.997  39.722   7.506  1.00  0.00     0.138 A 
ATOM      2  C   UNL     1       0.194  40.417   7.263  1.00  0.00     0.100 A 
ATOM      3  C   UNL     1       1.267  39.761   6.659  1.00  0.00     0.197 A 
ATOM      4  O   UNL     1       2.342  40.398   6.505  1.00  0.00    -0.289 OA
ATOM      5  C   UNL     1       1.132  38.408   6.263  1.00  0.00     0.107 A 
ATOM      6  C   UNL     1       2.147  37.646   5.607  1.00  0.00     0.134 A 
ATOM      7  C   UNL     1       1.931  36.286   5.353  1.00  0.00     0.093 A 
ATOM      8  C   UNL     1       0.721  35.675   5.676  1.00  0.00     0.123 A 
ATOM      9  C   UNL     1      -0.297  36.422   6.272  1.00  0.00     0.094 A 
ATOM     10  C   UNL     1      -0.100  37.772   6.571  1.00  0.00     0.146 A 
ATOM     11  O   UNL     1      -1.088  38.443   7.154  1.00  0.00    -0.456 OA
ENDROOT
BRANCH   1  12
ATOM     12  C   UNL     1      -2.171  40.371   8.144  1.00  0.00     0.021 A 
ATOM     13  C   UNL     1      -2.715  41.567   7.645  1.00  0.00     0.016 A 
ATOM     14  C   UNL     1      -3.813  42.160   8.272  1.00  0.00     0.051 A 
ATOM     15  C   UNL     1      -4.387  41.581   9.408  1.00  0.00     0.157 A 
ATOM     16  C   UNL     1      -2.738  39.797   9.294  1.00  0.00     0.062 A 
ATOM     17  C   UNL     1      -3.841  40.384   9.927  1.00  0.00     0.158 A 
BRANCH  15  18
ATOM     18  O   UNL     1      -5.485  42.222   9.984  1.00  0.00    -0.504 OA
ATOM     19  H   UNL     1      -5.627  42.314  10.979  1.00  0.00     0.293 HD
ENDBRANCH  15  18
BRANCH  17  20
ATOM     20  O   UNL     1      -4.356  39.750  11.061  1.00  0.00    -0.504 OA
ATOM     21  H   UNL     1      -3.832  39.599  11.910  1.00  0.00     0.293 HD
ENDBRANCH  17  20
ENDBRANCH   1  12
BRANCH   6  22
ATOM     22  O   UNL     1       3.363  38.176   5.168  1.00  0.00    -0.507 OA
ATOM     23  H   UNL     1       3.527  39.145   4.943  1.00  0.00     0.293 HD
ENDBRANCH   6  22
BRANCH   8  24
ATOM     24  O   UNL     1       0.537  34.323   5.394  1.00  0.00    -0.508 OA
ATOM     25  H   UNL     1      -0.191  34.007   4.764  1.00  0.00     0.293 HD
ENDBRANCH   8  24
TORSDOF 5
ENDMDL
MODEL 2
REMARK VINA RESULT:    -5.770      3.653      6.231
REMARK INTER + INTRA:          -7.066
REMARK INTER:                  -6.801
REMARK INTRA:                  -0.265
REMARK UNBOUND:                -0.284
REMARK SMILES O=c1cc(-c2ccc(O)c(O)c2)oc2cc(O)cc(O)c12
REMARK SMILES IDX 4 1 3 2 2 3 1 4 21 5 19 6 18 7 16 8 15 9 14 10 13 11 5 12
REMARK SMILES IDX 6 13 7 14 8 15 12 16 10 17 9 18 11 20 20 22 17 24
REMARK H PARENT 9 19 11 21 20 23 17 25
REMARK Flexibility Score: inf
ROOT
ATOM      1  C   UNL     1       3.219  37.942   6.345  1.00  0.00     0.138 A 
ATOM      2  C   UNL     1       3.667  38.850   5.377  1.00  0.00     0.100 A 
ATOM      3  C   UNL     1       4.910  39.465   5.529  1.00  0.00     0.197 A 
ATOM      4  O   UNL     1       5.260  40.318   4.672  1.00  0.00    -0.289 OA
ATOM      5  C   UNL     1       5.725  39.140   6.641  1.00  0.00     0.107 A 
ATOM      6  C   UNL     1       7.026  39.678   6.882  1.00  0.00     0.134 A 
ATOM      7  C   UNL     1       7.696  39.354   8.069  1.00  0.00     0.093 A 
ATOM      8  C   UNL     1       7.141  38.471   8.993  1.00  0.00     0.123 A 
ATOM      9  C   UNL     1       5.892  37.900   8.744  1.00  0.00     0.094 A 
ATOM     10  C   UNL     1       5.182  38.229   7.586  1.00  0.00     0.146 A 
ATOM     11  O   UNL     1       3.989  37.677   7.395  1.00  0.00    -0.456 OA
ENDROOT
BRANCH   1  12
ATOM     12  C   UNL     1       1.906  37.257   6.232  1.00  0.00     0.021 A 
ATOM     13  C   UNL     1       1.750  36.078   5.483  1.00  0.00     0.016 A 
ATOM     14  C   UNL     1       0.500  35.462   5.387  1.00  0.00     0.051 A 
ATOM     15  C   UNL     1      -0.618  36.007   6.026  1.00  0.00     0.157 A 
ATOM     16  C   UNL     1       0.780  37.813   6.861  1.00  0.00     0.062 A 
ATOM     17  C   UNL     1      -0.476  37.200   6.771  1.00  0.00     0.158 A 
BRANCH  15  18
ATOM     18  O   UNL     1      -1.837  35.340   5.892  1.00  0.00    -0.504 OA
ATOM     19  H   UNL     1      -2.464  35.151   6.659  1.00  0.00     0.293 HD
ENDBRANCH  15  18
BRANCH  17  20
ATOM     20  O   UNL     1      -1.547  37.808   7.432  1.00  0.00    -0.504 OA
ATOM     21  H   UNL     1      -1.551  38.770   7.736  1.00  0.00     0.293 HD
ENDBRANCH  17  20
ENDBRANCH   1  12
BRANCH   6  22
ATOM     22  O   UNL     1       7.709  40.507   5.988  1.00  0.00    -0.507 OA
ATOM     23  H   UNL     1       8.432  40.206   5.354  1.00  0.00     0.293 HD
ENDBRANCH   6  22
BRANCH   8  24
ATOM     24  O   UNL     1       7.843  38.161  10.155  1.00  0.00    -0.508 OA
ATOM     25  H   UNL     1       8.661  37.563  10.137  1.00  0.00     0.293 HD
ENDBRANCH   8  24
TORSDOF 5
ENDMDL
MODEL 3
REMARK VINA RESULT:    -5.767      3.097      7.220
REMARK INTER + INTRA:          -7.063
REMARK INTER:                  -6.800
REMARK INTRA:                  -0.263
REMARK UNBOUND:                -0.284
REMARK SMILES O=c1cc(-c2ccc(O)c(O)c2)oc2cc(O)cc(O)c12
REMARK SMILES IDX 4 1 3 2 2 3 1 4 21 5 19 6 18 7 16 8 15 9 14 10 13 11 5 12
REMARK SMILES IDX 6 13 7 14 8 15 12 16 10 17 9 18 11 20 20 22 17 24
REMARK H PARENT 9 19 11 21 20 23 17 25
REMARK Flexibility Score: inf
ROOT
ATOM      1  C   UNL     1       2.652  38.022   6.879  1.00  0.00     0.138 A 
ATOM      2  C   UNL     1       2.252  36.935   6.092  1.00  0.00     0.100 A 
ATOM      3  C   UNL     1       0.902  36.766   5.781  1.00  0.00     0.197 A 
ATOM      4  O   UNL     1       0.568  35.748   5.119  1.00  0.00    -0.289 OA
ATOM      5  C   UNL     1      -0.048  37.714   6.232  1.00  0.00     0.107 A 
ATOM      6  C   UNL     1      -1.446  37.665   5.947  1.00  0.00     0.134 A 
ATOM      7  C   UNL     1      -2.302  38.607   6.531  1.00  0.00     0.093 A 
ATOM      8  C   UNL     1      -1.807  39.628   7.339  1.00  0.00     0.123 A 
ATOM      9  C   UNL     1      -0.436  39.717   7.584  1.00  0.00     0.094 A 
ATOM     10  C   UNL     1       0.441  38.772   7.045  1.00  0.00     0.146 A 
ATOM     11  O   UNL     1       1.737  38.881   7.316  1.00  0.00    -0.456 OA
ENDROOT
BRANCH   1  12
ATOM     12  C   UNL     1       4.075  38.252   7.238  1.00  0.00     0.021 A 
ATOM     13  C   UNL     1       4.851  39.230   6.594  1.00  0.00     0.016 A 
ATOM     14  C   UNL     1       6.190  39.416   6.946  1.00  0.00     0.051 A 
ATOM     15  C   UNL     1       6.784  38.630   7.938  1.00  0.00     0.157 A 
ATOM     16  C   UNL     1       4.676  37.452   8.224  1.00  0.00     0.062 A 
ATOM     17  C   UNL     1       6.017  37.633   8.585  1.00  0.00     0.158 A 
BRANCH  15  18
ATOM     18  O   UNL     1       8.125  38.869   8.245  1.00  0.00    -0.504 OA
ATOM     19  H   UNL     1       8.435  39.486   8.981  1.00  0.00     0.293 HD
ENDBRANCH  15  18
BRANCH  17  20
ATOM     20  O   UNL     1       6.543  36.806   9.581  1.00  0.00    -0.504 OA
ATOM     21  H   UNL     1       7.150  36.020   9.400  1.00  0.00     0.293 HD
ENDBRANCH  17  20
ENDBRANCH   1  12
BRANCH   6  22
ATOM     22  O   UNL     1      -2.038  36.734   5.088  1.00  0.00    -0.507 OA
ATOM     23  H   UNL     1      -1.538  36.084   4.503  1.00  0.00     0.293 HD
ENDBRANCH   6  22
BRANCH   8  24
ATOM     24  O   UNL     1      -2.687  40.556   7.891  1.00  0.00    -0.508 OA
ATOM     25  H   UNL     1      -2.462  41.061   8.741  1.00  0.00     0.293 HD
ENDBRANCH   8  24
TORSDOF 5
ENDMDL
MODEL 4
REMARK VINA RESULT:    -5.659      1.944      2.880
REMARK INTER + INTRA:          -6.936
REMARK INTER:                  -6.658
REMARK INTRA:                  -0.278
REMARK UNBOUND:                -0.284
REMARK SMILES O=c1cc(-c2ccc(O)c(O)c2)oc2cc(O)cc(O)c12
REMARK SMILES IDX 4 1 3 2 2 3 1 4 21 5 19 6 18 7 16 8 15 9 14 10 13 11 5 12
REMARK SMILES IDX 6 13 7 14 8 15 12 16 10 17 9 18 11 20 20 22 17 24
REMARK H PARENT 9 19 11 21 20 23 17 25
REMARK Flexibility Score: inf
ROOT
ATOM      1  C   UNL     1      -2.596  39.564   8.028  1.00  0.00     0.138 A 
ATOM      2  C   UNL     1      -1.294  39.761   7.548  1.00  0.00     0.100 A 
ATOM      3  C   UNL     1      -0.580  38.683   7.025  1.00  0.00     0.197 A 
ATOM      4  O   UNL     1       0.606  38.880   6.654  1.00  0.00    -0.289 OA
ATOM      5  C   UNL     1      -1.188  37.406   6.950  1.00  0.00     0.107 A 
ATOM      6  C   UNL     1      -0.569  36.240   6.404  1.00  0.00     0.134 A 
ATOM      7  C   UNL     1      -1.234  35.010   6.474  1.00  0.00     0.093 A 
ATOM      8  C   UNL     1      -2.515  34.913   7.015  1.00  0.00     0.123 A 
ATOM      9  C   UNL     1      -3.151  36.054   7.505  1.00  0.00     0.094 A 
ATOM     10  C   UNL     1      -2.500  37.290   7.482  1.00  0.00     0.146 A 
ATOM     11  O   UNL     1      -3.132  38.350   7.974  1.00  0.00    -0.456 OA
ENDROOT
BRANCH   1  12
ATOM     12  C   UNL     1      -3.402  40.677   8.592  1.00  0.00     0.021 A 
ATOM     13  C   UNL     1      -4.197  40.506   9.738  1.00  0.00     0.016 A 
ATOM     14  C   UNL     1      -4.952  41.569  10.240  1.00  0.00     0.051 A 
ATOM     15  C   UNL     1      -4.938  42.816   9.610  1.00  0.00     0.157 A 
ATOM     16  C   UNL     1      -3.399  41.927   7.950  1.00  0.00     0.062 A 
ATOM     17  C   UNL     1      -4.152  42.998   8.448  1.00  0.00     0.158 A 
BRANCH  15  18
ATOM     18  O   UNL     1      -5.713  43.837  10.164  1.00  0.00    -0.504 OA
ATOM     19  H   UNL     1      -5.581  44.205  11.094  1.00  0.00     0.293 HD
ENDBRANCH  15  18
BRANCH  17  20
ATOM     20  O   UNL     1      -4.091  44.213   7.761  1.00  0.00    -0.504 OA
ATOM     21  H   UNL     1      -3.346  44.468   7.130  1.00  0.00     0.293 HD
ENDBRANCH  17  20
ENDBRANCH   1  12
BRANCH   6  22
ATOM     22  O   UNL     1       0.676  36.239   5.768  1.00  0.00    -0.507 OA
ATOM     23  H   UNL     1       1.520  35.838   6.146  1.00  0.00     0.293 HD
ENDBRANCH   6  22
BRANCH   8  24
ATOM     24  O   UNL     1      -3.152  33.674   7.054  1.00  0.00    -0.508 OA
ATOM     25  H   UNL     1      -2.887  32.962   7.724  1.00  0.00     0.293 HD
ENDBRANCH   8  24
TORSDOF 5
ENDMDL
MODEL 5
REMARK VINA RESULT:    -5.649      1.093      2.755
REMARK INTER + INTRA:          -6.924
REMARK INTER:                  -6.647
REMARK INTRA:                  -0.276
REMARK UNBOUND:                -0.284
REMARK SMILES O=c1cc(-c2ccc(O)c(O)c2)oc2cc(O)cc(O)c12
REMARK SMILES IDX 4 1 3 2 2 3 1 4 21 5 19 6 18 7 16 8 15 9 14 10 13 11 5 12
REMARK SMILES IDX 6 13 7 14 8 15 12 16 10 17 9 18 11 20 20 22 17 24
REMARK H PARENT 9 19 11 21 20 23 17 25
REMARK Flexibility Score: inf
ROOT
ATOM      1  C   UNL     1      -1.851  38.477   7.456  1.00  0.00     0.138 A 
ATOM      2  C   UNL     1      -2.309  37.165   7.276  1.00  0.00     0.100 A 
ATOM      3  C   UNL     1      -1.490  36.227   6.646  1.00  0.00     0.197 A 
ATOM      4  O   UNL     1      -1.951  35.073   6.449  1.00  0.00    -0.289 OA
ATOM      5  C   UNL     1      -0.189  36.598   6.225  1.00  0.00     0.107 A 
ATOM      6  C   UNL     1       0.748  35.718   5.603  1.00  0.00     0.134 A 
ATOM      7  C   UNL     1       1.969  36.226   5.142  1.00  0.00     0.093 A 
ATOM      8  C   UNL     1       2.312  37.563   5.332  1.00  0.00     0.123 A 
ATOM      9  C   UNL     1       1.425  38.421   5.984  1.00  0.00     0.094 A 
ATOM     10  C   UNL     1       0.184  37.955   6.424  1.00  0.00     0.146 A 
ATOM     11  O   UNL     1      -0.638  38.808   7.024  1.00  0.00    -0.456 OA
ENDROOT
BRANCH   1  12
ATOM     12  C   UNL     1      -2.679  39.514   8.122  1.00  0.00     0.021 A 
ATOM     13  C   UNL     1      -2.775  40.821   7.616  1.00  0.00     0.016 A 
ATOM     14  C   UNL     1      -3.555  41.778   8.270  1.00  0.00     0.051 A 
ATOM     15  C   UNL     1      -4.247  41.457   9.441  1.00  0.00     0.157 A 
ATOM     16  C   UNL     1      -3.363  39.195   9.307  1.00  0.00     0.062 A 
ATOM     17  C   UNL     1      -4.148  40.148   9.969  1.00  0.00     0.158 A 
BRANCH  15  18
ATOM     18  O   UNL     1      -5.010  42.458  10.044  1.00  0.00    -0.504 OA
ATOM     19  H   UNL     1      -5.832  42.283  10.604  1.00  0.00     0.293 HD
ENDBRANCH  15  18
BRANCH  17  20
ATOM     20  O   UNL     1      -4.806  39.755  11.137  1.00  0.00    -0.504 OA
ATOM     21  H   UNL     1      -5.563  39.088  11.161  1.00  0.00     0.293 HD
ENDBRANCH  17  20
ENDBRANCH   1  12
BRANCH   6  22
ATOM     22  O   UNL     1       0.541  34.346   5.435  1.00  0.00    -0.507 OA
ATOM     23  H   UNL     1      -0.019  33.928   4.708  1.00  0.00     0.293 HD
ENDBRANCH   6  22
BRANCH   8  24
ATOM     24  O   UNL     1       3.542  38.029   4.873  1.00  0.00    -0.508 OA
ATOM     25  H   UNL     1       3.606  38.722   4.137  1.00  0.00     0.293 HD
ENDBRANCH   8  24
TORSDOF 5
ENDMDL
MODEL 6
REMARK VINA RESULT:    -5.609      1.252      3.122
REMARK INTER + INTRA:          -6.878
REMARK INTER:                  -6.588
REMARK INTRA:                  -0.289
REMARK UNBOUND:                -0.284
REMARK SMILES O=c1cc(-c2ccc(O)c(O)c2)oc2cc(O)cc(O)c12
REMARK SMILES IDX 4 1 3 2 2 3 1 4 21 5 19 6 18 7 16 8 15 9 14 10 13 11 5 12
REMARK SMILES IDX 6 13 7 14 8 15 12 16 10 17 9 18 11 20 20 22 17 24
REMARK H PARENT 9 19 11 21 20 23 17 25
REMARK Flexibility Score: inf
ROOT
ATOM      1  C   UNL     1      -1.941  38.574   7.605  1.00  0.00     0.138 A 
ATOM      2  C   UNL     1      -2.458  37.303   7.323  1.00  0.00     0.100 A 
ATOM      3  C   UNL     1      -1.658  36.357   6.681  1.00  0.00     0.197 A 
ATOM      4  O   UNL     1      -2.169  35.244   6.392  1.00  0.00    -0.289 OA
ATOM      5  C   UNL     1      -0.318  36.677   6.352  1.00  0.00     0.107 A 
ATOM      6  C   UNL     1       0.603  35.781   5.727  1.00  0.00     0.134 A 
ATOM      7  C   UNL     1       1.873  36.244   5.362  1.00  0.00     0.093 A 
ATOM      8  C   UNL     1       2.277  37.546   5.649  1.00  0.00     0.123 A 
ATOM      9  C   UNL     1       1.404  38.415   6.304  1.00  0.00     0.094 A 
ATOM     10  C   UNL     1       0.117  37.996   6.650  1.00  0.00     0.146 A 
ATOM     11  O   UNL     1      -0.690  38.859   7.258  1.00  0.00    -0.456 OA
ENDROOT
BRANCH   1  12
ATOM     12  C   UNL     1      -2.747  39.617   8.289  1.00  0.00     0.021 A 
ATOM     13  C   UNL     1      -3.474  39.340   9.459  1.00  0.00     0.016 A 
ATOM     14  C   UNL     1      -4.232  40.340  10.074  1.00  0.00     0.051 A 
ATOM     15  C   UNL     1      -4.287  41.629   9.536  1.00  0.00     0.157 A 
ATOM     16  C   UNL     1      -2.814  40.909   7.740  1.00  0.00     0.062 A 
ATOM     17  C   UNL     1      -3.570  41.917   8.352  1.00  0.00     0.158 A 
BRANCH  15  18
ATOM     18  O   UNL     1      -5.060  42.582  10.201  1.00  0.00    -0.504 OA
ATOM     19  H   UNL     1      -4.680  43.393  10.667  1.00  0.00     0.293 HD
ENDBRANCH  15  18
BRANCH  17  20
ATOM     20  O   UNL     1      -3.580  43.179   7.752  1.00  0.00    -0.504 OA
ATOM     21  H   UNL     1      -4.366  43.556   7.244  1.00  0.00     0.293 HD
ENDBRANCH  17  20
ENDBRANCH   1  12
BRANCH   6  22
ATOM     22  O   UNL     1       0.332  34.435   5.466  1.00  0.00    -0.507 OA
ATOM     23  H   UNL     1      -0.587  34.045   5.322  1.00  0.00     0.293 HD
ENDBRANCH   6  22
BRANCH   8  24
ATOM     24  O   UNL     1       3.554  37.966   5.283  1.00  0.00    -0.508 OA
ATOM     25  H   UNL     1       4.083  38.614   5.855  1.00  0.00     0.293 HD
ENDBRANCH   8  24
TORSDOF 5
ENDMDL
MODEL 7
REMARK VINA RESULT:    -5.370      2.041      7.193
REMARK INTER + INTRA:          -6.596
REMARK INTER:                  -6.321
REMARK INTRA:                  -0.275
REMARK UNBOUND:                -0.284
REMARK SMILES O=c1cc(-c2ccc(O)c(O)c2)oc2cc(O)cc(O)c12
REMARK SMILES IDX 4 1 3 2 2 3 1 4 21 5 19 6 18 7 16 8 15 9 14 10 13 11 5 12
REMARK SMILES IDX 6 13 7 14 8 15 12 16 10 17 9 18 11 20 20 22 17 24
REMARK H PARENT 9 19 11 21 20 23 17 25
REMARK Flexibility Score: inf
ROOT
ATOM      1  C   UNL     1      -2.447  39.083   7.790  1.00  0.00     0.138 A 
ATOM      2  C   UNL     1      -3.131  39.025   9.011  1.00  0.00     0.100 A 
ATOM      3  C   UNL     1      -3.756  40.168   9.509  1.00  0.00     0.197 A 
ATOM      4  O   UNL     1      -4.314  40.098  10.635  1.00  0.00    -0.289 OA
ATOM      5  C   UNL     1      -3.725  41.370   8.759  1.00  0.00     0.107 A 
ATOM      6  C   UNL     1      -4.356  42.590   9.150  1.00  0.00     0.134 A 
ATOM      7  C   UNL     1      -4.173  43.740   8.372  1.00  0.00     0.093 A 
ATOM      8  C   UNL     1      -3.434  43.702   7.192  1.00  0.00     0.123 A 
ATOM      9  C   UNL     1      -2.854  42.504   6.774  1.00  0.00     0.094 A 
ATOM     10  C   UNL     1      -2.988  41.347   7.545  1.00  0.00     0.146 A 
ATOM     11  O   UNL     1      -2.407  40.230   7.121  1.00  0.00    -0.456 OA
ENDROOT
BRANCH   1  12
ATOM     12  C   UNL     1      -1.767  37.895   7.213  1.00  0.00     0.021 A 
ATOM     13  C   UNL     1      -0.470  37.973   6.678  1.00  0.00     0.016 A 
ATOM     14  C   UNL     1       0.140  36.841   6.133  1.00  0.00     0.051 A 
ATOM     15  C   UNL     1      -0.528  35.614   6.102  1.00  0.00     0.157 A 
ATOM     16  C   UNL     1      -2.444  36.665   7.168  1.00  0.00     0.062 A 
ATOM     17  C   UNL     1      -1.839  35.525   6.625  1.00  0.00     0.158 A 
BRANCH  15  18
ATOM     18  O   UNL     1       0.139  34.521   5.546  1.00  0.00    -0.504 OA
ATOM     19  H   UNL     1       0.272  34.385   4.555  1.00  0.00     0.293 HD
ENDBRANCH  15  18
BRANCH  17  20
ATOM     20  O   UNL     1      -2.572  34.335   6.624  1.00  0.00    -0.504 OA
ATOM     21  H   UNL     1      -2.156  33.416   6.655  1.00  0.00     0.293 HD
ENDBRANCH  17  20
ENDBRANCH   1  12
BRANCH   6  22
ATOM     22  O   UNL     1      -5.184  42.720  10.269  1.00  0.00    -0.507 OA
ATOM     23  H   UNL     1      -4.885  43.036  11.178  1.00  0.00     0.293 HD
ENDBRANCH   6  22
BRANCH   8  24
ATOM     24  O   UNL     1      -3.286  44.864   6.436  1.00  0.00    -0.508 OA
ATOM     25  H   UNL     1      -2.796  45.673   6.799  1.00  0.00     0.293 HD
ENDBRANCH   8  24
TORSDOF 5
ENDMDL
MODEL 8
REMARK VINA RESULT:    -5.355      1.929      3.390
REMARK INTER + INTRA:          -6.579
REMARK INTER:                  -6.290
REMARK INTRA:                  -0.289
REMARK UNBOUND:                -0.284
REMARK SMILES O=c1cc(-c2ccc(O)c(O)c2)oc2cc(O)cc(O)c12
REMARK SMILES IDX 4 1 3 2 2 3 1 4 21 5 19 6 18 7 16 8 15 9 14 10 13 11 5 12
REMARK SMILES IDX 6 13 7 14 8 15 12 16 10 17 9 18 11 20 20 22 17 24
REMARK H PARENT 9 19 11 21 20 23 17 25
REMARK Flexibility Score: inf
ROOT
ATOM      1  C   UNL     1      -2.636  38.748   7.714  1.00  0.00     0.138 A 
ATOM      2  C   UNL     1      -3.303  37.677   8.322  1.00  0.00     0.100 A 
ATOM      3  C   UNL     1      -2.860  36.372   8.103  1.00  0.00     0.197 A 
ATOM      4  O   UNL     1      -3.514  35.428   8.618  1.00  0.00    -0.289 OA
ATOM      5  C   UNL     1      -1.718  36.142   7.297  1.00  0.00     0.107 A 
ATOM      6  C   UNL     1      -1.154  34.858   7.031  1.00  0.00     0.134 A 
ATOM      7  C   UNL     1      -0.081  34.748   6.138  1.00  0.00     0.093 A 
ATOM      8  C   UNL     1       0.485  35.877   5.548  1.00  0.00     0.123 A 
ATOM      9  C   UNL     1      -0.026  37.142   5.840  1.00  0.00     0.094 A 
ATOM     10  C   UNL     1      -1.118  37.283   6.699  1.00  0.00     0.146 A 
ATOM     11  O   UNL     1      -1.586  38.504   6.937  1.00  0.00    -0.456 OA
ENDROOT
BRANCH   1  12
ATOM     12  C   UNL     1      -3.063  40.156   7.915  1.00  0.00     0.021 A 
ATOM     13  C   UNL     1      -2.757  41.161   6.982  1.00  0.00     0.016 A 
ATOM     14  C   UNL     1      -3.164  42.479   7.204  1.00  0.00     0.051 A 
ATOM     15  C   UNL     1      -3.875  42.824   8.357  1.00  0.00     0.157 A 
ATOM     16  C   UNL     1      -3.765  40.505   9.081  1.00  0.00     0.062 A 
ATOM     17  C   UNL     1      -4.178  41.824   9.310  1.00  0.00     0.158 A 
BRANCH  15  18
ATOM     18  O   UNL     1      -4.254  44.158   8.516  1.00  0.00    -0.504 OA
ATOM     19  H   UNL     1      -5.164  44.452   8.838  1.00  0.00     0.293 HD
ENDBRANCH  15  18
BRANCH  17  20
ATOM     20  O   UNL     1      -4.879  42.093  10.488  1.00  0.00    -0.504 OA
ATOM     21  H   UNL     1      -5.311  41.384  11.062  1.00  0.00     0.293 HD
ENDBRANCH  17  20
ENDBRANCH   1  12
BRANCH   6  22
ATOM     22  O   UNL     1      -1.590  33.672   7.628  1.00  0.00    -0.507 OA
ATOM     23  H   UNL     1      -1.061  32.815   7.672  1.00  0.00     0.293 HD
ENDBRANCH   6  22
BRANCH   8  24
ATOM     24  O   UNL     1       1.562  35.730   4.676  1.00  0.00    -0.508 OA
ATOM     25  H   UNL     1       1.641  36.287   3.833  1.00  0.00     0.293 HD
ENDBRANCH   8  24
TORSDOF 5
ENDMDL
MODEL 9
REMARK VINA RESULT:    -5.142      1.758      6.964
REMARK INTER + INTRA:          -6.328
REMARK INTER:                  -6.022
REMARK INTRA:                  -0.306
REMARK UNBOUND:                -0.284
REMARK SMILES O=c1cc(-c2ccc(O)c(O)c2)oc2cc(O)cc(O)c12
REMARK SMILES IDX 4 1 3 2 2 3 1 4 21 5 19 6 18 7 16 8 15 9 14 10 13 11 5 12
REMARK SMILES IDX 6 13 7 14 8 15 12 16 10 17 9 18 11 20 20 22 17 24
REMARK H PARENT 9 19 11 21 20 23 17 25
REMARK Flexibility Score: inf
ROOT
ATOM      1  C   UNL     1      -1.773  39.204   7.456  1.00  0.00     0.138 A 
ATOM      2  C   UNL     1      -1.844  40.544   7.051  1.00  0.00     0.100 A 
ATOM      3  C   UNL     1      -2.732  41.412   7.688  1.00  0.00     0.197 A 
ATOM      4  O   UNL     1      -2.813  42.594   7.264  1.00  0.00    -0.289 OA
ATOM      5  C   UNL     1      -3.528  40.942   8.761  1.00  0.00     0.107 A 
ATOM      6  C   UNL     1      -4.444  41.745   9.507  1.00  0.00     0.134 A 
ATOM      7  C   UNL     1      -5.249  41.144  10.483  1.00  0.00     0.093 A 
ATOM      8  C   UNL     1      -5.132  39.788  10.780  1.00  0.00     0.123 A 
ATOM      9  C   UNL     1      -4.205  39.004  10.092  1.00  0.00     0.094 A 
ATOM     10  C   UNL     1      -3.412  39.565   9.088  1.00  0.00     0.146 A 
ATOM     11  O   UNL     1      -2.554  38.781   8.445  1.00  0.00    -0.456 OA
ENDROOT
BRANCH   1  12
ATOM     12  C   UNL     1      -0.844  38.238   6.816  1.00  0.00     0.021 A 
ATOM     13  C   UNL     1       0.383  38.646   6.267  1.00  0.00     0.016 A 
ATOM     14  C   UNL     1       1.231  37.715   5.662  1.00  0.00     0.051 A 
ATOM     15  C   UNL     1       0.874  36.366   5.586  1.00  0.00     0.157 A 
ATOM     16  C   UNL     1      -1.210  36.885   6.727  1.00  0.00     0.062 A 
ATOM     17  C   UNL     1      -0.364  35.945   6.124  1.00  0.00     0.158 A 
BRANCH  15  18
ATOM     18  O   UNL     1       1.769  35.487   4.972  1.00  0.00    -0.504 OA
ATOM     19  H   UNL     1       1.923  35.443   3.975  1.00  0.00     0.293 HD
ENDBRANCH  15  18
BRANCH  17  20
ATOM     20  O   UNL     1      -0.792  34.615   6.080  1.00  0.00    -0.504 OA
ATOM     21  H   UNL     1      -1.009  34.120   5.228  1.00  0.00     0.293 HD
ENDBRANCH  17  20
ENDBRANCH   1  12
BRANCH   6  22
ATOM     22  O   UNL     1      -4.585  43.126   9.347  1.00  0.00    -0.507 OA
ATOM     23  H   UNL     1      -3.831  43.769   9.162  1.00  0.00     0.293 HD
ENDBRANCH   6  22
BRANCH   8  24
ATOM     24  O   UNL     1      -5.939  39.229  11.769  1.00  0.00    -0.508 OA
ATOM     25  H   UNL     1      -6.894  38.948  11.577  1.00  0.00     0.293 HD
ENDBRANCH   8  24
TORSDOF 5
ENDMDL
