MODEL 1
REMARK VINA RESULT:    -4.193      0.000      0.000
REMARK INTER + INTRA:         -15.372
REMARK INTER:                 -10.567
REMARK INTRA:                  -4.806
REMARK UNBOUND:                -4.806
REMARK SMILES CCCCCCCCCCCCCCCCCCCCCCCCCCCC(=O)[O-]
REMARK SMILES IDX 15 1 16 2 17 3 18 4 19 5 20 6 21 7 22 8 23 9 24 10 25 11
REMARK SMILES IDX 26 12 27 13 28 14 29 15 30 16 14 17 13 18 12 19 11 20 10 21
REMARK SMILES IDX 9 22 8 23 7 24 6 25 5 26 4 27 3 28 2 29 1 30
REMARK H PARENT
REMARK Flexibility Score: inf
ROOT
ATOM      1  C   UNL     1      25.253   3.596   8.968  1.00  0.00     0.000 C 
ENDROOT
BRANCH   1   2
ATOM      2  C   UNL     1      23.920   4.106   8.396  1.00  0.00     0.000 C 
BRANCH   2   3
ATOM      3  C   UNL     1      24.124   5.026   7.179  1.00  0.00     0.000 C 
BRANCH   3   4
ATOM      4  C   UNL     1      25.605   5.240   6.833  1.00  0.00     0.000 C 
BRANCH   4   5
ATOM      5  C   UNL     1      25.970   6.724   6.667  1.00  0.00     0.000 C 
BRANCH   5   6
ATOM      6  C   UNL     1      26.808   7.224   7.849  1.00  0.00     0.000 C 
BRANCH   6   7
ATOM      7  C   UNL     1      26.073   8.327   8.618  1.00  0.00     0.000 C 
BRANCH   7   8
ATOM      8  C   UNL     1      25.017   7.739   9.569  1.00  0.00     0.000 C 
BRANCH   8   9
ATOM      9  C   UNL     1      23.584   8.157   9.203  1.00  0.00     0.000 C 
BRANCH   9  10
ATOM     10  C   UNL     1      22.520   7.209   9.780  1.00  0.00     0.000 C 
BRANCH  10  11
ATOM     11  C   UNL     1      21.160   7.389   9.095  1.00  0.00     0.000 C 
BRANCH  11  12
ATOM     12  C   UNL     1      21.259   7.323   7.560  1.00  0.00     0.006 C 
BRANCH  12  13
ATOM     13  C   UNL     1      19.894   7.064   6.903  1.00  0.00     0.053 C 
BRANCH  13  14
ATOM     14  C   UNL     1      20.025   6.326   5.602  1.00  0.00     0.041 C 
ATOM     15  O   UNL     1      21.150   5.917   5.216  1.00  0.00    -0.550 OA
ATOM     16  O   UNL     1      18.886   6.026   4.866  1.00  0.00    -0.550 OA
ENDBRANCH  13  14
ENDBRANCH  12  13
ENDBRANCH  11  12
ENDBRANCH  10  11
ENDBRANCH   9  10
ENDBRANCH   8   9
ENDBRANCH   7   8
ENDBRANCH   6   7
ENDBRANCH   5   6
ENDBRANCH   4   5
ENDBRANCH   3   4
ENDBRANCH   2   3
ENDBRANCH   1   2
BRANCH   1  17
ATOM     17  C   UNL     1      25.527   4.118  10.386  1.00  0.00     0.000 C 
BRANCH  17  18
ATOM     18  C   UNL     1      26.963   4.654  10.505  1.00  0.00     0.000 C 
BRANCH  18  19
ATOM     19  C   UNL     1      27.888   4.105   9.396  1.00  0.00     0.000 C 
BRANCH  19  20
ATOM     20  C   UNL     1      28.694   2.860   9.833  1.00  0.00     0.000 C 
BRANCH  20  21
ATOM     21  C   UNL     1      28.516   1.625   8.928  1.00  0.00     0.000 C 
BRANCH  21  22
ATOM     22  C   UNL     1      28.963   0.293   9.568  1.00  0.00    -0.000 C 
BRANCH  22  23
ATOM     23  C   UNL     1      28.312  -0.944   8.912  1.00  0.00    -0.000 C 
BRANCH  23  24
ATOM     24  C   UNL     1      28.913  -1.262   7.534  1.00  0.00    -0.000 C 
BRANCH  24  25
ATOM     25  C   UNL     1      27.875  -1.920   6.623  1.00  0.00    -0.000 C 
BRANCH  25  26
ATOM     26  C   UNL     1      26.592  -1.080   6.565  1.00  0.00    -0.000 C 
BRANCH  26  27
ATOM     27  C   UNL     1      26.678   0.079   5.554  1.00  0.00    -0.000 C 
BRANCH  27  28
ATOM     28  C   UNL     1      26.151   1.434   6.069  1.00  0.00    -0.000 C 
BRANCH  28  29
ATOM     29  C   UNL     1      24.781   1.806   5.483  1.00  0.00    -0.003 C 
ATOM     30  C   UNL     1      23.653   1.150   6.273  1.00  0.00     0.004 C 
ENDBRANCH  28  29
ENDBRANCH  27  28
ENDBRANCH  26  27
ENDBRANCH  25  26
ENDBRANCH  24  25
ENDBRANCH  23  24
ENDBRANCH  22  23
ENDBRANCH  21  22
ENDBRANCH  20  21
ENDBRANCH  19  20
ENDBRANCH  18  19
ENDBRANCH  17  18
ENDBRANCH   1  17
TORSDOF 26
ENDMDL
MODEL 2
REMARK VINA RESULT:    -4.156      1.140      2.683
REMARK INTER + INTRA:         -15.278
REMARK INTER:                 -10.264
REMARK INTRA:                  -5.013
REMARK UNBOUND:                -4.806
REMARK SMILES CCCCCCCCCCCCCCCCCCCCCCCCCCCC(=O)[O-]
REMARK SMILES IDX 15 1 16 2 17 3 18 4 19 5 20 6 21 7 22 8 23 9 24 10 25 11
REMARK SMILES IDX 26 12 27 13 28 14 29 15 30 16 14 17 13 18 12 19 11 20 10 21
REMARK SMILES IDX 9 22 8 23 7 24 6 25 5 26 4 27 3 28 2 29 1 30
REMARK H PARENT
REMARK Flexibility Score: inf
ROOT
ATOM      1  C   UNL     1      25.479   4.189  10.468  1.00  0.00     0.000 C 
ENDROOT
BRANCH   1   2
ATOM      2  C   UNL     1      25.262   3.274   9.252  1.00  0.00     0.000 C 
BRANCH   2   3
ATOM      3  C   UNL     1      24.157   3.800   8.319  1.00  0.00     0.000 C 
BRANCH   3   4
ATOM      4  C   UNL     1      24.617   3.932   6.860  1.00  0.00     0.000 C 
BRANCH   4   5
ATOM      5  C   UNL     1      25.752   4.953   6.681  1.00  0.00     0.000 C 
BRANCH   5   6
ATOM      6  C   UNL     1      25.332   6.342   7.175  1.00  0.00     0.000 C 
BRANCH   6   7
ATOM      7  C   UNL     1      26.544   7.147   7.654  1.00  0.00     0.000 C 
BRANCH   7   8
ATOM      8  C   UNL     1      26.173   8.077   8.821  1.00  0.00     0.000 C 
BRANCH   8   9
ATOM      9  C   UNL     1      24.656   8.273   8.971  1.00  0.00     0.000 C 
BRANCH   9  10
ATOM     10  C   UNL     1      24.101   7.665  10.269  1.00  0.00     0.000 C 
BRANCH  10  11
ATOM     11  C   UNL     1      22.864   6.795  10.012  1.00  0.00     0.000 C 
BRANCH  11  12
ATOM     12  C   UNL     1      21.884   7.443   9.018  1.00  0.00     0.006 C 
BRANCH  12  13
ATOM     13  C   UNL     1      21.556   6.512   7.839  1.00  0.00     0.053 C 
BRANCH  13  14
ATOM     14  C   UNL     1      20.755   7.207   6.778  1.00  0.00     0.041 C 
ATOM     15  O   UNL     1      20.258   6.551   5.827  1.00  0.00    -0.550 OA
ATOM     16  O   UNL     1      20.496   8.567   6.895  1.00  0.00    -0.550 OA
ENDBRANCH  13  14
ENDBRANCH  12  13
ENDBRANCH  11  12
ENDBRANCH  10  11
ENDBRANCH   9  10
ENDBRANCH   8   9
ENDBRANCH   7   8
ENDBRANCH   6   7
ENDBRANCH   5   6
ENDBRANCH   4   5
ENDBRANCH   3   4
ENDBRANCH   2   3
ENDBRANCH   1   2
BRANCH   1  17
ATOM     17  C   UNL     1      26.909   4.744  10.544  1.00  0.00     0.000 C 
BRANCH  17  18
ATOM     18  C   UNL     1      27.799   4.113   9.461  1.00  0.00     0.000 C 
BRANCH  18  19
ATOM     19  C   UNL     1      28.676   2.968  10.015  1.00  0.00     0.000 C 
BRANCH  19  20
ATOM     20  C   UNL     1      28.660   1.703   9.127  1.00  0.00     0.000 C 
BRANCH  20  21
ATOM     21  C   UNL     1      28.728   1.976   7.611  1.00  0.00     0.000 C 
BRANCH  21  22
ATOM     22  C   UNL     1      27.482   1.520   6.822  1.00  0.00    -0.000 C 
BRANCH  22  23
ATOM     23  C   UNL     1      27.643   1.671   5.294  1.00  0.00    -0.000 C 
BRANCH  23  24
ATOM     24  C   UNL     1      26.763   0.683   4.511  1.00  0.00    -0.000 C 
BRANCH  24  25
ATOM     25  C   UNL     1      25.290   0.840   4.895  1.00  0.00    -0.000 C 
BRANCH  25  26
ATOM     26  C   UNL     1      24.826  -0.339   5.760  1.00  0.00    -0.000 C 
BRANCH  26  27
ATOM     27  C   UNL     1      25.694  -1.598   5.577  1.00  0.00    -0.000 C 
BRANCH  27  28
ATOM     28  C   UNL     1      26.274  -2.184   6.880  1.00  0.00    -0.000 C 
BRANCH  28  29
ATOM     29  C   UNL     1      27.776  -1.913   7.044  1.00  0.00    -0.003 C 
ATOM     30  C   UNL     1      28.239  -2.242   8.460  1.00  0.00     0.004 C 
ENDBRANCH  28  29
ENDBRANCH  27  28
ENDBRANCH  26  27
ENDBRANCH  25  26
ENDBRANCH  24  25
ENDBRANCH  23  24
ENDBRANCH  22  23
ENDBRANCH  21  22
ENDBRANCH  20  21
ENDBRANCH  19  20
ENDBRANCH  18  19
ENDBRANCH  17  18
ENDBRANCH   1  17
TORSDOF 26
ENDMDL
MODEL 3
REMARK VINA RESULT:    -4.141      2.913      6.754
REMARK INTER + INTRA:         -15.241
REMARK INTER:                  -9.536
REMARK INTRA:                  -5.705
REMARK UNBOUND:                -4.806
REMARK SMILES CCCCCCCCCCCCCCCCCCCCCCCCCCCC(=O)[O-]
REMARK SMILES IDX 15 1 16 2 17 3 18 4 19 5 20 6 21 7 22 8 23 9 24 10 25 11
REMARK SMILES IDX 26 12 27 13 28 14 29 15 30 16 14 17 13 18 12 19 11 20 10 21
REMARK SMILES IDX 9 22 8 23 7 24 6 25 5 26 4 27 3 28 2 29 1 30
REMARK H PARENT
REMARK Flexibility Score: inf
ROOT
ATOM      1  C   UNL     1      25.550   6.402   8.584  1.00  0.00     0.000 C 
ENDROOT
BRANCH   1   2
ATOM      2  C   UNL     1      26.886   6.079   9.272  1.00  0.00     0.000 C 
BRANCH   2   3
ATOM      3  C   UNL     1      26.738   4.978  10.338  1.00  0.00     0.000 C 
BRANCH   3   4
ATOM      4  C   UNL     1      27.768   3.850  10.181  1.00  0.00     0.000 C 
BRANCH   4   5
ATOM      5  C   UNL     1      28.524   3.914   8.845  1.00  0.00     0.000 C 
BRANCH   5   6
ATOM      6  C   UNL     1      28.697   2.517   8.238  1.00  0.00     0.000 C 
BRANCH   6   7
ATOM      7  C   UNL     1      28.358   1.426   9.259  1.00  0.00     0.000 C 
BRANCH   7   8
ATOM      8  C   UNL     1      28.267   0.043   8.593  1.00  0.00     0.000 C 
BRANCH   8   9
ATOM      9  C   UNL     1      28.643   0.071   7.103  1.00  0.00     0.000 C 
BRANCH   9  10
ATOM     10  C   UNL     1      27.430  -0.126   6.178  1.00  0.00     0.000 C 
BRANCH  10  11
ATOM     11  C   UNL     1      27.345   0.966   5.104  1.00  0.00     0.000 C 
BRANCH  11  12
ATOM     12  C   UNL     1      26.143   0.775   4.162  1.00  0.00     0.006 C 
BRANCH  12  13
ATOM     13  C   UNL     1      26.505  -0.063   2.925  1.00  0.00     0.053 C 
BRANCH  13  14
ATOM     14  C   UNL     1      25.430  -0.017   1.879  1.00  0.00     0.041 C 
ATOM     15  O   UNL     1      25.706   0.320   0.700  1.00  0.00    -0.550 OA
ATOM     16  O   UNL     1      24.142  -0.428   2.201  1.00  0.00    -0.550 OA
ENDBRANCH  13  14
ENDBRANCH  12  13
ENDBRANCH  11  12
ENDBRANCH  10  11
ENDBRANCH   9  10
ENDBRANCH   8   9
ENDBRANCH   7   8
ENDBRANCH   6   7
ENDBRANCH   5   6
ENDBRANCH   4   5
ENDBRANCH   3   4
ENDBRANCH   2   3
ENDBRANCH   1   2
BRANCH   1  17
ATOM     17  C   UNL     1      25.493   5.895   7.135  1.00  0.00     0.000 C 
BRANCH  17  18
ATOM     18  C   UNL     1      24.560   4.679   7.017  1.00  0.00     0.000 C 
BRANCH  18  19
ATOM     19  C   UNL     1      25.336   3.344   6.978  1.00  0.00     0.000 C 
BRANCH  19  20
ATOM     20  C   UNL     1      24.988   2.399   8.151  1.00  0.00     0.000 C 
BRANCH  20  21
ATOM     21  C   UNL     1      23.905   2.932   9.110  1.00  0.00     0.000 C 
BRANCH  21  22
ATOM     22  C   UNL     1      22.521   2.269   8.944  1.00  0.00    -0.000 C 
BRANCH  22  23
ATOM     23  C   UNL     1      21.434   3.248   8.451  1.00  0.00    -0.000 C 
BRANCH  23  24
ATOM     24  C   UNL     1      20.710   2.737   7.196  1.00  0.00    -0.000 C 
BRANCH  24  25
ATOM     25  C   UNL     1      21.243   3.426   5.938  1.00  0.00    -0.000 C 
BRANCH  25  26
ATOM     26  C   UNL     1      21.619   2.391   4.869  1.00  0.00    -0.000 C 
BRANCH  26  27
ATOM     27  C   UNL     1      22.883   1.588   5.229  1.00  0.00    -0.000 C 
BRANCH  27  28
ATOM     28  C   UNL     1      22.684   0.061   5.306  1.00  0.00    -0.000 C 
BRANCH  28  29
ATOM     29  C   UNL     1      23.212  -0.548   6.613  1.00  0.00    -0.003 C 
ATOM     30  C   UNL     1      22.062  -1.006   7.506  1.00  0.00     0.004 C 
ENDBRANCH  28  29
ENDBRANCH  27  28
ENDBRANCH  26  27
ENDBRANCH  25  26
ENDBRANCH  24  25
ENDBRANCH  23  24
ENDBRANCH  22  23
ENDBRANCH  21  22
ENDBRANCH  20  21
ENDBRANCH  19  20
ENDBRANCH  18  19
ENDBRANCH  17  18
ENDBRANCH   1  17
TORSDOF 26
ENDMDL
MODEL 4
REMARK VINA RESULT:    -4.103      1.266      2.037
REMARK INTER + INTRA:         -15.146
REMARK INTER:                 -10.382
REMARK INTRA:                  -4.764
REMARK UNBOUND:                -4.806
REMARK SMILES CCCCCCCCCCCCCCCCCCCCCCCCCCCC(=O)[O-]
REMARK SMILES IDX 15 1 16 2 17 3 18 4 19 5 20 6 21 7 22 8 23 9 24 10 25 11
REMARK SMILES IDX 26 12 27 13 28 14 29 15 30 16 14 17 13 18 12 19 11 20 10 21
REMARK SMILES IDX 9 22 8 23 7 24 6 25 5 26 4 27 3 28 2 29 1 30
REMARK H PARENT
REMARK Flexibility Score: inf
ROOT
ATOM      1  C   UNL     1      24.732   4.393   7.917  1.00  0.00     0.000 C 
ENDROOT
BRANCH   1   2
ATOM      2  C   UNL     1      25.876   5.005   7.092  1.00  0.00     0.000 C 
BRANCH   2   3
ATOM      3  C   UNL     1      25.512   6.393   6.535  1.00  0.00     0.000 C 
BRANCH   3   4
ATOM      4  C   UNL     1      26.513   7.484   6.943  1.00  0.00     0.000 C 
BRANCH   4   5
ATOM      5  C   UNL     1      26.529   7.742   8.458  1.00  0.00     0.000 C 
BRANCH   5   6
ATOM      6  C   UNL     1      25.284   8.518   8.902  1.00  0.00     0.000 C 
BRANCH   6   7
ATOM      7  C   UNL     1      24.377   7.650   9.779  1.00  0.00     0.000 C 
BRANCH   7   8
ATOM      8  C   UNL     1      23.004   7.430   9.120  1.00  0.00     0.000 C 
BRANCH   8   9
ATOM      9  C   UNL     1      22.187   6.320   9.799  1.00  0.00     0.000 C 
BRANCH   9  10
ATOM     10  C   UNL     1      20.729   6.730  10.064  1.00  0.00     0.000 C 
BRANCH  10  11
ATOM     11  C   UNL     1      19.792   6.277   8.937  1.00  0.00     0.000 C 
BRANCH  11  12
ATOM     12  C   UNL     1      19.229   7.459   8.127  1.00  0.00     0.006 C 
BRANCH  12  13
ATOM     13  C   UNL     1      20.147   7.847   6.957  1.00  0.00     0.053 C 
BRANCH  13  14
ATOM     14  C   UNL     1      20.500   6.665   6.102  1.00  0.00     0.041 C 
ATOM     15  O   UNL     1      21.687   6.253   6.048  1.00  0.00    -0.550 OA
ATOM     16  O   UNL     1      19.494   5.977   5.434  1.00  0.00    -0.550 OA
ENDBRANCH  13  14
ENDBRANCH  12  13
ENDBRANCH  11  12
ENDBRANCH  10  11
ENDBRANCH   9  10
ENDBRANCH   8   9
ENDBRANCH   7   8
ENDBRANCH   6   7
ENDBRANCH   5   6
ENDBRANCH   4   5
ENDBRANCH   3   4
ENDBRANCH   2   3
ENDBRANCH   1   2
BRANCH   1  17
ATOM     17  C   UNL     1      25.232   3.406   8.981  1.00  0.00     0.000 C 
BRANCH  17  18
ATOM     18  C   UNL     1      25.480   4.121  10.319  1.00  0.00     0.000 C 
BRANCH  18  19
ATOM     19  C   UNL     1      26.877   4.777  10.385  1.00  0.00     0.000 C 
BRANCH  19  20
ATOM     20  C   UNL     1      28.002   3.783  10.754  1.00  0.00     0.000 C 
BRANCH  20  21
ATOM     21  C   UNL     1      28.753   3.181   9.550  1.00  0.00     0.000 C 
BRANCH  21  22
ATOM     22  C   UNL     1      28.795   1.638   9.528  1.00  0.00    -0.000 C 
BRANCH  22  23
ATOM     23  C   UNL     1      28.489   1.042   8.137  1.00  0.00    -0.000 C 
BRANCH  23  24
ATOM     24  C   UNL     1      28.303   2.126   7.063  1.00  0.00    -0.000 C 
BRANCH  24  25
ATOM     25  C   UNL     1      27.715   1.531   5.782  1.00  0.00    -0.000 C 
BRANCH  25  26
ATOM     26  C   UNL     1      26.199   1.756   5.724  1.00  0.00    -0.000 C 
BRANCH  26  27
ATOM     27  C   UNL     1      25.397   0.612   6.373  1.00  0.00    -0.000 C 
BRANCH  27  28
ATOM     28  C   UNL     1      23.873   0.838   6.435  1.00  0.00    -0.000 C 
BRANCH  28  29
ATOM     29  C   UNL     1      23.347   1.703   5.280  1.00  0.00    -0.003 C 
ATOM     30  C   UNL     1      22.305   2.701   5.776  1.00  0.00     0.004 C 
ENDBRANCH  28  29
ENDBRANCH  27  28
ENDBRANCH  26  27
ENDBRANCH  25  26
ENDBRANCH  24  25
ENDBRANCH  23  24
ENDBRANCH  22  23
ENDBRANCH  21  22
ENDBRANCH  20  21
ENDBRANCH  19  20
ENDBRANCH  18  19
ENDBRANCH  17  18
ENDBRANCH   1  17
TORSDOF 26
ENDMDL
MODEL 5
REMARK VINA RESULT:    -4.093      1.533      2.599
REMARK INTER + INTRA:         -15.119
REMARK INTER:                 -10.445
REMARK INTRA:                  -4.673
REMARK UNBOUND:                -4.806
REMARK SMILES CCCCCCCCCCCCCCCCCCCCCCCCCCCC(=O)[O-]
REMARK SMILES IDX 15 1 16 2 17 3 18 4 19 5 20 6 21 7 22 8 23 9 24 10 25 11
REMARK SMILES IDX 26 12 27 13 28 14 29 15 30 16 14 17 13 18 12 19 11 20 10 21
REMARK SMILES IDX 9 22 8 23 7 24 6 25 5 26 4 27 3 28 2 29 1 30
REMARK H PARENT
REMARK Flexibility Score: inf
ROOT
ATOM      1  C   UNL     1      24.231   4.572   8.002  1.00  0.00     0.000 C 
ENDROOT
BRANCH   1   2
ATOM      2  C   UNL     1      25.356   5.021   7.054  1.00  0.00     0.000 C 
BRANCH   2   3
ATOM      3  C   UNL     1      25.445   6.553   6.944  1.00  0.00     0.000 C 
BRANCH   3   4
ATOM      4  C   UNL     1      26.656   7.138   7.686  1.00  0.00     0.000 C 
BRANCH   4   5
ATOM      5  C   UNL     1      26.262   8.187   8.738  1.00  0.00     0.000 C 
BRANCH   5   6
ATOM      6  C   UNL     1      24.746   8.409   8.759  1.00  0.00     0.000 C 
BRANCH   6   7
ATOM      7  C   UNL     1      24.132   7.899  10.068  1.00  0.00     0.000 C 
BRANCH   7   8
ATOM      8  C   UNL     1      22.681   7.433   9.862  1.00  0.00     0.000 C 
BRANCH   8   9
ATOM      9  C   UNL     1      22.164   7.698   8.440  1.00  0.00     0.000 C 
BRANCH   9  10
ATOM     10  C   UNL     1      21.040   8.747   8.400  1.00  0.00     0.000 C 
BRANCH  10  11
ATOM     11  C   UNL     1      20.100   8.534   7.207  1.00  0.00     0.000 C 
BRANCH  11  12
ATOM     12  C   UNL     1      19.356   7.188   7.274  1.00  0.00     0.006 C 
BRANCH  12  13
ATOM     13  C   UNL     1      19.436   6.416   5.947  1.00  0.00     0.053 C 
BRANCH  13  14
ATOM     14  C   UNL     1      20.658   5.548   5.873  1.00  0.00     0.041 C 
ATOM     15  O   UNL     1      21.722   5.994   5.373  1.00  0.00    -0.550 OA
ATOM     16  O   UNL     1      20.633   4.278   6.434  1.00  0.00    -0.550 OA
ENDBRANCH  13  14
ENDBRANCH  12  13
ENDBRANCH  11  12
ENDBRANCH  10  11
ENDBRANCH   9  10
ENDBRANCH   8   9
ENDBRANCH   7   8
ENDBRANCH   6   7
ENDBRANCH   5   6
ENDBRANCH   4   5
ENDBRANCH   3   4
ENDBRANCH   2   3
ENDBRANCH   1   2
BRANCH   1  17
ATOM     17  C   UNL     1      24.731   3.638   9.113  1.00  0.00     0.000 C 
BRANCH  17  18
ATOM     18  C   UNL     1      24.998   4.422  10.408  1.00  0.00     0.000 C 
BRANCH  18  19
ATOM     19  C   UNL     1      26.452   4.937  10.494  1.00  0.00     0.000 C 
BRANCH  19  20
ATOM     20  C   UNL     1      27.506   3.844  10.201  1.00  0.00     0.000 C 
BRANCH  20  21
ATOM     21  C   UNL     1      28.313   4.055   8.905  1.00  0.00     0.000 C 
BRANCH  21  22
ATOM     22  C   UNL     1      28.772   2.751   8.217  1.00  0.00    -0.000 C 
BRANCH  22  23
ATOM     23  C   UNL     1      27.765   2.231   7.170  1.00  0.00    -0.000 C 
BRANCH  23  24
ATOM     24  C   UNL     1      26.993   0.996   7.662  1.00  0.00    -0.000 C 
BRANCH  24  25
ATOM     25  C   UNL     1      25.649   0.868   6.941  1.00  0.00    -0.000 C 
BRANCH  25  26
ATOM     26  C   UNL     1      25.668   1.643   5.616  1.00  0.00    -0.000 C 
BRANCH  26  27
ATOM     27  C   UNL     1      24.666   1.092   4.584  1.00  0.00    -0.000 C 
BRANCH  27  28
ATOM     28  C   UNL     1      25.208  -0.043   3.692  1.00  0.00    -0.000 C 
BRANCH  28  29
ATOM     29  C   UNL     1      25.815   0.465   2.376  1.00  0.00    -0.003 C 
ATOM     30  C   UNL     1      25.639  -0.562   1.261  1.00  0.00     0.004 C 
ENDBRANCH  28  29
ENDBRANCH  27  28
ENDBRANCH  26  27
ENDBRANCH  25  26
ENDBRANCH  24  25
ENDBRANCH  23  24
ENDBRANCH  22  23
ENDBRANCH  21  22
ENDBRANCH  20  21
ENDBRANCH  19  20
ENDBRANCH  18  19
ENDBRANCH  17  18
ENDBRANCH   1  17
TORSDOF 26
ENDMDL
MODEL 6
REMARK VINA RESULT:    -4.058      1.979      7.861
REMARK INTER + INTRA:         -15.031
REMARK INTER:                 -10.962
REMARK INTRA:                  -4.069
REMARK UNBOUND:                -4.806
REMARK SMILES CCCCCCCCCCCCCCCCCCCCCCCCCCCC(=O)[O-]
REMARK SMILES IDX 15 1 16 2 17 3 18 4 19 5 20 6 21 7 22 8 23 9 24 10 25 11
REMARK SMILES IDX 26 12 27 13 28 14 29 15 30 16 14 17 13 18 12 19 11 20 10 21
REMARK SMILES IDX 9 22 8 23 7 24 6 25 5 26 4 27 3 28 2 29 1 30
REMARK H PARENT
REMARK Flexibility Score: inf
ROOT
ATOM      1  C   UNL     1      23.850   4.529   7.515  1.00  0.00     0.000 C 
ENDROOT
BRANCH   1   2
ATOM      2  C   UNL     1      23.727   3.838   8.884  1.00  0.00     0.000 C 
BRANCH   2   3
ATOM      3  C   UNL     1      25.080   3.308   9.389  1.00  0.00     0.000 C 
BRANCH   3   4
ATOM      4  C   UNL     1      25.665   4.151  10.532  1.00  0.00     0.000 C 
BRANCH   4   5
ATOM      5  C   UNL     1      27.200   4.228  10.492  1.00  0.00     0.000 C 
BRANCH   5   6
ATOM      6  C   UNL     1      27.766   3.400   9.333  1.00  0.00     0.000 C 
BRANCH   6   7
ATOM      7  C   UNL     1      28.746   2.337   9.842  1.00  0.00     0.000 C 
BRANCH   7   8
ATOM      8  C   UNL     1      28.788   1.118   8.904  1.00  0.00     0.000 C 
BRANCH   8   9
ATOM      9  C   UNL     1      28.549  -0.209   9.639  1.00  0.00     0.000 C 
BRANCH   9  10
ATOM     10  C   UNL     1      28.357  -1.396   8.680  1.00  0.00     0.000 C 
BRANCH  10  11
ATOM     11  C   UNL     1      28.345  -0.950   7.212  1.00  0.00     0.000 C 
BRANCH  11  12
ATOM     12  C   UNL     1      26.954  -1.083   6.566  1.00  0.00     0.006 C 
BRANCH  12  13
ATOM     13  C   UNL     1      26.133   0.211   6.691  1.00  0.00     0.053 C 
BRANCH  13  14
ATOM     14  C   UNL     1      26.064   0.962   5.393  1.00  0.00     0.041 C 
ATOM     15  O   UNL     1      25.005   1.549   5.056  1.00  0.00    -0.550 OA
ATOM     16  O   UNL     1      27.202   1.073   4.605  1.00  0.00    -0.550 OA
ENDBRANCH  13  14
ENDBRANCH  12  13
ENDBRANCH  11  12
ENDBRANCH  10  11
ENDBRANCH   9  10
ENDBRANCH   8   9
ENDBRANCH   7   8
ENDBRANCH   6   7
ENDBRANCH   5   6
ENDBRANCH   4   5
ENDBRANCH   3   4
ENDBRANCH   2   3
ENDBRANCH   1   2
BRANCH   1  17
ATOM     17  C   UNL     1      25.288   4.528   6.979  1.00  0.00     0.000 C 
BRANCH  17  18
ATOM     18  C   UNL     1      25.758   5.959   6.670  1.00  0.00     0.000 C 
BRANCH  18  19
ATOM     19  C   UNL     1      26.495   6.606   7.864  1.00  0.00     0.000 C 
BRANCH  19  20
ATOM     20  C   UNL     1      26.282   8.134   7.957  1.00  0.00     0.000 C 
BRANCH  20  21
ATOM     21  C   UNL     1      25.386   8.593   9.125  1.00  0.00     0.000 C 
BRANCH  21  22
ATOM     22  C   UNL     1      24.045   7.836   9.238  1.00  0.00    -0.000 C 
BRANCH  22  23
ATOM     23  C   UNL     1      23.710   7.410  10.684  1.00  0.00    -0.000 C 
BRANCH  23  24
ATOM     24  C   UNL     1      22.196   7.385  10.951  1.00  0.00    -0.000 C 
BRANCH  24  25
ATOM     25  C   UNL     1      21.481   6.465   9.959  1.00  0.00    -0.000 C 
BRANCH  25  26
ATOM     26  C   UNL     1      20.224   7.144   9.399  1.00  0.00    -0.000 C 
BRANCH  26  27
ATOM     27  C   UNL     1      20.525   8.480   8.695  1.00  0.00    -0.000 C 
BRANCH  27  28
ATOM     28  C   UNL     1      20.367   8.458   7.161  1.00  0.00    -0.000 C 
BRANCH  28  29
ATOM     29  C   UNL     1      19.984   7.074   6.617  1.00  0.00    -0.003 C 
ATOM     30  C   UNL     1      21.149   6.444   5.859  1.00  0.00     0.004 C 
ENDBRANCH  28  29
ENDBRANCH  27  28
ENDBRANCH  26  27
ENDBRANCH  25  26
ENDBRANCH  24  25
ENDBRANCH  23  24
ENDBRANCH  22  23
ENDBRANCH  21  22
ENDBRANCH  20  21
ENDBRANCH  19  20
ENDBRANCH  18  19
ENDBRANCH  17  18
ENDBRANCH   1  17
TORSDOF 26
ENDMDL
MODEL 7
REMARK VINA RESULT:    -4.035      1.660      4.392
REMARK INTER + INTRA:         -14.974
REMARK INTER:                  -9.733
REMARK INTRA:                  -5.240
REMARK UNBOUND:                -4.806
REMARK SMILES CCCCCCCCCCCCCCCCCCCCCCCCCCCC(=O)[O-]
REMARK SMILES IDX 15 1 16 2 17 3 18 4 19 5 20 6 21 7 22 8 23 9 24 10 25 11
REMARK SMILES IDX 26 12 27 13 28 14 29 15 30 16 14 17 13 18 12 19 11 20 10 21
REMARK SMILES IDX 9 22 8 23 7 24 6 25 5 26 4 27 3 28 2 29 1 30
REMARK H PARENT
REMARK Flexibility Score: inf
ROOT
ATOM      1  C   UNL     1      25.035   8.612   8.864  1.00  0.00     0.000 C 
ENDROOT
BRANCH   1   2
ATOM      2  C   UNL     1      23.894   7.597   9.043  1.00  0.00     0.000 C 
BRANCH   2   3
ATOM      3  C   UNL     1      23.011   7.926  10.260  1.00  0.00     0.000 C 
BRANCH   3   4
ATOM      4  C   UNL     1      22.154   6.736  10.717  1.00  0.00     0.000 C 
BRANCH   4   5
ATOM      5  C   UNL     1      22.074   5.619   9.665  1.00  0.00     0.000 C 
BRANCH   5   6
ATOM      6  C   UNL     1      20.678   4.987   9.632  1.00  0.00     0.000 C 
BRANCH   6   7
ATOM      7  C   UNL     1      19.626   5.945  10.199  1.00  0.00     0.000 C 
BRANCH   7   8
ATOM      8  C   UNL     1      18.641   6.406   9.111  1.00  0.00     0.000 C 
BRANCH   8   9
ATOM      9  C   UNL     1      19.027   7.756   8.489  1.00  0.00     0.000 C 
BRANCH   9  10
ATOM     10  C   UNL     1      19.344   7.653   6.988  1.00  0.00     0.000 C 
BRANCH  10  11
ATOM     11  C   UNL     1      20.830   7.366   6.735  1.00  0.00     0.000 C 
BRANCH  11  12
ATOM     12  C   UNL     1      21.048   6.319   5.627  1.00  0.00     0.006 C 
BRANCH  12  13
ATOM     13  C   UNL     1      21.797   5.080   6.143  1.00  0.00     0.053 C 
BRANCH  13  14
ATOM     14  C   UNL     1      20.989   3.826   5.982  1.00  0.00     0.041 C 
ATOM     15  O   UNL     1      19.782   3.800   6.335  1.00  0.00    -0.550 OA
ATOM     16  O   UNL     1      21.557   2.718   5.367  1.00  0.00    -0.550 OA
ENDBRANCH  13  14
ENDBRANCH  12  13
ENDBRANCH  11  12
ENDBRANCH  10  11
ENDBRANCH   9  10
ENDBRANCH   8   9
ENDBRANCH   7   8
ENDBRANCH   6   7
ENDBRANCH   5   6
ENDBRANCH   4   5
ENDBRANCH   3   4
ENDBRANCH   2   3
ENDBRANCH   1   2
BRANCH   1  17
ATOM     17  C   UNL     1      26.368   7.945   8.496  1.00  0.00     0.000 C 
BRANCH  17  18
ATOM     18  C   UNL     1      26.134   6.560   7.871  1.00  0.00     0.000 C 
BRANCH  18  19
ATOM     19  C   UNL     1      26.942   5.451   8.581  1.00  0.00     0.000 C 
BRANCH  19  20
ATOM     20  C   UNL     1      26.587   5.298  10.077  1.00  0.00     0.000 C 
BRANCH  20  21
ATOM     21  C   UNL     1      25.388   4.372  10.365  1.00  0.00     0.000 C 
BRANCH  21  22
ATOM     22  C   UNL     1      25.346   3.092   9.504  1.00  0.00    -0.000 C 
BRANCH  22  23
ATOM     23  C   UNL     1      24.184   3.083   8.488  1.00  0.00    -0.000 C 
BRANCH  23  24
ATOM     24  C   UNL     1      24.419   2.092   7.337  1.00  0.00    -0.000 C 
BRANCH  24  25
ATOM     25  C   UNL     1      25.443   2.643   6.342  1.00  0.00    -0.000 C 
BRANCH  25  26
ATOM     26  C   UNL     1      26.146   1.501   5.597  1.00  0.00    -0.000 C 
BRANCH  26  27
ATOM     27  C   UNL     1      27.619   1.328   6.012  1.00  0.00    -0.000 C 
BRANCH  27  28
ATOM     28  C   UNL     1      28.135   2.367   7.028  1.00  0.00    -0.000 C 
BRANCH  28  29
ATOM     29  C   UNL     1      28.484   1.752   8.391  1.00  0.00    -0.003 C 
ATOM     30  C   UNL     1      27.839   0.378   8.551  1.00  0.00     0.004 C 
ENDBRANCH  28  29
ENDBRANCH  27  28
ENDBRANCH  26  27
ENDBRANCH  25  26
ENDBRANCH  24  25
ENDBRANCH  23  24
ENDBRANCH  22  23
ENDBRANCH  21  22
ENDBRANCH  20  21
ENDBRANCH  19  20
ENDBRANCH  18  19
ENDBRANCH  17  18
ENDBRANCH   1  17
TORSDOF 26
ENDMDL
MODEL 8
REMARK VINA RESULT:    -4.023      2.022      7.784
REMARK INTER + INTRA:         -14.943
REMARK INTER:                  -9.760
REMARK INTRA:                  -5.183
REMARK UNBOUND:                -4.806
REMARK SMILES CCCCCCCCCCCCCCCCCCCCCCCCCCCC(=O)[O-]
REMARK SMILES IDX 15 1 16 2 17 3 18 4 19 5 20 6 21 7 22 8 23 9 24 10 25 11
REMARK SMILES IDX 26 12 27 13 28 14 29 15 30 16 14 17 13 18 12 19 11 20 10 21
REMARK SMILES IDX 9 22 8 23 7 24 6 25 5 26 4 27 3 28 2 29 1 30
REMARK H PARENT
REMARK Flexibility Score: inf
ROOT
ATOM      1  C   UNL     1      24.824   2.907   6.991  1.00  0.00     0.000 C 
ENDROOT
BRANCH   1   2
ATOM      2  C   UNL     1      25.362   1.715   6.181  1.00  0.00     0.000 C 
BRANCH   2   3
ATOM      3  C   UNL     1      25.229   0.386   6.946  1.00  0.00     0.000 C 
BRANCH   3   4
ATOM      4  C   UNL     1      26.048  -0.751   6.318  1.00  0.00     0.000 C 
BRANCH   4   5
ATOM      5  C   UNL     1      27.548  -0.654   6.639  1.00  0.00     0.000 C 
BRANCH   5   6
ATOM      6  C   UNL     1      27.792  -0.639   8.152  1.00  0.00     0.000 C 
BRANCH   6   7
ATOM      7  C   UNL     1      28.762   0.480   8.544  1.00  0.00     0.000 C 
BRANCH   7   8
ATOM      8  C   UNL     1      28.753   1.617   7.508  1.00  0.00     0.000 C 
BRANCH   8   9
ATOM      9  C   UNL     1      28.353   2.972   8.112  1.00  0.00     0.000 C 
BRANCH   9  10
ATOM     10  C   UNL     1      27.960   2.872   9.595  1.00  0.00     0.000 C 
BRANCH  10  11
ATOM     11  C   UNL     1      27.334   4.174  10.112  1.00  0.00     0.000 C 
BRANCH  11  12
ATOM     12  C   UNL     1      27.243   5.258   9.022  1.00  0.00     0.006 C 
BRANCH  12  13
ATOM     13  C   UNL     1      25.899   6.004   9.060  1.00  0.00     0.053 C 
BRANCH  13  14
ATOM     14  C   UNL     1      25.714   6.891   7.864  1.00  0.00     0.041 C 
ATOM     15  O   UNL     1      26.079   8.093   7.903  1.00  0.00    -0.550 OA
ATOM     16  O   UNL     1      25.211   6.355   6.685  1.00  0.00    -0.550 OA
ENDBRANCH  13  14
ENDBRANCH  12  13
ENDBRANCH  11  12
ENDBRANCH  10  11
ENDBRANCH   9  10
ENDBRANCH   8   9
ENDBRANCH   7   8
ENDBRANCH   6   7
ENDBRANCH   5   6
ENDBRANCH   4   5
ENDBRANCH   3   4
ENDBRANCH   2   3
ENDBRANCH   1   2
BRANCH   1  17
ATOM     17  C   UNL     1      24.412   2.515   8.417  1.00  0.00     0.000 C 
BRANCH  17  18
ATOM     18  C   UNL     1      23.337   3.472   8.958  1.00  0.00     0.000 C 
BRANCH  18  19
ATOM     19  C   UNL     1      22.530   4.149   7.827  1.00  0.00     0.000 C 
BRANCH  19  20
ATOM     20  C   UNL     1      21.152   3.494   7.584  1.00  0.00     0.000 C 
BRANCH  20  21
ATOM     21  C   UNL     1      20.033   3.969   8.533  1.00  0.00     0.000 C 
BRANCH  21  22
ATOM     22  C   UNL     1      18.922   4.795   7.850  1.00  0.00    -0.000 C 
BRANCH  22  23
ATOM     23  C   UNL     1      19.105   4.910   6.321  1.00  0.00    -0.000 C 
BRANCH  23  24
ATOM     24  C   UNL     1      19.365   6.356   5.869  1.00  0.00    -0.000 C 
BRANCH  24  25
ATOM     25  C   UNL     1      19.178   7.334   7.031  1.00  0.00    -0.000 C 
BRANCH  25  26
ATOM     26  C   UNL     1      20.416   8.225   7.196  1.00  0.00    -0.000 C 
BRANCH  26  27
ATOM     27  C   UNL     1      21.650   7.451   7.698  1.00  0.00    -0.000 C 
BRANCH  27  28
ATOM     28  C   UNL     1      22.326   8.046   8.950  1.00  0.00    -0.000 C 
BRANCH  28  29
ATOM     29  C   UNL     1      22.435   7.042  10.107  1.00  0.00    -0.003 C 
ATOM     30  C   UNL     1      21.059   6.724  10.684  1.00  0.00     0.004 C 
ENDBRANCH  28  29
ENDBRANCH  27  28
ENDBRANCH  26  27
ENDBRANCH  25  26
ENDBRANCH  24  25
ENDBRANCH  23  24
ENDBRANCH  22  23
ENDBRANCH  21  22
ENDBRANCH  20  21
ENDBRANCH  19  20
ENDBRANCH  18  19
ENDBRANCH  17  18
ENDBRANCH   1  17
TORSDOF 26
ENDMDL
MODEL 9
REMARK VINA RESULT:    -4.022      1.527      4.027
REMARK INTER + INTRA:         -14.941
REMARK INTER:                  -9.094
REMARK INTRA:                  -5.847
REMARK UNBOUND:                -4.806
REMARK SMILES CCCCCCCCCCCCCCCCCCCCCCCCCCCC(=O)[O-]
REMARK SMILES IDX 15 1 16 2 17 3 18 4 19 5 20 6 21 7 22 8 23 9 24 10 25 11
REMARK SMILES IDX 26 12 27 13 28 14 29 15 30 16 14 17 13 18 12 19 11 20 10 21
REMARK SMILES IDX 9 22 8 23 7 24 6 25 5 26 4 27 3 28 2 29 1 30
REMARK H PARENT
REMARK Flexibility Score: inf
ROOT
ATOM      1  C   UNL     1      25.956   1.509   7.881  1.00  0.00     0.000 C 
ENDROOT
BRANCH   1   2
ATOM      2  C   UNL     1      27.349   1.586   8.528  1.00  0.00     0.000 C 
BRANCH   2   3
ATOM      3  C   UNL     1      28.252   2.625   7.840  1.00  0.00     0.000 C 
BRANCH   3   4
ATOM      4  C   UNL     1      28.619   3.801   8.757  1.00  0.00     0.000 C 
BRANCH   4   5
ATOM      5  C   UNL     1      27.939   3.719  10.134  1.00  0.00     0.000 C 
BRANCH   5   6
ATOM      6  C   UNL     1      26.896   4.829  10.304  1.00  0.00     0.000 C 
BRANCH   6   7
ATOM      7  C   UNL     1      26.874   5.757   9.085  1.00  0.00     0.000 C 
BRANCH   7   8
ATOM      8  C   UNL     1      25.566   6.563   9.017  1.00  0.00     0.000 C 
BRANCH   8   9
ATOM      9  C   UNL     1      24.676   6.364  10.253  1.00  0.00     0.000 C 
BRANCH   9  10
ATOM     10  C   UNL     1      23.177   6.331   9.912  1.00  0.00     0.000 C 
BRANCH  10  11
ATOM     11  C   UNL     1      22.912   6.742   8.458  1.00  0.00     0.000 C 
BRANCH  11  12
ATOM     12  C   UNL     1      21.586   6.177   7.917  1.00  0.00     0.006 C 
BRANCH  12  13
ATOM     13  C   UNL     1      21.460   6.354   6.395  1.00  0.00     0.053 C 
BRANCH  13  14
ATOM     14  C   UNL     1      20.296   5.592   5.833  1.00  0.00     0.041 C 
ATOM     15  O   UNL     1      19.701   6.008   4.807  1.00  0.00    -0.550 OA
ATOM     16  O   UNL     1      19.930   4.380   6.406  1.00  0.00    -0.550 OA
ENDBRANCH  13  14
ENDBRANCH  12  13
ENDBRANCH  11  12
ENDBRANCH  10  11
ENDBRANCH   9  10
ENDBRANCH   8   9
ENDBRANCH   7   8
ENDBRANCH   6   7
ENDBRANCH   5   6
ENDBRANCH   4   5
ENDBRANCH   3   4
ENDBRANCH   2   3
ENDBRANCH   1   2
BRANCH   1  17
ATOM     17  C   UNL     1      25.654   2.716   6.981  1.00  0.00     0.000 C 
BRANCH  17  18
ATOM     18  C   UNL     1      24.366   3.425   7.429  1.00  0.00     0.000 C 
BRANCH  18  19
ATOM     19  C   UNL     1      23.930   3.008   8.852  1.00  0.00     0.000 C 
BRANCH  19  20
ATOM     20  C   UNL     1      22.476   2.489   8.919  1.00  0.00     0.000 C 
BRANCH  20  21
ATOM     21  C   UNL     1      21.990   1.762   7.649  1.00  0.00     0.000 C 
BRANCH  21  22
ATOM     22  C   UNL     1      22.465   0.298   7.528  1.00  0.00    -0.000 C 
BRANCH  22  23
ATOM     23  C   UNL     1      23.139  -0.011   6.174  1.00  0.00    -0.000 C 
BRANCH  23  24
ATOM     24  C   UNL     1      22.686   0.947   5.061  1.00  0.00    -0.000 C 
BRANCH  24  25
ATOM     25  C   UNL     1      23.817   1.199   4.063  1.00  0.00    -0.000 C 
BRANCH  25  26
ATOM     26  C   UNL     1      24.827   0.044   4.083  1.00  0.00    -0.000 C 
BRANCH  26  27
ATOM     27  C   UNL     1      26.280   0.513   3.877  1.00  0.00    -0.000 C 
BRANCH  27  28
ATOM     28  C   UNL     1      27.257   0.118   5.003  1.00  0.00    -0.000 C 
BRANCH  28  29
ATOM     29  C   UNL     1      26.809  -1.129   5.778  1.00  0.00    -0.003 C 
ATOM     30  C   UNL     1      27.950  -1.686   6.623  1.00  0.00     0.004 C 
ENDBRANCH  28  29
ENDBRANCH  27  28
ENDBRANCH  26  27
ENDBRANCH  25  26
ENDBRANCH  24  25
ENDBRANCH  23  24
ENDBRANCH  22  23
ENDBRANCH  21  22
ENDBRANCH  20  21
ENDBRANCH  19  20
ENDBRANCH  18  19
ENDBRANCH  17  18
ENDBRANCH   1  17
TORSDOF 26
ENDMDL
