MODEL 1
REMARK VINA RESULT:    -3.789      0.000      0.000
REMARK INTER + INTRA:          -8.819
REMARK INTER:                  -6.890
REMARK INTRA:                  -1.928
REMARK UNBOUND:                -1.928
REMARK SMILES CCCCCCCCCCCCCCCC(=O)[O-]
REMARK SMILES IDX 9 1 10 2 11 3 12 4 13 5 14 6 15 7 16 8 17 9 18 10 8 11 7 12
REMARK SMILES IDX 6 13 5 14 4 15 3 16 2 17 1 18
REMARK H PARENT
REMARK Flexibility Score: inf
ROOT
ATOM      1  C   UNL     1       5.005  25.543 113.900  1.00  0.00     0.000 C 
ENDROOT
BRANCH   1   2
ATOM      2  C   UNL     1       6.533  25.507 113.720  1.00  0.00     0.000 C 
BRANCH   2   3
ATOM      3  C   UNL     1       6.976  24.497 112.649  1.00  0.00     0.000 C 
BRANCH   3   4
ATOM      4  C   UNL     1       7.931  25.114 111.611  1.00  0.00     0.000 C 
BRANCH   4   5
ATOM      5  C   UNL     1       7.550  26.555 111.240  1.00  0.00     0.000 C 
BRANCH   5   6
ATOM      6  C   UNL     1       6.736  26.634 109.937  1.00  0.00     0.006 C 
BRANCH   6   7
ATOM      7  C   UNL     1       7.463  25.973 108.758  1.00  0.00     0.053 C 
BRANCH   7   8
ATOM      8  C   UNL     1       6.822  26.311 107.447  1.00  0.00     0.041 C 
ATOM      9  O   UNL     1       5.780  27.017 107.414  1.00  0.00    -0.550 OA
ATOM     10  O   UNL     1       7.393  25.870 106.259  1.00  0.00    -0.550 OA
ENDBRANCH   7   8
ENDBRANCH   6   7
ENDBRANCH   5   6
ENDBRANCH   4   5
ENDBRANCH   3   4
ENDBRANCH   2   3
ENDBRANCH   1   2
BRANCH   1  11
ATOM     11  C   UNL     1       4.261  24.763 112.804  1.00  0.00     0.000 C 
BRANCH  11  12
ATOM     12  C   UNL     1       3.049  25.531 112.249  1.00  0.00    -0.000 C 
BRANCH  12  13
ATOM     13  C   UNL     1       3.157  25.781 110.736  1.00  0.00    -0.000 C 
BRANCH  13  14
ATOM     14  C   UNL     1       3.300  27.273 110.391  1.00  0.00    -0.000 C 
BRANCH  14  15
ATOM     15  C   UNL     1       3.715  28.117 111.614  1.00  0.00    -0.000 C 
BRANCH  15  16
ATOM     16  C   UNL     1       2.716  29.238 111.960  1.00  0.00    -0.000 C 
BRANCH  16  17
ATOM     17  C   UNL     1       1.239  28.873 111.736  1.00  0.00    -0.003 C 
ATOM     18  C   UNL     1       0.605  28.197 112.951  1.00  0.00     0.004 C 
ENDBRANCH  16  17
ENDBRANCH  15  16
ENDBRANCH  14  15
ENDBRANCH  13  14
ENDBRANCH  12  13
ENDBRANCH  11  12
ENDBRANCH   1  11
TORSDOF 14
ENDMDL
MODEL 2
REMARK VINA RESULT:    -3.718      2.400      3.970
REMARK INTER + INTRA:          -8.689
REMARK INTER:                  -6.759
REMARK INTRA:                  -1.930
REMARK UNBOUND:                -1.928
REMARK SMILES CCCCCCCCCCCCCCCC(=O)[O-]
REMARK SMILES IDX 9 1 10 2 11 3 12 4 13 5 14 6 15 7 16 8 17 9 18 10 8 11 7 12
REMARK SMILES IDX 6 13 5 14 4 15 3 16 2 17 1 18
REMARK H PARENT
REMARK Flexibility Score: inf
ROOT
ATOM      1  C   UNL     1       2.000  26.999 111.880  1.00  0.00     0.000 C 
ENDROOT
BRANCH   1   2
ATOM      2  C   UNL     1       2.480  25.564 112.160  1.00  0.00     0.000 C 
BRANCH   2   3
ATOM      3  C   UNL     1       4.009  25.427 112.071  1.00  0.00     0.000 C 
BRANCH   3   4
ATOM      4  C   UNL     1       4.719  25.837 113.374  1.00  0.00     0.000 C 
BRANCH   4   5
ATOM      5  C   UNL     1       6.080  26.504 113.120  1.00  0.00     0.000 C 
BRANCH   5   6
ATOM      6  C   UNL     1       6.243  26.981 111.667  1.00  0.00     0.006 C 
BRANCH   6   7
ATOM      7  C   UNL     1       7.576  26.530 111.055  1.00  0.00     0.053 C 
BRANCH   7   8
ATOM      8  C   UNL     1       7.965  25.158 111.514  1.00  0.00     0.041 C 
ATOM      9  O   UNL     1       7.361  24.146 111.069  1.00  0.00    -0.550 OA
ATOM     10  O   UNL     1       9.014  24.994 112.410  1.00  0.00    -0.550 OA
ENDBRANCH   7   8
ENDBRANCH   6   7
ENDBRANCH   5   6
ENDBRANCH   4   5
ENDBRANCH   3   4
ENDBRANCH   2   3
ENDBRANCH   1   2
BRANCH   1  11
ATOM     11  C   UNL     1       2.497  27.536 110.528  1.00  0.00     0.000 C 
BRANCH  11  12
ATOM     12  C   UNL     1       1.765  28.819 110.096  1.00  0.00    -0.000 C 
BRANCH  12  13
ATOM     13  C   UNL     1       0.690  29.248 111.107  1.00  0.00    -0.000 C 
BRANCH  13  14
ATOM     14  C   UNL     1       0.939  30.656 111.676  1.00  0.00    -0.000 C 
BRANCH  14  15
ATOM     15  C   UNL     1       1.866  30.631 112.909  1.00  0.00    -0.000 C 
BRANCH  15  16
ATOM     16  C   UNL     1       3.355  30.827 112.567  1.00  0.00    -0.000 C 
BRANCH  16  17
ATOM     17  C   UNL     1       4.291  29.744 113.130  1.00  0.00    -0.003 C 
ATOM     18  C   UNL     1       5.564  30.324 113.746  1.00  0.00     0.004 C 
ENDBRANCH  16  17
ENDBRANCH  15  16
ENDBRANCH  14  15
ENDBRANCH  13  14
ENDBRANCH  12  13
ENDBRANCH  11  12
ENDBRANCH   1  11
TORSDOF 14
ENDMDL
MODEL 3
REMARK VINA RESULT:    -3.713      1.842      3.991
REMARK INTER + INTRA:          -8.680
REMARK INTER:                  -6.434
REMARK INTRA:                  -2.247
REMARK UNBOUND:                -1.928
REMARK SMILES CCCCCCCCCCCCCCCC(=O)[O-]
REMARK SMILES IDX 9 1 10 2 11 3 12 4 13 5 14 6 15 7 16 8 17 9 18 10 8 11 7 12
REMARK SMILES IDX 6 13 5 14 4 15 3 16 2 17 1 18
REMARK H PARENT
REMARK Flexibility Score: inf
ROOT
ATOM      1  C   UNL     1       3.392  27.614 110.919  1.00  0.00     0.000 C 
ENDROOT
BRANCH   1   2
ATOM      2  C   UNL     1       3.081  26.117 110.750  1.00  0.00     0.000 C 
BRANCH   2   3
ATOM      3  C   UNL     1       3.030  25.371 112.094  1.00  0.00     0.000 C 
BRANCH   3   4
ATOM      4  C   UNL     1       4.409  25.269 112.769  1.00  0.00     0.000 C 
BRANCH   4   5
ATOM      5  C   UNL     1       5.222  24.064 112.274  1.00  0.00     0.000 C 
BRANCH   5   6
ATOM      6  C   UNL     1       6.328  24.464 111.281  1.00  0.00     0.006 C 
BRANCH   6   7
ATOM      7  C   UNL     1       7.266  25.533 111.858  1.00  0.00     0.053 C 
BRANCH   7   8
ATOM      8  C   UNL     1       7.100  26.852 111.168  1.00  0.00     0.041 C 
ATOM      9  O   UNL     1       7.225  26.934 109.918  1.00  0.00    -0.550 OA
ATOM     10  O   UNL     1       6.776  27.986 111.903  1.00  0.00    -0.550 OA
ENDBRANCH   7   8
ENDBRANCH   6   7
ENDBRANCH   5   6
ENDBRANCH   4   5
ENDBRANCH   3   4
ENDBRANCH   2   3
ENDBRANCH   1   2
BRANCH   1  11
ATOM     11  C   UNL     1       2.552  28.502 109.986  1.00  0.00     0.000 C 
BRANCH  11  12
ATOM     12  C   UNL     1       1.975  29.735 110.704  1.00  0.00    -0.000 C 
BRANCH  12  13
ATOM     13  C   UNL     1       0.535  29.507 111.193  1.00  0.00    -0.000 C 
BRANCH  13  14
ATOM     14  C   UNL     1       0.423  29.512 112.727  1.00  0.00    -0.000 C 
BRANCH  14  15
ATOM     15  C   UNL     1       0.538  28.094 113.325  1.00  0.00    -0.000 C 
BRANCH  15  16
ATOM     16  C   UNL     1       1.715  27.931 114.305  1.00  0.00    -0.000 C 
BRANCH  16  17
ATOM     17  C   UNL     1       2.743  29.073 114.271  1.00  0.00    -0.003 C 
ATOM     18  C   UNL     1       4.178  28.585 114.463  1.00  0.00     0.004 C 
ENDBRANCH  16  17
ENDBRANCH  15  16
ENDBRANCH  14  15
ENDBRANCH  13  14
ENDBRANCH  12  13
ENDBRANCH  11  12
ENDBRANCH   1  11
TORSDOF 14
ENDMDL
MODEL 4
REMARK VINA RESULT:    -3.708      3.285      5.450
REMARK INTER + INTRA:          -8.671
REMARK INTER:                  -6.593
REMARK INTRA:                  -2.078
REMARK UNBOUND:                -1.928
REMARK SMILES CCCCCCCCCCCCCCCC(=O)[O-]
REMARK SMILES IDX 9 1 10 2 11 3 12 4 13 5 14 6 15 7 16 8 17 9 18 10 8 11 7 12
REMARK SMILES IDX 6 13 5 14 4 15 3 16 2 17 1 18
REMARK H PARENT
REMARK Flexibility Score: inf
ROOT
ATOM      1  C   UNL     1       0.213  25.239 114.071  1.00  0.00     0.000 C 
ENDROOT
BRANCH   1   2
ATOM      2  C   UNL     1       1.431  26.103 113.701  1.00  0.00     0.000 C 
BRANCH   2   3
ATOM      3  C   UNL     1       2.036  25.717 112.342  1.00  0.00     0.000 C 
BRANCH   3   4
ATOM      4  C   UNL     1       3.425  26.341 112.111  1.00  0.00     0.000 C 
BRANCH   4   5
ATOM      5  C   UNL     1       3.910  26.181 110.662  1.00  0.00     0.000 C 
BRANCH   5   6
ATOM      6  C   UNL     1       5.430  25.956 110.570  1.00  0.00     0.006 C 
BRANCH   6   7
ATOM      7  C   UNL     1       6.041  25.568 111.923  1.00  0.00     0.053 C 
BRANCH   7   8
ATOM      8  C   UNL     1       6.954  24.386 111.804  1.00  0.00     0.041 C 
ATOM      9  O   UNL     1       6.961  23.693 110.753  1.00  0.00    -0.550 OA
ATOM     10  O   UNL     1       7.820  24.068 112.843  1.00  0.00    -0.550 OA
ENDBRANCH   7   8
ENDBRANCH   6   7
ENDBRANCH   5   6
ENDBRANCH   4   5
ENDBRANCH   3   4
ENDBRANCH   2   3
ENDBRANCH   1   2
BRANCH   1  11
ATOM     11  C   UNL     1       0.418  23.752 113.736  1.00  0.00     0.000 C 
BRANCH  11  12
ATOM     12  C   UNL     1       0.061  22.825 114.911  1.00  0.00    -0.000 C 
BRANCH  12  13
ATOM     13  C   UNL     1       1.100  21.710 115.113  1.00  0.00    -0.000 C 
BRANCH  13  14
ATOM     14  C   UNL     1       1.960  21.469 113.860  1.00  0.00    -0.000 C 
BRANCH  14  15
ATOM     15  C   UNL     1       3.470  21.584 114.159  1.00  0.00    -0.000 C 
BRANCH  15  16
ATOM     16  C   UNL     1       4.088  22.922 113.711  1.00  0.00    -0.000 C 
BRANCH  16  17
ATOM     17  C   UNL     1       4.255  23.960 114.833  1.00  0.00    -0.003 C 
ATOM     18  C   UNL     1       5.547  23.771 115.627  1.00  0.00     0.004 C 
ENDBRANCH  16  17
ENDBRANCH  15  16
ENDBRANCH  14  15
ENDBRANCH  13  14
ENDBRANCH  12  13
ENDBRANCH  11  12
ENDBRANCH   1  11
TORSDOF 14
ENDMDL
MODEL 5
REMARK VINA RESULT:    -3.697      3.990      6.039
REMARK INTER + INTRA:          -8.650
REMARK INTER:                  -6.660
REMARK INTRA:                  -1.990
REMARK UNBOUND:                -1.928
REMARK SMILES CCCCCCCCCCCCCCCC(=O)[O-]
REMARK SMILES IDX 9 1 10 2 11 3 12 4 13 5 14 6 15 7 16 8 17 9 18 10 8 11 7 12
REMARK SMILES IDX 6 13 5 14 4 15 3 16 2 17 1 18
REMARK H PARENT
REMARK Flexibility Score: inf
ROOT
ATOM      1  C   UNL     1       2.027  26.969 114.247  1.00  0.00     0.000 C 
ENDROOT
BRANCH   1   2
ATOM      2  C   UNL     1       3.081  28.041 114.574  1.00  0.00     0.000 C 
BRANCH   2   3
ATOM      3  C   UNL     1       4.510  27.588 114.230  1.00  0.00     0.000 C 
BRANCH   3   4
ATOM      4  C   UNL     1       5.265  28.611 113.363  1.00  0.00     0.000 C 
BRANCH   4   5
ATOM      5  C   UNL     1       4.476  29.914 113.164  1.00  0.00     0.000 C 
BRANCH   5   6
ATOM      6  C   UNL     1       5.308  31.165 113.496  1.00  0.00     0.006 C 
BRANCH   6   7
ATOM      7  C   UNL     1       6.083  31.013 114.811  1.00  0.00     0.053 C 
BRANCH   7   8
ATOM      8  C   UNL     1       7.368  31.783 114.794  1.00  0.00     0.041 C 
ATOM      9  O   UNL     1       8.127  31.727 113.791  1.00  0.00    -0.550 OA
ATOM     10  O   UNL     1       7.713  32.586 115.874  1.00  0.00    -0.550 OA
ENDBRANCH   7   8
ENDBRANCH   6   7
ENDBRANCH   5   6
ENDBRANCH   4   5
ENDBRANCH   3   4
ENDBRANCH   2   3
ENDBRANCH   1   2
BRANCH   1  11
ATOM     11  C   UNL     1       1.504  27.075 112.805  1.00  0.00     0.000 C 
BRANCH  11  12
ATOM     12  C   UNL     1       2.234  26.127 111.838  1.00  0.00    -0.000 C 
BRANCH  12  13
ATOM     13  C   UNL     1       3.024  26.887 110.760  1.00  0.00    -0.000 C 
BRANCH  13  14
ATOM     14  C   UNL     1       4.368  26.215 110.426  1.00  0.00    -0.000 C 
BRANCH  14  15
ATOM     15  C   UNL     1       4.752  25.135 111.459  1.00  0.00    -0.000 C 
BRANCH  15  16
ATOM     16  C   UNL     1       6.262  24.833 111.505  1.00  0.00    -0.000 C 
BRANCH  16  17
ATOM     17  C   UNL     1       7.167  26.076 111.461  1.00  0.00    -0.003 C 
ATOM     18  C   UNL     1       8.188  26.026 110.325  1.00  0.00     0.004 C 
ENDBRANCH  16  17
ENDBRANCH  15  16
ENDBRANCH  14  15
ENDBRANCH  13  14
ENDBRANCH  12  13
ENDBRANCH  11  12
ENDBRANCH   1  11
TORSDOF 14
ENDMDL
MODEL 6
REMARK VINA RESULT:    -3.653      3.324      4.808
REMARK INTER + INTRA:          -8.571
REMARK INTER:                  -6.197
REMARK INTRA:                  -2.374
REMARK UNBOUND:                -1.928
REMARK SMILES CCCCCCCCCCCCCCCC(=O)[O-]
REMARK SMILES IDX 9 1 10 2 11 3 12 4 13 5 14 6 15 7 16 8 17 9 18 10 8 11 7 12
REMARK SMILES IDX 6 13 5 14 4 15 3 16 2 17 1 18
REMARK H PARENT
REMARK Flexibility Score: inf
ROOT
ATOM      1  C   UNL     1       0.816  22.139 115.094  1.00  0.00     0.000 C 
ENDROOT
BRANCH   1   2
ATOM      2  C   UNL     1       1.532  22.160 113.732  1.00  0.00     0.000 C 
BRANCH   2   3
ATOM      3  C   UNL     1       2.944  21.556 113.799  1.00  0.00     0.000 C 
BRANCH   3   4
ATOM      4  C   UNL     1       3.989  22.548 114.341  1.00  0.00     0.000 C 
BRANCH   4   5
ATOM      5  C   UNL     1       4.354  23.638 113.322  1.00  0.00     0.000 C 
BRANCH   5   6
ATOM      6  C   UNL     1       5.347  24.668 113.888  1.00  0.00     0.006 C 
BRANCH   6   7
ATOM      7  C   UNL     1       6.180  25.336 112.786  1.00  0.00     0.053 C 
BRANCH   7   8
ATOM      8  C   UNL     1       7.181  24.392 112.194  1.00  0.00     0.041 C 
ATOM      9  O   UNL     1       7.039  23.976 111.014  1.00  0.00    -0.550 OA
ATOM     10  O   UNL     1       8.287  23.996 112.935  1.00  0.00    -0.550 OA
ENDBRANCH   7   8
ENDBRANCH   6   7
ENDBRANCH   5   6
ENDBRANCH   4   5
ENDBRANCH   3   4
ENDBRANCH   2   3
ENDBRANCH   1   2
BRANCH   1  11
ATOM     11  C   UNL     1       0.257  23.515 115.490  1.00  0.00     0.000 C 
BRANCH  11  12
ATOM     12  C   UNL     1       1.301  24.398 116.197  1.00  0.00    -0.000 C 
BRANCH  12  13
ATOM     13  C   UNL     1       1.848  25.505 115.281  1.00  0.00    -0.000 C 
BRANCH  13  14
ATOM     14  C   UNL     1       0.838  25.934 114.203  1.00  0.00    -0.000 C 
BRANCH  14  15
ATOM     15  C   UNL     1       1.475  25.996 112.799  1.00  0.00    -0.000 C 
BRANCH  15  16
ATOM     16  C   UNL     1       2.623  27.017 112.686  1.00  0.00    -0.000 C 
BRANCH  16  17
ATOM     17  C   UNL     1       3.210  27.169 111.273  1.00  0.00    -0.003 C 
ATOM     18  C   UNL     1       3.317  25.839 110.528  1.00  0.00     0.004 C 
ENDBRANCH  16  17
ENDBRANCH  15  16
ENDBRANCH  14  15
ENDBRANCH  13  14
ENDBRANCH  12  13
ENDBRANCH  11  12
ENDBRANCH   1  11
TORSDOF 14
ENDMDL
MODEL 7
REMARK VINA RESULT:    -3.625      2.494      4.845
REMARK INTER + INTRA:          -8.520
REMARK INTER:                  -5.971
REMARK INTRA:                  -2.549
REMARK UNBOUND:                -1.928
REMARK SMILES CCCCCCCCCCCCCCCC(=O)[O-]
REMARK SMILES IDX 9 1 10 2 11 3 12 4 13 5 14 6 15 7 16 8 17 9 18 10 8 11 7 12
REMARK SMILES IDX 6 13 5 14 4 15 3 16 2 17 1 18
REMARK H PARENT
REMARK Flexibility Score: inf
ROOT
ATOM      1  C   UNL     1       2.898  30.389 111.422  1.00  0.00     0.000 C 
ENDROOT
BRANCH   1   2
ATOM      2  C   UNL     1       1.650  29.502 111.271  1.00  0.00     0.000 C 
BRANCH   2   3
ATOM      3  C   UNL     1       1.893  28.296 110.349  1.00  0.00     0.000 C 
BRANCH   3   4
ATOM      4  C   UNL     1       3.295  27.687 110.524  1.00  0.00     0.000 C 
BRANCH   4   5
ATOM      5  C   UNL     1       3.254  26.173 110.783  1.00  0.00     0.000 C 
BRANCH   5   6
ATOM      6  C   UNL     1       4.638  25.594 111.126  1.00  0.00     0.006 C 
BRANCH   6   7
ATOM      7  C   UNL     1       5.774  26.365 110.441  1.00  0.00     0.053 C 
BRANCH   7   8
ATOM      8  C   UNL     1       6.756  26.910 111.432  1.00  0.00     0.041 C 
ATOM      9  O   UNL     1       7.592  27.784 111.081  1.00  0.00    -0.550 OA
ATOM     10  O   UNL     1       6.727  26.476 112.752  1.00  0.00    -0.550 OA
ENDBRANCH   7   8
ENDBRANCH   6   7
ENDBRANCH   5   6
ENDBRANCH   4   5
ENDBRANCH   3   4
ENDBRANCH   2   3
ENDBRANCH   1   2
BRANCH   1  11
ATOM     11  C   UNL     1       3.020  31.007 112.825  1.00  0.00     0.000 C 
BRANCH  11  12
ATOM     12  C   UNL     1       4.462  30.982 113.360  1.00  0.00    -0.000 C 
BRANCH  12  13
ATOM     13  C   UNL     1       5.070  29.570 113.336  1.00  0.00    -0.000 C 
BRANCH  13  14
ATOM     14  C   UNL     1       5.410  29.047 114.743  1.00  0.00    -0.000 C 
BRANCH  14  15
ATOM     15  C   UNL     1       4.290  28.156 115.319  1.00  0.00    -0.000 C 
BRANCH  15  16
ATOM     16  C   UNL     1       3.434  27.463 114.242  1.00  0.00    -0.000 C 
BRANCH  16  17
ATOM     17  C   UNL     1       1.922  27.719 114.361  1.00  0.00    -0.003 C 
ATOM     18  C   UNL     1       1.082  26.601 113.743  1.00  0.00     0.004 C 
ENDBRANCH  16  17
ENDBRANCH  15  16
ENDBRANCH  14  15
ENDBRANCH  13  14
ENDBRANCH  12  13
ENDBRANCH  11  12
ENDBRANCH   1  11
TORSDOF 14
ENDMDL
MODEL 8
REMARK VINA RESULT:    -3.605      1.444      2.346
REMARK INTER + INTRA:          -8.483
REMARK INTER:                  -7.029
REMARK INTRA:                  -1.454
REMARK UNBOUND:                -1.928
REMARK SMILES CCCCCCCCCCCCCCCC(=O)[O-]
REMARK SMILES IDX 9 1 10 2 11 3 12 4 13 5 14 6 15 7 16 8 17 9 18 10 8 11 7 12
REMARK SMILES IDX 6 13 5 14 4 15 3 16 2 17 1 18
REMARK H PARENT
REMARK Flexibility Score: inf
ROOT
ATOM      1  C   UNL     1       3.516  24.912 113.663  1.00  0.00     0.000 C 
ENDROOT
BRANCH   1   2
ATOM      2  C   UNL     1       4.396  23.778 113.109  1.00  0.00     0.000 C 
BRANCH   2   3
ATOM      3  C   UNL     1       5.694  24.298 112.471  1.00  0.00     0.000 C 
BRANCH   3   4
ATOM      4  C   UNL     1       5.435  25.246 111.286  1.00  0.00     0.000 C 
BRANCH   4   5
ATOM      5  C   UNL     1       6.133  26.604 111.451  1.00  0.00     0.000 C 
BRANCH   5   6
ATOM      6  C   UNL     1       7.464  26.682 110.682  1.00  0.00     0.006 C 
BRANCH   6   7
ATOM      7  C   UNL     1       7.606  25.551 109.655  1.00  0.00     0.053 C 
BRANCH   7   8
ATOM      8  C   UNL     1       7.417  26.045 108.253  1.00  0.00     0.041 C 
ATOM      9  O   UNL     1       8.223  25.704 107.347  1.00  0.00    -0.550 OA
ATOM     10  O   UNL     1       6.334  26.856 107.940  1.00  0.00    -0.550 OA
ENDBRANCH   7   8
ENDBRANCH   6   7
ENDBRANCH   5   6
ENDBRANCH   4   5
ENDBRANCH   3   4
ENDBRANCH   2   3
ENDBRANCH   1   2
BRANCH   1  11
ATOM     11  C   UNL     1       2.135  24.973 112.990  1.00  0.00     0.000 C 
BRANCH  11  12
ATOM     12  C   UNL     1       1.886  26.310 112.269  1.00  0.00    -0.000 C 
BRANCH  12  13
ATOM     13  C   UNL     1       2.519  27.500 113.008  1.00  0.00    -0.000 C 
BRANCH  13  14
ATOM     14  C   UNL     1       1.485  28.566 113.410  1.00  0.00    -0.000 C 
BRANCH  14  15
ATOM     15  C   UNL     1       0.783  29.188 112.185  1.00  0.00    -0.000 C 
BRANCH  15  16
ATOM     16  C   UNL     1       1.438  30.493 111.695  1.00  0.00    -0.000 C 
BRANCH  16  17
ATOM     17  C   UNL     1       2.615  30.296 110.726  1.00  0.00    -0.003 C 
ATOM     18  C   UNL     1       2.317  29.271 109.632  1.00  0.00     0.004 C 
ENDBRANCH  16  17
ENDBRANCH  15  16
ENDBRANCH  14  15
ENDBRANCH  13  14
ENDBRANCH  12  13
ENDBRANCH  11  12
ENDBRANCH   1  11
TORSDOF 14
ENDMDL
MODEL 9
REMARK VINA RESULT:    -3.555      2.329      4.011
REMARK INTER + INTRA:          -8.392
REMARK INTER:                  -5.663
REMARK INTRA:                  -2.729
REMARK UNBOUND:                -1.928
REMARK SMILES CCCCCCCCCCCCCCCC(=O)[O-]
REMARK SMILES IDX 9 1 10 2 11 3 12 4 13 5 14 6 15 7 16 8 17 9 18 10 8 11 7 12
REMARK SMILES IDX 6 13 5 14 4 15 3 16 2 17 1 18
REMARK H PARENT
REMARK Flexibility Score: inf
ROOT
ATOM      1  C   UNL     1       0.787  26.298 114.122  1.00  0.00     0.000 C 
ENDROOT
BRANCH   1   2
ATOM      2  C   UNL     1       1.492  25.874 112.822  1.00  0.00     0.000 C 
BRANCH   2   3
ATOM      3  C   UNL     1       2.609  24.846 113.066  1.00  0.00     0.000 C 
BRANCH   3   4
ATOM      4  C   UNL     1       3.744  24.946 112.031  1.00  0.00     0.000 C 
BRANCH   4   5
ATOM      5  C   UNL     1       3.520  26.076 111.015  1.00  0.00     0.000 C 
BRANCH   5   6
ATOM      6  C   UNL     1       4.828  26.546 110.355  1.00  0.00     0.006 C 
BRANCH   6   7
ATOM      7  C   UNL     1       6.015  25.642 110.714  1.00  0.00     0.053 C 
BRANCH   7   8
ATOM      8  C   UNL     1       7.162  26.425 111.277  1.00  0.00     0.041 C 
ATOM      9  O   UNL     1       7.064  27.671 111.431  1.00  0.00    -0.550 OA
ATOM     10  O   UNL     1       8.328  25.774 111.660  1.00  0.00    -0.550 OA
ENDBRANCH   7   8
ENDBRANCH   6   7
ENDBRANCH   5   6
ENDBRANCH   4   5
ENDBRANCH   3   4
ENDBRANCH   2   3
ENDBRANCH   1   2
BRANCH   1  11
ATOM     11  C   UNL     1       0.377  27.780 114.117  1.00  0.00     0.000 C 
BRANCH  11  12
ATOM     12  C   UNL     1       0.584  28.447 112.745  1.00  0.00    -0.000 C 
BRANCH  12  13
ATOM     13  C   UNL     1       1.429  29.727 112.839  1.00  0.00    -0.000 C 
BRANCH  13  14
ATOM     14  C   UNL     1       2.511  29.804 111.748  1.00  0.00    -0.000 C 
BRANCH  14  15
ATOM     15  C   UNL     1       3.925  29.542 112.308  1.00  0.00    -0.000 C 
BRANCH  15  16
ATOM     16  C   UNL     1       3.938  29.177 113.804  1.00  0.00    -0.000 C 
BRANCH  16  17
ATOM     17  C   UNL     1       4.667  27.865 114.138  1.00  0.00    -0.003 C 
ATOM     18  C   UNL     1       4.160  27.216 115.426  1.00  0.00     0.004 C 
ENDBRANCH  16  17
ENDBRANCH  15  16
ENDBRANCH  14  15
ENDBRANCH  13  14
ENDBRANCH  12  13
ENDBRANCH  11  12
ENDBRANCH   1  11
TORSDOF 14
ENDMDL
