MODEL 1
REMARK VINA RESULT:    -7.209      0.000      0.000
REMARK INTER + INTRA:          -8.744
REMARK INTER:                  -8.473
REMARK INTRA:                  -0.272
REMARK UNBOUND:                -0.272
REMARK SMILES O=c1c(O)c(-c2ccc(O)cc2)oc2cc(O)cc(O)c12
REMARK SMILES IDX 5 1 3 2 2 3 1 4 21 5 19 6 18 7 16 8 15 9 14 10 13 11 6 12
REMARK SMILES IDX 7 13 8 14 9 15 12 16 11 17 10 18 4 20 20 22 17 24
REMARK H PARENT 10 19 4 21 20 23 17 25
REMARK Flexibility Score: inf
ROOT
ATOM      1  C   UNL     1      33.457  13.275 -11.528  1.00  0.00     0.180 A 
ATOM      2  C   UNL     1      33.043  13.725 -10.262  1.00  0.00     0.208 A 
ATOM      3  C   UNL     1      31.670  13.857 -10.002  1.00  0.00     0.238 A 
ATOM      4  O   UNL     1      31.307  14.311  -8.886  1.00  0.00    -0.285 OA
ATOM      5  C   UNL     1      30.727  13.522 -11.004  1.00  0.00     0.111 A 
ATOM      6  C   UNL     1      29.311  13.579 -10.836  1.00  0.00     0.134 A 
ATOM      7  C   UNL     1      28.476  13.352 -11.937  1.00  0.00     0.093 A 
ATOM      8  C   UNL     1      29.004  13.004 -13.183  1.00  0.00     0.123 A 
ATOM      9  C   UNL     1      30.383  12.887 -13.341  1.00  0.00     0.094 A 
ATOM     10  C   UNL     1      31.243  13.145 -12.271  1.00  0.00     0.146 A 
ATOM     11  O   UNL     1      32.552  13.033 -12.468  1.00  0.00    -0.452 OA
ENDROOT
BRANCH   1  12
ATOM     12  C   UNL     1      34.886  13.087 -11.868  1.00  0.00     0.021 A 
ATOM     13  C   UNL     1      35.690  14.166 -12.279  1.00  0.00     0.016 A 
ATOM     14  C   UNL     1      37.043  13.969 -12.571  1.00  0.00     0.047 A 
ATOM     15  C   UNL     1      37.612  12.695 -12.444  1.00  0.00     0.115 A 
ATOM     16  C   UNL     1      35.470  11.817 -11.723  1.00  0.00     0.016 A 
ATOM     17  C   UNL     1      36.823  11.623 -12.018  1.00  0.00     0.047 A 
BRANCH  15  18
ATOM     18  O   UNL     1      38.958  12.487 -12.734  1.00  0.00    -0.508 OA
ATOM     19  H   UNL     1      39.460  11.683 -12.375  1.00  0.00     0.293 HD
ENDBRANCH  15  18
ENDBRANCH   1  12
BRANCH   2  20
ATOM     20  O   UNL     1      33.990  14.071  -9.294  1.00  0.00    -0.502 OA
ATOM     21  H   UNL     1      34.579  14.890  -9.377  1.00  0.00     0.293 HD
ENDBRANCH   2  20
BRANCH   6  22
ATOM     22  O   UNL     1      28.679  13.827  -9.615  1.00  0.00    -0.507 OA
ATOM     23  H   UNL     1      28.019  13.205  -9.173  1.00  0.00     0.293 HD
ENDBRANCH   6  22
BRANCH   8  24
ATOM     24  O   UNL     1      28.165  12.764 -14.269  1.00  0.00    -0.508 OA
ATOM     25  H   UNL     1      28.321  11.983 -14.895  1.00  0.00     0.293 HD
ENDBRANCH   8  24
TORSDOF 5
ENDMDL
MODEL 2
REMARK VINA RESULT:    -7.001      2.413      3.607
REMARK INTER + INTRA:          -8.500
REMARK INTER:                  -8.521
REMARK INTRA:                   0.021
REMARK UNBOUND:                -0.272
REMARK SMILES O=c1c(O)c(-c2ccc(O)cc2)oc2cc(O)cc(O)c12
REMARK SMILES IDX 5 1 3 2 2 3 1 4 21 5 19 6 18 7 16 8 15 9 14 10 13 11 6 12
REMARK SMILES IDX 7 13 8 14 9 15 12 16 11 17 10 18 4 20 20 22 17 24
REMARK H PARENT 10 19 4 21 20 23 17 25
REMARK Flexibility Score: inf
ROOT
ATOM      1  C   UNL     1      34.846  14.132 -10.341  1.00  0.00     0.180 A 
ATOM      2  C   UNL     1      34.447  14.231 -11.685  1.00  0.00     0.208 A 
ATOM      3  C   UNL     1      33.082  14.358 -11.983  1.00  0.00     0.238 A 
ATOM      4  O   UNL     1      32.726  14.393 -13.190  1.00  0.00    -0.285 OA
ATOM      5  C   UNL     1      32.132  14.400 -10.934  1.00  0.00     0.111 A 
ATOM      6  C   UNL     1      30.727  14.566 -11.118  1.00  0.00     0.134 A 
ATOM      7  C   UNL     1      29.869  14.461 -10.016  1.00  0.00     0.093 A 
ATOM      8  C   UNL     1      30.371  14.262  -8.728  1.00  0.00     0.123 A 
ATOM      9  C   UNL     1      31.746  14.159  -8.530  1.00  0.00     0.094 A 
ATOM     10  C   UNL     1      32.624  14.222  -9.614  1.00  0.00     0.146 A 
ATOM     11  O   UNL     1      33.927  14.108  -9.383  1.00  0.00    -0.452 OA
ENDROOT
BRANCH   1  12
ATOM     12  C   UNL     1      36.269  14.022  -9.947  1.00  0.00     0.021 A 
ATOM     13  C   UNL     1      37.242  14.900 -10.458  1.00  0.00     0.016 A 
ATOM     14  C   UNL     1      38.575  14.792 -10.053  1.00  0.00     0.047 A 
ATOM     15  C   UNL     1      38.951  13.814  -9.122  1.00  0.00     0.115 A 
ATOM     16  C   UNL     1      36.651  13.058  -8.998  1.00  0.00     0.016 A 
ATOM     17  C   UNL     1      37.986  12.951  -8.595  1.00  0.00     0.047 A 
BRANCH  15  18
ATOM     18  O   UNL     1      40.277  13.697  -8.712  1.00  0.00    -0.508 OA
ATOM     19  H   UNL     1      40.835  14.511  -8.482  1.00  0.00     0.293 HD
ENDBRANCH  15  18
ENDBRANCH   1  12
BRANCH   2  20
ATOM     20  O   UNL     1      35.399  14.166 -12.707  1.00  0.00    -0.502 OA
ATOM     21  H   UNL     1      36.007  14.943 -12.934  1.00  0.00     0.293 HD
ENDBRANCH   2  20
BRANCH   6  22
ATOM     22  O   UNL     1      30.130  14.860 -12.347  1.00  0.00    -0.507 OA
ATOM     23  H   UNL     1      29.328  14.380 -12.726  1.00  0.00     0.293 HD
ENDBRANCH   6  22
BRANCH   8  24
ATOM     24  O   UNL     1      29.511  14.175  -7.635  1.00  0.00    -0.508 OA
ATOM     25  H   UNL     1      29.639  14.752  -6.813  1.00  0.00     0.293 HD
ENDBRANCH   8  24
TORSDOF 5
ENDMDL
MODEL 3
REMARK VINA RESULT:    -6.852      4.795     10.586
REMARK INTER + INTRA:          -8.325
REMARK INTER:                  -8.087
REMARK INTRA:                  -0.238
REMARK UNBOUND:                -0.272
REMARK SMILES O=c1c(O)c(-c2ccc(O)cc2)oc2cc(O)cc(O)c12
REMARK SMILES IDX 5 1 3 2 2 3 1 4 21 5 19 6 18 7 16 8 15 9 14 10 13 11 6 12
REMARK SMILES IDX 7 13 8 14 9 15 12 16 11 17 10 18 4 20 20 22 17 24
REMARK H PARENT 10 19 4 21 20 23 17 25
REMARK Flexibility Score: inf
ROOT
ATOM      1  C   UNL     1      39.904  13.881 -10.516  1.00  0.00     0.180 A 
ATOM      2  C   UNL     1      40.401  13.038 -11.526  1.00  0.00     0.208 A 
ATOM      3  C   UNL     1      41.789  12.891 -11.668  1.00  0.00     0.238 A 
ATOM      4  O   UNL     1      42.229  12.179 -12.607  1.00  0.00    -0.285 OA
ATOM      5  C   UNL     1      42.664  13.575 -10.789  1.00  0.00     0.111 A 
ATOM      6  C   UNL     1      44.087  13.468 -10.816  1.00  0.00     0.134 A 
ATOM      7  C   UNL     1      44.857  14.292  -9.985  1.00  0.00     0.093 A 
ATOM      8  C   UNL     1      44.254  15.169  -9.082  1.00  0.00     0.123 A 
ATOM      9  C   UNL     1      42.865  15.237  -9.006  1.00  0.00     0.094 A 
ATOM     10  C   UNL     1      42.070  14.456  -9.848  1.00  0.00     0.146 A 
ATOM     11  O   UNL     1      40.750  14.559  -9.751  1.00  0.00    -0.452 OA
ENDROOT
BRANCH   1  12
ATOM     12  C   UNL     1      38.453  14.066 -10.289  1.00  0.00     0.021 A 
ATOM     13  C   UNL     1      37.675  14.876 -11.137  1.00  0.00     0.016 A 
ATOM     14  C   UNL     1      36.302  15.017 -10.917  1.00  0.00     0.047 A 
ATOM     15  C   UNL     1      35.686  14.340  -9.856  1.00  0.00     0.115 A 
ATOM     16  C   UNL     1      37.822  13.375  -9.240  1.00  0.00     0.016 A 
ATOM     17  C   UNL     1      36.449  13.519  -9.022  1.00  0.00     0.047 A 
BRANCH  15  18
ATOM     18  O   UNL     1      34.318  14.474  -9.627  1.00  0.00    -0.508 OA
ATOM     19  H   UNL     1      33.727  13.668  -9.461  1.00  0.00     0.293 HD
ENDBRANCH  15  18
ENDBRANCH   1  12
BRANCH   2  20
ATOM     20  O   UNL     1      39.520  12.389 -12.397  1.00  0.00    -0.502 OA
ATOM     21  H   UNL     1      39.240  11.425 -12.267  1.00  0.00     0.293 HD
ENDBRANCH   2  20
BRANCH   6  22
ATOM     22  O   UNL     1      44.786  12.558 -11.614  1.00  0.00    -0.507 OA
ATOM     23  H   UNL     1      44.582  12.368 -12.583  1.00  0.00     0.293 HD
ENDBRANCH   6  22
BRANCH   8  24
ATOM     24  O   UNL     1      45.028  15.974  -8.247  1.00  0.00    -0.508 OA
ATOM     25  H   UNL     1      45.131  16.967  -8.416  1.00  0.00     0.293 HD
ENDBRANCH   8  24
TORSDOF 5
ENDMDL
MODEL 4
REMARK VINA RESULT:    -6.673      4.036      7.028
REMARK INTER + INTRA:          -8.115
REMARK INTER:                  -8.045
REMARK INTRA:                  -0.070
REMARK UNBOUND:                -0.272
REMARK SMILES O=c1c(O)c(-c2ccc(O)cc2)oc2cc(O)cc(O)c12
REMARK SMILES IDX 5 1 3 2 2 3 1 4 21 5 19 6 18 7 16 8 15 9 14 10 13 11 6 12
REMARK SMILES IDX 7 13 8 14 9 15 12 16 11 17 10 18 4 20 20 22 17 24
REMARK H PARENT 10 19 4 21 20 23 17 25
REMARK Flexibility Score: inf
ROOT
ATOM      1  C   UNL     1      39.628  14.266 -10.716  1.00  0.00     0.180 A 
ATOM      2  C   UNL     1      39.100  14.328 -12.017  1.00  0.00     0.208 A 
ATOM      3  C   UNL     1      37.706  14.337 -12.186  1.00  0.00     0.238 A 
ATOM      4  O   UNL     1      37.239  14.338 -13.354  1.00  0.00    -0.285 OA
ATOM      5  C   UNL     1      36.858  14.300 -11.053  1.00  0.00     0.111 A 
ATOM      6  C   UNL     1      35.433  14.344 -11.105  1.00  0.00     0.134 A 
ATOM      7  C   UNL     1      34.693  14.168  -9.929  1.00  0.00     0.093 A 
ATOM      8  C   UNL     1      35.328  14.016  -8.694  1.00  0.00     0.123 A 
ATOM      9  C   UNL     1      36.719  14.031  -8.625  1.00  0.00     0.094 A 
ATOM     10  C   UNL     1      37.485  14.167  -9.786  1.00  0.00     0.146 A 
ATOM     11  O   UNL     1      38.808  14.166  -9.677  1.00  0.00    -0.452 OA
ENDROOT
BRANCH   1  12
ATOM     12  C   UNL     1      41.086  14.279 -10.456  1.00  0.00     0.021 A 
ATOM     13  C   UNL     1      41.933  13.285 -10.981  1.00  0.00     0.016 A 
ATOM     14  C   UNL     1      43.310  13.332 -10.743  1.00  0.00     0.047 A 
ATOM     15  C   UNL     1      43.859  14.378  -9.990  1.00  0.00     0.115 A 
ATOM     16  C   UNL     1      41.649  15.336  -9.720  1.00  0.00     0.016 A 
ATOM     17  C   UNL     1      43.026  15.378  -9.483  1.00  0.00     0.047 A 
BRANCH  15  18
ATOM     18  O   UNL     1      45.230  14.433  -9.746  1.00  0.00    -0.508 OA
ATOM     19  H   UNL     1      45.846  15.008 -10.309  1.00  0.00     0.293 HD
ENDBRANCH  15  18
ENDBRANCH   1  12
BRANCH   2  20
ATOM     20  O   UNL     1      39.954  14.343 -13.123  1.00  0.00    -0.502 OA
ATOM     21  H   UNL     1      39.991  15.119 -13.771  1.00  0.00     0.293 HD
ENDBRANCH   2  20
BRANCH   6  22
ATOM     22  O   UNL     1      34.702  14.584 -12.272  1.00  0.00    -0.507 OA
ATOM     23  H   UNL     1      34.445  13.877 -12.944  1.00  0.00     0.293 HD
ENDBRANCH   6  22
BRANCH   8  24
ATOM     24  O   UNL     1      34.584  13.857  -7.526  1.00  0.00    -0.508 OA
ATOM     25  H   UNL     1      33.828  13.186  -7.468  1.00  0.00     0.293 HD
ENDBRANCH   8  24
TORSDOF 5
ENDMDL
MODEL 5
REMARK VINA RESULT:    -6.640      4.612      7.187
REMARK INTER + INTRA:          -8.077
REMARK INTER:                  -7.922
REMARK INTRA:                  -0.154
REMARK UNBOUND:                -0.272
REMARK SMILES O=c1c(O)c(-c2ccc(O)cc2)oc2cc(O)cc(O)c12
REMARK SMILES IDX 5 1 3 2 2 3 1 4 21 5 19 6 18 7 16 8 15 9 14 10 13 11 6 12
REMARK SMILES IDX 7 13 8 14 9 15 12 16 11 17 10 18 4 20 20 22 17 24
REMARK H PARENT 10 19 4 21 20 23 17 25
REMARK Flexibility Score: inf
ROOT
ATOM      1  C   UNL     1      40.305  14.321 -10.654  1.00  0.00     0.180 A 
ATOM      2  C   UNL     1      39.490  13.978  -9.560  1.00  0.00     0.208 A 
ATOM      3  C   UNL     1      38.096  14.002  -9.717  1.00  0.00     0.238 A 
ATOM      4  O   UNL     1      37.371  13.747  -8.720  1.00  0.00    -0.285 OA
ATOM      5  C   UNL     1      37.532  14.353 -10.967  1.00  0.00     0.111 A 
ATOM      6  C   UNL     1      36.133  14.372 -11.250  1.00  0.00     0.134 A 
ATOM      7  C   UNL     1      35.685  14.862 -12.483  1.00  0.00     0.093 A 
ATOM      8  C   UNL     1      36.587  15.272 -13.467  1.00  0.00     0.123 A 
ATOM      9  C   UNL     1      37.956  15.201 -13.223  1.00  0.00     0.094 A 
ATOM     10  C   UNL     1      38.433  14.752 -11.989  1.00  0.00     0.146 A 
ATOM     11  O   UNL     1      39.746  14.710 -11.793  1.00  0.00    -0.452 OA
ENDROOT
BRANCH   1  12
ATOM     12  C   UNL     1      41.783  14.295 -10.573  1.00  0.00     0.021 A 
ATOM     13  C   UNL     1      42.489  15.198  -9.757  1.00  0.00     0.016 A 
ATOM     14  C   UNL     1      43.884  15.137  -9.678  1.00  0.00     0.047 A 
ATOM     15  C   UNL     1      44.589  14.167 -10.403  1.00  0.00     0.115 A 
ATOM     16  C   UNL     1      42.497  13.312 -11.280  1.00  0.00     0.016 A 
ATOM     17  C   UNL     1      43.892  13.256 -11.200  1.00  0.00     0.047 A 
BRANCH  15  18
ATOM     18  O   UNL     1      45.978  14.100 -10.332  1.00  0.00    -0.508 OA
ATOM     19  H   UNL     1      46.517  14.785  -9.816  1.00  0.00     0.293 HD
ENDBRANCH  15  18
ENDBRANCH   1  12
BRANCH   2  20
ATOM     20  O   UNL     1      40.066  13.656  -8.328  1.00  0.00    -0.502 OA
ATOM     21  H   UNL     1      39.980  14.252  -7.515  1.00  0.00     0.293 HD
ENDBRANCH   2  20
BRANCH   6  22
ATOM     22  O   UNL     1      35.153  13.900 -10.372  1.00  0.00    -0.507 OA
ATOM     23  H   UNL     1      34.197  13.707 -10.629  1.00  0.00     0.293 HD
ENDBRANCH   6  22
BRANCH   8  24
ATOM     24  O   UNL     1      36.132  15.743 -14.697  1.00  0.00    -0.508 OA
ATOM     25  H   UNL     1      35.631  15.143 -15.341  1.00  0.00     0.293 HD
ENDBRANCH   8  24
TORSDOF 5
ENDMDL
MODEL 6
REMARK VINA RESULT:    -6.610      1.649      6.776
REMARK INTER + INTRA:          -8.041
REMARK INTER:                  -7.938
REMARK INTRA:                  -0.103
REMARK UNBOUND:                -0.272
REMARK SMILES O=c1c(O)c(-c2ccc(O)cc2)oc2cc(O)cc(O)c12
REMARK SMILES IDX 5 1 3 2 2 3 1 4 21 5 19 6 18 7 16 8 15 9 14 10 13 11 6 12
REMARK SMILES IDX 7 13 8 14 9 15 12 16 11 17 10 18 4 20 20 22 17 24
REMARK H PARENT 10 19 4 21 20 23 17 25
REMARK Flexibility Score: inf
ROOT
ATOM      1  C   UNL     1      33.302  13.960 -11.908  1.00  0.00     0.180 A 
ATOM      2  C   UNL     1      33.839  15.222 -11.598  1.00  0.00     0.208 A 
ATOM      3  C   UNL     1      35.230  15.402 -11.655  1.00  0.00     0.238 A 
ATOM      4  O   UNL     1      35.709  16.518 -11.324  1.00  0.00    -0.285 OA
ATOM      5  C   UNL     1      36.065  14.324 -12.036  1.00  0.00     0.111 A 
ATOM      6  C   UNL     1      37.484  14.405 -12.165  1.00  0.00     0.134 A 
ATOM      7  C   UNL     1      38.222  13.242 -12.420  1.00  0.00     0.093 A 
ATOM      8  C   UNL     1      37.586  12.014 -12.616  1.00  0.00     0.123 A 
ATOM      9  C   UNL     1      36.197  11.937 -12.551  1.00  0.00     0.094 A 
ATOM     10  C   UNL     1      35.437  13.072 -12.261  1.00  0.00     0.146 A 
ATOM     11  O   UNL     1      34.116  12.952 -12.197  1.00  0.00    -0.452 OA
ENDROOT
BRANCH   1  12
ATOM     12  C   UNL     1      31.844  13.700 -11.895  1.00  0.00     0.021 A 
ATOM     13  C   UNL     1      31.087  13.826 -10.716  1.00  0.00     0.016 A 
ATOM     14  C   UNL     1      29.708  13.599 -10.734  1.00  0.00     0.047 A 
ATOM     15  C   UNL     1      29.066  13.257 -11.931  1.00  0.00     0.115 A 
ATOM     16  C   UNL     1      31.188  13.378 -13.096  1.00  0.00     0.016 A 
ATOM     17  C   UNL     1      29.809  13.150 -13.110  1.00  0.00     0.047 A 
BRANCH  15  18
ATOM     18  O   UNL     1      27.692  13.028 -11.959  1.00  0.00    -0.508 OA
ATOM     19  H   UNL     1      27.312  12.090 -12.022  1.00  0.00     0.293 HD
ENDBRANCH  15  18
ENDBRANCH   1  12
BRANCH   2  20
ATOM     20  O   UNL     1      32.998  16.266 -11.204  1.00  0.00    -0.502 OA
ATOM     21  H   UNL     1      32.703  16.394 -10.244  1.00  0.00     0.293 HD
ENDBRANCH   2  20
BRANCH   6  22
ATOM     22  O   UNL     1      38.209  15.597 -12.080  1.00  0.00    -0.507 OA
ATOM     23  H   UNL     1      39.123  15.685 -11.662  1.00  0.00     0.293 HD
ENDBRANCH   6  22
BRANCH   8  24
ATOM     24  O   UNL     1      38.327  10.865 -12.885  1.00  0.00    -0.508 OA
ATOM     25  H   UNL     1      37.904  10.052 -13.316  1.00  0.00     0.293 HD
ENDBRANCH   8  24
TORSDOF 5
ENDMDL
MODEL 7
REMARK VINA RESULT:    -6.544      2.934      4.855
REMARK INTER + INTRA:          -7.963
REMARK INTER:                  -7.717
REMARK INTRA:                  -0.246
REMARK UNBOUND:                -0.272
REMARK SMILES O=c1c(O)c(-c2ccc(O)cc2)oc2cc(O)cc(O)c12
REMARK SMILES IDX 5 1 3 2 2 3 1 4 21 5 19 6 18 7 16 8 15 9 14 10 13 11 6 12
REMARK SMILES IDX 7 13 8 14 9 15 12 16 11 17 10 18 4 20 20 22 17 24
REMARK H PARENT 10 19 4 21 20 23 17 25
REMARK Flexibility Score: inf
ROOT
ATOM      1  C   UNL     1      37.845  14.398 -11.390  1.00  0.00     0.180 A 
ATOM      2  C   UNL     1      37.393  15.729 -11.338  1.00  0.00     0.208 A 
ATOM      3  C   UNL     1      36.019  15.986 -11.463  1.00  0.00     0.238 A 
ATOM      4  O   UNL     1      35.626  17.182 -11.469  1.00  0.00    -0.285 OA
ATOM      5  C   UNL     1      35.112  14.911 -11.622  1.00  0.00     0.111 A 
ATOM      6  C   UNL     1      33.695  15.053 -11.718  1.00  0.00     0.134 A 
ATOM      7  C   UNL     1      32.907  13.932 -12.006  1.00  0.00     0.093 A 
ATOM      8  C   UNL     1      33.478  12.664 -12.135  1.00  0.00     0.123 A 
ATOM      9  C   UNL     1      34.853  12.505 -11.983  1.00  0.00     0.094 A 
ATOM     10  C   UNL     1      35.670  13.610 -11.734  1.00  0.00     0.146 A 
ATOM     11  O   UNL     1      36.978  13.417 -11.607  1.00  0.00    -0.452 OA
ENDROOT
BRANCH   1  12
ATOM     12  C   UNL     1      39.276  14.046 -11.242  1.00  0.00     0.021 A 
ATOM     13  C   UNL     1      39.912  14.078  -9.987  1.00  0.00     0.016 A 
ATOM     14  C   UNL     1      41.257  13.717  -9.868  1.00  0.00     0.047 A 
ATOM     15  C   UNL     1      41.980  13.307 -10.996  1.00  0.00     0.115 A 
ATOM     16  C   UNL     1      40.002  13.613 -12.364  1.00  0.00     0.016 A 
ATOM     17  C   UNL     1      41.348  13.254 -12.241  1.00  0.00     0.047 A 
BRANCH  15  18
ATOM     18  O   UNL     1      43.321  12.947 -10.888  1.00  0.00    -0.508 OA
ATOM     19  H   UNL     1      43.703  12.165 -11.407  1.00  0.00     0.293 HD
ENDBRANCH  15  18
ENDBRANCH   1  12
BRANCH   2  20
ATOM     20  O   UNL     1      38.308  16.777 -11.202  1.00  0.00    -0.502 OA
ATOM     21  H   UNL     1      39.304  16.621 -11.112  1.00  0.00     0.293 HD
ENDBRANCH   2  20
BRANCH   6  22
ATOM     22  O   UNL     1      33.016  16.257 -11.514  1.00  0.00    -0.507 OA
ATOM     23  H   UNL     1      32.574  16.528 -10.648  1.00  0.00     0.293 HD
ENDBRANCH   6  22
BRANCH   8  24
ATOM     24  O   UNL     1      32.683  11.550 -12.405  1.00  0.00    -0.508 OA
ATOM     25  H   UNL     1      32.856  10.960 -13.210  1.00  0.00     0.293 HD
ENDBRANCH   8  24
TORSDOF 5
ENDMDL
MODEL 8
REMARK VINA RESULT:    -6.537      2.007      6.934
REMARK INTER + INTRA:          -7.955
REMARK INTER:                  -7.784
REMARK INTRA:                  -0.171
REMARK UNBOUND:                -0.272
REMARK SMILES O=c1c(O)c(-c2ccc(O)cc2)oc2cc(O)cc(O)c12
REMARK SMILES IDX 5 1 3 2 2 3 1 4 21 5 19 6 18 7 16 8 15 9 14 10 13 11 6 12
REMARK SMILES IDX 7 13 8 14 9 15 12 16 11 17 10 18 4 20 20 22 17 24
REMARK H PARENT 10 19 4 21 20 23 17 25
REMARK Flexibility Score: inf
ROOT
ATOM      1  C   UNL     1      33.048  13.801 -11.854  1.00  0.00     0.180 A 
ATOM      2  C   UNL     1      33.866  12.667 -12.001  1.00  0.00     0.208 A 
ATOM      3  C   UNL     1      35.259  12.819 -11.925  1.00  0.00     0.238 A 
ATOM      4  O   UNL     1      35.988  11.809 -12.110  1.00  0.00    -0.285 OA
ATOM      5  C   UNL     1      35.817  14.098 -11.687  1.00  0.00     0.111 A 
ATOM      6  C   UNL     1      37.213  14.360 -11.551  1.00  0.00     0.134 A 
ATOM      7  C   UNL     1      37.660  15.684 -11.449  1.00  0.00     0.093 A 
ATOM      8  C   UNL     1      36.757  16.748 -11.411  1.00  0.00     0.123 A 
ATOM      9  C   UNL     1      35.388  16.497 -11.482  1.00  0.00     0.094 A 
ATOM     10  C   UNL     1      34.914  15.191 -11.623  1.00  0.00     0.146 A 
ATOM     11  O   UNL     1      33.603  14.996 -11.698  1.00  0.00    -0.452 OA
ENDROOT
BRANCH   1  12
ATOM     12  C   UNL     1      31.570  13.717 -11.898  1.00  0.00     0.021 A 
ATOM     13  C   UNL     1      30.888  13.407 -13.089  1.00  0.00     0.016 A 
ATOM     14  C   UNL     1      29.493  13.308 -13.099  1.00  0.00     0.047 A 
ATOM     15  C   UNL     1      28.764  13.505 -11.919  1.00  0.00     0.115 A 
ATOM     16  C   UNL     1      30.832  13.891 -10.714  1.00  0.00     0.016 A 
ATOM     17  C   UNL     1      29.438  13.794 -10.729  1.00  0.00     0.047 A 
BRANCH  15  18
ATOM     18  O   UNL     1      27.374  13.411 -11.919  1.00  0.00    -0.508 OA
ATOM     19  H   UNL     1      26.793  14.159 -12.278  1.00  0.00     0.293 HD
ENDBRANCH  15  18
ENDBRANCH   1  12
BRANCH   2  20
ATOM     20  O   UNL     1      33.296  11.416 -12.257  1.00  0.00    -0.502 OA
ATOM     21  H   UNL     1      33.572  10.844 -13.045  1.00  0.00     0.293 HD
ENDBRANCH   2  20
BRANCH   6  22
ATOM     22  O   UNL     1      38.192  13.365 -11.484  1.00  0.00    -0.507 OA
ATOM     23  H   UNL     1      39.155  13.487 -11.759  1.00  0.00     0.293 HD
ENDBRANCH   6  22
BRANCH   8  24
ATOM     24  O   UNL     1      37.209  18.061 -11.292  1.00  0.00    -0.508 OA
ATOM     25  H   UNL     1      37.371  18.486 -10.387  1.00  0.00     0.293 HD
ENDBRANCH   8  24
TORSDOF 5
ENDMDL
MODEL 9
REMARK VINA RESULT:    -6.502      2.422      7.780
REMARK INTER + INTRA:          -7.914
REMARK INTER:                  -7.639
REMARK INTRA:                  -0.276
REMARK UNBOUND:                -0.272
REMARK SMILES O=c1c(O)c(-c2ccc(O)cc2)oc2cc(O)cc(O)c12
REMARK SMILES IDX 5 1 3 2 2 3 1 4 21 5 19 6 18 7 16 8 15 9 14 10 13 11 6 12
REMARK SMILES IDX 7 13 8 14 9 15 12 16 11 17 10 18 4 20 20 22 17 24
REMARK H PARENT 10 19 4 21 20 23 17 25
REMARK Flexibility Score: inf
ROOT
ATOM      1  C   UNL     1      35.321  14.280 -11.585  1.00  0.00     0.180 A 
ATOM      2  C   UNL     1      35.792  14.901 -12.755  1.00  0.00     0.208 A 
ATOM      3  C   UNL     1      37.169  15.133 -12.896  1.00  0.00     0.238 A 
ATOM      4  O   UNL     1      37.579  15.737 -13.921  1.00  0.00    -0.285 OA
ATOM      5  C   UNL     1      38.061  14.727 -11.873  1.00  0.00     0.111 A 
ATOM      6  C   UNL     1      39.479  14.876 -11.928  1.00  0.00     0.134 A 
ATOM      7  C   UNL     1      40.250  14.560 -10.803  1.00  0.00     0.093 A 
ATOM      8  C   UNL     1      39.662  14.037  -9.650  1.00  0.00     0.123 A 
ATOM      9  C   UNL     1      38.285  13.832  -9.608  1.00  0.00     0.094 A 
ATOM     10  C   UNL     1      37.484  14.173 -10.700  1.00  0.00     0.146 A 
ATOM     11  O   UNL     1      36.175  13.971 -10.616  1.00  0.00    -0.452 OA
ENDROOT
BRANCH   1  12
ATOM     12  C   UNL     1      33.887  13.980 -11.375  1.00  0.00     0.021 A 
ATOM     13  C   UNL     1      33.279  12.855 -11.963  1.00  0.00     0.016 A 
ATOM     14  C   UNL     1      31.929  12.579 -11.730  1.00  0.00     0.047 A 
ATOM     15  C   UNL     1      31.173  13.413 -10.896  1.00  0.00     0.115 A 
ATOM     16  C   UNL     1      33.126  14.799 -10.523  1.00  0.00     0.016 A 
ATOM     17  C   UNL     1      31.776  14.520 -10.293  1.00  0.00     0.047 A 
BRANCH  15  18
ATOM     18  O   UNL     1      29.826  13.147 -10.659  1.00  0.00    -0.508 OA
ATOM     19  H   UNL     1      29.114  13.856 -10.790  1.00  0.00     0.293 HD
ENDBRANCH  15  18
ENDBRANCH   1  12
BRANCH   2  20
ATOM     20  O   UNL     1      34.893  15.313 -13.743  1.00  0.00    -0.502 OA
ATOM     21  H   UNL     1      34.269  16.099 -13.616  1.00  0.00     0.293 HD
ENDBRANCH   2  20
BRANCH   6  22
ATOM     22  O   UNL     1      40.176  15.302 -13.063  1.00  0.00    -0.507 OA
ATOM     23  H   UNL     1      40.787  16.104 -13.094  1.00  0.00     0.293 HD
ENDBRANCH   6  22
BRANCH   8  24
ATOM     24  O   UNL     1      40.439  13.709  -8.540  1.00  0.00    -0.508 OA
ATOM     25  H   UNL     1      41.157  14.334  -8.194  1.00  0.00     0.293 HD
ENDBRANCH   8  24
TORSDOF 5
ENDMDL
