MODEL 1
REMARK VINA RESULT:    -3.441      0.000      0.000
REMARK INTER + INTRA:          -7.115
REMARK INTER:                  -5.855
REMARK INTRA:                  -1.260
REMARK UNBOUND:                -1.260
REMARK SMILES CCCCCCCCCCCCCC(=O)[O-]
REMARK SMILES IDX 8 1 9 2 10 3 11 4 12 5 13 6 14 7 15 8 16 9 7 10 6 11 5 12
REMARK SMILES IDX 4 13 3 14 2 15 1 16
REMARK H PARENT
REMARK Flexibility Score: inf
ROOT
ATOM      1  C   UNL     1       2.605 110.276 183.248  1.00  0.00     0.000 C 
ENDROOT
BRANCH   1   2
ATOM      2  C   UNL     1       3.859 110.930 182.650  1.00  0.00     0.000 C 
BRANCH   2   3
ATOM      3  C   UNL     1       4.239 112.198 183.428  1.00  0.00     0.000 C 
BRANCH   3   4
ATOM      4  C   UNL     1       3.194 112.585 184.491  1.00  0.00     0.000 C 
BRANCH   4   5
ATOM      5  C   UNL     1       2.894 114.095 184.593  1.00  0.00     0.006 C 
BRANCH   5   6
ATOM      6  C   UNL     1       4.016 115.004 184.065  1.00  0.00     0.053 C 
BRANCH   6   7
ATOM      7  C   UNL     1       3.551 115.870 182.936  1.00  0.00     0.041 C 
ATOM      8  O   UNL     1       3.681 115.482 181.744  1.00  0.00    -0.550 OA
ATOM      9  O   UNL     1       3.003 117.120 183.196  1.00  0.00    -0.550 OA
ENDBRANCH   6   7
ENDBRANCH   5   6
ENDBRANCH   4   5
ENDBRANCH   3   4
ENDBRANCH   2   3
ENDBRANCH   1   2
BRANCH   1  10
ATOM     10  C   UNL     1       2.253 108.935 182.578  1.00  0.00     0.000 C 
BRANCH  10  11
ATOM     11  C   UNL     1       2.831 108.739 181.161  1.00  0.00    -0.000 C 
BRANCH  11  12
ATOM     12  C   UNL     1       3.258 107.299 180.827  1.00  0.00    -0.000 C 
BRANCH  12  13
ATOM     13  C   UNL     1       4.060 106.638 181.962  1.00  0.00    -0.000 C 
BRANCH  13  14
ATOM     14  C   UNL     1       5.388 107.358 182.242  1.00  0.00    -0.000 C 
BRANCH  14  15
ATOM     15  C   UNL     1       5.747 107.375 183.734  1.00  0.00    -0.003 C 
ATOM     16  C   UNL     1       6.238 108.753 184.167  1.00  0.00     0.004 C 
ENDBRANCH  14  15
ENDBRANCH  13  14
ENDBRANCH  12  13
ENDBRANCH  11  12
ENDBRANCH  10  11
ENDBRANCH   1  10
TORSDOF 12
ENDMDL
MODEL 2
REMARK VINA RESULT:    -3.412      5.771      8.570
REMARK INTER + INTRA:          -7.066
REMARK INTER:                  -5.939
REMARK INTRA:                  -1.127
REMARK UNBOUND:                -1.260
REMARK SMILES CCCCCCCCCCCCCC(=O)[O-]
REMARK SMILES IDX 8 1 9 2 10 3 11 4 12 5 13 6 14 7 15 8 16 9 7 10 6 11 5 12
REMARK SMILES IDX 4 13 3 14 2 15 1 16
REMARK H PARENT
REMARK Flexibility Score: inf
ROOT
ATOM      1  C   UNL     1       2.875 105.540 176.811  1.00  0.00     0.000 C 
ENDROOT
BRANCH   1   2
ATOM      2  C   UNL     1       1.905 104.836 177.771  1.00  0.00     0.000 C 
BRANCH   2   3
ATOM      3  C   UNL     1       1.800 105.599 179.099  1.00  0.00     0.000 C 
BRANCH   3   4
ATOM      4  C   UNL     1       2.871 105.176 180.121  1.00  0.00     0.000 C 
BRANCH   4   5
ATOM      5  C   UNL     1       3.968 106.227 180.389  1.00  0.00     0.006 C 
BRANCH   5   6
ATOM      6  C   UNL     1       4.044 106.712 181.846  1.00  0.00     0.053 C 
BRANCH   6   7
ATOM      7  C   UNL     1       3.196 107.923 182.079  1.00  0.00     0.041 C 
ATOM      8  O   UNL     1       2.907 108.279 183.252  1.00  0.00    -0.550 OA
ATOM      9  O   UNL     1       2.694 108.640 181.000  1.00  0.00    -0.550 OA
ENDBRANCH   6   7
ENDBRANCH   5   6
ENDBRANCH   4   5
ENDBRANCH   3   4
ENDBRANCH   2   3
ENDBRANCH   1   2
BRANCH   1  10
ATOM     10  C   UNL     1       3.995 104.612 176.306  1.00  0.00     0.000 C 
BRANCH  10  11
ATOM     11  C   UNL     1       5.106 104.309 177.332  1.00  0.00    -0.000 C 
BRANCH  11  12
ATOM     12  C   UNL     1       6.300 103.510 176.780  1.00  0.00    -0.000 C 
BRANCH  12  13
ATOM     13  C   UNL     1       6.034 101.995 176.739  1.00  0.00    -0.000 C 
BRANCH  13  14
ATOM     14  C   UNL     1       6.197 101.406 175.329  1.00  0.00    -0.000 C 
BRANCH  14  15
ATOM     15  C   UNL     1       4.900 101.463 174.512  1.00  0.00    -0.003 C 
ATOM     16  C   UNL     1       4.992 102.512 173.407  1.00  0.00     0.004 C 
ENDBRANCH  14  15
ENDBRANCH  13  14
ENDBRANCH  12  13
ENDBRANCH  11  12
ENDBRANCH  10  11
ENDBRANCH   1  10
TORSDOF 12
ENDMDL
MODEL 3
REMARK VINA RESULT:    -3.401      5.463      7.780
REMARK INTER + INTRA:          -7.047
REMARK INTER:                  -4.980
REMARK INTRA:                  -2.068
REMARK UNBOUND:                -1.260
REMARK SMILES CCCCCCCCCCCCCC(=O)[O-]
REMARK SMILES IDX 8 1 9 2 10 3 11 4 12 5 13 6 14 7 15 8 16 9 7 10 6 11 5 12
REMARK SMILES IDX 4 13 3 14 2 15 1 16
REMARK H PARENT
REMARK Flexibility Score: inf
ROOT
ATOM      1  C   UNL     1       3.867 108.886 178.764  1.00  0.00     0.000 C 
ENDROOT
BRANCH   1   2
ATOM      2  C   UNL     1       2.496 108.469 178.214  1.00  0.00     0.000 C 
BRANCH   2   3
ATOM      3  C   UNL     1       1.538 108.098 179.356  1.00  0.00     0.000 C 
BRANCH   3   4
ATOM      4  C   UNL     1       0.814 106.760 179.122  1.00  0.00     0.000 C 
BRANCH   4   5
ATOM      5  C   UNL     1       1.720 105.511 179.164  1.00  0.00     0.006 C 
BRANCH   5   6
ATOM      6  C   UNL     1       1.883 104.797 177.813  1.00  0.00     0.053 C 
BRANCH   6   7
ATOM      7  C   UNL     1       3.315 104.730 177.383  1.00  0.00     0.041 C 
ATOM      8  O   UNL     1       4.156 104.097 178.075  1.00  0.00    -0.550 OA
ATOM      9  O   UNL     1       3.730 105.395 176.236  1.00  0.00    -0.550 OA
ENDBRANCH   6   7
ENDBRANCH   5   6
ENDBRANCH   4   5
ENDBRANCH   3   4
ENDBRANCH   2   3
ENDBRANCH   1   2
BRANCH   1  10
ATOM     10  C   UNL     1       4.855 107.710 178.860  1.00  0.00     0.000 C 
BRANCH  10  11
ATOM     11  C   UNL     1       5.395 107.423 180.276  1.00  0.00    -0.000 C 
BRANCH  11  12
ATOM     12  C   UNL     1       4.657 106.309 181.040  1.00  0.00    -0.000 C 
BRANCH  12  13
ATOM     13  C   UNL     1       3.683 106.858 182.097  1.00  0.00    -0.000 C 
BRANCH  13  14
ATOM     14  C   UNL     1       4.088 108.249 182.607  1.00  0.00    -0.000 C 
BRANCH  14  15
ATOM     15  C   UNL     1       2.980 109.294 182.415  1.00  0.00    -0.003 C 
ATOM     16  C   UNL     1       1.764 108.971 183.278  1.00  0.00     0.004 C 
ENDBRANCH  14  15
ENDBRANCH  13  14
ENDBRANCH  12  13
ENDBRANCH  11  12
ENDBRANCH  10  11
ENDBRANCH   1  10
TORSDOF 12
ENDMDL
MODEL 4
REMARK VINA RESULT:    -3.359      3.276      6.383
REMARK INTER + INTRA:          -6.976
REMARK INTER:                  -5.418
REMARK INTRA:                  -1.558
REMARK UNBOUND:                -1.260
REMARK SMILES CCCCCCCCCCCCCC(=O)[O-]
REMARK SMILES IDX 8 1 9 2 10 3 11 4 12 5 13 6 14 7 15 8 16 9 7 10 6 11 5 12
REMARK SMILES IDX 4 13 3 14 2 15 1 16
REMARK H PARENT
REMARK Flexibility Score: inf
ROOT
ATOM      1  C   UNL     1       5.715 108.581 183.955  1.00  0.00     0.000 C 
ENDROOT
BRANCH   1   2
ATOM      2  C   UNL     1       5.690 107.248 183.192  1.00  0.00     0.000 C 
BRANCH   2   3
ATOM      3  C   UNL     1       4.365 107.077 182.435  1.00  0.00     0.000 C 
BRANCH   3   4
ATOM      4  C   UNL     1       3.260 108.024 182.935  1.00  0.00     0.000 C 
BRANCH   4   5
ATOM      5  C   UNL     1       2.398 108.665 181.828  1.00  0.00     0.006 C 
BRANCH   5   6
ATOM      6  C   UNL     1       3.092 108.771 180.461  1.00  0.00     0.053 C 
BRANCH   6   7
ATOM      7  C   UNL     1       2.332 108.054 179.389  1.00  0.00     0.041 C 
ATOM      8  O   UNL     1       2.080 108.629 178.297  1.00  0.00    -0.550 OA
ATOM      9  O   UNL     1       1.871 106.761 179.607  1.00  0.00    -0.550 OA
ENDBRANCH   6   7
ENDBRANCH   5   6
ENDBRANCH   4   5
ENDBRANCH   3   4
ENDBRANCH   2   3
ENDBRANCH   1   2
BRANCH   1  10
ATOM     10  C   UNL     1       6.592 109.645 183.272  1.00  0.00     0.000 C 
BRANCH  10  11
ATOM     11  C   UNL     1       6.089 111.097 183.412  1.00  0.00    -0.000 C 
BRANCH  11  12
ATOM     12  C   UNL     1       4.820 111.426 182.607  1.00  0.00    -0.000 C 
BRANCH  12  13
ATOM     13  C   UNL     1       3.607 111.726 183.504  1.00  0.00    -0.000 C 
BRANCH  13  14
ATOM     14  C   UNL     1       3.968 112.612 184.707  1.00  0.00    -0.000 C 
BRANCH  14  15
ATOM     15  C   UNL     1       3.189 113.934 184.721  1.00  0.00    -0.003 C 
ATOM     16  C   UNL     1       3.920 115.012 183.925  1.00  0.00     0.004 C 
ENDBRANCH  14  15
ENDBRANCH  13  14
ENDBRANCH  12  13
ENDBRANCH  11  12
ENDBRANCH  10  11
ENDBRANCH   1  10
TORSDOF 12
ENDMDL
MODEL 5
REMARK VINA RESULT:    -3.340      4.993      7.137
REMARK INTER + INTRA:          -6.943
REMARK INTER:                  -4.868
REMARK INTRA:                  -2.075
REMARK UNBOUND:                -1.260
REMARK SMILES CCCCCCCCCCCCCC(=O)[O-]
REMARK SMILES IDX 8 1 9 2 10 3 11 4 12 5 13 6 14 7 15 8 16 9 7 10 6 11 5 12
REMARK SMILES IDX 4 13 3 14 2 15 1 16
REMARK H PARENT
REMARK Flexibility Score: inf
ROOT
ATOM      1  C   UNL     1       2.691 104.985 177.222  1.00  0.00     0.000 C 
ENDROOT
BRANCH   1   2
ATOM      2  C   UNL     1       3.511 104.445 178.404  1.00  0.00     0.000 C 
BRANCH   2   3
ATOM      3  C   UNL     1       3.028 105.053 179.728  1.00  0.00     0.000 C 
BRANCH   3   4
ATOM      4  C   UNL     1       4.130 105.834 180.467  1.00  0.00     0.000 C 
BRANCH   4   5
ATOM      5  C   UNL     1       3.633 106.735 181.617  1.00  0.00     0.006 C 
BRANCH   5   6
ATOM      6  C   UNL     1       4.737 107.214 182.573  1.00  0.00     0.053 C 
BRANCH   6   7
ATOM      7  C   UNL     1       5.771 108.036 181.868  1.00  0.00     0.041 C 
ATOM      8  O   UNL     1       5.463 109.149 181.366  1.00  0.00    -0.550 OA
ATOM      9  O   UNL     1       7.069 107.559 181.737  1.00  0.00    -0.550 OA
ENDBRANCH   6   7
ENDBRANCH   5   6
ENDBRANCH   4   5
ENDBRANCH   3   4
ENDBRANCH   2   3
ENDBRANCH   1   2
BRANCH   1  10
ATOM     10  C   UNL     1       1.175 104.960 177.486  1.00  0.00     0.000 C 
BRANCH  10  11
ATOM     11  C   UNL     1       0.474 106.331 177.406  1.00  0.00    -0.000 C 
BRANCH  11  12
ATOM     12  C   UNL     1       0.053 106.927 178.762  1.00  0.00    -0.000 C 
BRANCH  12  13
ATOM     13  C   UNL     1       0.965 108.081 179.213  1.00  0.00    -0.000 C 
BRANCH  13  14
ATOM     14  C   UNL     1       1.888 108.577 178.090  1.00  0.00    -0.000 C 
BRANCH  14  15
ATOM     15  C   UNL     1       3.300 108.912 178.590  1.00  0.00    -0.003 C 
ATOM     16  C   UNL     1       4.364 108.284 177.694  1.00  0.00     0.004 C 
ENDBRANCH  14  15
ENDBRANCH  13  14
ENDBRANCH  12  13
ENDBRANCH  11  12
ENDBRANCH  10  11
ENDBRANCH   1  10
TORSDOF 12
ENDMDL
MODEL 6
REMARK VINA RESULT:    -3.334      3.919      6.608
REMARK INTER + INTRA:          -6.933
REMARK INTER:                  -4.869
REMARK INTRA:                  -2.064
REMARK UNBOUND:                -1.260
REMARK SMILES CCCCCCCCCCCCCC(=O)[O-]
REMARK SMILES IDX 8 1 9 2 10 3 11 4 12 5 13 6 14 7 15 8 16 9 7 10 6 11 5 12
REMARK SMILES IDX 4 13 3 14 2 15 1 16
REMARK H PARENT
REMARK Flexibility Score: inf
ROOT
ATOM      1  C   UNL     1       2.820 104.724 178.533  1.00  0.00     0.000 C 
ENDROOT
BRANCH   1   2
ATOM      2  C   UNL     1       3.120 105.209 179.959  1.00  0.00     0.000 C 
BRANCH   2   3
ATOM      3  C   UNL     1       4.491 105.897 180.026  1.00  0.00     0.000 C 
BRANCH   3   4
ATOM      4  C   UNL     1       4.586 106.938 181.156  1.00  0.00     0.000 C 
BRANCH   4   5
ATOM      5  C   UNL     1       3.290 107.139 181.969  1.00  0.00     0.006 C 
BRANCH   5   6
ATOM      6  C   UNL     1       2.524 108.429 181.638  1.00  0.00     0.053 C 
BRANCH   6   7
ATOM      7  C   UNL     1       2.245 109.246 182.862  1.00  0.00     0.041 C 
ATOM      8  O   UNL     1       1.350 108.887 183.673  1.00  0.00    -0.550 OA
ATOM      9  O   UNL     1       2.951 110.420 183.092  1.00  0.00    -0.550 OA
ENDBRANCH   6   7
ENDBRANCH   5   6
ENDBRANCH   4   5
ENDBRANCH   3   4
ENDBRANCH   2   3
ENDBRANCH   1   2
BRANCH   1  10
ATOM     10  C   UNL     1       1.482 105.256 177.990  1.00  0.00     0.000 C 
BRANCH  10  11
ATOM     11  C   UNL     1       1.097 106.671 178.469  1.00  0.00    -0.000 C 
BRANCH  11  12
ATOM     12  C   UNL     1       1.513 107.813 177.524  1.00  0.00    -0.000 C 
BRANCH  12  13
ATOM     13  C   UNL     1       2.756 108.573 178.021  1.00  0.00    -0.000 C 
BRANCH  13  14
ATOM     14  C   UNL     1       4.012 108.251 177.198  1.00  0.00    -0.000 C 
BRANCH  14  15
ATOM     15  C   UNL     1       3.690 107.501 175.898  1.00  0.00    -0.003 C 
ATOM     16  C   UNL     1       4.622 106.307 175.706  1.00  0.00     0.004 C 
ENDBRANCH  14  15
ENDBRANCH  13  14
ENDBRANCH  12  13
ENDBRANCH  11  12
ENDBRANCH  10  11
ENDBRANCH   1  10
TORSDOF 12
ENDMDL
MODEL 7
REMARK VINA RESULT:    -3.297      3.816      6.189
REMARK INTER + INTRA:          -6.869
REMARK INTER:                  -5.013
REMARK INTRA:                  -1.857
REMARK UNBOUND:                -1.260
REMARK SMILES CCCCCCCCCCCCCC(=O)[O-]
REMARK SMILES IDX 8 1 9 2 10 3 11 4 12 5 13 6 14 7 15 8 16 9 7 10 6 11 5 12
REMARK SMILES IDX 4 13 3 14 2 15 1 16
REMARK H PARENT
REMARK Flexibility Score: inf
ROOT
ATOM      1  C   UNL     1       3.247 108.636 178.963  1.00  0.00     0.000 C 
ENDROOT
BRANCH   1   2
ATOM      2  C   UNL     1       4.284 107.503 178.995  1.00  0.00     0.000 C 
BRANCH   2   3
ATOM      3  C   UNL     1       5.230 107.661 180.195  1.00  0.00     0.000 C 
BRANCH   3   4
ATOM      4  C   UNL     1       5.001 106.596 181.283  1.00  0.00     0.000 C 
BRANCH   4   5
ATOM      5  C   UNL     1       3.841 106.895 182.256  1.00  0.00     0.006 C 
BRANCH   5   6
ATOM      6  C   UNL     1       4.023 108.174 183.089  1.00  0.00     0.053 C 
BRANCH   6   7
ATOM      7  C   UNL     1       2.988 109.206 182.766  1.00  0.00     0.041 C 
ATOM      8  O   UNL     1       3.315 110.267 182.171  1.00  0.00    -0.550 OA
ATOM      9  O   UNL     1       1.667 109.013 183.151  1.00  0.00    -0.550 OA
ENDBRANCH   6   7
ENDBRANCH   5   6
ENDBRANCH   4   5
ENDBRANCH   3   4
ENDBRANCH   2   3
ENDBRANCH   1   2
BRANCH   1  10
ATOM     10  C   UNL     1       1.851 108.180 179.423  1.00  0.00     0.000 C 
BRANCH  10  11
ATOM     11  C   UNL     1       1.581 106.667 179.298  1.00  0.00    -0.000 C 
BRANCH  11  12
ATOM     12  C   UNL     1       0.820 106.245 178.029  1.00  0.00    -0.000 C 
BRANCH  12  13
ATOM     13  C   UNL     1       1.448 105.023 177.336  1.00  0.00    -0.000 C 
BRANCH  13  14
ATOM     14  C   UNL     1       2.563 105.412 176.353  1.00  0.00    -0.000 C 
BRANCH  14  15
ATOM     15  C   UNL     1       3.872 104.655 176.616  1.00  0.00    -0.003 C 
ATOM     16  C   UNL     1       3.888 104.054 178.018  1.00  0.00     0.004 C 
ENDBRANCH  14  15
ENDBRANCH  13  14
ENDBRANCH  12  13
ENDBRANCH  11  12
ENDBRANCH  10  11
ENDBRANCH   1  10
TORSDOF 12
ENDMDL
MODEL 8
REMARK VINA RESULT:    -3.295      3.821      5.832
REMARK INTER + INTRA:          -6.866
REMARK INTER:                  -5.046
REMARK INTRA:                  -1.820
REMARK UNBOUND:                -1.260
REMARK SMILES CCCCCCCCCCCCCC(=O)[O-]
REMARK SMILES IDX 8 1 9 2 10 3 11 4 12 5 13 6 14 7 15 8 16 9 7 10 6 11 5 12
REMARK SMILES IDX 4 13 3 14 2 15 1 16
REMARK H PARENT
REMARK Flexibility Score: inf
ROOT
ATOM      1  C   UNL     1       3.819 107.867 179.430  1.00  0.00     0.000 C 
ENDROOT
BRANCH   1   2
ATOM      2  C   UNL     1       3.308 109.038 180.281  1.00  0.00     0.000 C 
BRANCH   2   3
ATOM      3  C   UNL     1       2.517 108.528 181.495  1.00  0.00     0.000 C 
BRANCH   3   4
ATOM      4  C   UNL     1       2.727 109.390 182.753  1.00  0.00     0.000 C 
BRANCH   4   5
ATOM      5  C   UNL     1       3.877 110.414 182.660  1.00  0.00     0.006 C 
BRANCH   5   6
ATOM      6  C   UNL     1       5.104 110.074 183.520  1.00  0.00     0.053 C 
BRANCH   6   7
ATOM      7  C   UNL     1       5.740 108.784 183.104  1.00  0.00     0.041 C 
ATOM      8  O   UNL     1       6.410 108.722 182.039  1.00  0.00    -0.550 OA
ATOM      9  O   UNL     1       5.567 107.641 183.875  1.00  0.00    -0.550 OA
ENDBRANCH   6   7
ENDBRANCH   5   6
ENDBRANCH   4   5
ENDBRANCH   3   4
ENDBRANCH   2   3
ENDBRANCH   1   2
BRANCH   1  10
ATOM     10  C   UNL     1       4.140 106.615 180.266  1.00  0.00     0.000 C 
BRANCH  10  11
ATOM     11  C   UNL     1       3.676 105.279 179.651  1.00  0.00    -0.000 C 
BRANCH  11  12
ATOM     12  C   UNL     1       2.158 105.162 179.420  1.00  0.00    -0.000 C 
BRANCH  12  13
ATOM     13  C   UNL     1       1.778 105.208 177.930  1.00  0.00    -0.000 C 
BRANCH  13  14
ATOM     14  C   UNL     1       0.665 106.226 177.637  1.00  0.00    -0.000 C 
BRANCH  14  15
ATOM     15  C   UNL     1       0.183 106.953 178.900  1.00  0.00    -0.003 C 
ATOM     16  C   UNL     1      -0.045 108.438 178.627  1.00  0.00     0.004 C 
ENDBRANCH  14  15
ENDBRANCH  13  14
ENDBRANCH  12  13
ENDBRANCH  11  12
ENDBRANCH  10  11
ENDBRANCH   1  10
TORSDOF 12
ENDMDL
