MODEL 1
REMARK VINA RESULT:    -5.930      0.000      0.000
REMARK INTER + INTRA:          -7.226
REMARK INTER:                  -6.970
REMARK INTRA:                  -0.255
REMARK UNBOUND:                -0.255
REMARK SMILES O=c1c(O)c(-c2ccc(O)cc2)oc2cc(O)cc(O)c12
REMARK SMILES IDX 5 1 3 2 2 3 1 4 21 5 19 6 18 7 16 8 15 9 14 10 13 11 6 12
REMARK SMILES IDX 7 13 8 14 9 15 12 16 11 17 10 18 4 20 20 22 17 24
REMARK H PARENT 10 19 4 21 20 23 17 25
REMARK Flexibility Score: inf
ROOT
ATOM      1  C   UNL     1      52.418  14.350  26.304  1.00  0.00     0.180 A 
ATOM      2  C   UNL     1      51.732  14.233  25.083  1.00  0.00     0.208 A 
ATOM      3  C   UNL     1      50.344  14.023  25.098  1.00  0.00     0.238 A 
ATOM      4  O   UNL     1      49.748  13.845  24.004  1.00  0.00    -0.285 OA
ATOM      5  C   UNL     1      49.649  13.989  26.332  1.00  0.00     0.111 A 
ATOM      6  C   UNL     1      48.237  13.827  26.467  1.00  0.00     0.134 A 
ATOM      7  C   UNL     1      47.674  13.702  27.743  1.00  0.00     0.093 A 
ATOM      8  C   UNL     1      48.464  13.797  28.891  1.00  0.00     0.123 A 
ATOM      9  C   UNL     1      49.835  14.009  28.772  1.00  0.00     0.094 A 
ATOM     10  C   UNL     1      50.431  14.100  27.512  1.00  0.00     0.146 A 
ATOM     11  O   UNL     1      51.745  14.281  27.446  1.00  0.00    -0.452 OA
ENDROOT
BRANCH   1  12
ATOM     12  C   UNL     1      53.882  14.557  26.368  1.00  0.00     0.021 A 
ATOM     13  C   UNL     1      54.760  13.503  26.681  1.00  0.00     0.016 A 
ATOM     14  C   UNL     1      56.137  13.730  26.760  1.00  0.00     0.047 A 
ATOM     15  C   UNL     1      56.654  15.013  26.541  1.00  0.00     0.115 A 
ATOM     16  C   UNL     1      54.407  15.845  26.170  1.00  0.00     0.016 A 
ATOM     17  C   UNL     1      55.785  16.069  26.249  1.00  0.00     0.047 A 
BRANCH  15  18
ATOM     18  O   UNL     1      58.024  15.250  26.615  1.00  0.00    -0.508 OA
ATOM     19  H   UNL     1      58.441  16.077  26.203  1.00  0.00     0.293 HD
ENDBRANCH  15  18
ENDBRANCH   1  12
BRANCH   2  20
ATOM     20  O   UNL     1      52.423  14.346  23.873  1.00  0.00    -0.502 OA
ATOM     21  H   UNL     1      52.680  15.241  23.474  1.00  0.00     0.293 HD
ENDBRANCH   2  20
BRANCH   6  22
ATOM     22  O   UNL     1      47.345  13.810  25.389  1.00  0.00    -0.507 OA
ATOM     23  H   UNL     1      47.400  13.180  24.604  1.00  0.00     0.293 HD
ENDBRANCH   6  22
BRANCH   8  24
ATOM     24  O   UNL     1      47.892  13.688  30.156  1.00  0.00    -0.508 OA
ATOM     25  H   UNL     1      46.943  13.994  30.338  1.00  0.00     0.293 HD
ENDBRANCH   8  24
TORSDOF 5
ENDMDL
MODEL 2
REMARK VINA RESULT:    -5.809      1.632      3.455
REMARK INTER + INTRA:          -7.083
REMARK INTER:                  -7.062
REMARK INTRA:                  -0.021
REMARK UNBOUND:                -0.255
REMARK SMILES O=c1c(O)c(-c2ccc(O)cc2)oc2cc(O)cc(O)c12
REMARK SMILES IDX 5 1 3 2 2 3 1 4 21 5 19 6 18 7 16 8 15 9 14 10 13 11 6 12
REMARK SMILES IDX 7 13 8 14 9 15 12 16 11 17 10 18 4 20 20 22 17 24
REMARK H PARENT 10 19 4 21 20 23 17 25
REMARK Flexibility Score: inf
ROOT
ATOM      1  C   UNL     1      52.584  14.595  25.783  1.00  0.00     0.180 A 
ATOM      2  C   UNL     1      51.647  14.014  26.655  1.00  0.00     0.208 A 
ATOM      3  C   UNL     1      50.299  13.955  26.265  1.00  0.00     0.238 A 
ATOM      4  O   UNL     1      49.454  13.502  27.080  1.00  0.00    -0.285 OA
ATOM      5  C   UNL     1      49.914  14.425  24.986  1.00  0.00     0.111 A 
ATOM      6  C   UNL     1      48.584  14.375  24.467  1.00  0.00     0.134 A 
ATOM      7  C   UNL     1      48.302  14.968  23.230  1.00  0.00     0.093 A 
ATOM      8  C   UNL     1      49.313  15.553  22.464  1.00  0.00     0.123 A 
ATOM      9  C   UNL     1      50.623  15.559  22.937  1.00  0.00     0.094 A 
ATOM     10  C   UNL     1      50.929  15.010  24.184  1.00  0.00     0.146 A 
ATOM     11  O   UNL     1      52.188  15.058  24.604  1.00  0.00    -0.452 OA
ENDROOT
BRANCH   1  12
ATOM     12  C   UNL     1      54.019  14.707  26.131  1.00  0.00     0.021 A 
ATOM     13  C   UNL     1      54.773  13.582  26.511  1.00  0.00     0.016 A 
ATOM     14  C   UNL     1      56.120  13.718  26.858  1.00  0.00     0.047 A 
ATOM     15  C   UNL     1      56.728  14.980  26.842  1.00  0.00     0.115 A 
ATOM     16  C   UNL     1      54.631  15.973  26.138  1.00  0.00     0.016 A 
ATOM     17  C   UNL     1      55.979  16.105  26.484  1.00  0.00     0.047 A 
BRANCH  15  18
ATOM     18  O   UNL     1      58.069  15.127  27.185  1.00  0.00    -0.508 OA
ATOM     19  H   UNL     1      58.787  15.248  26.478  1.00  0.00     0.293 HD
ENDBRANCH  15  18
ENDBRANCH   1  12
BRANCH   2  20
ATOM     20  O   UNL     1      52.059  13.486  27.882  1.00  0.00    -0.502 OA
ATOM     21  H   UNL     1      51.976  13.999  28.751  1.00  0.00     0.293 HD
ENDBRANCH   2  20
BRANCH   6  22
ATOM     22  O   UNL     1      47.518  13.736  25.108  1.00  0.00    -0.507 OA
ATOM     23  H   UNL     1      46.850  13.131  24.656  1.00  0.00     0.293 HD
ENDBRANCH   6  22
BRANCH   8  24
ATOM     24  O   UNL     1      49.026  16.125  21.227  1.00  0.00    -0.508 OA
ATOM     25  H   UNL     1      48.319  16.845  21.127  1.00  0.00     0.293 HD
ENDBRANCH   8  24
TORSDOF 5
ENDMDL
MODEL 3
REMARK VINA RESULT:    -5.349      2.574      4.576
REMARK INTER + INTRA:          -6.542
REMARK INTER:                  -6.279
REMARK INTRA:                  -0.263
REMARK UNBOUND:                -0.255
REMARK SMILES O=c1c(O)c(-c2ccc(O)cc2)oc2cc(O)cc(O)c12
REMARK SMILES IDX 5 1 3 2 2 3 1 4 21 5 19 6 18 7 16 8 15 9 14 10 13 11 6 12
REMARK SMILES IDX 7 13 8 14 9 15 12 16 11 17 10 18 4 20 20 22 17 24
REMARK H PARENT 10 19 4 21 20 23 17 25
REMARK Flexibility Score: inf
ROOT
ATOM      1  C   UNL     1      50.583  13.686  26.777  1.00  0.00     0.180 A 
ATOM      2  C   UNL     1      49.417  14.033  27.480  1.00  0.00     0.208 A 
ATOM      3  C   UNL     1      48.413  14.758  26.819  1.00  0.00     0.238 A 
ATOM      4  O   UNL     1      47.405  15.130  27.474  1.00  0.00    -0.285 OA
ATOM      5  C   UNL     1      48.561  15.078  25.447  1.00  0.00     0.111 A 
ATOM      6  C   UNL     1      47.588  15.770  24.663  1.00  0.00     0.134 A 
ATOM      7  C   UNL     1      47.890  16.125  23.343  1.00  0.00     0.093 A 
ATOM      8  C   UNL     1      49.104  15.757  22.757  1.00  0.00     0.123 A 
ATOM      9  C   UNL     1      50.038  15.034  23.496  1.00  0.00     0.094 A 
ATOM     10  C   UNL     1      49.781  14.699  24.828  1.00  0.00     0.146 A 
ATOM     11  O   UNL     1      50.709  14.029  25.500  1.00  0.00    -0.452 OA
ENDROOT
BRANCH   1  12
ATOM     12  C   UNL     1      51.692  12.936  27.410  1.00  0.00     0.021 A 
ATOM     13  C   UNL     1      52.862  13.584  27.847  1.00  0.00     0.016 A 
ATOM     14  C   UNL     1      53.904  12.850  28.419  1.00  0.00     0.047 A 
ATOM     15  C   UNL     1      53.798  11.460  28.551  1.00  0.00     0.115 A 
ATOM     16  C   UNL     1      51.602  11.539  27.527  1.00  0.00     0.016 A 
ATOM     17  C   UNL     1      52.646  10.807  28.101  1.00  0.00     0.047 A 
BRANCH  15  18
ATOM     18  O   UNL     1      54.830  10.719  29.122  1.00  0.00    -0.508 OA
ATOM     19  H   UNL     1      55.581  10.336  28.559  1.00  0.00     0.293 HD
ENDBRANCH  15  18
ENDBRANCH   1  12
BRANCH   2  20
ATOM     20  O   UNL     1      49.255  13.642  28.812  1.00  0.00    -0.502 OA
ATOM     21  H   UNL     1      49.059  14.303  29.554  1.00  0.00     0.293 HD
ENDBRANCH   2  20
BRANCH   6  22
ATOM     22  O   UNL     1      46.311  16.106  25.121  1.00  0.00    -0.507 OA
ATOM     23  H   UNL     1      45.820  15.634  25.865  1.00  0.00     0.293 HD
ENDBRANCH   6  22
BRANCH   8  24
ATOM     24  O   UNL     1      49.388  16.100  21.438  1.00  0.00    -0.508 OA
ATOM     25  H   UNL     1      49.594  17.056  21.170  1.00  0.00     0.293 HD
ENDBRANCH   8  24
TORSDOF 5
ENDMDL
MODEL 4
REMARK VINA RESULT:    -5.109      2.688      6.506
REMARK INTER + INTRA:          -6.261
REMARK INTER:                  -6.428
REMARK INTRA:                   0.168
REMARK UNBOUND:                -0.255
REMARK SMILES O=c1c(O)c(-c2ccc(O)cc2)oc2cc(O)cc(O)c12
REMARK SMILES IDX 5 1 3 2 2 3 1 4 21 5 19 6 18 7 16 8 15 9 14 10 13 11 6 12
REMARK SMILES IDX 7 13 8 14 9 15 12 16 11 17 10 18 4 20 20 22 17 24
REMARK H PARENT 10 19 4 21 20 23 17 25
REMARK Flexibility Score: inf
ROOT
ATOM      1  C   UNL     1      52.724  14.941  24.861  1.00  0.00     0.180 A 
ATOM      2  C   UNL     1      53.813  15.449  24.133  1.00  0.00     0.208 A 
ATOM      3  C   UNL     1      55.052  15.600  24.776  1.00  0.00     0.238 A 
ATOM      4  O   UNL     1      56.003  16.125  24.141  1.00  0.00    -0.285 OA
ATOM      5  C   UNL     1      55.202  15.185  26.123  1.00  0.00     0.111 A 
ATOM      6  C   UNL     1      56.422  15.248  26.862  1.00  0.00     0.134 A 
ATOM      7  C   UNL     1      56.426  14.910  28.221  1.00  0.00     0.093 A 
ATOM      8  C   UNL     1      55.267  14.449  28.851  1.00  0.00     0.123 A 
ATOM      9  C   UNL     1      54.084  14.333  28.125  1.00  0.00     0.094 A 
ATOM     10  C   UNL     1      54.040  14.699  26.778  1.00  0.00     0.146 A 
ATOM     11  O   UNL     1      52.886  14.592  26.131  1.00  0.00    -0.452 OA
ENDROOT
BRANCH   1  12
ATOM     12  C   UNL     1      51.383  14.769  24.256  1.00  0.00     0.021 A 
ATOM     13  C   UNL     1      50.858  15.711  23.353  1.00  0.00     0.016 A 
ATOM     14  C   UNL     1      49.580  15.538  22.815  1.00  0.00     0.047 A 
ATOM     15  C   UNL     1      48.805  14.430  23.180  1.00  0.00     0.115 A 
ATOM     16  C   UNL     1      50.591  13.671  24.633  1.00  0.00     0.016 A 
ATOM     17  C   UNL     1      49.313  13.500  24.092  1.00  0.00     0.047 A 
BRANCH  15  18
ATOM     18  O   UNL     1      47.531  14.247  22.649  1.00  0.00    -0.508 OA
ATOM     19  H   UNL     1      47.223  14.752  21.825  1.00  0.00     0.293 HD
ENDBRANCH  15  18
ENDBRANCH   1  12
BRANCH   2  20
ATOM     20  O   UNL     1      53.665  15.781  22.783  1.00  0.00    -0.502 OA
ATOM     21  H   UNL     1      53.153  16.599  22.476  1.00  0.00     0.293 HD
ENDBRANCH   2  20
BRANCH   6  22
ATOM     22  O   UNL     1      57.655  15.608  26.308  1.00  0.00    -0.507 OA
ATOM     23  H   UNL     1      58.547  15.506  26.767  1.00  0.00     0.293 HD
ENDBRANCH   6  22
BRANCH   8  24
ATOM     24  O   UNL     1      55.284  14.099  30.199  1.00  0.00    -0.508 OA
ATOM     25  H   UNL     1      55.558  14.761  30.916  1.00  0.00     0.293 HD
ENDBRANCH   8  24
TORSDOF 5
ENDMDL
MODEL 5
REMARK VINA RESULT:    -5.052      1.275      6.481
REMARK INTER + INTRA:          -6.193
REMARK INTER:                  -6.599
REMARK INTRA:                   0.406
REMARK UNBOUND:                -0.255
REMARK SMILES O=c1c(O)c(-c2ccc(O)cc2)oc2cc(O)cc(O)c12
REMARK SMILES IDX 5 1 3 2 2 3 1 4 21 5 19 6 18 7 16 8 15 9 14 10 13 11 6 12
REMARK SMILES IDX 7 13 8 14 9 15 12 16 11 17 10 18 4 20 20 22 17 24
REMARK H PARENT 10 19 4 21 20 23 17 25
REMARK Flexibility Score: inf
ROOT
ATOM      1  C   UNL     1      51.098  14.514  26.488  1.00  0.00     0.180 A 
ATOM      2  C   UNL     1      51.127  14.926  25.144  1.00  0.00     0.208 A 
ATOM      3  C   UNL     1      52.357  15.280  24.567  1.00  0.00     0.238 A 
ATOM      4  O   UNL     1      52.367  15.719  23.387  1.00  0.00    -0.285 OA
ATOM      5  C   UNL     1      53.550  15.162  25.321  1.00  0.00     0.111 A 
ATOM      6  C   UNL     1      54.858  15.449  24.825  1.00  0.00     0.134 A 
ATOM      7  C   UNL     1      55.954  15.398  25.695  1.00  0.00     0.093 A 
ATOM      8  C   UNL     1      55.798  15.009  27.027  1.00  0.00     0.123 A 
ATOM      9  C   UNL     1      54.535  14.675  27.508  1.00  0.00     0.094 A 
ATOM     10  C   UNL     1      53.416  14.753  26.674  1.00  0.00     0.146 A 
ATOM     11  O   UNL     1      52.228  14.445  27.180  1.00  0.00    -0.452 OA
ENDROOT
BRANCH   1  12
ATOM     12  C   UNL     1      49.838  14.141  27.170  1.00  0.00     0.021 A 
ATOM     13  C   UNL     1      48.688  13.782  26.444  1.00  0.00     0.016 A 
ATOM     14  C   UNL     1      47.503  13.458  27.112  1.00  0.00     0.047 A 
ATOM     15  C   UNL     1      47.448  13.501  28.510  1.00  0.00     0.115 A 
ATOM     16  C   UNL     1      49.768  14.203  28.572  1.00  0.00     0.016 A 
ATOM     17  C   UNL     1      48.582  13.877  29.237  1.00  0.00     0.047 A 
BRANCH  15  18
ATOM     18  O   UNL     1      46.274  13.179  29.186  1.00  0.00    -0.508 OA
ATOM     19  H   UNL     1      46.290  12.816  30.133  1.00  0.00     0.293 HD
ENDBRANCH  15  18
ENDBRANCH   1  12
BRANCH   2  20
ATOM     20  O   UNL     1      49.949  14.963  24.393  1.00  0.00    -0.502 OA
ATOM     21  H   UNL     1      49.506  14.126  24.034  1.00  0.00     0.293 HD
ENDBRANCH   2  20
BRANCH   6  22
ATOM     22  O   UNL     1      55.138  15.760  23.490  1.00  0.00    -0.507 OA
ATOM     23  H   UNL     1      54.870  15.197  22.697  1.00  0.00     0.293 HD
ENDBRANCH   6  22
BRANCH   8  24
ATOM     24  O   UNL     1      56.897  14.946  27.881  1.00  0.00    -0.508 OA
ATOM     25  H   UNL     1      57.842  14.858  27.525  1.00  0.00     0.293 HD
ENDBRANCH   8  24
TORSDOF 5
ENDMDL
MODEL 6
REMARK VINA RESULT:    -4.842      1.470      3.223
REMARK INTER + INTRA:          -5.947
REMARK INTER:                  -5.827
REMARK INTRA:                  -0.120
REMARK UNBOUND:                -0.255
REMARK SMILES O=c1c(O)c(-c2ccc(O)cc2)oc2cc(O)cc(O)c12
REMARK SMILES IDX 5 1 3 2 2 3 1 4 21 5 19 6 18 7 16 8 15 9 14 10 13 11 6 12
REMARK SMILES IDX 7 13 8 14 9 15 12 16 11 17 10 18 4 20 20 22 17 24
REMARK H PARENT 10 19 4 21 20 23 17 25
REMARK Flexibility Score: inf
ROOT
ATOM      1  C   UNL     1      53.002  14.424  26.480  1.00  0.00     0.180 A 
ATOM      2  C   UNL     1      52.301  13.849  27.554  1.00  0.00     0.208 A 
ATOM      3  C   UNL     1      50.911  13.681  27.449  1.00  0.00     0.238 A 
ATOM      4  O   UNL     1      50.280  13.235  28.441  1.00  0.00    -0.285 OA
ATOM      5  C   UNL     1      50.247  14.036  26.249  1.00  0.00     0.111 A 
ATOM      6  C   UNL     1      48.848  13.868  26.014  1.00  0.00     0.134 A 
ATOM      7  C   UNL     1      48.283  14.354  24.828  1.00  0.00     0.093 A 
ATOM      8  C   UNL     1      49.077  14.945  23.842  1.00  0.00     0.123 A 
ATOM      9  C   UNL     1      50.451  15.065  24.039  1.00  0.00     0.094 A 
ATOM     10  C   UNL     1      51.037  14.624  25.227  1.00  0.00     0.146 A 
ATOM     11  O   UNL     1      52.347  14.778  25.380  1.00  0.00    -0.452 OA
ENDROOT
BRANCH   1  12
ATOM     12  C   UNL     1      54.465  14.648  26.523  1.00  0.00     0.021 A 
ATOM     13  C   UNL     1      55.013  15.941  26.451  1.00  0.00     0.016 A 
ATOM     14  C   UNL     1      56.398  16.124  26.469  1.00  0.00     0.047 A 
ATOM     15  C   UNL     1      57.254  15.018  26.545  1.00  0.00     0.115 A 
ATOM     16  C   UNL     1      55.331  13.542  26.577  1.00  0.00     0.016 A 
ATOM     17  C   UNL     1      56.717  13.728  26.596  1.00  0.00     0.047 A 
BRANCH  15  18
ATOM     18  O   UNL     1      58.636  15.188  26.565  1.00  0.00    -0.508 OA
ATOM     19  H   UNL     1      59.183  15.185  25.711  1.00  0.00     0.293 HD
ENDBRANCH  15  18
ENDBRANCH   1  12
BRANCH   2  20
ATOM     20  O   UNL     1      52.986  13.434  28.700  1.00  0.00    -0.502 OA
ATOM     21  H   UNL     1      53.975  13.604  28.835  1.00  0.00     0.293 HD
ENDBRANCH   2  20
BRANCH   6  22
ATOM     22  O   UNL     1      47.980  13.212  26.892  1.00  0.00    -0.507 OA
ATOM     23  H   UNL     1      47.029  13.489  27.079  1.00  0.00     0.293 HD
ENDBRANCH   6  22
BRANCH   8  24
ATOM     24  O   UNL     1      48.509  15.411  22.659  1.00  0.00    -0.508 OA
ATOM     25  H   UNL     1      47.511  15.571  22.576  1.00  0.00     0.293 HD
ENDBRANCH   8  24
TORSDOF 5
ENDMDL
MODEL 7
REMARK VINA RESULT:    -4.673      2.214      3.385
REMARK INTER + INTRA:          -5.748
REMARK INTER:                  -5.667
REMARK INTRA:                  -0.081
REMARK UNBOUND:                -0.255
REMARK SMILES O=c1c(O)c(-c2ccc(O)cc2)oc2cc(O)cc(O)c12
REMARK SMILES IDX 5 1 3 2 2 3 1 4 21 5 19 6 18 7 16 8 15 9 14 10 13 11 6 12
REMARK SMILES IDX 7 13 8 14 9 15 12 16 11 17 10 18 4 20 20 22 17 24
REMARK H PARENT 10 19 4 21 20 23 17 25
REMARK Flexibility Score: inf
ROOT
ATOM      1  C   UNL     1      51.414  14.833  25.522  1.00  0.00     0.180 A 
ATOM      2  C   UNL     1      51.565  14.032  26.666  1.00  0.00     0.208 A 
ATOM      3  C   UNL     1      50.446  13.780  27.476  1.00  0.00     0.238 A 
ATOM      4  O   UNL     1      50.603  13.124  28.538  1.00  0.00    -0.285 OA
ATOM      5  C   UNL     1      49.177  14.286  27.100  1.00  0.00     0.111 A 
ATOM      6  C   UNL     1      47.965  14.057  27.820  1.00  0.00     0.134 A 
ATOM      7  C   UNL     1      46.787  14.696  27.413  1.00  0.00     0.093 A 
ATOM      8  C   UNL     1      46.764  15.506  26.275  1.00  0.00     0.123 A 
ATOM      9  C   UNL     1      47.929  15.692  25.534  1.00  0.00     0.094 A 
ATOM     10  C   UNL     1      49.128  15.099  25.938  1.00  0.00     0.146 A 
ATOM     11  O   UNL     1      50.218  15.321  25.214  1.00  0.00    -0.452 OA
ENDROOT
BRANCH   1  12
ATOM     12  C   UNL     1      52.550  15.155  24.629  1.00  0.00     0.021 A 
ATOM     13  C   UNL     1      53.703  15.800  25.111  1.00  0.00     0.016 A 
ATOM     14  C   UNL     1      54.752  16.115  24.243  1.00  0.00     0.047 A 
ATOM     15  C   UNL     1      54.658  15.802  22.881  1.00  0.00     0.115 A 
ATOM     16  C   UNL     1      52.454  14.864  23.258  1.00  0.00     0.016 A 
ATOM     17  C   UNL     1      53.506  15.179  22.392  1.00  0.00     0.047 A 
BRANCH  15  18
ATOM     18  O   UNL     1      55.697  16.110  22.007  1.00  0.00    -0.508 OA
ATOM     19  H   UNL     1      56.013  17.064  21.874  1.00  0.00     0.293 HD
ENDBRANCH  15  18
ENDBRANCH   1  12
BRANCH   2  20
ATOM     20  O   UNL     1      52.810  13.478  26.979  1.00  0.00    -0.502 OA
ATOM     21  H   UNL     1      53.096  13.284  27.931  1.00  0.00     0.293 HD
ENDBRANCH   2  20
BRANCH   6  22
ATOM     22  O   UNL     1      47.857  13.196  28.917  1.00  0.00    -0.507 OA
ATOM     23  H   UNL     1      47.403  13.425  29.789  1.00  0.00     0.293 HD
ENDBRANCH   6  22
BRANCH   8  24
ATOM     24  O   UNL     1      45.585  16.124  25.867  1.00  0.00    -0.508 OA
ATOM     25  H   UNL     1      44.779  15.586  25.568  1.00  0.00     0.293 HD
ENDBRANCH   8  24
TORSDOF 5
ENDMDL
MODEL 8
REMARK VINA RESULT:    -4.586      2.083      6.666
REMARK INTER + INTRA:          -5.645
REMARK INTER:                  -5.467
REMARK INTRA:                  -0.178
REMARK UNBOUND:                -0.255
REMARK SMILES O=c1c(O)c(-c2ccc(O)cc2)oc2cc(O)cc(O)c12
REMARK SMILES IDX 5 1 3 2 2 3 1 4 21 5 19 6 18 7 16 8 15 9 14 10 13 11 6 12
REMARK SMILES IDX 7 13 8 14 9 15 12 16 11 17 10 18 4 20 20 22 17 24
REMARK H PARENT 10 19 4 21 20 23 17 25
REMARK Flexibility Score: inf
ROOT
ATOM      1  C   UNL     1      51.296  14.659  25.920  1.00  0.00     0.180 A 
ATOM      2  C   UNL     1      51.232  13.644  26.890  1.00  0.00     0.208 A 
ATOM      3  C   UNL     1      52.398  13.296  27.590  1.00  0.00     0.238 A 
ATOM      4  O   UNL     1      52.351  12.338  28.404  1.00  0.00    -0.285 OA
ATOM      5  C   UNL     1      53.601  14.007  27.354  1.00  0.00     0.111 A 
ATOM      6  C   UNL     1      54.832  13.771  28.037  1.00  0.00     0.134 A 
ATOM      7  C   UNL     1      55.985  14.462  27.644  1.00  0.00     0.093 A 
ATOM      8  C   UNL     1      55.936  15.428  26.635  1.00  0.00     0.123 A 
ATOM      9  C   UNL     1      54.728  15.704  25.999  1.00  0.00     0.094 A 
ATOM     10  C   UNL     1      53.570  15.003  26.343  1.00  0.00     0.146 A 
ATOM     11  O   UNL     1      52.446  15.284  25.696  1.00  0.00    -0.452 OA
ENDROOT
BRANCH   1  12
ATOM     12  C   UNL     1      50.113  15.070  25.130  1.00  0.00     0.021 A 
ATOM     13  C   UNL     1      49.028  15.739  25.725  1.00  0.00     0.016 A 
ATOM     14  C   UNL     1      47.912  16.094  24.963  1.00  0.00     0.047 A 
ATOM     15  C   UNL     1      47.859  15.775  23.600  1.00  0.00     0.115 A 
ATOM     16  C   UNL     1      50.042  14.734  23.767  1.00  0.00     0.016 A 
ATOM     17  C   UNL     1      48.925  15.092  23.006  1.00  0.00     0.047 A 
BRANCH  15  18
ATOM     18  O   UNL     1      46.752  16.125  22.830  1.00  0.00    -0.508 OA
ATOM     19  H   UNL     1      46.497  15.601  22.000  1.00  0.00     0.293 HD
ENDBRANCH  15  18
ENDBRANCH   1  12
BRANCH   2  20
ATOM     20  O   UNL     1      50.018  13.007  27.164  1.00  0.00    -0.502 OA
ATOM     21  H   UNL     1      49.250  13.476  27.629  1.00  0.00     0.293 HD
ENDBRANCH   2  20
BRANCH   6  22
ATOM     22  O   UNL     1      54.972  12.894  29.118  1.00  0.00    -0.507 OA
ATOM     23  H   UNL     1      55.157  11.906  29.041  1.00  0.00     0.293 HD
ENDBRANCH   6  22
BRANCH   8  24
ATOM     24  O   UNL     1      57.084  16.123  26.262  1.00  0.00    -0.508 OA
ATOM     25  H   UNL     1      57.061  17.116  26.061  1.00  0.00     0.293 HD
ENDBRANCH   8  24
TORSDOF 5
ENDMDL
