MODEL 1
REMARK VINA RESULT:    -5.423      0.000      0.000
REMARK INTER + INTRA:         -16.841
REMARK INTER:                 -13.665
REMARK INTRA:                  -3.176
REMARK UNBOUND:                -3.176
REMARK SMILES CCCCCCCCCCCCCCCCCCCCCCCCCCCC(=O)[O-]
REMARK SMILES IDX 15 1 16 2 17 3 18 4 19 5 20 6 21 7 22 8 23 9 24 10 25 11
REMARK SMILES IDX 26 12 27 13 28 14 29 15 30 16 14 17 13 18 12 19 11 20 10 21
REMARK SMILES IDX 9 22 8 23 7 24 6 25 5 26 4 27 3 28 2 29 1 30
REMARK H PARENT
REMARK Flexibility Score: inf
ROOT
ATOM      1  C   UNL     1      41.751  57.013  58.835  1.00  0.00     0.000 C 
ENDROOT
BRANCH   1   2
ATOM      2  C   UNL     1      42.898  57.669  58.046  1.00  0.00     0.000 C 
BRANCH   2   3
ATOM      3  C   UNL     1      44.287  57.296  58.595  1.00  0.00     0.000 C 
BRANCH   3   4
ATOM      4  C   UNL     1      45.388  58.342  58.331  1.00  0.00     0.000 C 
BRANCH   4   5
ATOM      5  C   UNL     1      45.664  59.267  59.537  1.00  0.00     0.000 C 
BRANCH   5   6
ATOM      6  C   UNL     1      45.214  58.633  60.868  1.00  0.00     0.000 C 
BRANCH   6   7
ATOM      7  C   UNL     1      44.207  59.516  61.632  1.00  0.00     0.000 C 
BRANCH   7   8
ATOM      8  C   UNL     1      43.121  60.156  60.745  1.00  0.00     0.000 C 
BRANCH   8   9
ATOM      9  C   UNL     1      43.250  61.675  60.509  1.00  0.00     0.000 C 
BRANCH   9  10
ATOM     10  C   UNL     1      43.450  62.094  59.035  1.00  0.00     0.000 C 
BRANCH  10  11
ATOM     11  C   UNL     1      42.384  63.071  58.504  1.00  0.00     0.000 C 
BRANCH  11  12
ATOM     12  C   UNL     1      41.126  62.412  57.915  1.00  0.00     0.006 C 
BRANCH  12  13
ATOM     13  C   UNL     1      41.409  61.042  57.278  1.00  0.00     0.053 C 
BRANCH  13  14
ATOM     14  C   UNL     1      40.178  60.466  56.651  1.00  0.00     0.041 C 
ATOM     15  O   UNL     1      39.740  60.928  55.566  1.00  0.00    -0.550 OA
ATOM     16  O   UNL     1      39.466  59.472  57.310  1.00  0.00    -0.550 OA
ENDBRANCH  13  14
ENDBRANCH  12  13
ENDBRANCH  11  12
ENDBRANCH  10  11
ENDBRANCH   9  10
ENDBRANCH   8   9
ENDBRANCH   7   8
ENDBRANCH   6   7
ENDBRANCH   5   6
ENDBRANCH   4   5
ENDBRANCH   3   4
ENDBRANCH   2   3
ENDBRANCH   1   2
BRANCH   1  17
ATOM     17  C   UNL     1      42.167  56.595  60.254  1.00  0.00     0.000 C 
BRANCH  17  18
ATOM     18  C   UNL     1      42.235  55.076  60.500  1.00  0.00     0.000 C 
BRANCH  18  19
ATOM     19  C   UNL     1      41.004  54.298  59.988  1.00  0.00     0.000 C 
BRANCH  19  20
ATOM     20  C   UNL     1      40.096  53.808  61.128  1.00  0.00     0.000 C 
BRANCH  20  21
ATOM     21  C   UNL     1      38.681  54.409  61.041  1.00  0.00     0.000 C 
BRANCH  21  22
ATOM     22  C   UNL     1      38.694  55.847  60.494  1.00  0.00    -0.000 C 
BRANCH  22  23
ATOM     23  C   UNL     1      37.600  56.095  59.442  1.00  0.00    -0.000 C 
BRANCH  23  24
ATOM     24  C   UNL     1      36.238  55.443  59.755  1.00  0.00    -0.000 C 
BRANCH  24  25
ATOM     25  C   UNL     1      35.737  54.432  58.704  1.00  0.00    -0.000 C 
BRANCH  25  26
ATOM     26  C   UNL     1      36.220  52.987  58.917  1.00  0.00    -0.000 C 
BRANCH  26  27
ATOM     27  C   UNL     1      35.357  51.956  58.168  1.00  0.00    -0.000 C 
BRANCH  27  28
ATOM     28  C   UNL     1      33.849  52.254  58.272  1.00  0.00    -0.000 C 
BRANCH  28  29
ATOM     29  C   UNL     1      32.936  51.040  58.017  1.00  0.00    -0.003 C 
ATOM     30  C   UNL     1      31.707  51.012  58.926  1.00  0.00     0.004 C 
ENDBRANCH  28  29
ENDBRANCH  27  28
ENDBRANCH  26  27
ENDBRANCH  25  26
ENDBRANCH  24  25
ENDBRANCH  23  24
ENDBRANCH  22  23
ENDBRANCH  21  22
ENDBRANCH  20  21
ENDBRANCH  19  20
ENDBRANCH  18  19
ENDBRANCH  17  18
ENDBRANCH   1  17
TORSDOF 26
ENDMDL
MODEL 2
REMARK VINA RESULT:    -5.154      3.032      8.728
REMARK INTER + INTRA:         -16.163
REMARK INTER:                 -12.729
REMARK INTRA:                  -3.435
REMARK UNBOUND:                -3.176
REMARK SMILES CCCCCCCCCCCCCCCCCCCCCCCCCCCC(=O)[O-]
REMARK SMILES IDX 15 1 16 2 17 3 18 4 19 5 20 6 21 7 22 8 23 9 24 10 25 11
REMARK SMILES IDX 26 12 27 13 28 14 29 15 30 16 14 17 13 18 12 19 11 20 10 21
REMARK SMILES IDX 9 22 8 23 7 24 6 25 5 26 4 27 3 28 2 29 1 30
REMARK H PARENT
REMARK Flexibility Score: inf
ROOT
ATOM      1  C   UNL     1      44.522  57.930  58.733  1.00  0.00     0.000 C 
ENDROOT
BRANCH   1   2
ATOM      2  C   UNL     1      44.326  57.068  59.991  1.00  0.00     0.000 C 
BRANCH   2   3
ATOM      3  C   UNL     1      42.932  56.418  60.057  1.00  0.00     0.000 C 
BRANCH   3   4
ATOM      4  C   UNL     1      42.933  54.878  59.972  1.00  0.00     0.000 C 
BRANCH   4   5
ATOM      5  C   UNL     1      41.535  54.272  59.724  1.00  0.00     0.000 C 
BRANCH   5   6
ATOM      6  C   UNL     1      40.671  54.267  61.000  1.00  0.00     0.000 C 
BRANCH   6   7
ATOM      7  C   UNL     1      39.181  54.532  60.707  1.00  0.00     0.000 C 
BRANCH   7   8
ATOM      8  C   UNL     1      38.801  56.025  60.645  1.00  0.00     0.000 C 
BRANCH   8   9
ATOM      9  C   UNL     1      37.377  56.339  60.146  1.00  0.00     0.000 C 
BRANCH   9  10
ATOM     10  C   UNL     1      36.473  55.104  59.927  1.00  0.00     0.000 C 
BRANCH  10  11
ATOM     11  C   UNL     1      35.887  54.993  58.506  1.00  0.00     0.000 C 
BRANCH  11  12
ATOM     12  C   UNL     1      35.070  53.720  58.232  1.00  0.00     0.006 C 
BRANCH  12  13
ATOM     13  C   UNL     1      35.884  52.431  58.430  1.00  0.00     0.053 C 
BRANCH  13  14
ATOM     14  C   UNL     1      35.122  51.229  57.968  1.00  0.00     0.041 C 
ATOM     15  O   UNL     1      35.694  50.331  57.297  1.00  0.00    -0.550 OA
ATOM     16  O   UNL     1      33.756  51.140  58.207  1.00  0.00    -0.550 OA
ENDBRANCH  13  14
ENDBRANCH  12  13
ENDBRANCH  11  12
ENDBRANCH  10  11
ENDBRANCH   9  10
ENDBRANCH   8   9
ENDBRANCH   7   8
ENDBRANCH   6   7
ENDBRANCH   5   6
ENDBRANCH   4   5
ENDBRANCH   3   4
ENDBRANCH   2   3
ENDBRANCH   1   2
BRANCH   1  17
ATOM     17  C   UNL     1      45.987  58.338  58.512  1.00  0.00     0.000 C 
BRANCH  17  18
ATOM     18  C   UNL     1      46.203  59.789  58.040  1.00  0.00     0.000 C 
BRANCH  18  19
ATOM     19  C   UNL     1      46.316  60.816  59.186  1.00  0.00     0.000 C 
BRANCH  19  20
ATOM     20  C   UNL     1      46.394  60.151  60.571  1.00  0.00     0.000 C 
BRANCH  20  21
ATOM     21  C   UNL     1      45.512  60.870  61.609  1.00  0.00     0.000 C 
BRANCH  21  22
ATOM     22  C   UNL     1      44.270  60.043  61.987  1.00  0.00    -0.000 C 
BRANCH  22  23
ATOM     23  C   UNL     1      42.955  60.710  61.550  1.00  0.00    -0.000 C 
BRANCH  23  24
ATOM     24  C   UNL     1      43.071  62.205  61.191  1.00  0.00    -0.000 C 
BRANCH  24  25
ATOM     25  C   UNL     1      42.957  62.530  59.688  1.00  0.00    -0.000 C 
BRANCH  25  26
ATOM     26  C   UNL     1      42.741  61.309  58.777  1.00  0.00    -0.000 C 
BRANCH  26  27
ATOM     27  C   UNL     1      41.797  61.605  57.599  1.00  0.00    -0.000 C 
BRANCH  27  28
ATOM     28  C   UNL     1      40.981  60.373  57.164  1.00  0.00    -0.000 C 
BRANCH  28  29
ATOM     29  C   UNL     1      41.197  59.119  58.033  1.00  0.00    -0.003 C 
ATOM     30  C   UNL     1      39.960  58.226  58.115  1.00  0.00     0.004 C 
ENDBRANCH  28  29
ENDBRANCH  27  28
ENDBRANCH  26  27
ENDBRANCH  25  26
ENDBRANCH  24  25
ENDBRANCH  23  24
ENDBRANCH  22  23
ENDBRANCH  21  22
ENDBRANCH  20  21
ENDBRANCH  19  20
ENDBRANCH  18  19
ENDBRANCH  17  18
ENDBRANCH   1  17
TORSDOF 26
ENDMDL
MODEL 3
REMARK VINA RESULT:    -5.124      2.461      4.783
REMARK INTER + INTRA:         -16.089
REMARK INTER:                 -11.898
REMARK INTRA:                  -4.191
REMARK UNBOUND:                -3.176
REMARK SMILES CCCCCCCCCCCCCCCCCCCCCCCCCCCC(=O)[O-]
REMARK SMILES IDX 15 1 16 2 17 3 18 4 19 5 20 6 21 7 22 8 23 9 24 10 25 11
REMARK SMILES IDX 26 12 27 13 28 14 29 15 30 16 14 17 13 18 12 19 11 20 10 21
REMARK SMILES IDX 9 22 8 23 7 24 6 25 5 26 4 27 3 28 2 29 1 30
REMARK H PARENT
REMARK Flexibility Score: inf
ROOT
ATOM      1  C   UNL     1      40.591  59.824  57.637  1.00  0.00     0.000 C 
ENDROOT
BRANCH   1   2
ATOM      2  C   UNL     1      42.049  60.315  57.635  1.00  0.00     0.000 C 
BRANCH   2   3
ATOM      3  C   UNL     1      42.161  61.846  57.757  1.00  0.00     0.000 C 
BRANCH   3   4
ATOM      4  C   UNL     1      43.247  62.337  58.735  1.00  0.00     0.000 C 
BRANCH   4   5
ATOM      5  C   UNL     1      44.631  62.530  58.077  1.00  0.00     0.000 C 
BRANCH   5   6
ATOM      6  C   UNL     1      45.769  62.547  59.116  1.00  0.00     0.000 C 
BRANCH   6   7
ATOM      7  C   UNL     1      46.898  61.556  58.771  1.00  0.00     0.000 C 
BRANCH   7   8
ATOM      8  C   UNL     1      46.759  60.889  57.388  1.00  0.00     0.000 C 
BRANCH   8   9
ATOM      9  C   UNL     1      46.633  59.352  57.390  1.00  0.00     0.000 C 
BRANCH   9  10
ATOM     10  C   UNL     1      45.374  58.799  58.095  1.00  0.00     0.000 C 
BRANCH  10  11
ATOM     11  C   UNL     1      45.673  57.853  59.274  1.00  0.00     0.000 C 
BRANCH  11  12
ATOM     12  C   UNL     1      45.634  58.508  60.665  1.00  0.00     0.006 C 
BRANCH  12  13
ATOM     13  C   UNL     1      44.530  59.570  60.797  1.00  0.00     0.053 C 
BRANCH  13  14
ATOM     14  C   UNL     1      44.522  60.181  62.163  1.00  0.00     0.041 C 
ATOM     15  O   UNL     1      43.805  59.694  63.075  1.00  0.00    -0.550 OA
ATOM     16  O   UNL     1      45.244  61.343  62.406  1.00  0.00    -0.550 OA
ENDBRANCH  13  14
ENDBRANCH  12  13
ENDBRANCH  11  12
ENDBRANCH  10  11
ENDBRANCH   9  10
ENDBRANCH   8   9
ENDBRANCH   7   8
ENDBRANCH   6   7
ENDBRANCH   5   6
ENDBRANCH   4   5
ENDBRANCH   3   4
ENDBRANCH   2   3
ENDBRANCH   1   2
BRANCH   1  17
ATOM     17  C   UNL     1      40.469  58.321  57.940  1.00  0.00     0.000 C 
BRANCH  17  18
ATOM     18  C   UNL     1      41.762  57.642  58.432  1.00  0.00     0.000 C 
BRANCH  18  19
ATOM     19  C   UNL     1      41.875  57.539  59.968  1.00  0.00     0.000 C 
BRANCH  19  20
ATOM     20  C   UNL     1      42.586  56.253  60.424  1.00  0.00     0.000 C 
BRANCH  20  21
ATOM     21  C   UNL     1      42.681  55.211  59.294  1.00  0.00     0.000 C 
BRANCH  21  22
ATOM     22  C   UNL     1      41.556  54.164  59.375  1.00  0.00    -0.000 C 
BRANCH  22  23
ATOM     23  C   UNL     1      40.863  54.137  60.748  1.00  0.00    -0.000 C 
BRANCH  23  24
ATOM     24  C   UNL     1      39.333  53.950  60.700  1.00  0.00    -0.000 C 
BRANCH  24  25
ATOM     25  C   UNL     1      38.506  55.190  61.097  1.00  0.00    -0.000 C 
BRANCH  25  26
ATOM     26  C   UNL     1      38.137  56.120  59.928  1.00  0.00    -0.000 C 
BRANCH  26  27
ATOM     27  C   UNL     1      36.622  56.365  59.820  1.00  0.00    -0.000 C 
BRANCH  27  28
ATOM     28  C   UNL     1      35.950  55.484  58.750  1.00  0.00    -0.000 C 
BRANCH  28  29
ATOM     29  C   UNL     1      35.984  53.973  59.047  1.00  0.00    -0.003 C 
ATOM     30  C   UNL     1      34.959  53.179  58.237  1.00  0.00     0.004 C 
ENDBRANCH  28  29
ENDBRANCH  27  28
ENDBRANCH  26  27
ENDBRANCH  25  26
ENDBRANCH  24  25
ENDBRANCH  23  24
ENDBRANCH  22  23
ENDBRANCH  21  22
ENDBRANCH  20  21
ENDBRANCH  19  20
ENDBRANCH  18  19
ENDBRANCH  17  18
ENDBRANCH   1  17
TORSDOF 26
ENDMDL
MODEL 4
REMARK VINA RESULT:    -5.111      2.166      4.558
REMARK INTER + INTRA:         -16.055
REMARK INTER:                 -12.482
REMARK INTRA:                  -3.572
REMARK UNBOUND:                -3.176
REMARK SMILES CCCCCCCCCCCCCCCCCCCCCCCCCCCC(=O)[O-]
REMARK SMILES IDX 15 1 16 2 17 3 18 4 19 5 20 6 21 7 22 8 23 9 24 10 25 11
REMARK SMILES IDX 26 12 27 13 28 14 29 15 30 16 14 17 13 18 12 19 11 20 10 21
REMARK SMILES IDX 9 22 8 23 7 24 6 25 5 26 4 27 3 28 2 29 1 30
REMARK H PARENT
REMARK Flexibility Score: inf
ROOT
ATOM      1  C   UNL     1      39.852  58.782  57.662  1.00  0.00     0.000 C 
ENDROOT
BRANCH   1   2
ATOM      2  C   UNL     1      39.615  60.093  56.892  1.00  0.00     0.000 C 
BRANCH   2   3
ATOM      3  C   UNL     1      40.915  60.874  56.631  1.00  0.00     0.000 C 
BRANCH   3   4
ATOM      4  C   UNL     1      40.785  62.405  56.754  1.00  0.00     0.000 C 
BRANCH   4   5
ATOM      5  C   UNL     1      41.837  63.042  57.689  1.00  0.00     0.000 C 
BRANCH   5   6
ATOM      6  C   UNL     1      42.415  62.022  58.690  1.00  0.00     0.000 C 
BRANCH   6   7
ATOM      7  C   UNL     1      43.923  61.780  58.481  1.00  0.00     0.000 C 
BRANCH   7   8
ATOM      8  C   UNL     1      44.289  60.327  58.117  1.00  0.00     0.000 C 
BRANCH   8   9
ATOM      9  C   UNL     1      45.752  59.915  58.373  1.00  0.00     0.000 C 
BRANCH   9  10
ATOM     10  C   UNL     1      45.981  58.399  58.569  1.00  0.00     0.000 C 
BRANCH  10  11
ATOM     11  C   UNL     1      45.838  57.921  60.027  1.00  0.00     0.000 C 
BRANCH  11  12
ATOM     12  C   UNL     1      45.544  59.026  61.054  1.00  0.00     0.006 C 
BRANCH  12  13
ATOM     13  C   UNL     1      44.136  58.921  61.662  1.00  0.00     0.053 C 
BRANCH  13  14
ATOM     14  C   UNL     1      43.824  60.105  62.524  1.00  0.00     0.041 C 
ATOM     15  O   UNL     1      44.030  60.062  63.764  1.00  0.00    -0.550 OA
ATOM     16  O   UNL     1      43.226  61.228  61.967  1.00  0.00    -0.550 OA
ENDBRANCH  13  14
ENDBRANCH  12  13
ENDBRANCH  11  12
ENDBRANCH  10  11
ENDBRANCH   9  10
ENDBRANCH   8   9
ENDBRANCH   7   8
ENDBRANCH   6   7
ENDBRANCH   5   6
ENDBRANCH   4   5
ENDBRANCH   3   4
ENDBRANCH   2   3
ENDBRANCH   1   2
BRANCH   1  17
ATOM     17  C   UNL     1      41.335  58.377  57.706  1.00  0.00     0.000 C 
BRANCH  17  18
ATOM     18  C   UNL     1      41.816  57.786  59.045  1.00  0.00     0.000 C 
BRANCH  18  19
ATOM     19  C   UNL     1      42.530  56.424  58.913  1.00  0.00     0.000 C 
BRANCH  19  20
ATOM     20  C   UNL     1      42.957  55.846  60.273  1.00  0.00     0.000 C 
BRANCH  20  21
ATOM     21  C   UNL     1      42.164  54.578  60.640  1.00  0.00     0.000 C 
BRANCH  21  22
ATOM     22  C   UNL     1      40.887  54.427  59.792  1.00  0.00    -0.000 C 
BRANCH  22  23
ATOM     23  C   UNL     1      39.605  54.727  60.587  1.00  0.00    -0.000 C 
BRANCH  23  24
ATOM     24  C   UNL     1      39.106  56.182  60.490  1.00  0.00    -0.000 C 
BRANCH  24  25
ATOM     25  C   UNL     1      37.653  56.347  59.999  1.00  0.00    -0.000 C 
BRANCH  25  26
ATOM     26  C   UNL     1      36.855  55.037  59.893  1.00  0.00    -0.000 C 
BRANCH  26  27
ATOM     27  C   UNL     1      35.970  54.980  58.636  1.00  0.00    -0.000 C 
BRANCH  27  28
ATOM     28  C   UNL     1      35.159  53.674  58.536  1.00  0.00    -0.000 C 
BRANCH  28  29
ATOM     29  C   UNL     1      35.958  52.458  58.029  1.00  0.00    -0.003 C 
ATOM     30  C   UNL     1      35.112  51.191  57.911  1.00  0.00     0.004 C 
ENDBRANCH  28  29
ENDBRANCH  27  28
ENDBRANCH  26  27
ENDBRANCH  25  26
ENDBRANCH  24  25
ENDBRANCH  23  24
ENDBRANCH  22  23
ENDBRANCH  21  22
ENDBRANCH  20  21
ENDBRANCH  19  20
ENDBRANCH  18  19
ENDBRANCH  17  18
ENDBRANCH   1  17
TORSDOF 26
ENDMDL
MODEL 5
REMARK VINA RESULT:    -5.075      2.132      8.660
REMARK INTER + INTRA:         -15.964
REMARK INTER:                 -11.761
REMARK INTRA:                  -4.203
REMARK UNBOUND:                -3.176
REMARK SMILES CCCCCCCCCCCCCCCCCCCCCCCCCCCC(=O)[O-]
REMARK SMILES IDX 15 1 16 2 17 3 18 4 19 5 20 6 21 7 22 8 23 9 24 10 25 11
REMARK SMILES IDX 26 12 27 13 28 14 29 15 30 16 14 17 13 18 12 19 11 20 10 21
REMARK SMILES IDX 9 22 8 23 7 24 6 25 5 26 4 27 3 28 2 29 1 30
REMARK H PARENT
REMARK Flexibility Score: inf
ROOT
ATOM      1  C   UNL     1      40.952  54.029  60.106  1.00  0.00     0.000 C 
ENDROOT
BRANCH   1   2
ATOM      2  C   UNL     1      39.900  54.232  61.210  1.00  0.00     0.000 C 
BRANCH   2   3
ATOM      3  C   UNL     1      38.960  53.022  61.367  1.00  0.00     0.000 C 
BRANCH   3   4
ATOM      4  C   UNL     1      37.485  53.300  61.015  1.00  0.00     0.000 C 
BRANCH   4   5
ATOM      5  C   UNL     1      37.276  53.776  59.561  1.00  0.00     0.000 C 
BRANCH   5   6
ATOM      6  C   UNL     1      36.270  54.940  59.472  1.00  0.00     0.000 C 
BRANCH   6   7
ATOM      7  C   UNL     1      36.811  56.237  60.106  1.00  0.00     0.000 C 
BRANCH   7   8
ATOM      8  C   UNL     1      38.116  56.759  59.471  1.00  0.00     0.000 C 
BRANCH   8   9
ATOM      9  C   UNL     1      39.241  57.137  60.454  1.00  0.00     0.000 C 
BRANCH   9  10
ATOM     10  C   UNL     1      40.456  57.848  59.816  1.00  0.00     0.000 C 
BRANCH  10  11
ATOM     11  C   UNL     1      40.376  57.987  58.284  1.00  0.00     0.000 C 
BRANCH  11  12
ATOM     12  C   UNL     1      41.645  58.531  57.608  1.00  0.00     0.006 C 
BRANCH  12  13
ATOM     13  C   UNL     1      42.092  59.888  58.175  1.00  0.00     0.053 C 
BRANCH  13  14
ATOM     14  C   UNL     1      41.476  61.024  57.420  1.00  0.00     0.041 C 
ATOM     15  O   UNL     1      41.048  60.855  56.249  1.00  0.00    -0.550 OA
ATOM     16  O   UNL     1      41.450  62.295  57.982  1.00  0.00    -0.550 OA
ENDBRANCH  13  14
ENDBRANCH  12  13
ENDBRANCH  11  12
ENDBRANCH  10  11
ENDBRANCH   9  10
ENDBRANCH   8   9
ENDBRANCH   7   8
ENDBRANCH   6   7
ENDBRANCH   5   6
ENDBRANCH   4   5
ENDBRANCH   3   4
ENDBRANCH   2   3
ENDBRANCH   1   2
BRANCH   1  17
ATOM     17  C   UNL     1      42.349  54.518  60.518  1.00  0.00     0.000 C 
BRANCH  17  18
ATOM     18  C   UNL     1      43.009  55.519  59.549  1.00  0.00     0.000 C 
BRANCH  18  19
ATOM     19  C   UNL     1      43.743  56.683  60.247  1.00  0.00     0.000 C 
BRANCH  19  20
ATOM     20  C   UNL     1      44.728  57.406  59.313  1.00  0.00     0.000 C 
BRANCH  20  21
ATOM     21  C   UNL     1      45.997  57.869  60.054  1.00  0.00     0.000 C 
BRANCH  21  22
ATOM     22  C   UNL     1      47.072  58.399  59.088  1.00  0.00    -0.000 C 
BRANCH  22  23
ATOM     23  C   UNL     1      46.489  58.857  57.740  1.00  0.00    -0.000 C 
BRANCH  23  24
ATOM     24  C   UNL     1      46.774  60.328  57.375  1.00  0.00    -0.000 C 
BRANCH  24  25
ATOM     25  C   UNL     1      46.547  61.343  58.513  1.00  0.00    -0.000 C 
BRANCH  25  26
ATOM     26  C   UNL     1      45.164  62.018  58.509  1.00  0.00    -0.000 C 
BRANCH  26  27
ATOM     27  C   UNL     1      44.467  61.950  59.879  1.00  0.00    -0.000 C 
BRANCH  27  28
ATOM     28  C   UNL     1      45.324  61.250  60.950  1.00  0.00    -0.000 C 
BRANCH  28  29
ATOM     29  C   UNL     1      44.519  60.572  62.076  1.00  0.00    -0.003 C 
ATOM     30  C   UNL     1      43.109  60.168  61.646  1.00  0.00     0.004 C 
ENDBRANCH  28  29
ENDBRANCH  27  28
ENDBRANCH  26  27
ENDBRANCH  25  26
ENDBRANCH  24  25
ENDBRANCH  23  24
ENDBRANCH  22  23
ENDBRANCH  21  22
ENDBRANCH  20  21
ENDBRANCH  19  20
ENDBRANCH  18  19
ENDBRANCH  17  18
ENDBRANCH   1  17
TORSDOF 26
ENDMDL
MODEL 6
REMARK VINA RESULT:    -5.004      2.957      5.933
REMARK INTER + INTRA:         -15.786
REMARK INTER:                 -11.669
REMARK INTRA:                  -4.117
REMARK UNBOUND:                -3.176
REMARK SMILES CCCCCCCCCCCCCCCCCCCCCCCCCCCC(=O)[O-]
REMARK SMILES IDX 15 1 16 2 17 3 18 4 19 5 20 6 21 7 22 8 23 9 24 10 25 11
REMARK SMILES IDX 26 12 27 13 28 14 29 15 30 16 14 17 13 18 12 19 11 20 10 21
REMARK SMILES IDX 9 22 8 23 7 24 6 25 5 26 4 27 3 28 2 29 1 30
REMARK H PARENT
REMARK Flexibility Score: inf
ROOT
ATOM      1  C   UNL     1      42.251  54.547  59.325  1.00  0.00     0.000 C 
ENDROOT
BRANCH   1   2
ATOM      2  C   UNL     1      42.924  55.136  60.577  1.00  0.00     0.000 C 
BRANCH   2   3
ATOM      3  C   UNL     1      43.741  56.405  60.272  1.00  0.00     0.000 C 
BRANCH   3   4
ATOM      4  C   UNL     1      43.868  56.747  58.774  1.00  0.00     0.000 C 
BRANCH   4   5
ATOM      5  C   UNL     1      44.441  58.156  58.508  1.00  0.00     0.000 C 
BRANCH   5   6
ATOM      6  C   UNL     1      45.926  58.262  58.907  1.00  0.00     0.000 C 
BRANCH   6   7
ATOM      7  C   UNL     1      46.137  59.107  60.179  1.00  0.00     0.000 C 
BRANCH   7   8
ATOM      8  C   UNL     1      47.017  60.356  59.974  1.00  0.00     0.000 C 
BRANCH   8   9
ATOM      9  C   UNL     1      46.949  61.009  58.579  1.00  0.00     0.000 C 
BRANCH   9  10
ATOM     10  C   UNL     1      45.568  61.589  58.194  1.00  0.00     0.000 C 
BRANCH  10  11
ATOM     11  C   UNL     1      45.115  62.776  59.065  1.00  0.00     0.000 C 
BRANCH  11  12
ATOM     12  C   UNL     1      43.646  62.735  59.516  1.00  0.00     0.006 C 
BRANCH  12  13
ATOM     13  C   UNL     1      43.218  61.355  60.040  1.00  0.00     0.053 C 
BRANCH  13  14
ATOM     14  C   UNL     1      43.155  61.335  61.536  1.00  0.00     0.041 C 
ATOM     15  O   UNL     1      42.437  60.492  62.133  1.00  0.00    -0.550 OA
ATOM     16  O   UNL     1      43.827  62.304  62.270  1.00  0.00    -0.550 OA
ENDBRANCH  13  14
ENDBRANCH  12  13
ENDBRANCH  11  12
ENDBRANCH  10  11
ENDBRANCH   9  10
ENDBRANCH   8   9
ENDBRANCH   7   8
ENDBRANCH   6   7
ENDBRANCH   5   6
ENDBRANCH   4   5
ENDBRANCH   3   4
ENDBRANCH   2   3
ENDBRANCH   1   2
BRANCH   1  17
ATOM     17  C   UNL     1      40.833  54.022  59.603  1.00  0.00     0.000 C 
BRANCH  17  18
ATOM     18  C   UNL     1      40.484  53.825  61.091  1.00  0.00     0.000 C 
BRANCH  18  19
ATOM     19  C   UNL     1      38.969  53.829  61.390  1.00  0.00     0.000 C 
BRANCH  19  20
ATOM     20  C   UNL     1      38.123  54.181  60.155  1.00  0.00     0.000 C 
BRANCH  20  21
ATOM     21  C   UNL     1      37.455  55.561  60.284  1.00  0.00     0.000 C 
BRANCH  21  22
ATOM     22  C   UNL     1      38.267  56.667  59.585  1.00  0.00    -0.000 C 
BRANCH  22  23
ATOM     23  C   UNL     1      39.371  57.252  60.480  1.00  0.00    -0.000 C 
BRANCH  23  24
ATOM     24  C   UNL     1      40.589  57.818  59.723  1.00  0.00    -0.000 C 
BRANCH  24  25
ATOM     25  C   UNL     1      40.365  58.081  58.220  1.00  0.00    -0.000 C 
BRANCH  25  26
ATOM     26  C   UNL     1      41.064  59.338  57.673  1.00  0.00    -0.000 C 
BRANCH  26  27
ATOM     27  C   UNL     1      40.069  60.429  57.240  1.00  0.00    -0.000 C 
BRANCH  27  28
ATOM     28  C   UNL     1      40.646  61.851  57.376  1.00  0.00    -0.000 C 
BRANCH  28  29
ATOM     29  C   UNL     1      41.213  62.443  56.072  1.00  0.00    -0.003 C 
ATOM     30  C   UNL     1      40.432  62.015  54.830  1.00  0.00     0.004 C 
ENDBRANCH  28  29
ENDBRANCH  27  28
ENDBRANCH  26  27
ENDBRANCH  25  26
ENDBRANCH  24  25
ENDBRANCH  23  24
ENDBRANCH  22  23
ENDBRANCH  21  22
ENDBRANCH  20  21
ENDBRANCH  19  20
ENDBRANCH  18  19
ENDBRANCH  17  18
ENDBRANCH   1  17
TORSDOF 26
ENDMDL
MODEL 7
REMARK VINA RESULT:    -5.001      2.615      7.047
REMARK INTER + INTRA:         -15.779
REMARK INTER:                 -11.782
REMARK INTRA:                  -3.998
REMARK UNBOUND:                -3.176
REMARK SMILES CCCCCCCCCCCCCCCCCCCCCCCCCCCC(=O)[O-]
REMARK SMILES IDX 15 1 16 2 17 3 18 4 19 5 20 6 21 7 22 8 23 9 24 10 25 11
REMARK SMILES IDX 26 12 27 13 28 14 29 15 30 16 14 17 13 18 12 19 11 20 10 21
REMARK SMILES IDX 9 22 8 23 7 24 6 25 5 26 4 27 3 28 2 29 1 30
REMARK H PARENT
REMARK Flexibility Score: inf
ROOT
ATOM      1  C   UNL     1      37.429  52.970  60.990  1.00  0.00     0.000 C 
ENDROOT
BRANCH   1   2
ATOM      2  C   UNL     1      38.789  53.503  61.474  1.00  0.00     0.000 C 
BRANCH   2   3
ATOM      3  C   UNL     1      39.773  53.761  60.318  1.00  0.00     0.000 C 
BRANCH   3   4
ATOM      4  C   UNL     1      41.217  54.077  60.758  1.00  0.00     0.000 C 
BRANCH   4   5
ATOM      5  C   UNL     1      42.077  54.711  59.643  1.00  0.00     0.000 C 
BRANCH   5   6
ATOM      6  C   UNL     1      43.068  55.753  60.200  1.00  0.00     0.000 C 
BRANCH   6   7
ATOM      7  C   UNL     1      43.980  56.343  59.106  1.00  0.00     0.000 C 
BRANCH   7   8
ATOM      8  C   UNL     1      44.918  57.464  59.597  1.00  0.00     0.000 C 
BRANCH   8   9
ATOM      9  C   UNL     1      45.451  58.422  58.513  1.00  0.00     0.000 C 
BRANCH   9  10
ATOM     10  C   UNL     1      46.366  59.554  59.033  1.00  0.00     0.000 C 
BRANCH  10  11
ATOM     11  C   UNL     1      45.869  60.974  58.698  1.00  0.00     0.000 C 
BRANCH  11  12
ATOM     12  C   UNL     1      45.501  61.842  59.913  1.00  0.00     0.006 C 
BRANCH  12  13
ATOM     13  C   UNL     1      45.103  61.013  61.144  1.00  0.00     0.053 C 
BRANCH  13  14
ATOM     14  C   UNL     1      43.710  61.333  61.590  1.00  0.00     0.041 C 
ATOM     15  O   UNL     1      43.222  62.475  61.389  1.00  0.00    -0.550 OA
ATOM     16  O   UNL     1      42.979  60.391  62.304  1.00  0.00    -0.550 OA
ENDBRANCH  13  14
ENDBRANCH  12  13
ENDBRANCH  11  12
ENDBRANCH  10  11
ENDBRANCH   9  10
ENDBRANCH   8   9
ENDBRANCH   7   8
ENDBRANCH   6   7
ENDBRANCH   5   6
ENDBRANCH   4   5
ENDBRANCH   3   4
ENDBRANCH   2   3
ENDBRANCH   1   2
BRANCH   1  17
ATOM     17  C   UNL     1      36.995  53.579  59.647  1.00  0.00     0.000 C 
BRANCH  17  18
ATOM     18  C   UNL     1      36.278  54.940  59.742  1.00  0.00     0.000 C 
BRANCH  18  19
ATOM     19  C   UNL     1      37.121  56.134  59.246  1.00  0.00     0.000 C 
BRANCH  19  20
ATOM     20  C   UNL     1      37.900  56.821  60.380  1.00  0.00     0.000 C 
BRANCH  20  21
ATOM     21  C   UNL     1      39.354  57.128  59.982  1.00  0.00     0.000 C 
BRANCH  21  22
ATOM     22  C   UNL     1      39.444  57.862  58.631  1.00  0.00    -0.000 C 
BRANCH  22  23
ATOM     23  C   UNL     1      40.885  57.976  58.108  1.00  0.00    -0.000 C 
BRANCH  23  24
ATOM     24  C   UNL     1      41.728  59.089  58.763  1.00  0.00    -0.000 C 
BRANCH  24  25
ATOM     25  C   UNL     1      42.346  60.107  57.783  1.00  0.00    -0.000 C 
BRANCH  25  26
ATOM     26  C   UNL     1      42.203  61.580  58.207  1.00  0.00    -0.000 C 
BRANCH  26  27
ATOM     27  C   UNL     1      41.000  62.274  57.545  1.00  0.00    -0.000 C 
BRANCH  27  28
ATOM     28  C   UNL     1      41.254  62.623  56.066  1.00  0.00    -0.000 C 
BRANCH  28  29
ATOM     29  C   UNL     1      40.321  61.911  55.068  1.00  0.00    -0.003 C 
ATOM     30  C   UNL     1      39.475  60.814  55.715  1.00  0.00     0.004 C 
ENDBRANCH  28  29
ENDBRANCH  27  28
ENDBRANCH  26  27
ENDBRANCH  25  26
ENDBRANCH  24  25
ENDBRANCH  23  24
ENDBRANCH  22  23
ENDBRANCH  21  22
ENDBRANCH  20  21
ENDBRANCH  19  20
ENDBRANCH  18  19
ENDBRANCH  17  18
ENDBRANCH   1  17
TORSDOF 26
ENDMDL
MODEL 8
REMARK VINA RESULT:    -4.935      2.954      9.343
REMARK INTER + INTRA:         -15.612
REMARK INTER:                 -12.119
REMARK INTRA:                  -3.493
REMARK UNBOUND:                -3.176
REMARK SMILES CCCCCCCCCCCCCCCCCCCCCCCCCCCC(=O)[O-]
REMARK SMILES IDX 15 1 16 2 17 3 18 4 19 5 20 6 21 7 22 8 23 9 24 10 25 11
REMARK SMILES IDX 26 12 27 13 28 14 29 15 30 16 14 17 13 18 12 19 11 20 10 21
REMARK SMILES IDX 9 22 8 23 7 24 6 25 5 26 4 27 3 28 2 29 1 30
REMARK H PARENT
REMARK Flexibility Score: inf
ROOT
ATOM      1  C   UNL     1      42.097  57.591  58.040  1.00  0.00     0.000 C 
ENDROOT
BRANCH   1   2
ATOM      2  C   UNL     1      43.370  57.627  58.904  1.00  0.00     0.000 C 
BRANCH   2   3
ATOM      3  C   UNL     1      43.700  56.262  59.535  1.00  0.00     0.000 C 
BRANCH   3   4
ATOM      4  C   UNL     1      42.585  55.205  59.409  1.00  0.00     0.000 C 
BRANCH   4   5
ATOM      5  C   UNL     1      42.212  54.537  60.751  1.00  0.00     0.000 C 
BRANCH   5   6
ATOM      6  C   UNL     1      40.871  53.781  60.668  1.00  0.00     0.000 C 
BRANCH   6   7
ATOM      7  C   UNL     1      39.749  54.636  60.046  1.00  0.00     0.000 C 
BRANCH   7   8
ATOM      8  C   UNL     1      39.076  55.614  61.030  1.00  0.00     0.000 C 
BRANCH   8   9
ATOM      9  C   UNL     1      38.325  56.802  60.395  1.00  0.00     0.000 C 
BRANCH   9  10
ATOM     10  C   UNL     1      37.373  56.429  59.236  1.00  0.00     0.000 C 
BRANCH  10  11
ATOM     11  C   UNL     1      36.165  55.571  59.659  1.00  0.00     0.000 C 
BRANCH  11  12
ATOM     12  C   UNL     1      35.669  54.571  58.602  1.00  0.00     0.006 C 
BRANCH  12  13
ATOM     13  C   UNL     1      36.032  53.116  58.935  1.00  0.00     0.053 C 
BRANCH  13  14
ATOM     14  C   UNL     1      35.186  52.152  58.164  1.00  0.00     0.041 C 
ATOM     15  O   UNL     1      33.931  52.226  58.210  1.00  0.00    -0.550 OA
ATOM     16  O   UNL     1      35.785  51.116  57.457  1.00  0.00    -0.550 OA
ENDBRANCH  13  14
ENDBRANCH  12  13
ENDBRANCH  11  12
ENDBRANCH  10  11
ENDBRANCH   9  10
ENDBRANCH   8   9
ENDBRANCH   7   8
ENDBRANCH   6   7
ENDBRANCH   5   6
ENDBRANCH   4   5
ENDBRANCH   3   4
ENDBRANCH   2   3
ENDBRANCH   1   2
BRANCH   1  17
ATOM     17  C   UNL     1      41.058  58.640  58.468  1.00  0.00     0.000 C 
BRANCH  17  18
ATOM     18  C   UNL     1      39.799  58.718  57.582  1.00  0.00     0.000 C 
BRANCH  18  19
ATOM     19  C   UNL     1      39.756  59.951  56.655  1.00  0.00     0.000 C 
BRANCH  19  20
ATOM     20  C   UNL     1      40.203  61.241  57.364  1.00  0.00     0.000 C 
BRANCH  20  21
ATOM     21  C   UNL     1      41.061  62.137  56.451  1.00  0.00     0.000 C 
BRANCH  21  22
ATOM     22  C   UNL     1      42.245  62.769  57.204  1.00  0.00    -0.000 C 
BRANCH  22  23
ATOM     23  C   UNL     1      42.428  62.194  58.619  1.00  0.00    -0.000 C 
BRANCH  23  24
ATOM     24  C   UNL     1      43.585  61.186  58.766  1.00  0.00    -0.000 C 
BRANCH  24  25
ATOM     25  C   UNL     1      44.933  61.794  59.205  1.00  0.00    -0.000 C 
BRANCH  25  26
ATOM     26  C   UNL     1      46.008  61.842  58.104  1.00  0.00    -0.000 C 
BRANCH  26  27
ATOM     27  C   UNL     1      47.109  60.787  58.303  1.00  0.00    -0.000 C 
BRANCH  27  28
ATOM     28  C   UNL     1      46.715  59.403  57.754  1.00  0.00    -0.000 C 
BRANCH  28  29
ATOM     29  C   UNL     1      46.917  58.238  58.741  1.00  0.00    -0.003 C 
ATOM     30  C   UNL     1      46.757  58.656  60.203  1.00  0.00     0.004 C 
ENDBRANCH  28  29
ENDBRANCH  27  28
ENDBRANCH  26  27
ENDBRANCH  25  26
ENDBRANCH  24  25
ENDBRANCH  23  24
ENDBRANCH  22  23
ENDBRANCH  21  22
ENDBRANCH  20  21
ENDBRANCH  19  20
ENDBRANCH  18  19
ENDBRANCH  17  18
ENDBRANCH   1  17
TORSDOF 26
ENDMDL
MODEL 9
REMARK VINA RESULT:    -4.916      2.690      8.674
REMARK INTER + INTRA:         -15.563
REMARK INTER:                 -11.763
REMARK INTRA:                  -3.801
REMARK UNBOUND:                -3.176
REMARK SMILES CCCCCCCCCCCCCCCCCCCCCCCCCCCC(=O)[O-]
REMARK SMILES IDX 15 1 16 2 17 3 18 4 19 5 20 6 21 7 22 8 23 9 24 10 25 11
REMARK SMILES IDX 26 12 27 13 28 14 29 15 30 16 14 17 13 18 12 19 11 20 10 21
REMARK SMILES IDX 9 22 8 23 7 24 6 25 5 26 4 27 3 28 2 29 1 30
REMARK H PARENT
REMARK Flexibility Score: inf
ROOT
ATOM      1  C   UNL     1      37.557  56.658  59.840  1.00  0.00     0.000 C 
ENDROOT
BRANCH   1   2
ATOM      2  C   UNL     1      36.383  55.942  59.151  1.00  0.00     0.000 C 
BRANCH   2   3
ATOM      3  C   UNL     1      36.235  54.476  59.597  1.00  0.00     0.000 C 
BRANCH   3   4
ATOM      4  C   UNL     1      37.566  53.722  59.790  1.00  0.00     0.000 C 
BRANCH   4   5
ATOM      5  C   UNL     1      37.769  53.181  61.222  1.00  0.00     0.000 C 
BRANCH   5   6
ATOM      6  C   UNL     1      39.237  53.285  61.678  1.00  0.00     0.000 C 
BRANCH   6   7
ATOM      7  C   UNL     1      40.006  54.400  60.943  1.00  0.00     0.000 C 
BRANCH   7   8
ATOM      8  C   UNL     1      41.455  54.031  60.565  1.00  0.00     0.000 C 
BRANCH   8   9
ATOM      9  C   UNL     1      41.882  54.363  59.122  1.00  0.00     0.000 C 
BRANCH   9  10
ATOM     10  C   UNL     1      43.025  55.396  58.999  1.00  0.00     0.000 C 
BRANCH  10  11
ATOM     11  C   UNL     1      43.409  56.078  60.326  1.00  0.00     0.000 C 
BRANCH  11  12
ATOM     12  C   UNL     1      44.354  57.283  60.194  1.00  0.00     0.006 C 
BRANCH  12  13
ATOM     13  C   UNL     1      44.677  57.635  58.734  1.00  0.00     0.053 C 
BRANCH  13  14
ATOM     14  C   UNL     1      45.977  58.370  58.624  1.00  0.00     0.041 C 
ATOM     15  O   UNL     1      46.551  58.808  59.655  1.00  0.00    -0.550 OA
ATOM     16  O   UNL     1      46.513  58.645  57.373  1.00  0.00    -0.550 OA
ENDBRANCH  13  14
ENDBRANCH  12  13
ENDBRANCH  11  12
ENDBRANCH  10  11
ENDBRANCH   9  10
ENDBRANCH   8   9
ENDBRANCH   7   8
ENDBRANCH   6   7
ENDBRANCH   5   6
ENDBRANCH   4   5
ENDBRANCH   3   4
ENDBRANCH   2   3
ENDBRANCH   1   2
BRANCH   1  17
ATOM     17  C   UNL     1      38.603  57.181  58.842  1.00  0.00     0.000 C 
BRANCH  17  18
ATOM     18  C   UNL     1      39.991  57.483  59.441  1.00  0.00     0.000 C 
BRANCH  18  19
ATOM     19  C   UNL     1      40.891  58.355  58.540  1.00  0.00     0.000 C 
BRANCH  19  20
ATOM     20  C   UNL     1      40.083  59.269  57.603  1.00  0.00     0.000 C 
BRANCH  20  21
ATOM     21  C   UNL     1      40.967  60.331  56.923  1.00  0.00     0.000 C 
BRANCH  21  22
ATOM     22  C   UNL     1      40.516  61.764  57.259  1.00  0.00    -0.000 C 
BRANCH  22  23
ATOM     23  C   UNL     1      41.666  62.782  57.194  1.00  0.00    -0.000 C 
BRANCH  23  24
ATOM     24  C   UNL     1      42.486  62.920  58.493  1.00  0.00    -0.000 C 
BRANCH  24  25
ATOM     25  C   UNL     1      43.947  62.436  58.401  1.00  0.00    -0.000 C 
BRANCH  25  26
ATOM     26  C   UNL     1      44.435  61.625  59.614  1.00  0.00    -0.000 C 
BRANCH  26  27
ATOM     27  C   UNL     1      43.340  60.717  60.200  1.00  0.00    -0.000 C 
BRANCH  27  28
ATOM     28  C   UNL     1      43.275  60.779  61.738  1.00  0.00    -0.000 C 
BRANCH  28  29
ATOM     29  C   UNL     1      42.192  61.720  62.298  1.00  0.00    -0.003 C 
ATOM     30  C   UNL     1      41.796  61.389  63.737  1.00  0.00     0.004 C 
ENDBRANCH  28  29
ENDBRANCH  27  28
ENDBRANCH  26  27
ENDBRANCH  25  26
ENDBRANCH  24  25
ENDBRANCH  23  24
ENDBRANCH  22  23
ENDBRANCH  21  22
ENDBRANCH  20  21
ENDBRANCH  19  20
ENDBRANCH  18  19
ENDBRANCH  17  18
ENDBRANCH   1  17
TORSDOF 26
ENDMDL
