MODEL 1
REMARK VINA RESULT:    -4.927      0.000      0.000
REMARK INTER + INTRA:         -12.263
REMARK INTER:                  -9.535
REMARK INTRA:                  -2.728
REMARK UNBOUND:                -2.728
REMARK SMILES CCCCCCCCCCCCCCCCCC(=O)[O-]
REMARK SMILES IDX 10 1 11 2 12 3 13 4 14 5 15 6 16 7 17 8 18 9 19 10 20 11
REMARK SMILES IDX 9 12 8 13 7 14 6 15 5 16 4 17 3 18 2 19 1 20
REMARK H PARENT
REMARK Flexibility Score: inf
ROOT
ATOM      1  C   UNL     1      19.641  -3.367  31.507  1.00  0.00     0.000 C 
ENDROOT
BRANCH   1   2
ATOM      2  C   UNL     1      19.313  -2.960  32.956  1.00  0.00     0.000 C 
BRANCH   2   3
ATOM      3  C   UNL     1      20.537  -2.613  33.823  1.00  0.00     0.000 C 
BRANCH   3   4
ATOM      4  C   UNL     1      20.366  -2.981  35.313  1.00  0.00     0.000 C 
BRANCH   4   5
ATOM      5  C   UNL     1      21.713  -3.132  36.040  1.00  0.00     0.000 C 
BRANCH   5   6
ATOM      6  C   UNL     1      22.787  -2.161  35.519  1.00  0.00     0.000 C 
BRANCH   6   7
ATOM      7  C   UNL     1      22.749  -0.750  36.139  1.00  0.00     0.006 C 
BRANCH   7   8
ATOM      8  C   UNL     1      22.263   0.354  35.186  1.00  0.00     0.053 C 
BRANCH   8   9
ATOM      9  C   UNL     1      21.053   1.060  35.718  1.00  0.00     0.041 C 
ATOM     10  O   UNL     1      20.885   2.287  35.488  1.00  0.00    -0.550 OA
ATOM     11  O   UNL     1      20.096   0.357  36.438  1.00  0.00    -0.550 OA
ENDBRANCH   8   9
ENDBRANCH   7   8
ENDBRANCH   6   7
ENDBRANCH   5   6
ENDBRANCH   4   5
ENDBRANCH   3   4
ENDBRANCH   2   3
ENDBRANCH   1   2
BRANCH   1  12
ATOM     12  C   UNL     1      18.866  -4.595  30.986  1.00  0.00     0.000 C 
BRANCH  12  13
ATOM     13  C   UNL     1      19.690  -5.569  30.120  1.00  0.00    -0.000 C 
BRANCH  13  14
ATOM     14  C   UNL     1      21.211  -5.316  30.117  1.00  0.00    -0.000 C 
BRANCH  14  15
ATOM     15  C   UNL     1      22.032  -6.278  30.993  1.00  0.00    -0.000 C 
BRANCH  15  16
ATOM     16  C   UNL     1      22.682  -5.582  32.198  1.00  0.00    -0.000 C 
BRANCH  16  17
ATOM     17  C   UNL     1      21.897  -5.869  33.488  1.00  0.00    -0.000 C 
BRANCH  17  18
ATOM     18  C   UNL     1      21.051  -7.150  33.393  1.00  0.00    -0.000 C 
BRANCH  18  19
ATOM     19  C   UNL     1      19.559  -6.893  33.652  1.00  0.00    -0.003 C 
ATOM     20  C   UNL     1      18.692  -7.923  32.934  1.00  0.00     0.004 C 
ENDBRANCH  18  19
ENDBRANCH  17  18
ENDBRANCH  16  17
ENDBRANCH  15  16
ENDBRANCH  14  15
ENDBRANCH  13  14
ENDBRANCH  12  13
ENDBRANCH   1  12
TORSDOF 16
ENDMDL
MODEL 2
REMARK VINA RESULT:    -4.688      1.712      3.144
REMARK INTER + INTRA:         -11.801
REMARK INTER:                  -8.880
REMARK INTRA:                  -2.921
REMARK UNBOUND:                -2.728
REMARK SMILES CCCCCCCCCCCCCCCCCC(=O)[O-]
REMARK SMILES IDX 10 1 11 2 12 3 13 4 14 5 15 6 16 7 17 8 18 9 19 10 20 11
REMARK SMILES IDX 9 12 8 13 7 14 6 15 5 16 4 17 3 18 2 19 1 20
REMARK H PARENT
REMARK Flexibility Score: inf
ROOT
ATOM      1  C   UNL     1      20.243  -4.944  30.472  1.00  0.00     0.000 C 
ENDROOT
BRANCH   1   2
ATOM      2  C   UNL     1      19.169  -4.003  31.047  1.00  0.00     0.000 C 
BRANCH   2   3
ATOM      3  C   UNL     1      19.643  -3.115  32.214  1.00  0.00     0.000 C 
BRANCH   3   4
ATOM      4  C   UNL     1      18.534  -2.793  33.238  1.00  0.00     0.000 C 
BRANCH   4   5
ATOM      5  C   UNL     1      19.042  -1.922  34.400  1.00  0.00     0.000 C 
BRANCH   5   6
ATOM      6  C   UNL     1      20.578  -1.875  34.487  1.00  0.00     0.000 C 
BRANCH   6   7
ATOM      7  C   UNL     1      21.161  -0.570  35.063  1.00  0.00     0.006 C 
BRANCH   7   8
ATOM      8  C   UNL     1      22.634  -0.663  35.493  1.00  0.00     0.053 C 
BRANCH   8   9
ATOM      9  C   UNL     1      22.887  -1.850  36.371  1.00  0.00     0.041 C 
ATOM     10  O   UNL     1      23.607  -2.799  35.962  1.00  0.00    -0.550 OA
ATOM     11  O   UNL     1      22.356  -1.893  37.654  1.00  0.00    -0.550 OA
ENDBRANCH   8   9
ENDBRANCH   7   8
ENDBRANCH   6   7
ENDBRANCH   5   6
ENDBRANCH   4   5
ENDBRANCH   3   4
ENDBRANCH   2   3
ENDBRANCH   1   2
BRANCH   1  12
ATOM     12  C   UNL     1      19.847  -6.434  30.430  1.00  0.00     0.000 C 
BRANCH  12  13
ATOM     13  C   UNL     1      18.733  -6.843  31.414  1.00  0.00    -0.000 C 
BRANCH  13  14
ATOM     14  C   UNL     1      19.221  -7.277  32.810  1.00  0.00    -0.000 C 
BRANCH  14  15
ATOM     15  C   UNL     1      18.706  -6.416  33.977  1.00  0.00    -0.000 C 
BRANCH  15  16
ATOM     16  C   UNL     1      19.838  -5.783  34.798  1.00  0.00    -0.000 C 
BRANCH  16  17
ATOM     17  C   UNL     1      21.206  -6.332  34.364  1.00  0.00    -0.000 C 
BRANCH  17  18
ATOM     18  C   UNL     1      22.163  -5.228  33.888  1.00  0.00    -0.000 C 
BRANCH  18  19
ATOM     19  C   UNL     1      22.810  -5.550  32.533  1.00  0.00    -0.003 C 
ATOM     20  C   UNL     1      22.913  -7.057  32.319  1.00  0.00     0.004 C 
ENDBRANCH  18  19
ENDBRANCH  17  18
ENDBRANCH  16  17
ENDBRANCH  15  16
ENDBRANCH  14  15
ENDBRANCH  13  14
ENDBRANCH  12  13
ENDBRANCH   1  12
TORSDOF 16
ENDMDL
MODEL 3
REMARK VINA RESULT:    -4.676      1.394      2.939
REMARK INTER + INTRA:         -11.777
REMARK INTER:                  -9.255
REMARK INTRA:                  -2.522
REMARK UNBOUND:                -2.728
REMARK SMILES CCCCCCCCCCCCCCCCCC(=O)[O-]
REMARK SMILES IDX 10 1 11 2 12 3 13 4 14 5 15 6 16 7 17 8 18 9 19 10 20 11
REMARK SMILES IDX 9 12 8 13 7 14 6 15 5 16 4 17 3 18 2 19 1 20
REMARK H PARENT
REMARK Flexibility Score: inf
ROOT
ATOM      1  C   UNL     1      21.848  -6.399  31.929  1.00  0.00     0.000 C 
ENDROOT
BRANCH   1   2
ATOM      2  C   UNL     1      21.073  -6.781  33.204  1.00  0.00     0.000 C 
BRANCH   2   3
ATOM      3  C   UNL     1      21.283  -5.830  34.397  1.00  0.00     0.000 C 
BRANCH   3   4
ATOM      4  C   UNL     1      22.112  -4.575  34.052  1.00  0.00     0.000 C 
BRANCH   4   5
ATOM      5  C   UNL     1      21.746  -3.368  34.933  1.00  0.00     0.000 C 
BRANCH   5   6
ATOM      6  C   UNL     1      22.968  -2.739  35.626  1.00  0.00     0.000 C 
BRANCH   6   7
ATOM      7  C   UNL     1      22.913  -1.207  35.787  1.00  0.00     0.006 C 
BRANCH   7   8
ATOM      8  C   UNL     1      21.703  -0.537  35.116  1.00  0.00     0.053 C 
BRANCH   8   9
ATOM      9  C   UNL     1      21.883   0.944  34.986  1.00  0.00     0.041 C 
ATOM     10  O   UNL     1      20.921   1.722  35.219  1.00  0.00    -0.550 OA
ATOM     11  O   UNL     1      23.122   1.467  34.638  1.00  0.00    -0.550 OA
ENDBRANCH   8   9
ENDBRANCH   7   8
ENDBRANCH   6   7
ENDBRANCH   5   6
ENDBRANCH   4   5
ENDBRANCH   3   4
ENDBRANCH   2   3
ENDBRANCH   1   2
BRANCH   1  12
ATOM     12  C   UNL     1      20.998  -6.342  30.643  1.00  0.00     0.000 C 
BRANCH  12  13
ATOM     13  C   UNL     1      20.555  -4.929  30.215  1.00  0.00    -0.000 C 
BRANCH  13  14
ATOM     14  C   UNL     1      19.313  -4.382  30.947  1.00  0.00    -0.000 C 
BRANCH  14  15
ATOM     15  C   UNL     1      19.574  -3.167  31.853  1.00  0.00    -0.000 C 
BRANCH  15  16
ATOM     16  C   UNL     1      18.557  -3.044  32.997  1.00  0.00    -0.000 C 
BRANCH  16  17
ATOM     17  C   UNL     1      17.513  -4.170  32.927  1.00  0.00    -0.000 C 
BRANCH  17  18
ATOM     18  C   UNL     1      17.340  -4.900  34.269  1.00  0.00    -0.000 C 
BRANCH  18  19
ATOM     19  C   UNL     1      17.565  -6.415  34.150  1.00  0.00    -0.003 C 
ATOM     20  C   UNL     1      17.378  -6.886  32.711  1.00  0.00     0.004 C 
ENDBRANCH  18  19
ENDBRANCH  17  18
ENDBRANCH  16  17
ENDBRANCH  15  16
ENDBRANCH  14  15
ENDBRANCH  13  14
ENDBRANCH  12  13
ENDBRANCH   1  12
TORSDOF 16
ENDMDL
MODEL 4
REMARK VINA RESULT:    -4.642      3.424      7.041
REMARK INTER + INTRA:         -11.713
REMARK INTER:                  -9.241
REMARK INTRA:                  -2.472
REMARK UNBOUND:                -2.728
REMARK SMILES CCCCCCCCCCCCCCCCCC(=O)[O-]
REMARK SMILES IDX 10 1 11 2 12 3 13 4 14 5 15 6 16 7 17 8 18 9 19 10 20 11
REMARK SMILES IDX 9 12 8 13 7 14 6 15 5 16 4 17 3 18 2 19 1 20
REMARK H PARENT
REMARK Flexibility Score: inf
ROOT
ATOM      1  C   UNL     1      22.626  -6.134  32.494  1.00  0.00     0.000 C 
ENDROOT
BRANCH   1   2
ATOM      2  C   UNL     1      21.997  -5.497  31.240  1.00  0.00     0.000 C 
BRANCH   2   3
ATOM      3  C   UNL     1      21.285  -6.487  30.299  1.00  0.00     0.000 C 
BRANCH   3   4
ATOM      4  C   UNL     1      19.805  -6.135  30.036  1.00  0.00     0.000 C 
BRANCH   4   5
ATOM      5  C   UNL     1      18.965  -6.128  31.325  1.00  0.00     0.000 C 
BRANCH   5   6
ATOM      6  C   UNL     1      18.878  -7.512  31.991  1.00  0.00     0.000 C 
BRANCH   6   7
ATOM      7  C   UNL     1      18.181  -7.534  33.366  1.00  0.00     0.006 C 
BRANCH   7   8
ATOM      8  C   UNL     1      17.214  -8.710  33.574  1.00  0.00     0.053 C 
BRANCH   8   9
ATOM      9  C   UNL     1      16.058  -8.337  34.450  1.00  0.00     0.041 C 
ATOM     10  O   UNL     1      16.248  -7.671  35.502  1.00  0.00    -0.550 OA
ATOM     11  O   UNL     1      14.765  -8.696  34.088  1.00  0.00    -0.550 OA
ENDBRANCH   8   9
ENDBRANCH   7   8
ENDBRANCH   6   7
ENDBRANCH   5   6
ENDBRANCH   4   5
ENDBRANCH   3   4
ENDBRANCH   2   3
ENDBRANCH   1   2
BRANCH   1  12
ATOM     12  C   UNL     1      22.354  -5.381  33.812  1.00  0.00     0.000 C 
BRANCH  12  13
ATOM     13  C   UNL     1      20.984  -5.666  34.458  1.00  0.00    -0.000 C 
BRANCH  13  14
ATOM     14  C   UNL     1      20.130  -4.418  34.759  1.00  0.00    -0.000 C 
BRANCH  14  15
ATOM     15  C   UNL     1      19.994  -3.426  33.591  1.00  0.00    -0.000 C 
BRANCH  15  16
ATOM     16  C   UNL     1      20.385  -1.992  33.976  1.00  0.00    -0.000 C 
BRANCH  16  17
ATOM     17  C   UNL     1      20.881  -1.929  35.429  1.00  0.00    -0.000 C 
BRANCH  17  18
ATOM     18  C   UNL     1      22.295  -1.336  35.547  1.00  0.00    -0.000 C 
BRANCH  18  19
ATOM     19  C   UNL     1      23.382  -2.415  35.656  1.00  0.00    -0.003 C 
ATOM     20  C   UNL     1      23.121  -3.338  36.842  1.00  0.00     0.004 C 
ENDBRANCH  18  19
ENDBRANCH  17  18
ENDBRANCH  16  17
ENDBRANCH  15  16
ENDBRANCH  14  15
ENDBRANCH  13  14
ENDBRANCH  12  13
ENDBRANCH   1  12
TORSDOF 16
ENDMDL
MODEL 5
REMARK VINA RESULT:    -4.632     14.282     16.504
REMARK INTER + INTRA:         -11.694
REMARK INTER:                  -9.304
REMARK INTRA:                  -2.389
REMARK UNBOUND:                -2.728
REMARK SMILES CCCCCCCCCCCCCCCCCC(=O)[O-]
REMARK SMILES IDX 10 1 11 2 12 3 13 4 14 5 15 6 16 7 17 8 18 9 19 10 20 11
REMARK SMILES IDX 9 12 8 13 7 14 6 15 5 16 4 17 3 18 2 19 1 20
REMARK H PARENT
REMARK Flexibility Score: inf
ROOT
ATOM      1  C   UNL     1      27.253   4.795  45.765  1.00  0.00     0.000 C 
ENDROOT
BRANCH   1   2
ATOM      2  C   UNL     1      25.803   5.225  46.056  1.00  0.00     0.000 C 
BRANCH   2   3
ATOM      3  C   UNL     1      25.662   6.566  46.801  1.00  0.00     0.000 C 
BRANCH   3   4
ATOM      4  C   UNL     1      24.456   7.410  46.335  1.00  0.00     0.000 C 
BRANCH   4   5
ATOM      5  C   UNL     1      23.655   6.721  45.216  1.00  0.00     0.000 C 
BRANCH   5   6
ATOM      6  C   UNL     1      22.135   6.914  45.362  1.00  0.00     0.000 C 
BRANCH   6   7
ATOM      7  C   UNL     1      21.566   8.172  44.677  1.00  0.00     0.006 C 
BRANCH   7   8
ATOM      8  C   UNL     1      20.776   9.105  45.608  1.00  0.00     0.053 C 
BRANCH   8   9
ATOM      9  C   UNL     1      21.600   9.562  46.773  1.00  0.00     0.041 C 
ATOM     10  O   UNL     1      22.504  10.424  46.610  1.00  0.00    -0.550 OA
ATOM     11  O   UNL     1      21.347   9.062  48.044  1.00  0.00    -0.550 OA
ENDBRANCH   8   9
ENDBRANCH   7   8
ENDBRANCH   6   7
ENDBRANCH   5   6
ENDBRANCH   4   5
ENDBRANCH   3   4
ENDBRANCH   2   3
ENDBRANCH   1   2
BRANCH   1  12
ATOM     12  C   UNL     1      27.404   3.700  44.690  1.00  0.00     0.000 C 
BRANCH  12  13
ATOM     13  C   UNL     1      26.507   3.874  43.449  1.00  0.00    -0.000 C 
BRANCH  13  14
ATOM     14  C   UNL     1      27.159   4.625  42.271  1.00  0.00    -0.000 C 
BRANCH  14  15
ATOM     15  C   UNL     1      28.694   4.535  42.211  1.00  0.00    -0.000 C 
BRANCH  15  16
ATOM     16  C   UNL     1      29.373   5.912  42.168  1.00  0.00    -0.000 C 
BRANCH  16  17
ATOM     17  C   UNL     1      29.765   6.375  43.579  1.00  0.00    -0.000 C 
BRANCH  17  18
ATOM     18  C   UNL     1      28.966   7.604  44.043  1.00  0.00    -0.000 C 
BRANCH  18  19
ATOM     19  C   UNL     1      28.033   8.148  42.951  1.00  0.00    -0.003 C 
ATOM     20  C   UNL     1      26.576   8.100  43.401  1.00  0.00     0.004 C 
ENDBRANCH  18  19
ENDBRANCH  17  18
ENDBRANCH  16  17
ENDBRANCH  15  16
ENDBRANCH  14  15
ENDBRANCH  13  14
ENDBRANCH  12  13
ENDBRANCH   1  12
TORSDOF 16
ENDMDL
MODEL 6
REMARK VINA RESULT:    -4.612      2.768      4.161
REMARK INTER + INTRA:         -11.653
REMARK INTER:                  -8.907
REMARK INTRA:                  -2.746
REMARK UNBOUND:                -2.728
REMARK SMILES CCCCCCCCCCCCCCCCCC(=O)[O-]
REMARK SMILES IDX 10 1 11 2 12 3 13 4 14 5 15 6 16 7 17 8 18 9 19 10 20 11
REMARK SMILES IDX 9 12 8 13 7 14 6 15 5 16 4 17 3 18 2 19 1 20
REMARK H PARENT
REMARK Flexibility Score: inf
ROOT
ATOM      1  C   UNL     1      21.364  -5.547  34.669  1.00  0.00     0.000 C 
ENDROOT
BRANCH   1   2
ATOM      2  C   UNL     1      20.357  -4.436  35.018  1.00  0.00     0.000 C 
BRANCH   2   3
ATOM      3  C   UNL     1      20.728  -3.037  34.491  1.00  0.00     0.000 C 
BRANCH   3   4
ATOM      4  C   UNL     1      21.287  -2.094  35.578  1.00  0.00     0.000 C 
BRANCH   4   5
ATOM      5  C   UNL     1      22.825  -2.066  35.597  1.00  0.00     0.000 C 
BRANCH   5   6
ATOM      6  C   UNL     1      23.432  -3.110  36.550  1.00  0.00     0.000 C 
BRANCH   6   7
ATOM      7  C   UNL     1      22.599  -3.405  37.813  1.00  0.00     0.006 C 
BRANCH   7   8
ATOM      8  C   UNL     1      23.004  -4.685  38.561  1.00  0.00     0.053 C 
BRANCH   8   9
ATOM      9  C   UNL     1      22.063  -5.818  38.285  1.00  0.00     0.041 C 
ATOM     10  O   UNL     1      22.512  -6.952  37.971  1.00  0.00    -0.550 OA
ATOM     11  O   UNL     1      20.692  -5.630  38.406  1.00  0.00    -0.550 OA
ENDBRANCH   8   9
ENDBRANCH   7   8
ENDBRANCH   6   7
ENDBRANCH   5   6
ENDBRANCH   4   5
ENDBRANCH   3   4
ENDBRANCH   2   3
ENDBRANCH   1   2
BRANCH   1  12
ATOM     12  C   UNL     1      22.286  -5.236  33.472  1.00  0.00     0.000 C 
BRANCH  12  13
ATOM     13  C   UNL     1      22.492  -6.403  32.485  1.00  0.00    -0.000 C 
BRANCH  13  14
ATOM     14  C   UNL     1      21.934  -6.167  31.067  1.00  0.00    -0.000 C 
BRANCH  14  15
ATOM     15  C   UNL     1      20.697  -5.255  30.998  1.00  0.00    -0.000 C 
BRANCH  15  16
ATOM     16  C   UNL     1      19.377  -6.038  30.976  1.00  0.00    -0.000 C 
BRANCH  16  17
ATOM     17  C   UNL     1      18.415  -5.526  32.059  1.00  0.00    -0.000 C 
BRANCH  17  18
ATOM     18  C   UNL     1      18.142  -6.573  33.151  1.00  0.00    -0.000 C 
BRANCH  18  19
ATOM     19  C   UNL     1      18.845  -7.911  32.876  1.00  0.00    -0.003 C 
ATOM     20  C   UNL     1      17.830  -9.033  32.679  1.00  0.00     0.004 C 
ENDBRANCH  18  19
ENDBRANCH  17  18
ENDBRANCH  16  17
ENDBRANCH  15  16
ENDBRANCH  14  15
ENDBRANCH  13  14
ENDBRANCH  12  13
ENDBRANCH   1  12
TORSDOF 16
ENDMDL
MODEL 7
REMARK VINA RESULT:    -4.598      3.330      5.792
REMARK INTER + INTRA:         -11.627
REMARK INTER:                  -8.821
REMARK INTRA:                  -2.806
REMARK UNBOUND:                -2.728
REMARK SMILES CCCCCCCCCCCCCCCCCC(=O)[O-]
REMARK SMILES IDX 10 1 11 2 12 3 13 4 14 5 15 6 16 7 17 8 18 9 19 10 20 11
REMARK SMILES IDX 9 12 8 13 7 14 6 15 5 16 4 17 3 18 2 19 1 20
REMARK H PARENT
REMARK Flexibility Score: inf
ROOT
ATOM      1  C   UNL     1      22.387  -0.938  37.158  1.00  0.00     0.000 C 
ENDROOT
BRANCH   1   2
ATOM      2  C   UNL     1      22.945  -2.354  37.398  1.00  0.00     0.000 C 
BRANCH   2   3
ATOM      3  C   UNL     1      23.375  -3.104  36.123  1.00  0.00     0.000 C 
BRANCH   3   4
ATOM      4  C   UNL     1      22.579  -4.402  35.869  1.00  0.00     0.000 C 
BRANCH   4   5
ATOM      5  C   UNL     1      21.288  -4.471  36.704  1.00  0.00     0.000 C 
BRANCH   5   6
ATOM      6  C   UNL     1      21.206  -5.735  37.578  1.00  0.00     0.000 C 
BRANCH   6   7
ATOM      7  C   UNL     1      22.516  -6.540  37.688  1.00  0.00     0.006 C 
BRANCH   7   8
ATOM      8  C   UNL     1      23.122  -6.584  39.100  1.00  0.00     0.053 C 
BRANCH   8   9
ATOM      9  C   UNL     1      24.302  -5.671  39.232  1.00  0.00     0.041 C 
ATOM     10  O   UNL     1      24.585  -5.160  40.348  1.00  0.00    -0.550 OA
ATOM     11  O   UNL     1      25.108  -5.409  38.131  1.00  0.00    -0.550 OA
ENDBRANCH   8   9
ENDBRANCH   7   8
ENDBRANCH   6   7
ENDBRANCH   5   6
ENDBRANCH   4   5
ENDBRANCH   3   4
ENDBRANCH   2   3
ENDBRANCH   1   2
BRANCH   1  12
ATOM     12  C   UNL     1      22.640  -0.369  35.747  1.00  0.00     0.000 C 
BRANCH  12  13
ATOM     13  C   UNL     1      21.448  -0.476  34.775  1.00  0.00    -0.000 C 
BRANCH  13  14
ATOM     14  C   UNL     1      20.157  -1.056  35.385  1.00  0.00    -0.000 C 
BRANCH  14  15
ATOM     15  C   UNL     1      19.473  -2.147  34.542  1.00  0.00    -0.000 C 
BRANCH  15  16
ATOM     16  C   UNL     1      20.337  -2.623  33.365  1.00  0.00    -0.000 C 
BRANCH  16  17
ATOM     17  C   UNL     1      19.775  -3.918  32.758  1.00  0.00    -0.000 C 
BRANCH  17  18
ATOM     18  C   UNL     1      20.811  -5.053  32.722  1.00  0.00    -0.000 C 
BRANCH  18  19
ATOM     19  C   UNL     1      20.230  -6.398  33.181  1.00  0.00    -0.003 C 
ATOM     20  C   UNL     1      21.292  -7.247  33.873  1.00  0.00     0.004 C 
ENDBRANCH  18  19
ENDBRANCH  17  18
ENDBRANCH  16  17
ENDBRANCH  15  16
ENDBRANCH  14  15
ENDBRANCH  13  14
ENDBRANCH  12  13
ENDBRANCH   1  12
TORSDOF 16
ENDMDL
MODEL 8
REMARK VINA RESULT:    -4.570      3.173      6.650
REMARK INTER + INTRA:         -11.573
REMARK INTER:                  -9.039
REMARK INTRA:                  -2.534
REMARK UNBOUND:                -2.728
REMARK SMILES CCCCCCCCCCCCCCCCCC(=O)[O-]
REMARK SMILES IDX 10 1 11 2 12 3 13 4 14 5 15 6 16 7 17 8 18 9 19 10 20 11
REMARK SMILES IDX 9 12 8 13 7 14 6 15 5 16 4 17 3 18 2 19 1 20
REMARK H PARENT
REMARK Flexibility Score: inf
ROOT
ATOM      1  C   UNL     1      20.932  -5.283  34.486  1.00  0.00     0.000 C 
ENDROOT
BRANCH   1   2
ATOM      2  C   UNL     1      22.207  -5.243  33.623  1.00  0.00     0.000 C 
BRANCH   2   3
ATOM      3  C   UNL     1      22.289  -6.335  32.540  1.00  0.00     0.000 C 
BRANCH   3   4
ATOM      4  C   UNL     1      22.259  -5.782  31.099  1.00  0.00     0.000 C 
BRANCH   4   5
ATOM      5  C   UNL     1      21.116  -6.384  30.263  1.00  0.00     0.000 C 
BRANCH   5   6
ATOM      6  C   UNL     1      19.722  -5.998  30.789  1.00  0.00     0.000 C 
BRANCH   6   7
ATOM      7  C   UNL     1      18.943  -7.138  31.475  1.00  0.00     0.006 C 
BRANCH   7   8
ATOM      8  C   UNL     1      17.726  -6.678  32.293  1.00  0.00     0.053 C 
BRANCH   8   9
ATOM      9  C   UNL     1      17.582  -7.454  33.567  1.00  0.00     0.041 C 
ATOM     10  O   UNL     1      17.733  -8.704  33.567  1.00  0.00    -0.550 OA
ATOM     11  O   UNL     1      17.312  -6.793  34.758  1.00  0.00    -0.550 OA
ENDBRANCH   8   9
ENDBRANCH   7   8
ENDBRANCH   6   7
ENDBRANCH   5   6
ENDBRANCH   4   5
ENDBRANCH   3   4
ENDBRANCH   2   3
ENDBRANCH   1   2
BRANCH   1  12
ATOM     12  C   UNL     1      19.858  -4.242  34.109  1.00  0.00     0.000 C 
BRANCH  12  13
ATOM     13  C   UNL     1      20.401  -2.932  33.503  1.00  0.00    -0.000 C 
BRANCH  13  14
ATOM     14  C   UNL     1      20.232  -1.682  34.388  1.00  0.00    -0.000 C 
BRANCH  14  15
ATOM     15  C   UNL     1      21.009  -1.715  35.716  1.00  0.00    -0.000 C 
BRANCH  15  16
ATOM     16  C   UNL     1      22.513  -1.462  35.536  1.00  0.00    -0.000 C 
BRANCH  16  17
ATOM     17  C   UNL     1      23.331  -2.691  35.960  1.00  0.00    -0.000 C 
BRANCH  17  18
ATOM     18  C   UNL     1      23.108  -3.072  37.432  1.00  0.00    -0.000 C 
BRANCH  18  19
ATOM     19  C   UNL     1      22.785  -4.562  37.615  1.00  0.00    -0.003 C 
ATOM     20  C   UNL     1      24.039  -5.418  37.467  1.00  0.00     0.004 C 
ENDBRANCH  18  19
ENDBRANCH  17  18
ENDBRANCH  16  17
ENDBRANCH  15  16
ENDBRANCH  14  15
ENDBRANCH  13  14
ENDBRANCH  12  13
ENDBRANCH   1  12
TORSDOF 16
ENDMDL
MODEL 9
REMARK VINA RESULT:    -4.529      3.740      5.425
REMARK INTER + INTRA:         -11.493
REMARK INTER:                  -9.209
REMARK INTRA:                  -2.284
REMARK UNBOUND:                -2.728
REMARK SMILES CCCCCCCCCCCCCCCCCC(=O)[O-]
REMARK SMILES IDX 10 1 11 2 12 3 13 4 14 5 15 6 16 7 17 8 18 9 19 10 20 11
REMARK SMILES IDX 9 12 8 13 7 14 6 15 5 16 4 17 3 18 2 19 1 20
REMARK H PARENT
REMARK Flexibility Score: inf
ROOT
ATOM      1  C   UNL     1      21.232  -5.363  34.907  1.00  0.00     0.000 C 
ENDROOT
BRANCH   1   2
ATOM      2  C   UNL     1      21.131  -4.015  35.647  1.00  0.00     0.000 C 
BRANCH   2   3
ATOM      3  C   UNL     1      22.068  -2.914  35.116  1.00  0.00     0.000 C 
BRANCH   3   4
ATOM      4  C   UNL     1      23.372  -2.766  35.929  1.00  0.00     0.000 C 
BRANCH   4   5
ATOM      5  C   UNL     1      23.182  -3.122  37.414  1.00  0.00     0.000 C 
BRANCH   5   6
ATOM      6  C   UNL     1      23.827  -4.466  37.795  1.00  0.00     0.000 C 
BRANCH   6   7
ATOM      7  C   UNL     1      23.041  -5.299  38.827  1.00  0.00     0.006 C 
BRANCH   7   8
ATOM      8  C   UNL     1      22.487  -6.627  38.286  1.00  0.00     0.053 C 
BRANCH   8   9
ATOM      9  C   UNL     1      23.030  -7.807  39.032  1.00  0.00     0.041 C 
ATOM     10  O   UNL     1      22.615  -8.967  38.772  1.00  0.00    -0.550 OA
ATOM     11  O   UNL     1      24.019  -7.629  39.992  1.00  0.00    -0.550 OA
ENDBRANCH   8   9
ENDBRANCH   7   8
ENDBRANCH   6   7
ENDBRANCH   5   6
ENDBRANCH   4   5
ENDBRANCH   3   4
ENDBRANCH   2   3
ENDBRANCH   1   2
BRANCH   1  12
ATOM     12  C   UNL     1      22.146  -5.356  33.664  1.00  0.00     0.000 C 
BRANCH  12  13
ATOM     13  C   UNL     1      21.842  -6.451  32.623  1.00  0.00    -0.000 C 
BRANCH  13  14
ATOM     14  C   UNL     1      22.250  -6.110  31.176  1.00  0.00    -0.000 C 
BRANCH  14  15
ATOM     15  C   UNL     1      21.097  -5.658  30.264  1.00  0.00    -0.000 C 
BRANCH  15  16
ATOM     16  C   UNL     1      19.713  -6.007  30.832  1.00  0.00    -0.000 C 
BRANCH  16  17
ATOM     17  C   UNL     1      18.852  -4.745  30.997  1.00  0.00    -0.000 C 
BRANCH  17  18
ATOM     18  C   UNL     1      19.684  -3.503  31.354  1.00  0.00    -0.000 C 
BRANCH  18  19
ATOM     19  C   UNL     1      19.229  -2.844  32.664  1.00  0.00    -0.003 C 
ATOM     20  C   UNL     1      18.184  -3.699  33.375  1.00  0.00     0.004 C 
ENDBRANCH  18  19
ENDBRANCH  17  18
ENDBRANCH  16  17
ENDBRANCH  15  16
ENDBRANCH  14  15
ENDBRANCH  13  14
ENDBRANCH  12  13
ENDBRANCH   1  12
TORSDOF 16
ENDMDL
