MODEL 1
REMARK VINA RESULT:    -3.523      0.000      0.000
REMARK INTER + INTRA:          -8.422
REMARK INTER:                  -6.407
REMARK INTRA:                  -2.015
REMARK UNBOUND:                -2.015
REMARK SMILES CCCCCCCCCCCCCCCC(=O)[O-]
REMARK SMILES IDX 9 1 10 2 11 3 12 4 13 5 14 6 15 7 16 8 17 9 18 10 8 11 7 12
REMARK SMILES IDX 6 13 5 14 4 15 3 16 2 17 1 18
REMARK H PARENT
REMARK Flexibility Score: inf
ROOT
ATOM      1  C   UNL     1       6.731  -7.573   6.843  1.00  0.00     0.000 C 
ENDROOT
BRANCH   1   2
ATOM      2  C   UNL     1       7.640  -8.813   6.782  1.00  0.00     0.000 C 
BRANCH   2   3
ATOM      3  C   UNL     1       7.063 -10.018   7.541  1.00  0.00     0.000 C 
BRANCH   3   4
ATOM      4  C   UNL     1       5.599 -10.260   7.156  1.00  0.00     0.000 C 
BRANCH   4   5
ATOM      5  C   UNL     1       5.483 -10.716   5.694  1.00  0.00     0.000 C 
BRANCH   5   6
ATOM      6  C   UNL     1       4.438  -9.912   4.899  1.00  0.00     0.006 C 
BRANCH   6   7
ATOM      7  C   UNL     1       4.813  -9.669   3.428  1.00  0.00     0.053 C 
BRANCH   7   8
ATOM      8  C   UNL     1       3.604  -9.526   2.555  1.00  0.00     0.041 C 
ATOM      9  O   UNL     1       2.865 -10.521   2.330  1.00  0.00    -0.550 OA
ATOM     10  O   UNL     1       3.314  -8.304   1.963  1.00  0.00    -0.550 OA
ENDBRANCH   7   8
ENDBRANCH   6   7
ENDBRANCH   5   6
ENDBRANCH   4   5
ENDBRANCH   3   4
ENDBRANCH   2   3
ENDBRANCH   1   2
BRANCH   1  11
ATOM     11  C   UNL     1       7.128  -6.526   7.900  1.00  0.00     0.000 C 
BRANCH  11  12
ATOM     12  C   UNL     1       6.714  -6.925   9.324  1.00  0.00    -0.000 C 
BRANCH  12  13
ATOM     13  C   UNL     1       5.184  -6.922   9.470  1.00  0.00    -0.000 C 
BRANCH  13  14
ATOM     14  C   UNL     1       4.639  -8.241  10.041  1.00  0.00    -0.000 C 
BRANCH  14  15
ATOM     15  C   UNL     1       3.147  -8.448   9.729  1.00  0.00    -0.000 C 
BRANCH  15  16
ATOM     16  C   UNL     1       2.813  -8.194   8.249  1.00  0.00    -0.000 C 
BRANCH  16  17
ATOM     17  C   UNL     1       1.874  -9.258   7.662  1.00  0.00    -0.003 C 
ATOM     18  C   UNL     1       2.190 -10.641   8.227  1.00  0.00     0.004 C 
ENDBRANCH  16  17
ENDBRANCH  15  16
ENDBRANCH  14  15
ENDBRANCH  13  14
ENDBRANCH  12  13
ENDBRANCH  11  12
ENDBRANCH   1  11
TORSDOF 14
ENDMDL
MODEL 2
REMARK VINA RESULT:    -3.501      1.691      4.034
REMARK INTER + INTRA:          -8.381
REMARK INTER:                  -6.163
REMARK INTRA:                  -2.218
REMARK UNBOUND:                -2.015
REMARK SMILES CCCCCCCCCCCCCCCC(=O)[O-]
REMARK SMILES IDX 9 1 10 2 11 3 12 4 13 5 14 6 15 7 16 8 17 9 18 10 8 11 7 12
REMARK SMILES IDX 6 13 5 14 4 15 3 16 2 17 1 18
REMARK H PARENT
REMARK Flexibility Score: inf
ROOT
ATOM      1  C   UNL     1       5.806  -7.776   6.955  1.00  0.00     0.000 C 
ENDROOT
BRANCH   1   2
ATOM      2  C   UNL     1       5.461  -8.601   8.207  1.00  0.00     0.000 C 
BRANCH   2   3
ATOM      3  C   UNL     1       4.072  -9.253   8.132  1.00  0.00     0.000 C 
BRANCH   3   4
ATOM      4  C   UNL     1       3.768  -9.737   6.710  1.00  0.00     0.000 C 
BRANCH   4   5
ATOM      5  C   UNL     1       4.605 -10.975   6.359  1.00  0.00     0.000 C 
BRANCH   5   6
ATOM      6  C   UNL     1       4.879 -11.103   4.849  1.00  0.00     0.006 C 
BRANCH   6   7
ATOM      7  C   UNL     1       3.759 -10.549   3.954  1.00  0.00     0.053 C 
BRANCH   7   8
ATOM      8  C   UNL     1       4.261  -9.501   3.009  1.00  0.00     0.041 C 
ATOM      9  O   UNL     1       5.350  -8.911   3.237  1.00  0.00    -0.550 OA
ATOM     10  O   UNL     1       3.510  -9.151   1.895  1.00  0.00    -0.550 OA
ENDBRANCH   7   8
ENDBRANCH   6   7
ENDBRANCH   5   6
ENDBRANCH   4   5
ENDBRANCH   3   4
ENDBRANCH   2   3
ENDBRANCH   1   2
BRANCH   1  11
ATOM     11  C   UNL     1       7.122  -8.169   6.258  1.00  0.00     0.000 C 
BRANCH  11  12
ATOM     12  C   UNL     1       7.922  -9.223   7.038  1.00  0.00    -0.000 C 
BRANCH  12  13
ATOM     13  C   UNL     1       9.280  -8.660   7.485  1.00  0.00    -0.000 C 
BRANCH  13  14
ATOM     14  C   UNL     1       9.372  -8.468   9.007  1.00  0.00    -0.000 C 
BRANCH  14  15
ATOM     15  C   UNL     1       8.835  -7.100   9.463  1.00  0.00    -0.000 C 
BRANCH  15  16
ATOM     16  C   UNL     1       9.239  -5.961   8.512  1.00  0.00    -0.000 C 
BRANCH  16  17
ATOM     17  C   UNL     1       8.077  -5.004   8.207  1.00  0.00    -0.003 C 
ATOM     18  C   UNL     1       6.941  -5.183   9.210  1.00  0.00     0.004 C 
ENDBRANCH  16  17
ENDBRANCH  15  16
ENDBRANCH  14  15
ENDBRANCH  13  14
ENDBRANCH  12  13
ENDBRANCH  11  12
ENDBRANCH   1  11
TORSDOF 14
ENDMDL
MODEL 3
REMARK VINA RESULT:    -3.269      3.168      5.660
REMARK INTER + INTRA:          -7.959
REMARK INTER:                  -6.330
REMARK INTRA:                  -1.629
REMARK UNBOUND:                -2.015
REMARK SMILES CCCCCCCCCCCCCCCC(=O)[O-]
REMARK SMILES IDX 9 1 10 2 11 3 12 4 13 5 14 6 15 7 16 8 17 9 18 10 8 11 7 12
REMARK SMILES IDX 6 13 5 14 4 15 3 16 2 17 1 18
REMARK H PARENT
REMARK Flexibility Score: inf
ROOT
ATOM      1  C   UNL     1       5.212  -9.513   3.598  1.00  0.00     0.000 C 
ENDROOT
BRANCH   1   2
ATOM      2  C   UNL     1       4.205  -9.924   4.688  1.00  0.00     0.000 C 
BRANCH   2   3
ATOM      3  C   UNL     1       4.791 -10.918   5.702  1.00  0.00     0.000 C 
BRANCH   3   4
ATOM      4  C   UNL     1       4.447 -10.506   7.138  1.00  0.00     0.000 C 
BRANCH   4   5
ATOM      5  C   UNL     1       3.394  -9.388   7.152  1.00  0.00     0.000 C 
BRANCH   5   6
ATOM      6  C   UNL     1       3.492  -8.490   8.398  1.00  0.00     0.006 C 
BRANCH   6   7
ATOM      7  C   UNL     1       2.204  -7.719   8.725  1.00  0.00     0.053 C 
BRANCH   7   8
ATOM      8  C   UNL     1       2.459  -6.560   9.640  1.00  0.00     0.041 C 
ATOM      9  O   UNL     1       1.507  -5.821  10.006  1.00  0.00    -0.550 OA
ATOM     10  O   UNL     1       3.752  -6.276  10.060  1.00  0.00    -0.550 OA
ENDBRANCH   7   8
ENDBRANCH   6   7
ENDBRANCH   5   6
ENDBRANCH   4   5
ENDBRANCH   3   4
ENDBRANCH   2   3
ENDBRANCH   1   2
BRANCH   1  11
ATOM     11  C   UNL     1       5.831  -8.114   3.778  1.00  0.00     0.000 C 
BRANCH  11  12
ATOM     12  C   UNL     1       6.939  -8.081   4.841  1.00  0.00    -0.000 C 
BRANCH  12  13
ATOM     13  C   UNL     1       6.402  -7.539   6.175  1.00  0.00    -0.000 C 
BRANCH  13  14
ATOM     14  C   UNL     1       7.424  -7.655   7.318  1.00  0.00    -0.000 C 
BRANCH  14  15
ATOM     15  C   UNL     1       6.890  -7.093   8.646  1.00  0.00    -0.000 C 
BRANCH  15  16
ATOM     16  C   UNL     1       7.076  -5.571   8.760  1.00  0.00    -0.000 C 
BRANCH  16  17
ATOM     17  C   UNL     1       8.341  -5.073   8.044  1.00  0.00    -0.003 C 
ATOM     18  C   UNL     1       9.576  -5.256   8.921  1.00  0.00     0.004 C 
ENDBRANCH  16  17
ENDBRANCH  15  16
ENDBRANCH  14  15
ENDBRANCH  13  14
ENDBRANCH  12  13
ENDBRANCH  11  12
ENDBRANCH   1  11
TORSDOF 14
ENDMDL
MODEL 4
REMARK VINA RESULT:    -3.269     15.698     18.253
REMARK INTER + INTRA:          -7.959
REMARK INTER:                  -6.233
REMARK INTRA:                  -1.726
REMARK UNBOUND:                -2.015
REMARK SMILES CCCCCCCCCCCCCCCC(=O)[O-]
REMARK SMILES IDX 9 1 10 2 11 3 12 4 13 5 14 6 15 7 16 8 17 9 18 10 8 11 7 12
REMARK SMILES IDX 6 13 5 14 4 15 3 16 2 17 1 18
REMARK H PARENT
REMARK Flexibility Score: inf
ROOT
ATOM      1  C   UNL     1      -5.262  -8.768  -7.089  1.00  0.00     0.000 C 
ENDROOT
BRANCH   1   2
ATOM      2  C   UNL     1      -5.336 -10.076  -7.896  1.00  0.00     0.000 C 
BRANCH   2   3
ATOM      3  C   UNL     1      -6.628 -10.203  -8.717  1.00  0.00     0.000 C 
BRANCH   3   4
ATOM      4  C   UNL     1      -7.054  -8.844  -9.286  1.00  0.00     0.000 C 
BRANCH   4   5
ATOM      5  C   UNL     1      -8.556  -8.605  -9.075  1.00  0.00     0.000 C 
BRANCH   5   6
ATOM      6  C   UNL     1      -8.916  -7.111  -8.981  1.00  0.00     0.006 C 
BRANCH   6   7
ATOM      7  C   UNL     1      -7.718  -6.161  -9.138  1.00  0.00     0.053 C 
BRANCH   7   8
ATOM      8  C   UNL     1      -7.445  -5.388  -7.884  1.00  0.00     0.041 C 
ATOM      9  O   UNL     1      -6.283  -5.357  -7.400  1.00  0.00    -0.550 OA
ATOM     10  O   UNL     1      -8.481  -4.731  -7.232  1.00  0.00    -0.550 OA
ENDBRANCH   7   8
ENDBRANCH   6   7
ENDBRANCH   5   6
ENDBRANCH   4   5
ENDBRANCH   3   4
ENDBRANCH   2   3
ENDBRANCH   1   2
BRANCH   1  11
ATOM     11  C   UNL     1      -6.284  -8.651  -5.943  1.00  0.00     0.000 C 
BRANCH  11  12
ATOM     12  C   UNL     1      -6.127  -9.752  -4.885  1.00  0.00    -0.000 C 
BRANCH  12  13
ATOM     13  C   UNL     1      -6.466  -9.218  -3.484  1.00  0.00    -0.000 C 
BRANCH  13  14
ATOM     14  C   UNL     1      -7.198 -10.253  -2.615  1.00  0.00    -0.000 C 
BRANCH  14  15
ATOM     15  C   UNL     1      -8.676  -9.893  -2.386  1.00  0.00    -0.000 C 
BRANCH  15  16
ATOM     16  C   UNL     1      -9.504  -9.948  -3.681  1.00  0.00    -0.000 C 
BRANCH  16  17
ATOM     17  C   UNL     1     -10.124  -8.592  -4.046  1.00  0.00    -0.003 C 
ATOM     18  C   UNL     1      -9.928  -8.279  -5.527  1.00  0.00     0.004 C 
ENDBRANCH  16  17
ENDBRANCH  15  16
ENDBRANCH  14  15
ENDBRANCH  13  14
ENDBRANCH  12  13
ENDBRANCH  11  12
ENDBRANCH   1  11
TORSDOF 14
ENDMDL
MODEL 5
REMARK VINA RESULT:    -3.216      3.291      5.529
REMARK INTER + INTRA:          -7.863
REMARK INTER:                  -6.061
REMARK INTRA:                  -1.802
REMARK UNBOUND:                -2.015
REMARK SMILES CCCCCCCCCCCCCCCC(=O)[O-]
REMARK SMILES IDX 9 1 10 2 11 3 12 4 13 5 14 6 15 7 16 8 17 9 18 10 8 11 7 12
REMARK SMILES IDX 6 13 5 14 4 15 3 16 2 17 1 18
REMARK H PARENT
REMARK Flexibility Score: inf
ROOT
ATOM      1  C   UNL     1       6.724  -7.833   6.016  1.00  0.00     0.000 C 
ENDROOT
BRANCH   1   2
ATOM      2  C   UNL     1       7.913  -8.550   6.680  1.00  0.00     0.000 C 
BRANCH   2   3
ATOM      3  C   UNL     1       7.541  -9.226   8.007  1.00  0.00     0.000 C 
BRANCH   3   4
ATOM      4  C   UNL     1       8.489  -8.793   9.131  1.00  0.00     0.000 C 
BRANCH   4   5
ATOM      5  C   UNL     1       9.557  -7.822   8.606  1.00  0.00     0.000 C 
BRANCH   5   6
ATOM      6  C   UNL     1       9.483  -6.435   9.270  1.00  0.00     0.006 C 
BRANCH   6   7
ATOM      7  C   UNL     1       9.219  -5.280   8.293  1.00  0.00     0.053 C 
BRANCH   7   8
ATOM      8  C   UNL     1       7.818  -4.758   8.404  1.00  0.00     0.041 C 
ATOM      9  O   UNL     1       7.584  -3.533   8.229  1.00  0.00    -0.550 OA
ATOM     10  O   UNL     1       6.780  -5.618   8.734  1.00  0.00    -0.550 OA
ENDBRANCH   7   8
ENDBRANCH   6   7
ENDBRANCH   5   6
ENDBRANCH   4   5
ENDBRANCH   3   4
ENDBRANCH   2   3
ENDBRANCH   1   2
BRANCH   1  11
ATOM     11  C   UNL     1       6.681  -7.928   4.479  1.00  0.00     0.000 C 
BRANCH  11  12
ATOM     12  C   UNL     1       5.556  -8.840   3.967  1.00  0.00    -0.000 C 
BRANCH  12  13
ATOM     13  C   UNL     1       5.157  -9.870   5.035  1.00  0.00    -0.000 C 
BRANCH  13  14
ATOM     14  C   UNL     1       3.659 -10.216   4.997  1.00  0.00    -0.000 C 
BRANCH  14  15
ATOM     15  C   UNL     1       2.970 -10.010   6.356  1.00  0.00    -0.000 C 
BRANCH  15  16
ATOM     16  C   UNL     1       3.976  -9.818   7.504  1.00  0.00    -0.000 C 
BRANCH  16  17
ATOM     17  C   UNL     1       3.803  -8.473   8.224  1.00  0.00    -0.003 C 
ATOM     18  C   UNL     1       2.327  -8.107   8.357  1.00  0.00     0.004 C 
ENDBRANCH  16  17
ENDBRANCH  15  16
ENDBRANCH  14  15
ENDBRANCH  13  14
ENDBRANCH  12  13
ENDBRANCH  11  12
ENDBRANCH   1  11
TORSDOF 14
ENDMDL
MODEL 6
REMARK VINA RESULT:    -3.199      3.107      5.498
REMARK INTER + INTRA:          -7.832
REMARK INTER:                  -6.190
REMARK INTRA:                  -1.642
REMARK UNBOUND:                -2.015
REMARK SMILES CCCCCCCCCCCCCCCC(=O)[O-]
REMARK SMILES IDX 9 1 10 2 11 3 12 4 13 5 14 6 15 7 16 8 17 9 18 10 8 11 7 12
REMARK SMILES IDX 6 13 5 14 4 15 3 16 2 17 1 18
REMARK H PARENT
REMARK Flexibility Score: inf
ROOT
ATOM      1  C   UNL     1       6.369  -8.128   4.204  1.00  0.00     0.000 C 
ENDROOT
BRANCH   1   2
ATOM      2  C   UNL     1       5.090  -8.898   3.831  1.00  0.00     0.000 C 
BRANCH   2   3
ATOM      3  C   UNL     1       4.898 -10.178   4.659  1.00  0.00     0.000 C 
BRANCH   3   4
ATOM      4  C   UNL     1       3.544 -10.171   5.378  1.00  0.00     0.000 C 
BRANCH   4   5
ATOM      5  C   UNL     1       3.723  -9.941   6.886  1.00  0.00     0.000 C 
BRANCH   5   6
ATOM      6  C   UNL     1       2.587  -9.104   7.501  1.00  0.00     0.006 C 
BRANCH   6   7
ATOM      7  C   UNL     1       3.038  -8.149   8.618  1.00  0.00     0.053 C 
BRANCH   7   8
ATOM      8  C   UNL     1       1.881  -7.448   9.261  1.00  0.00     0.041 C 
ATOM      9  O   UNL     1       0.881  -8.105   9.654  1.00  0.00    -0.550 OA
ATOM     10  O   UNL     1       1.892  -6.065   9.394  1.00  0.00    -0.550 OA
ENDBRANCH   7   8
ENDBRANCH   6   7
ENDBRANCH   5   6
ENDBRANCH   4   5
ENDBRANCH   3   4
ENDBRANCH   2   3
ENDBRANCH   1   2
BRANCH   1  11
ATOM     11  C   UNL     1       6.966  -8.482   5.579  1.00  0.00     0.000 C 
BRANCH  11  12
ATOM     12  C   UNL     1       6.505  -7.533   6.695  1.00  0.00    -0.000 C 
BRANCH  12  13
ATOM     13  C   UNL     1       6.698  -8.179   8.076  1.00  0.00    -0.000 C 
BRANCH  13  14
ATOM     14  C   UNL     1       8.163  -8.544   8.362  1.00  0.00    -0.000 C 
BRANCH  14  15
ATOM     15  C   UNL     1       8.851  -7.539   9.301  1.00  0.00    -0.000 C 
BRANCH  15  16
ATOM     16  C   UNL     1       9.897  -6.676   8.577  1.00  0.00    -0.000 C 
BRANCH  16  17
ATOM     17  C   UNL     1       9.658  -5.170   8.768  1.00  0.00    -0.003 C 
ATOM     18  C   UNL     1       8.325  -4.745   8.160  1.00  0.00     0.004 C 
ENDBRANCH  16  17
ENDBRANCH  15  16
ENDBRANCH  14  15
ENDBRANCH  13  14
ENDBRANCH  12  13
ENDBRANCH  11  12
ENDBRANCH   1  11
TORSDOF 14
ENDMDL
MODEL 7
REMARK VINA RESULT:    -3.176      2.291      4.665
REMARK INTER + INTRA:          -7.790
REMARK INTER:                  -6.169
REMARK INTRA:                  -1.621
REMARK UNBOUND:                -2.015
REMARK SMILES CCCCCCCCCCCCCCCC(=O)[O-]
REMARK SMILES IDX 9 1 10 2 11 3 12 4 13 5 14 6 15 7 16 8 17 9 18 10 8 11 7 12
REMARK SMILES IDX 6 13 5 14 4 15 3 16 2 17 1 18
REMARK H PARENT
REMARK Flexibility Score: inf
ROOT
ATOM      1  C   UNL     1       6.429  -8.111   4.070  1.00  0.00     0.000 C 
ENDROOT
BRANCH   1   2
ATOM      2  C   UNL     1       5.173  -8.875   3.613  1.00  0.00     0.000 C 
BRANCH   2   3
ATOM      3  C   UNL     1       5.091 -10.295   4.195  1.00  0.00     0.000 C 
BRANCH   3   4
ATOM      4  C   UNL     1       3.677 -10.599   4.704  1.00  0.00     0.000 C 
BRANCH   4   5
ATOM      5  C   UNL     1       3.387  -9.842   6.008  1.00  0.00     0.000 C 
BRANCH   5   6
ATOM      6  C   UNL     1       2.462 -10.623   6.959  1.00  0.00     0.006 C 
BRANCH   6   7
ATOM      7  C   UNL     1       1.228  -9.838   7.428  1.00  0.00     0.053 C 
BRANCH   7   8
ATOM      8  C   UNL     1      -0.035 -10.350   6.806  1.00  0.00     0.041 C 
ATOM      9  O   UNL     1      -1.136 -10.209   7.401  1.00  0.00    -0.550 OA
ATOM     10  O   UNL     1       0.009 -11.013   5.587  1.00  0.00    -0.550 OA
ENDBRANCH   7   8
ENDBRANCH   6   7
ENDBRANCH   5   6
ENDBRANCH   4   5
ENDBRANCH   3   4
ENDBRANCH   2   3
ENDBRANCH   1   2
BRANCH   1  11
ATOM     11  C   UNL     1       6.530  -7.873   5.588  1.00  0.00     0.000 C 
BRANCH  11  12
ATOM     12  C   UNL     1       7.522  -8.820   6.279  1.00  0.00    -0.000 C 
BRANCH  12  13
ATOM     13  C   UNL     1       6.874  -9.499   7.496  1.00  0.00    -0.000 C 
BRANCH  13  14
ATOM     14  C   UNL     1       5.895  -8.577   8.240  1.00  0.00    -0.000 C 
BRANCH  14  15
ATOM     15  C   UNL     1       6.580  -7.759   9.347  1.00  0.00    -0.000 C 
BRANCH  15  16
ATOM     16  C   UNL     1       6.602  -6.252   9.040  1.00  0.00    -0.000 C 
BRANCH  16  17
ATOM     17  C   UNL     1       7.978  -5.764   8.564  1.00  0.00    -0.003 C 
ATOM     18  C   UNL     1       7.951  -4.272   8.246  1.00  0.00     0.004 C 
ENDBRANCH  16  17
ENDBRANCH  15  16
ENDBRANCH  14  15
ENDBRANCH  13  14
ENDBRANCH  12  13
ENDBRANCH  11  12
ENDBRANCH   1  11
TORSDOF 14
ENDMDL
MODEL 8
REMARK VINA RESULT:    -3.170      2.569      4.499
REMARK INTER + INTRA:          -7.780
REMARK INTER:                  -5.591
REMARK INTRA:                  -2.189
REMARK UNBOUND:                -2.015
REMARK SMILES CCCCCCCCCCCCCCCC(=O)[O-]
REMARK SMILES IDX 9 1 10 2 11 3 12 4 13 5 14 6 15 7 16 8 17 9 18 10 8 11 7 12
REMARK SMILES IDX 6 13 5 14 4 15 3 16 2 17 1 18
REMARK H PARENT
REMARK Flexibility Score: inf
ROOT
ATOM      1  C   UNL     1       6.626  -7.823   5.793  1.00  0.00     0.000 C 
ENDROOT
BRANCH   1   2
ATOM      2  C   UNL     1       6.561  -8.144   4.289  1.00  0.00     0.000 C 
BRANCH   2   3
ATOM      3  C   UNL     1       5.285  -8.901   3.892  1.00  0.00     0.000 C 
BRANCH   3   4
ATOM      4  C   UNL     1       5.080 -10.137   4.777  1.00  0.00     0.000 C 
BRANCH   4   5
ATOM      5  C   UNL     1       3.610 -10.275   5.197  1.00  0.00     0.000 C 
BRANCH   5   6
ATOM      6  C   UNL     1       3.425 -10.303   6.725  1.00  0.00     0.006 C 
BRANCH   6   7
ATOM      7  C   UNL     1       3.512  -8.925   7.398  1.00  0.00     0.053 C 
BRANCH   7   8
ATOM      8  C   UNL     1       2.257  -8.581   8.141  1.00  0.00     0.041 C 
ATOM      9  O   UNL     1       1.253  -9.338   8.072  1.00  0.00    -0.550 OA
ATOM     10  O   UNL     1       2.185  -7.407   8.880  1.00  0.00    -0.550 OA
ENDBRANCH   7   8
ENDBRANCH   6   7
ENDBRANCH   5   6
ENDBRANCH   4   5
ENDBRANCH   3   4
ENDBRANCH   2   3
ENDBRANCH   1   2
BRANCH   1  11
ATOM     11  C   UNL     1       7.733  -8.562   6.568  1.00  0.00     0.000 C 
BRANCH  11  12
ATOM     12  C   UNL     1       7.191  -9.387   7.746  1.00  0.00    -0.000 C 
BRANCH  12  13
ATOM     13  C   UNL     1       7.527  -8.714   9.086  1.00  0.00    -0.000 C 
BRANCH  13  14
ATOM     14  C   UNL     1       6.281  -8.194   9.819  1.00  0.00    -0.000 C 
BRANCH  14  15
ATOM     15  C   UNL     1       5.813  -6.827   9.293  1.00  0.00    -0.000 C 
BRANCH  15  16
ATOM     16  C   UNL     1       6.809  -5.699   9.612  1.00  0.00    -0.000 C 
BRANCH  16  17
ATOM     17  C   UNL     1       7.469  -5.118   8.353  1.00  0.00    -0.003 C 
ATOM     18  C   UNL     1       8.984  -5.294   8.396  1.00  0.00     0.004 C 
ENDBRANCH  16  17
ENDBRANCH  15  16
ENDBRANCH  14  15
ENDBRANCH  13  14
ENDBRANCH  12  13
ENDBRANCH  11  12
ENDBRANCH   1  11
TORSDOF 14
ENDMDL
MODEL 9
REMARK VINA RESULT:    -3.120     15.739     18.206
REMARK INTER + INTRA:          -7.688
REMARK INTER:                  -5.826
REMARK INTRA:                  -1.862
REMARK UNBOUND:                -2.015
REMARK SMILES CCCCCCCCCCCCCCCC(=O)[O-]
REMARK SMILES IDX 9 1 10 2 11 3 12 4 13 5 14 6 15 7 16 8 17 9 18 10 8 11 7 12
REMARK SMILES IDX 6 13 5 14 4 15 3 16 2 17 1 18
REMARK H PARENT
REMARK Flexibility Score: inf
ROOT
ATOM      1  C   UNL     1      -4.089  -9.251  -6.393  1.00  0.00     0.000 C 
ENDROOT
BRANCH   1   2
ATOM      2  C   UNL     1      -5.058 -10.039  -5.492  1.00  0.00     0.000 C 
BRANCH   2   3
ATOM      3  C   UNL     1      -6.225  -9.184  -4.976  1.00  0.00     0.000 C 
BRANCH   3   4
ATOM      4  C   UNL     1      -6.384  -9.330  -3.458  1.00  0.00     0.000 C 
BRANCH   4   5
ATOM      5  C   UNL     1      -7.483 -10.346  -3.115  1.00  0.00     0.000 C 
BRANCH   5   6
ATOM      6  C   UNL     1      -8.731  -9.691  -2.496  1.00  0.00     0.006 C 
BRANCH   6   7
ATOM      7  C   UNL     1      -9.994  -9.788  -3.366  1.00  0.00     0.053 C 
BRANCH   7   8
ATOM      8  C   UNL     1      -9.895  -8.941  -4.598  1.00  0.00     0.041 C 
ATOM      9  O   UNL     1      -9.861  -9.480  -5.736  1.00  0.00    -0.550 OA
ATOM     10  O   UNL     1      -9.804  -7.560  -4.488  1.00  0.00    -0.550 OA
ENDBRANCH   7   8
ENDBRANCH   6   7
ENDBRANCH   5   6
ENDBRANCH   4   5
ENDBRANCH   3   4
ENDBRANCH   2   3
ENDBRANCH   1   2
BRANCH   1  11
ATOM     11  C   UNL     1      -3.922  -9.814  -7.817  1.00  0.00     0.000 C 
BRANCH  11  12
ATOM     12  C   UNL     1      -5.054 -10.771  -8.220  1.00  0.00    -0.000 C 
BRANCH  12  13
ATOM     13  C   UNL     1      -6.014 -10.096  -9.213  1.00  0.00    -0.000 C 
BRANCH  13  14
ATOM     14  C   UNL     1      -7.417  -9.874  -8.625  1.00  0.00    -0.000 C 
BRANCH  14  15
ATOM     15  C   UNL     1      -7.965  -8.468  -8.920  1.00  0.00    -0.000 C 
BRANCH  15  16
ATOM     16  C   UNL     1      -7.796  -7.507  -7.731  1.00  0.00    -0.000 C 
BRANCH  16  17
ATOM     17  C   UNL     1      -6.526  -6.650  -7.837  1.00  0.00    -0.003 C 
ATOM     18  C   UNL     1      -6.871  -5.165  -7.905  1.00  0.00     0.004 C 
ENDBRANCH  16  17
ENDBRANCH  15  16
ENDBRANCH  14  15
ENDBRANCH  13  14
ENDBRANCH  12  13
ENDBRANCH  11  12
ENDBRANCH   1  11
TORSDOF 14
ENDMDL
