MODEL 1
REMARK VINA RESULT:    -4.040      0.000      0.000
REMARK INTER + INTRA:         -12.311
REMARK INTER:                  -8.763
REMARK INTRA:                  -3.548
REMARK UNBOUND:                -3.548
REMARK SMILES CCCCCCCCCCCCCCCCCCCCCC(=O)[O-]
REMARK SMILES IDX 12 1 11 2 10 3 9 4 8 5 7 6 6 7 5 8 4 9 3 10 2 11 1 12 13 13
REMARK SMILES IDX 14 14 15 15 16 16 17 17 18 18 19 19 20 20 21 21 22 22 23 23
REMARK SMILES IDX 24 24
REMARK H PARENT
REMARK Flexibility Score: inf
ROOT
ATOM      1  C   UNL     1      -5.178  -8.229 -14.816  1.00  0.00     0.000 C 
ENDROOT
BRANCH   1   2
ATOM      2  C   UNL     1      -5.480  -7.852 -16.276  1.00  0.00     0.000 C 
BRANCH   2   3
ATOM      3  C   UNL     1      -4.504  -6.811 -16.866  1.00  0.00     0.000 C 
BRANCH   3   4
ATOM      4  C   UNL     1      -3.601  -7.413 -17.957  1.00  0.00    -0.000 C 
BRANCH   4   5
ATOM      5  C   UNL     1      -2.150  -6.888 -17.877  1.00  0.00    -0.000 C 
BRANCH   5   6
ATOM      6  C   UNL     1      -1.090  -8.006 -17.836  1.00  0.00    -0.000 C 
BRANCH   6   7
ATOM      7  C   UNL     1      -0.540  -8.431 -19.211  1.00  0.00    -0.000 C 
BRANCH   7   8
ATOM      8  C   UNL     1      -0.620  -9.941 -19.504  1.00  0.00    -0.000 C 
BRANCH   8   9
ATOM      9  C   UNL     1      -1.558 -10.275 -20.674  1.00  0.00    -0.000 C 
BRANCH   9  10
ATOM     10  C   UNL     1      -2.506  -9.104 -20.967  1.00  0.00    -0.000 C 
BRANCH  10  11
ATOM     11  C   UNL     1      -2.304  -8.517 -22.372  1.00  0.00    -0.003 C 
ATOM     12  C   UNL     1      -1.922  -7.037 -22.347  1.00  0.00     0.004 C 
ENDBRANCH  10  11
ENDBRANCH   9  10
ENDBRANCH   8   9
ENDBRANCH   7   8
ENDBRANCH   6   7
ENDBRANCH   5   6
ENDBRANCH   4   5
ENDBRANCH   3   4
ENDBRANCH   2   3
ENDBRANCH   1   2
BRANCH   1  13
ATOM     13  C   UNL     1      -6.258  -9.126 -14.194  1.00  0.00     0.000 C 
BRANCH  13  14
ATOM     14  C   UNL     1      -5.842 -10.603 -14.244  1.00  0.00     0.000 C 
BRANCH  14  15
ATOM     15  C   UNL     1      -6.631 -11.414 -15.289  1.00  0.00     0.000 C 
BRANCH  15  16
ATOM     16  C   UNL     1      -5.781 -12.024 -16.420  1.00  0.00     0.000 C 
BRANCH  16  17
ATOM     17  C   UNL     1      -5.079 -11.002 -17.334  1.00  0.00     0.000 C 
BRANCH  17  18
ATOM     18  C   UNL     1      -3.723 -11.490 -17.889  1.00  0.00     0.000 C 
BRANCH  18  19
ATOM     19  C   UNL     1      -2.633 -11.568 -16.806  1.00  0.00     0.000 C 
BRANCH  19  20
ATOM     20  C   UNL     1      -2.571 -10.308 -15.922  1.00  0.00     0.006 C 
BRANCH  20  21
ATOM     21  C   UNL     1      -2.128 -10.584 -14.475  1.00  0.00     0.053 C 
BRANCH  21  22
ATOM     22  C   UNL     1      -1.422  -9.419 -13.854  1.00  0.00     0.041 C 
ATOM     23  O   UNL     1      -0.612  -9.597 -12.908  1.00  0.00    -0.550 OA
ATOM     24  O   UNL     1      -1.678  -8.129 -14.303  1.00  0.00    -0.550 OA
ENDBRANCH  21  22
ENDBRANCH  20  21
ENDBRANCH  19  20
ENDBRANCH  18  19
ENDBRANCH  17  18
ENDBRANCH  16  17
ENDBRANCH  15  16
ENDBRANCH  14  15
ENDBRANCH  13  14
ENDBRANCH   1  13
TORSDOF 20
ENDMDL
MODEL 2
REMARK VINA RESULT:    -3.944     15.506     18.421
REMARK INTER + INTRA:         -12.104
REMARK INTER:                  -8.755
REMARK INTRA:                  -3.349
REMARK UNBOUND:                -3.548
REMARK SMILES CCCCCCCCCCCCCCCCCCCCCC(=O)[O-]
REMARK SMILES IDX 12 1 11 2 10 3 9 4 8 5 7 6 6 7 5 8 4 9 3 10 2 11 1 12 13 13
REMARK SMILES IDX 14 14 15 15 16 16 17 17 18 18 19 19 20 20 21 21 22 22 23 23
REMARK SMILES IDX 24 24
REMARK H PARENT
REMARK Flexibility Score: inf
ROOT
ATOM      1  C   UNL     1     -15.618  -2.750 -18.356  1.00  0.00     0.000 C 
ENDROOT
BRANCH   1   2
ATOM      2  C   UNL     1     -15.489  -1.649 -17.288  1.00  0.00     0.000 C 
BRANCH   2   3
ATOM      3  C   UNL     1     -15.923  -2.096 -15.876  1.00  0.00     0.000 C 
BRANCH   3   4
ATOM      4  C   UNL     1     -17.024  -1.194 -15.291  1.00  0.00    -0.000 C 
BRANCH   4   5
ATOM      5  C   UNL     1     -17.931  -0.587 -16.385  1.00  0.00    -0.000 C 
BRANCH   5   6
ATOM      6  C   UNL     1     -19.100  -1.503 -16.796  1.00  0.00    -0.000 C 
BRANCH   6   7
ATOM      7  C   UNL     1     -19.577  -2.478 -15.703  1.00  0.00    -0.000 C 
BRANCH   7   8
ATOM      8  C   UNL     1     -19.789  -3.929 -16.176  1.00  0.00    -0.000 C 
BRANCH   8   9
ATOM      9  C   UNL     1     -18.816  -4.345 -17.288  1.00  0.00    -0.000 C 
BRANCH   9  10
ATOM     10  C   UNL     1     -17.894  -5.478 -16.813  1.00  0.00    -0.000 C 
BRANCH  10  11
ATOM     11  C   UNL     1     -17.794  -5.555 -15.282  1.00  0.00    -0.003 C 
ATOM     12  C   UNL     1     -16.351  -5.507 -14.779  1.00  0.00     0.004 C 
ENDBRANCH  10  11
ENDBRANCH   9  10
ENDBRANCH   8   9
ENDBRANCH   7   8
ENDBRANCH   6   7
ENDBRANCH   5   6
ENDBRANCH   4   5
ENDBRANCH   3   4
ENDBRANCH   2   3
ENDBRANCH   1   2
BRANCH   1  13
ATOM     13  C   UNL     1     -16.584  -2.374 -19.488  1.00  0.00     0.000 C 
BRANCH  13  14
ATOM     14  C   UNL     1     -16.430  -0.897 -19.876  1.00  0.00     0.000 C 
BRANCH  14  15
ATOM     15  C   UNL     1     -17.747  -0.264 -20.363  1.00  0.00     0.000 C 
BRANCH  15  16
ATOM     16  C   UNL     1     -18.970  -1.200 -20.340  1.00  0.00     0.000 C 
BRANCH  16  17
ATOM     17  C   UNL     1     -19.482  -1.642 -21.724  1.00  0.00     0.000 C 
BRANCH  17  18
ATOM     18  C   UNL     1     -18.548  -1.251 -22.889  1.00  0.00     0.000 C 
BRANCH  18  19
ATOM     19  C   UNL     1     -19.321  -0.864 -24.163  1.00  0.00     0.000 C 
BRANCH  19  20
ATOM     20  C   UNL     1     -19.810   0.596 -24.150  1.00  0.00     0.006 C 
BRANCH  20  21
ATOM     21  C   UNL     1     -18.826   1.577 -23.489  1.00  0.00     0.053 C 
BRANCH  21  22
ATOM     22  C   UNL     1     -18.629   2.826 -24.289  1.00  0.00     0.041 C 
ATOM     23  O   UNL     1     -17.477   3.170 -24.658  1.00  0.00    -0.550 OA
ATOM     24  O   UNL     1     -19.718   3.629 -24.607  1.00  0.00    -0.550 OA
ENDBRANCH  21  22
ENDBRANCH  20  21
ENDBRANCH  19  20
ENDBRANCH  18  19
ENDBRANCH  17  18
ENDBRANCH  16  17
ENDBRANCH  15  16
ENDBRANCH  14  15
ENDBRANCH  13  14
ENDBRANCH   1  13
TORSDOF 20
ENDMDL
MODEL 3
REMARK VINA RESULT:    -3.812      2.305      4.019
REMARK INTER + INTRA:         -11.818
REMARK INTER:                  -8.573
REMARK INTRA:                  -3.246
REMARK UNBOUND:                -3.548
REMARK SMILES CCCCCCCCCCCCCCCCCCCCCC(=O)[O-]
REMARK SMILES IDX 12 1 11 2 10 3 9 4 8 5 7 6 6 7 5 8 4 9 3 10 2 11 1 12 13 13
REMARK SMILES IDX 14 14 15 15 16 16 17 17 18 18 19 19 20 20 21 21 22 22 23 23
REMARK SMILES IDX 24 24
REMARK H PARENT
REMARK Flexibility Score: inf
ROOT
ATOM      1  C   UNL     1      -4.282  -7.302 -18.597  1.00  0.00     0.000 C 
ENDROOT
BRANCH   1   2
ATOM      2  C   UNL     1      -3.202  -8.083 -19.366  1.00  0.00     0.000 C 
BRANCH   2   3
ATOM      3  C   UNL     1      -2.492  -7.254 -20.458  1.00  0.00     0.000 C 
BRANCH   3   4
ATOM      4  C   UNL     1      -0.984  -7.552 -20.528  1.00  0.00    -0.000 C 
BRANCH   4   5
ATOM      5  C   UNL     1      -0.580  -8.757 -19.650  1.00  0.00    -0.000 C 
BRANCH   5   6
ATOM      6  C   UNL     1      -0.188 -10.008 -20.461  1.00  0.00    -0.000 C 
BRANCH   6   7
ATOM      7  C   UNL     1      -1.355 -10.705 -21.186  1.00  0.00    -0.000 C 
BRANCH   7   8
ATOM      8  C   UNL     1      -0.955 -11.508 -22.437  1.00  0.00    -0.000 C 
BRANCH   8   9
ATOM      9  C   UNL     1      -1.184 -10.735 -23.745  1.00  0.00    -0.000 C 
BRANCH   9  10
ATOM     10  C   UNL     1      -2.420  -9.830 -23.636  1.00  0.00    -0.000 C 
BRANCH  10  11
ATOM     11  C   UNL     1      -3.207  -9.744 -24.952  1.00  0.00    -0.003 C 
ATOM     12  C   UNL     1      -2.369 -10.132 -26.170  1.00  0.00     0.004 C 
ENDBRANCH  10  11
ENDBRANCH   9  10
ENDBRANCH   8   9
ENDBRANCH   7   8
ENDBRANCH   6   7
ENDBRANCH   5   6
ENDBRANCH   4   5
ENDBRANCH   3   4
ENDBRANCH   2   3
ENDBRANCH   1   2
BRANCH   1  13
ATOM     13  C   UNL     1      -3.819  -6.858 -17.202  1.00  0.00     0.000 C 
BRANCH  13  14
ATOM     14  C   UNL     1      -2.575  -7.640 -16.760  1.00  0.00     0.000 C 
BRANCH  14  15
ATOM     15  C   UNL     1      -2.701  -8.216 -15.336  1.00  0.00     0.000 C 
BRANCH  15  16
ATOM     16  C   UNL     1      -2.381  -9.717 -15.209  1.00  0.00     0.000 C 
BRANCH  16  17
ATOM     17  C   UNL     1      -2.199 -10.463 -16.544  1.00  0.00     0.000 C 
BRANCH  17  18
ATOM     18  C   UNL     1      -3.282 -11.529 -16.816  1.00  0.00     0.000 C 
BRANCH  18  19
ATOM     19  C   UNL     1      -4.262 -11.108 -17.925  1.00  0.00     0.000 C 
BRANCH  19  20
ATOM     20  C   UNL     1      -5.575 -10.519 -17.377  1.00  0.00     0.006 C 
BRANCH  20  21
ATOM     21  C   UNL     1      -5.889 -10.938 -15.931  1.00  0.00     0.053 C 
BRANCH  21  22
ATOM     22  C   UNL     1      -6.601  -9.869 -15.161  1.00  0.00     0.041 C 
ATOM     23  O   UNL     1      -7.599 -10.156 -14.450  1.00  0.00    -0.550 OA
ATOM     24  O   UNL     1      -6.179  -8.548 -15.248  1.00  0.00    -0.550 OA
ENDBRANCH  21  22
ENDBRANCH  20  21
ENDBRANCH  19  20
ENDBRANCH  18  19
ENDBRANCH  17  18
ENDBRANCH  16  17
ENDBRANCH  15  16
ENDBRANCH  14  15
ENDBRANCH  13  14
ENDBRANCH   1  13
TORSDOF 20
ENDMDL
MODEL 4
REMARK VINA RESULT:    -3.789     14.820     16.994
REMARK INTER + INTRA:         -11.768
REMARK INTER:                  -8.641
REMARK INTRA:                  -3.127
REMARK UNBOUND:                -3.548
REMARK SMILES CCCCCCCCCCCCCCCCCCCCCC(=O)[O-]
REMARK SMILES IDX 12 1 11 2 10 3 9 4 8 5 7 6 6 7 5 8 4 9 3 10 2 11 1 12 13 13
REMARK SMILES IDX 14 14 15 15 16 16 17 17 18 18 19 19 20 20 21 21 22 22 23 23
REMARK SMILES IDX 24 24
REMARK H PARENT
REMARK Flexibility Score: inf
ROOT
ATOM      1  C   UNL     1     -15.151  -1.628 -17.936  1.00  0.00     0.000 C 
ENDROOT
BRANCH   1   2
ATOM      2  C   UNL     1     -15.368  -2.137 -19.371  1.00  0.00     0.000 C 
BRANCH   2   3
ATOM      3  C   UNL     1     -16.836  -2.065 -19.843  1.00  0.00     0.000 C 
BRANCH   3   4
ATOM      4  C   UNL     1     -17.391  -0.630 -19.804  1.00  0.00    -0.000 C 
BRANCH   4   5
ATOM      5  C   UNL     1     -18.870  -0.558 -20.242  1.00  0.00    -0.000 C 
BRANCH   5   6
ATOM      6  C   UNL     1     -19.256  -1.618 -21.291  1.00  0.00    -0.000 C 
BRANCH   6   7
ATOM      7  C   UNL     1     -19.288  -1.112 -22.746  1.00  0.00    -0.000 C 
BRANCH   7   8
ATOM      8  C   UNL     1     -17.906  -0.855 -23.375  1.00  0.00    -0.000 C 
BRANCH   8   9
ATOM      9  C   UNL     1     -17.572   0.639 -23.497  1.00  0.00    -0.000 C 
BRANCH   9  10
ATOM     10  C   UNL     1     -18.830   1.499 -23.312  1.00  0.00    -0.000 C 
BRANCH  10  11
ATOM     11  C   UNL     1     -18.908   2.658 -24.317  1.00  0.00    -0.003 C 
ATOM     12  C   UNL     1     -18.176   3.911 -23.834  1.00  0.00     0.004 C 
ENDBRANCH  10  11
ENDBRANCH   9  10
ENDBRANCH   8   9
ENDBRANCH   7   8
ENDBRANCH   6   7
ENDBRANCH   5   6
ENDBRANCH   4   5
ENDBRANCH   3   4
ENDBRANCH   2   3
ENDBRANCH   1   2
BRANCH   1  13
ATOM     13  C   UNL     1     -15.579  -2.646 -16.869  1.00  0.00     0.000 C 
BRANCH  13  14
ATOM     14  C   UNL     1     -16.010  -1.939 -15.576  1.00  0.00     0.000 C 
BRANCH  14  15
ATOM     15  C   UNL     1     -17.190  -0.971 -15.785  1.00  0.00     0.000 C 
BRANCH  15  16
ATOM     16  C   UNL     1     -18.587  -1.599 -15.622  1.00  0.00     0.000 C 
BRANCH  16  17
ATOM     17  C   UNL     1     -19.508  -1.475 -16.850  1.00  0.00     0.000 C 
BRANCH  17  18
ATOM     18  C   UNL     1     -20.046  -2.827 -17.365  1.00  0.00     0.000 C 
BRANCH  18  19
ATOM     19  C   UNL     1     -18.930  -3.863 -17.588  1.00  0.00     0.000 C 
BRANCH  19  20
ATOM     20  C   UNL     1     -18.995  -5.041 -16.598  1.00  0.00     0.006 C 
BRANCH  20  21
ATOM     21  C   UNL     1     -17.658  -5.782 -16.425  1.00  0.00     0.053 C 
BRANCH  21  22
ATOM     22  C   UNL     1     -17.252  -5.915 -14.990  1.00  0.00     0.041 C 
ATOM     23  O   UNL     1     -17.979  -6.542 -14.179  1.00  0.00    -0.550 OA
ATOM     24  O   UNL     1     -16.078  -5.322 -14.541  1.00  0.00    -0.550 OA
ENDBRANCH  21  22
ENDBRANCH  20  21
ENDBRANCH  19  20
ENDBRANCH  18  19
ENDBRANCH  17  18
ENDBRANCH  16  17
ENDBRANCH  15  16
ENDBRANCH  14  15
ENDBRANCH  13  14
ENDBRANCH   1  13
TORSDOF 20
ENDMDL
MODEL 5
REMARK VINA RESULT:    -3.784     14.905     17.071
REMARK INTER + INTRA:         -11.757
REMARK INTER:                  -8.517
REMARK INTRA:                  -3.240
REMARK UNBOUND:                -3.548
REMARK SMILES CCCCCCCCCCCCCCCCCCCCCC(=O)[O-]
REMARK SMILES IDX 12 1 11 2 10 3 9 4 8 5 7 6 6 7 5 8 4 9 3 10 2 11 1 12 13 13
REMARK SMILES IDX 14 14 15 15 16 16 17 17 18 18 19 19 20 20 21 21 22 22 23 23
REMARK SMILES IDX 24 24
REMARK H PARENT
REMARK Flexibility Score: inf
ROOT
ATOM      1  C   UNL     1     -15.383  -2.377 -16.886  1.00  0.00     0.000 C 
ENDROOT
BRANCH   1   2
ATOM      2  C   UNL     1     -15.689  -1.616 -18.187  1.00  0.00     0.000 C 
BRANCH   2   3
ATOM      3  C   UNL     1     -15.584  -2.486 -19.458  1.00  0.00     0.000 C 
BRANCH   3   4
ATOM      4  C   UNL     1     -16.295  -1.846 -20.663  1.00  0.00    -0.000 C 
BRANCH   4   5
ATOM      5  C   UNL     1     -17.090  -0.580 -20.274  1.00  0.00    -0.000 C 
BRANCH   5   6
ATOM      6  C   UNL     1     -18.538  -0.574 -20.803  1.00  0.00    -0.000 C 
BRANCH   6   7
ATOM      7  C   UNL     1     -18.802  -1.524 -21.987  1.00  0.00    -0.000 C 
BRANCH   7   8
ATOM      8  C   UNL     1     -18.679  -0.877 -23.379  1.00  0.00    -0.000 C 
BRANCH   8   9
ATOM      9  C   UNL     1     -18.975   0.630 -23.367  1.00  0.00    -0.000 C 
BRANCH   9  10
ATOM     10  C   UNL     1     -17.735   1.434 -23.784  1.00  0.00    -0.000 C 
BRANCH  10  11
ATOM     11  C   UNL     1     -18.048   2.919 -24.025  1.00  0.00    -0.003 C 
ATOM     12  C   UNL     1     -19.520   3.169 -24.352  1.00  0.00     0.004 C 
ENDBRANCH  10  11
ENDBRANCH   9  10
ENDBRANCH   8   9
ENDBRANCH   7   8
ENDBRANCH   6   7
ENDBRANCH   5   6
ENDBRANCH   4   5
ENDBRANCH   3   4
ENDBRANCH   2   3
ENDBRANCH   1   2
BRANCH   1  13
ATOM     13  C   UNL     1     -15.708  -1.563 -15.625  1.00  0.00     0.000 C 
BRANCH  13  14
ATOM     14  C   UNL     1     -17.150  -1.817 -15.163  1.00  0.00     0.000 C 
BRANCH  14  15
ATOM     15  C   UNL     1     -17.998  -0.533 -15.109  1.00  0.00     0.000 C 
BRANCH  15  16
ATOM     16  C   UNL     1     -19.356  -0.616 -15.832  1.00  0.00     0.000 C 
BRANCH  16  17
ATOM     17  C   UNL     1     -19.276  -0.904 -17.343  1.00  0.00     0.000 C 
BRANCH  17  18
ATOM     18  C   UNL     1     -20.009  -2.194 -17.772  1.00  0.00     0.000 C 
BRANCH  18  19
ATOM     19  C   UNL     1     -19.040  -3.336 -18.126  1.00  0.00     0.000 C 
BRANCH  19  20
ATOM     20  C   UNL     1     -19.064  -4.486 -17.101  1.00  0.00     0.006 C 
BRANCH  20  21
ATOM     21  C   UNL     1     -17.687  -5.122 -16.848  1.00  0.00     0.053 C 
BRANCH  21  22
ATOM     22  C   UNL     1     -17.466  -5.469 -15.408  1.00  0.00     0.041 C 
ATOM     23  O   UNL     1     -16.299  -5.612 -14.961  1.00  0.00    -0.550 OA
ATOM     24  O   UNL     1     -18.552  -5.659 -14.563  1.00  0.00    -0.550 OA
ENDBRANCH  21  22
ENDBRANCH  20  21
ENDBRANCH  19  20
ENDBRANCH  18  19
ENDBRANCH  17  18
ENDBRANCH  16  17
ENDBRANCH  15  16
ENDBRANCH  14  15
ENDBRANCH  13  14
ENDBRANCH   1  13
TORSDOF 20
ENDMDL
MODEL 6
REMARK VINA RESULT:    -3.725     15.301     17.450
REMARK INTER + INTRA:         -11.628
REMARK INTER:                  -8.757
REMARK INTRA:                  -2.872
REMARK UNBOUND:                -3.548
REMARK SMILES CCCCCCCCCCCCCCCCCCCCCC(=O)[O-]
REMARK SMILES IDX 12 1 11 2 10 3 9 4 8 5 7 6 6 7 5 8 4 9 3 10 2 11 1 12 13 13
REMARK SMILES IDX 14 14 15 15 16 16 17 17 18 18 19 19 20 20 21 21 22 22 23 23
REMARK SMILES IDX 24 24
REMARK H PARENT
REMARK Flexibility Score: inf
ROOT
ATOM      1  C   UNL     1     -16.452  -1.821 -19.659  1.00  0.00     0.000 C 
ENDROOT
BRANCH   1   2
ATOM      2  C   UNL     1     -17.209  -0.499 -19.876  1.00  0.00     0.000 C 
BRANCH   2   3
ATOM      3  C   UNL     1     -18.745  -0.649 -19.853  1.00  0.00     0.000 C 
BRANCH   3   4
ATOM      4  C   UNL     1     -19.240  -1.728 -20.832  1.00  0.00    -0.000 C 
BRANCH   4   5
ATOM      5  C   UNL     1     -19.521  -1.161 -22.241  1.00  0.00    -0.000 C 
BRANCH   5   6
ATOM      6  C   UNL     1     -18.302  -1.215 -23.183  1.00  0.00    -0.000 C 
BRANCH   6   7
ATOM      7  C   UNL     1     -17.697   0.155 -23.544  1.00  0.00    -0.000 C 
BRANCH   7   8
ATOM      8  C   UNL     1     -18.477   1.370 -23.007  1.00  0.00    -0.000 C 
BRANCH   8   9
ATOM      9  C   UNL     1     -19.266   2.106 -24.101  1.00  0.00    -0.000 C 
BRANCH   9  10
ATOM     10  C   UNL     1     -19.088   3.626 -23.974  1.00  0.00    -0.000 C 
BRANCH  10  11
ATOM     11  C   UNL     1     -17.671   4.089 -24.345  1.00  0.00    -0.003 C 
ATOM     12  C   UNL     1     -17.655   5.452 -25.038  1.00  0.00     0.004 C 
ENDBRANCH  10  11
ENDBRANCH   9  10
ENDBRANCH   8   9
ENDBRANCH   7   8
ENDBRANCH   6   7
ENDBRANCH   5   6
ENDBRANCH   4   5
ENDBRANCH   3   4
ENDBRANCH   2   3
ENDBRANCH   1   2
BRANCH   1  13
ATOM     13  C   UNL     1     -15.272  -1.682 -18.687  1.00  0.00     0.000 C 
BRANCH  13  14
ATOM     14  C   UNL     1     -15.430  -2.630 -17.490  1.00  0.00     0.000 C 
BRANCH  14  15
ATOM     15  C   UNL     1     -15.779  -1.893 -16.183  1.00  0.00     0.000 C 
BRANCH  15  16
ATOM     16  C   UNL     1     -17.134  -1.161 -16.188  1.00  0.00     0.000 C 
BRANCH  16  17
ATOM     17  C   UNL     1     -18.287  -1.912 -15.497  1.00  0.00     0.000 C 
BRANCH  17  18
ATOM     18  C   UNL     1     -19.445  -2.287 -16.446  1.00  0.00     0.000 C 
BRANCH  18  19
ATOM     19  C   UNL     1     -19.037  -3.339 -17.492  1.00  0.00     0.000 C 
BRANCH  19  20
ATOM     20  C   UNL     1     -19.075  -4.778 -16.947  1.00  0.00     0.006 C 
BRANCH  20  21
ATOM     21  C   UNL     1     -17.684  -5.388 -16.702  1.00  0.00     0.053 C 
BRANCH  21  22
ATOM     22  C   UNL     1     -17.336  -5.469 -15.248  1.00  0.00     0.041 C 
ATOM     23  O   UNL     1     -16.178  -5.176 -14.855  1.00  0.00    -0.550 OA
ATOM     24  O   UNL     1     -18.286  -5.894 -14.326  1.00  0.00    -0.550 OA
ENDBRANCH  21  22
ENDBRANCH  20  21
ENDBRANCH  19  20
ENDBRANCH  18  19
ENDBRANCH  17  18
ENDBRANCH  16  17
ENDBRANCH  15  16
ENDBRANCH  14  15
ENDBRANCH  13  14
ENDBRANCH   1  13
TORSDOF 20
ENDMDL
MODEL 7
REMARK VINA RESULT:    -3.597      2.098      4.002
REMARK INTER + INTRA:         -11.351
REMARK INTER:                  -7.838
REMARK INTRA:                  -3.513
REMARK UNBOUND:                -3.548
REMARK SMILES CCCCCCCCCCCCCCCCCCCCCC(=O)[O-]
REMARK SMILES IDX 12 1 11 2 10 3 9 4 8 5 7 6 6 7 5 8 4 9 3 10 2 11 1 12 13 13
REMARK SMILES IDX 14 14 15 15 16 16 17 17 18 18 19 19 20 20 21 21 22 22 23 23
REMARK SMILES IDX 24 24
REMARK H PARENT
REMARK Flexibility Score: inf
ROOT
ATOM      1  C   UNL     1      -4.028  -7.298 -18.544  1.00  0.00     0.000 C 
ENDROOT
BRANCH   1   2
ATOM      2  C   UNL     1      -4.458  -8.761 -18.344  1.00  0.00     0.000 C 
BRANCH   2   3
ATOM      3  C   UNL     1      -3.704  -9.761 -19.246  1.00  0.00     0.000 C 
BRANCH   3   4
ATOM      4  C   UNL     1      -3.149 -10.958 -18.454  1.00  0.00    -0.000 C 
BRANCH   4   5
ATOM      5  C   UNL     1      -1.653 -10.793 -18.107  1.00  0.00    -0.000 C 
BRANCH   5   6
ATOM      6  C   UNL     1      -0.875  -9.933 -19.123  1.00  0.00    -0.000 C 
BRANCH   6   7
ATOM      7  C   UNL     1      -0.249 -10.716 -20.293  1.00  0.00    -0.000 C 
BRANCH   7   8
ATOM      8  C   UNL     1      -0.176  -9.945 -21.625  1.00  0.00    -0.000 C 
BRANCH   8   9
ATOM      9  C   UNL     1      -1.291 -10.338 -22.606  1.00  0.00    -0.000 C 
BRANCH   9  10
ATOM     10  C   UNL     1      -2.335  -9.218 -22.725  1.00  0.00    -0.000 C 
BRANCH  10  11
ATOM     11  C   UNL     1      -1.699  -7.820 -22.757  1.00  0.00    -0.003 C 
ATOM     12  C   UNL     1      -2.342  -6.854 -21.761  1.00  0.00     0.004 C 
ENDBRANCH  10  11
ENDBRANCH   9  10
ENDBRANCH   8   9
ENDBRANCH   7   8
ENDBRANCH   6   7
ENDBRANCH   5   6
ENDBRANCH   4   5
ENDBRANCH   3   4
ENDBRANCH   2   3
ENDBRANCH   1   2
BRANCH   1  13
ATOM     13  C   UNL     1      -3.019  -6.821 -17.490  1.00  0.00     0.000 C 
BRANCH  13  14
ATOM     14  C   UNL     1      -2.932  -7.816 -16.323  1.00  0.00     0.000 C 
BRANCH  14  15
ATOM     15  C   UNL     1      -1.522  -7.897 -15.708  1.00  0.00     0.000 C 
BRANCH  15  16
ATOM     16  C   UNL     1      -1.472  -8.396 -14.252  1.00  0.00     0.000 C 
BRANCH  16  17
ATOM     17  C   UNL     1      -0.892  -9.810 -14.064  1.00  0.00     0.000 C 
BRANCH  17  18
ATOM     18  C   UNL     1      -1.932 -10.856 -13.608  1.00  0.00     0.000 C 
BRANCH  18  19
ATOM     19  C   UNL     1      -2.953 -11.194 -14.709  1.00  0.00     0.000 C 
BRANCH  19  20
ATOM     20  C   UNL     1      -4.411 -10.968 -14.268  1.00  0.00     0.006 C 
BRANCH  20  21
ATOM     21  C   UNL     1      -5.364 -10.620 -15.425  1.00  0.00     0.053 C 
BRANCH  21  22
ATOM     22  C   UNL     1      -6.391  -9.600 -15.041  1.00  0.00     0.041 C 
ATOM     23  O   UNL     1      -7.477  -9.958 -14.517  1.00  0.00    -0.550 OA
ATOM     24  O   UNL     1      -6.160  -8.252 -15.287  1.00  0.00    -0.550 OA
ENDBRANCH  21  22
ENDBRANCH  20  21
ENDBRANCH  19  20
ENDBRANCH  18  19
ENDBRANCH  17  18
ENDBRANCH  16  17
ENDBRANCH  15  16
ENDBRANCH  14  15
ENDBRANCH  13  14
ENDBRANCH   1  13
TORSDOF 20
ENDMDL
MODEL 8
REMARK VINA RESULT:    -3.467     14.892     17.240
REMARK INTER + INTRA:         -11.070
REMARK INTER:                  -7.904
REMARK INTRA:                  -3.166
REMARK UNBOUND:                -3.548
REMARK SMILES CCCCCCCCCCCCCCCCCCCCCC(=O)[O-]
REMARK SMILES IDX 12 1 11 2 10 3 9 4 8 5 7 6 6 7 5 8 4 9 3 10 2 11 1 12 13 13
REMARK SMILES IDX 14 14 15 15 16 16 17 17 18 18 19 19 20 20 21 21 22 22 23 23
REMARK SMILES IDX 24 24
REMARK H PARENT
REMARK Flexibility Score: inf
ROOT
ATOM      1  C   UNL     1     -15.400  -2.577 -17.495  1.00  0.00     0.000 C 
ENDROOT
BRANCH   1   2
ATOM      2  C   UNL     1     -15.227  -1.621 -18.689  1.00  0.00     0.000 C 
BRANCH   2   3
ATOM      3  C   UNL     1     -15.987  -2.065 -19.958  1.00  0.00     0.000 C 
BRANCH   3   4
ATOM      4  C   UNL     1     -17.513  -2.019 -19.769  1.00  0.00    -0.000 C 
BRANCH   4   5
ATOM      5  C   UNL     1     -18.015  -0.616 -19.365  1.00  0.00    -0.000 C 
BRANCH   5   6
ATOM      6  C   UNL     1     -19.544  -0.450 -19.479  1.00  0.00    -0.000 C 
BRANCH   6   7
ATOM      7  C   UNL     1     -20.021   0.981 -19.795  1.00  0.00    -0.000 C 
BRANCH   7   8
ATOM      8  C   UNL     1     -19.364   1.626 -21.030  1.00  0.00    -0.000 C 
BRANCH   8   9
ATOM      9  C   UNL     1     -19.904   1.069 -22.355  1.00  0.00    -0.000 C 
BRANCH   9  10
ATOM     10  C   UNL     1     -18.821   0.271 -23.095  1.00  0.00    -0.000 C 
BRANCH  10  11
ATOM     11  C   UNL     1     -19.262  -1.166 -23.416  1.00  0.00    -0.003 C 
ATOM     12  C   UNL     1     -19.704  -1.339 -24.869  1.00  0.00     0.004 C 
ENDBRANCH  10  11
ENDBRANCH   9  10
ENDBRANCH   8   9
ENDBRANCH   7   8
ENDBRANCH   6   7
ENDBRANCH   5   6
ENDBRANCH   4   5
ENDBRANCH   3   4
ENDBRANCH   2   3
ENDBRANCH   1   2
BRANCH   1  13
ATOM     13  C   UNL     1     -15.030  -1.929 -16.153  1.00  0.00     0.000 C 
BRANCH  13  14
ATOM     14  C   UNL     1     -16.261  -1.812 -15.242  1.00  0.00     0.000 C 
BRANCH  14  15
ATOM     15  C   UNL     1     -17.321  -0.837 -15.789  1.00  0.00     0.000 C 
BRANCH  15  16
ATOM     16  C   UNL     1     -18.618  -0.753 -14.962  1.00  0.00     0.000 C 
BRANCH  16  17
ATOM     17  C   UNL     1     -19.892  -1.215 -15.695  1.00  0.00     0.000 C 
BRANCH  17  18
ATOM     18  C   UNL     1     -20.066  -2.748 -15.736  1.00  0.00     0.000 C 
BRANCH  18  19
ATOM     19  C   UNL     1     -19.769  -3.341 -17.125  1.00  0.00     0.000 C 
BRANCH  19  20
ATOM     20  C   UNL     1     -19.239  -4.785 -17.063  1.00  0.00     0.006 C 
BRANCH  20  21
ATOM     21  C   UNL     1     -17.735  -4.884 -16.757  1.00  0.00     0.053 C 
BRANCH  21  22
ATOM     22  C   UNL     1     -17.457  -5.342 -15.360  1.00  0.00     0.041 C 
ATOM     23  O   UNL     1     -18.396  -5.734 -14.621  1.00  0.00    -0.550 OA
ATOM     24  O   UNL     1     -16.160  -5.314 -14.862  1.00  0.00    -0.550 OA
ENDBRANCH  21  22
ENDBRANCH  20  21
ENDBRANCH  19  20
ENDBRANCH  18  19
ENDBRANCH  17  18
ENDBRANCH  16  17
ENDBRANCH  15  16
ENDBRANCH  14  15
ENDBRANCH  13  14
ENDBRANCH   1  13
TORSDOF 20
ENDMDL
MODEL 9
REMARK VINA RESULT:    -3.386     15.421     17.973
REMARK INTER + INTRA:         -10.893
REMARK INTER:                  -7.549
REMARK INTRA:                  -3.345
REMARK UNBOUND:                -3.548
REMARK SMILES CCCCCCCCCCCCCCCCCCCCCC(=O)[O-]
REMARK SMILES IDX 12 1 11 2 10 3 9 4 8 5 7 6 6 7 5 8 4 9 3 10 2 11 1 12 13 13
REMARK SMILES IDX 14 14 15 15 16 16 17 17 18 18 19 19 20 20 21 21 22 22 23 23
REMARK SMILES IDX 24 24
REMARK H PARENT
REMARK Flexibility Score: inf
ROOT
ATOM      1  C   UNL     1     -15.506  -1.660 -19.320  1.00  0.00     0.000 C 
ENDROOT
BRANCH   1   2
ATOM      2  C   UNL     1     -16.441  -1.929 -20.512  1.00  0.00     0.000 C 
BRANCH   2   3
ATOM      3  C   UNL     1     -17.931  -2.038 -20.123  1.00  0.00     0.000 C 
BRANCH   3   4
ATOM      4  C   UNL     1     -18.866  -1.638 -21.277  1.00  0.00    -0.000 C 
BRANCH   4   5
ATOM      5  C   UNL     1     -18.114  -0.932 -22.427  1.00  0.00    -0.000 C 
BRANCH   5   6
ATOM      6  C   UNL     1     -19.037  -0.440 -23.559  1.00  0.00    -0.000 C 
BRANCH   6   7
ATOM      7  C   UNL     1     -20.114   0.574 -23.126  1.00  0.00    -0.000 C 
BRANCH   7   8
ATOM      8  C   UNL     1     -19.576   1.820 -22.398  1.00  0.00    -0.000 C 
BRANCH   8   9
ATOM      9  C   UNL     1     -20.097   1.944 -20.958  1.00  0.00    -0.000 C 
BRANCH   9  10
ATOM     10  C   UNL     1     -18.974   1.682 -19.945  1.00  0.00    -0.000 C 
BRANCH  10  11
ATOM     11  C   UNL     1     -19.485   1.030 -18.652  1.00  0.00    -0.003 C 
ATOM     12  C   UNL     1     -19.404   1.965 -17.445  1.00  0.00     0.004 C 
ENDBRANCH  10  11
ENDBRANCH   9  10
ENDBRANCH   8   9
ENDBRANCH   7   8
ENDBRANCH   6   7
ENDBRANCH   5   6
ENDBRANCH   4   5
ENDBRANCH   3   4
ENDBRANCH   2   3
ENDBRANCH   1   2
BRANCH   1  13
ATOM     13  C   UNL     1     -16.262  -1.259 -18.045  1.00  0.00     0.000 C 
BRANCH  13  14
ATOM     14  C   UNL     1     -15.755  -2.052 -16.833  1.00  0.00     0.000 C 
BRANCH  14  15
ATOM     15  C   UNL     1     -16.444  -1.642 -15.517  1.00  0.00     0.000 C 
BRANCH  15  16
ATOM     16  C   UNL     1     -17.650  -0.698 -15.678  1.00  0.00     0.000 C 
BRANCH  16  17
ATOM     17  C   UNL     1     -18.651  -0.710 -14.507  1.00  0.00     0.000 C 
BRANCH  17  18
ATOM     18  C   UNL     1     -19.988  -1.408 -14.836  1.00  0.00     0.000 C 
BRANCH  18  19
ATOM     19  C   UNL     1     -20.091  -1.823 -16.314  1.00  0.00     0.000 C 
BRANCH  19  20
ATOM     20  C   UNL     1     -20.123  -3.350 -16.510  1.00  0.00     0.006 C 
BRANCH  20  21
ATOM     21  C   UNL     1     -18.860  -3.918 -17.180  1.00  0.00     0.053 C 
BRANCH  21  22
ATOM     22  C   UNL     1     -18.422  -5.218 -16.580  1.00  0.00     0.041 C 
ATOM     23  O   UNL     1     -17.218  -5.398 -16.264  1.00  0.00    -0.550 OA
ATOM     24  O   UNL     1     -19.340  -6.244 -16.393  1.00  0.00    -0.550 OA
ENDBRANCH  21  22
ENDBRANCH  20  21
ENDBRANCH  19  20
ENDBRANCH  18  19
ENDBRANCH  17  18
ENDBRANCH  16  17
ENDBRANCH  15  16
ENDBRANCH  14  15
ENDBRANCH  13  14
ENDBRANCH   1  13
TORSDOF 20
ENDMDL
