MODEL 1
REMARK VINA RESULT:    -6.528      0.000      0.000
REMARK INTER + INTRA:          -8.354
REMARK INTER:                  -8.055
REMARK INTRA:                  -0.299
REMARK UNBOUND:                -0.299
REMARK SMILES Oc1cc(O)c2cc(O)c(-c3cc(O)c(O)c(O)c3)[o+]c2c1
REMARK SMILES IDX 10 1 20 2 21 3 22 4 2 5 3 6 4 7 6 8 7 9 8 10 11 11 12 12
REMARK SMILES IDX 13 13 19 14 15 15 17 16 14 17 16 19 18 21 9 23 1 25 5 27
REMARK H PARENT 14 18 16 20 18 22 9 24 1 26 5 28
REMARK Flexibility Score: inf
ROOT
ATOM      1  C   UNL     1     -13.423 -15.776  32.476  1.00  0.00     0.402 A 
ATOM      2  O   UNL     1     -12.355 -15.729  33.266  1.00  0.00    -0.202 OA
ATOM      3  C   UNL     1     -12.297 -14.995  34.373  1.00  0.00     0.368 A 
ATOM      4  C   UNL     1     -11.128 -15.007  35.138  1.00  0.00     0.162 A 
ATOM      5  C   UNL     1     -11.039 -14.242  36.304  1.00  0.00     0.128 A 
ATOM      6  C   UNL     1     -12.124 -13.460  36.706  1.00  0.00     0.093 A 
ATOM      7  C   UNL     1     -13.307 -13.429  35.957  1.00  0.00     0.136 A 
ATOM      8  C   UNL     1     -13.402 -14.206  34.774  1.00  0.00     0.125 A 
ATOM      9  C   UNL     1     -14.553 -14.248  33.968  1.00  0.00     0.078 A 
ATOM     10  C   UNL     1     -14.575 -15.042  32.818  1.00  0.00     0.223 A 
ENDROOT
BRANCH   1  11
ATOM     11  C   UNL     1     -13.362 -16.626  31.264  1.00  0.00     0.091 A 
ATOM     12  C   UNL     1     -13.269 -18.016  31.403  1.00  0.00     0.068 A 
ATOM     13  C   UNL     1     -13.190 -18.841  30.273  1.00  0.00     0.162 A 
ATOM     14  C   UNL     1     -13.337 -16.064  29.977  1.00  0.00     0.068 A 
ATOM     15  C   UNL     1     -13.187 -18.281  28.988  1.00  0.00     0.200 A 
ATOM     16  C   UNL     1     -13.255 -16.875  28.839  1.00  0.00     0.162 A 
BRANCH  13  17
ATOM     17  O   UNL     1     -13.113 -20.225  30.420  1.00  0.00    -0.504 OA
ATOM     18  H   UNL     1     -13.843 -20.837  30.075  1.00  0.00     0.293 HD
ENDBRANCH  13  17
BRANCH  15  19
ATOM     19  O   UNL     1     -13.115 -19.148  27.894  1.00  0.00    -0.502 OA
ATOM     20  H   UNL     1     -12.482 -19.027  27.117  1.00  0.00     0.293 HD
ENDBRANCH  15  19
BRANCH  16  21
ATOM     21  O   UNL     1     -13.236 -16.246  27.592  1.00  0.00    -0.504 OA
ATOM     22  H   UNL     1     -12.749 -16.606  26.785  1.00  0.00     0.293 HD
ENDBRANCH  16  21
ENDBRANCH   1  11
BRANCH  10  23
ATOM     23  O   UNL     1     -15.732 -15.122  32.045  1.00  0.00    -0.500 OA
ATOM     24  H   UNL     1     -16.106 -16.011  31.735  1.00  0.00     0.294 HD
ENDBRANCH  10  23
BRANCH   5  25
ATOM     25  O   UNL     1      -9.876 -14.250  37.072  1.00  0.00    -0.507 OA
ATOM     26  H   UNL     1      -9.231 -15.032  37.047  1.00  0.00     0.293 HD
ENDBRANCH   5  25
BRANCH   7  27
ATOM     27  O   UNL     1     -14.344 -12.618  36.426  1.00  0.00    -0.507 OA
ATOM     28  H   UNL     1     -15.115 -12.293  35.860  1.00  0.00     0.293 HD
ENDBRANCH   7  27
TORSDOF 7
ENDMDL
MODEL 2
REMARK VINA RESULT:    -6.517      1.136      2.665
REMARK INTER + INTRA:          -8.341
REMARK INTER:                  -8.108
REMARK INTRA:                  -0.233
REMARK UNBOUND:                -0.299
REMARK SMILES Oc1cc(O)c2cc(O)c(-c3cc(O)c(O)c(O)c3)[o+]c2c1
REMARK SMILES IDX 10 1 20 2 21 3 22 4 2 5 3 6 4 7 6 8 7 9 8 10 11 11 12 12
REMARK SMILES IDX 13 13 19 14 15 15 17 16 14 17 16 19 18 21 9 23 1 25 5 27
REMARK H PARENT 14 18 16 20 18 22 9 24 1 26 5 28
REMARK Flexibility Score: inf
ROOT
ATOM      1  C   UNL     1     -12.137 -16.592  32.637  1.00  0.00     0.402 A 
ATOM      2  O   UNL     1     -13.002 -15.763  33.214  1.00  0.00    -0.202 OA
ATOM      3  C   UNL     1     -12.700 -15.014  34.270  1.00  0.00     0.368 A 
ATOM      4  C   UNL     1     -13.678 -14.174  34.810  1.00  0.00     0.162 A 
ATOM      5  C   UNL     1     -13.390 -13.378  35.922  1.00  0.00     0.128 A 
ATOM      6  C   UNL     1     -12.118 -13.422  36.497  1.00  0.00     0.093 A 
ATOM      7  C   UNL     1     -11.120 -14.256  35.976  1.00  0.00     0.136 A 
ATOM      8  C   UNL     1     -11.408 -15.065  34.845  1.00  0.00     0.125 A 
ATOM      9  C   UNL     1     -10.467 -15.919  34.247  1.00  0.00     0.078 A 
ATOM     10  C   UNL     1     -10.822 -16.683  33.131  1.00  0.00     0.223 A 
ENDROOT
BRANCH   1  11
ATOM     11  C   UNL     1     -12.595 -17.382  31.471  1.00  0.00     0.091 A 
ATOM     12  C   UNL     1     -12.651 -18.779  31.564  1.00  0.00     0.068 A 
ATOM     13  C   UNL     1     -13.061 -19.551  30.470  1.00  0.00     0.162 A 
ATOM     14  C   UNL     1     -12.920 -16.766  30.251  1.00  0.00     0.068 A 
ATOM     15  C   UNL     1     -13.408 -18.933  29.259  1.00  0.00     0.200 A 
ATOM     16  C   UNL     1     -13.329 -17.524  29.147  1.00  0.00     0.162 A 
BRANCH  13  17
ATOM     17  O   UNL     1     -13.129 -20.939  30.578  1.00  0.00    -0.504 OA
ATOM     18  H   UNL     1     -13.161 -21.400  31.479  1.00  0.00     0.293 HD
ENDBRANCH  13  17
BRANCH  15  19
ATOM     19  O   UNL     1     -13.818 -19.748  28.201  1.00  0.00    -0.502 OA
ATOM     20  H   UNL     1     -13.651 -19.538  27.228  1.00  0.00     0.293 HD
ENDBRANCH  15  19
BRANCH  16  21
ATOM     21  O   UNL     1     -13.637 -16.842  27.968  1.00  0.00    -0.504 OA
ATOM     22  H   UNL     1     -14.291 -17.177  27.276  1.00  0.00     0.293 HD
ENDBRANCH  16  21
ENDBRANCH   1  11
BRANCH  10  23
ATOM     23  O   UNL     1      -9.875 -17.493  32.508  1.00  0.00    -0.500 OA
ATOM     24  H   UNL     1      -9.625 -17.369  31.534  1.00  0.00     0.294 HD
ENDBRANCH  10  23
BRANCH   5  25
ATOM     25  O   UNL     1     -14.359 -12.538  36.465  1.00  0.00    -0.507 OA
ATOM     26  H   UNL     1     -14.276 -11.529  36.411  1.00  0.00     0.293 HD
ENDBRANCH   5  25
BRANCH   7  27
ATOM     27  O   UNL     1      -9.875 -14.245  36.612  1.00  0.00    -0.507 OA
ATOM     28  H   UNL     1      -9.416 -13.411  36.950  1.00  0.00     0.293 HD
ENDBRANCH   7  27
TORSDOF 7
ENDMDL
MODEL 3
REMARK VINA RESULT:    -6.486      0.095      1.802
REMARK INTER + INTRA:          -8.302
REMARK INTER:                  -8.041
REMARK INTRA:                  -0.261
REMARK UNBOUND:                -0.299
REMARK SMILES Oc1cc(O)c2cc(O)c(-c3cc(O)c(O)c(O)c3)[o+]c2c1
REMARK SMILES IDX 10 1 20 2 21 3 22 4 2 5 3 6 4 7 6 8 7 9 8 10 11 11 12 12
REMARK SMILES IDX 13 13 19 14 15 15 17 16 14 17 16 19 18 21 9 23 1 25 5 27
REMARK H PARENT 14 18 16 20 18 22 9 24 1 26 5 28
REMARK Flexibility Score: inf
ROOT
ATOM      1  C   UNL     1     -13.346 -15.837  32.536  1.00  0.00     0.402 A 
ATOM      2  O   UNL     1     -12.291 -15.775  33.343  1.00  0.00    -0.202 OA
ATOM      3  C   UNL     1     -12.251 -15.020  34.437  1.00  0.00     0.368 A 
ATOM      4  C   UNL     1     -11.095 -15.018  35.221  1.00  0.00     0.162 A 
ATOM      5  C   UNL     1     -11.024 -14.232  36.374  1.00  0.00     0.128 A 
ATOM      6  C   UNL     1     -12.116 -13.442  36.744  1.00  0.00     0.093 A 
ATOM      7  C   UNL     1     -13.286 -13.426  35.975  1.00  0.00     0.136 A 
ATOM      8  C   UNL     1     -13.363 -14.225  34.804  1.00  0.00     0.125 A 
ATOM      9  C   UNL     1     -14.499 -14.281  33.981  1.00  0.00     0.078 A 
ATOM     10  C   UNL     1     -14.503 -15.096  32.845  1.00  0.00     0.223 A 
ENDROOT
BRANCH   1  11
ATOM     11  C   UNL     1     -13.265 -16.708  31.341  1.00  0.00     0.091 A 
ATOM     12  C   UNL     1     -13.270 -16.130  30.066  1.00  0.00     0.068 A 
ATOM     13  C   UNL     1     -13.215 -16.932  28.919  1.00  0.00     0.162 A 
ATOM     14  C   UNL     1     -13.242 -18.108  31.456  1.00  0.00     0.068 A 
ATOM     15  C   UNL     1     -13.169 -18.329  29.035  1.00  0.00     0.200 A 
ATOM     16  C   UNL     1     -13.190 -18.923  30.320  1.00  0.00     0.162 A 
BRANCH  13  17
ATOM     17  O   UNL     1     -13.204 -16.346  27.654  1.00  0.00    -0.504 OA
ATOM     18  H   UNL     1     -13.489 -15.385  27.512  1.00  0.00     0.293 HD
ENDBRANCH  13  17
BRANCH  15  19
ATOM     19  O   UNL     1     -13.106 -19.083  27.861  1.00  0.00    -0.502 OA
ATOM     20  H   UNL     1     -13.751 -18.985  27.090  1.00  0.00     0.293 HD
ENDBRANCH  15  19
BRANCH  16  21
ATOM     21  O   UNL     1     -13.168 -20.306  30.512  1.00  0.00    -0.504 OA
ATOM     22  H   UNL     1     -13.168 -20.751  31.418  1.00  0.00     0.293 HD
ENDBRANCH  16  21
ENDBRANCH   1  11
BRANCH  10  23
ATOM     23  O   UNL     1     -15.647 -15.190  32.055  1.00  0.00    -0.500 OA
ATOM     24  H   UNL     1     -16.577 -15.161  32.458  1.00  0.00     0.294 HD
ENDBRANCH  10  23
BRANCH   5  25
ATOM     25  O   UNL     1      -9.875 -14.226  37.161  1.00  0.00    -0.507 OA
ATOM     26  H   UNL     1      -9.082 -13.636  36.936  1.00  0.00     0.293 HD
ENDBRANCH   5  25
BRANCH   7  27
ATOM     27  O   UNL     1     -14.331 -12.606  36.412  1.00  0.00    -0.507 OA
ATOM     28  H   UNL     1     -15.309 -12.786  36.235  1.00  0.00     0.293 HD
ENDBRANCH   7  27
TORSDOF 7
ENDMDL
MODEL 4
REMARK VINA RESULT:    -6.465      1.049      3.156
REMARK INTER + INTRA:          -8.277
REMARK INTER:                  -7.920
REMARK INTRA:                  -0.357
REMARK UNBOUND:                -0.299
REMARK SMILES Oc1cc(O)c2cc(O)c(-c3cc(O)c(O)c(O)c3)[o+]c2c1
REMARK SMILES IDX 10 1 20 2 21 3 22 4 2 5 3 6 4 7 6 8 7 9 8 10 11 11 12 12
REMARK SMILES IDX 13 13 19 14 15 15 17 16 14 17 16 19 18 21 9 23 1 25 5 27
REMARK H PARENT 14 18 16 20 18 22 9 24 1 26 5 28
REMARK Flexibility Score: inf
ROOT
ATOM      1  C   UNL     1     -12.147 -16.243  32.689  1.00  0.00     0.402 A 
ATOM      2  O   UNL     1     -12.986 -15.428  33.320  1.00  0.00    -0.202 OA
ATOM      3  C   UNL     1     -12.676 -14.789  34.445  1.00  0.00     0.368 A 
ATOM      4  C   UNL     1     -13.627 -13.955  35.038  1.00  0.00     0.162 A 
ATOM      5  C   UNL     1     -13.330 -13.274  36.221  1.00  0.00     0.128 A 
ATOM      6  C   UNL     1     -12.075 -13.429  36.815  1.00  0.00     0.093 A 
ATOM      7  C   UNL     1     -11.104 -14.260  36.241  1.00  0.00     0.136 A 
ATOM      8  C   UNL     1     -11.402 -14.951  35.038  1.00  0.00     0.125 A 
ATOM      9  C   UNL     1     -10.487 -15.794  34.385  1.00  0.00     0.078 A 
ATOM     10  C   UNL     1     -10.850 -16.439  33.199  1.00  0.00     0.223 A 
ENDROOT
BRANCH   1  11
ATOM     11  C   UNL     1     -12.613 -16.905  31.448  1.00  0.00     0.091 A 
ATOM     12  C   UNL     1     -12.706 -16.162  30.265  1.00  0.00     0.068 A 
ATOM     13  C   UNL     1     -13.162 -16.759  29.082  1.00  0.00     0.162 A 
ATOM     14  C   UNL     1     -13.020 -18.249  31.444  1.00  0.00     0.068 A 
ATOM     15  C   UNL     1     -13.547 -18.107  29.074  1.00  0.00     0.200 A 
ATOM     16  C   UNL     1     -13.481 -18.859  30.272  1.00  0.00     0.162 A 
BRANCH  13  17
ATOM     17  O   UNL     1     -13.236 -16.015  27.906  1.00  0.00    -0.504 OA
ATOM     18  H   UNL     1     -13.067 -15.016  27.897  1.00  0.00     0.293 HD
ENDBRANCH  13  17
BRANCH  15  19
ATOM     19  O   UNL     1     -13.987 -18.656  27.867  1.00  0.00    -0.502 OA
ATOM     20  H   UNL     1     -13.578 -18.447  26.968  1.00  0.00     0.293 HD
ENDBRANCH  15  19
BRANCH  16  21
ATOM     21  O   UNL     1     -13.867 -20.199  30.344  1.00  0.00    -0.504 OA
ATOM     22  H   UNL     1     -13.902 -20.732  31.200  1.00  0.00     0.293 HD
ENDBRANCH  16  21
ENDBRANCH   1  11
BRANCH  10  23
ATOM     23  O   UNL     1      -9.926 -17.235  32.525  1.00  0.00    -0.500 OA
ATOM     24  H   UNL     1      -9.243 -16.839  31.890  1.00  0.00     0.294 HD
ENDBRANCH  10  23
BRANCH   5  25
ATOM     25  O   UNL     1     -14.273 -12.440  36.817  1.00  0.00    -0.507 OA
ATOM     26  H   UNL     1     -14.018 -11.533  37.190  1.00  0.00     0.293 HD
ENDBRANCH   5  25
BRANCH   7  27
ATOM     27  O   UNL     1      -9.876 -14.363  36.900  1.00  0.00    -0.507 OA
ATOM     28  H   UNL     1      -9.609 -13.807  37.700  1.00  0.00     0.293 HD
ENDBRANCH   7  27
TORSDOF 7
ENDMDL
MODEL 5
REMARK VINA RESULT:    -5.740      1.451      7.028
REMARK INTER + INTRA:          -7.382
REMARK INTER:                  -7.200
REMARK INTRA:                  -0.182
REMARK UNBOUND:                -0.299
REMARK SMILES Oc1cc(O)c2cc(O)c(-c3cc(O)c(O)c(O)c3)[o+]c2c1
REMARK SMILES IDX 10 1 20 2 21 3 22 4 2 5 3 6 4 7 6 8 7 9 8 10 11 11 12 12
REMARK SMILES IDX 13 13 19 14 15 15 17 16 14 17 16 19 18 21 9 23 1 25 5 27
REMARK H PARENT 14 18 16 20 18 22 9 24 1 26 5 28
REMARK Flexibility Score: inf
ROOT
ATOM      1  C   UNL     1     -12.843 -16.195  32.727  1.00  0.00     0.402 A 
ATOM      2  O   UNL     1     -12.079 -16.069  31.647  1.00  0.00    -0.202 OA
ATOM      3  C   UNL     1     -12.216 -16.827  30.563  1.00  0.00     0.368 A 
ATOM      4  C   UNL     1     -11.362 -16.622  29.477  1.00  0.00     0.162 A 
ATOM      5  C   UNL     1     -11.481 -17.407  28.326  1.00  0.00     0.128 A 
ATOM      6  C   UNL     1     -12.459 -18.403  28.263  1.00  0.00     0.093 A 
ATOM      7  C   UNL     1     -13.327 -18.629  29.339  1.00  0.00     0.136 A 
ATOM      8  C   UNL     1     -13.210 -17.833  30.508  1.00  0.00     0.125 A 
ATOM      9  C   UNL     1     -14.045 -17.979  31.629  1.00  0.00     0.078 A 
ATOM     10  C   UNL     1     -13.873 -17.154  32.744  1.00  0.00     0.223 A 
ENDROOT
BRANCH   1  11
ATOM     11  C   UNL     1     -12.586 -15.296  33.877  1.00  0.00     0.091 A 
ATOM     12  C   UNL     1     -11.363 -15.377  34.554  1.00  0.00     0.068 A 
ATOM     13  C   UNL     1     -11.102 -14.552  35.656  1.00  0.00     0.162 A 
ATOM     14  C   UNL     1     -13.566 -14.403  34.341  1.00  0.00     0.068 A 
ATOM     15  C   UNL     1     -12.072 -13.645  36.104  1.00  0.00     0.200 A 
ATOM     16  C   UNL     1     -13.322 -13.575  35.443  1.00  0.00     0.162 A 
BRANCH  13  17
ATOM     17  O   UNL     1      -9.875 -14.628  36.313  1.00  0.00    -0.504 OA
ATOM     18  H   UNL     1      -9.805 -14.533  37.319  1.00  0.00     0.293 HD
ENDBRANCH  13  17
BRANCH  15  19
ATOM     19  O   UNL     1     -11.759 -12.840  37.203  1.00  0.00    -0.502 OA
ATOM     20  H   UNL     1     -12.070 -11.885  37.311  1.00  0.00     0.293 HD
ENDBRANCH  15  19
BRANCH  16  21
ATOM     21  O   UNL     1     -14.342 -12.711  35.846  1.00  0.00    -0.504 OA
ATOM     22  H   UNL     1     -15.087 -12.972  36.475  1.00  0.00     0.293 HD
ENDBRANCH  16  21
ENDBRANCH   1  11
BRANCH  10  23
ATOM     23  O   UNL     1     -14.732 -17.266  33.836  1.00  0.00    -0.500 OA
ATOM     24  H   UNL     1     -14.765 -16.561  34.563  1.00  0.00     0.294 HD
ENDBRANCH  10  23
BRANCH   5  25
ATOM     25  O   UNL     1     -10.634 -17.207  27.239  1.00  0.00    -0.507 OA
ATOM     26  H   UNL     1     -10.772 -16.436  26.595  1.00  0.00     0.293 HD
ENDBRANCH   5  25
BRANCH   7  27
ATOM     27  O   UNL     1     -14.274 -19.647  29.198  1.00  0.00    -0.507 OA
ATOM     28  H   UNL     1     -15.267 -19.492  29.098  1.00  0.00     0.293 HD
ENDBRANCH   7  27
TORSDOF 7
ENDMDL
MODEL 6
REMARK VINA RESULT:    -4.087      1.436      7.380
REMARK INTER + INTRA:          -5.341
REMARK INTER:                  -5.433
REMARK INTRA:                   0.092
REMARK UNBOUND:                -0.299
REMARK SMILES Oc1cc(O)c2cc(O)c(-c3cc(O)c(O)c(O)c3)[o+]c2c1
REMARK SMILES IDX 10 1 20 2 21 3 22 4 2 5 3 6 4 7 6 8 7 9 8 10 11 11 12 12
REMARK SMILES IDX 13 13 19 14 15 15 17 16 14 17 16 19 18 21 9 23 1 25 5 27
REMARK H PARENT 14 18 16 20 18 22 9 24 1 26 5 28
REMARK Flexibility Score: inf
ROOT
ATOM      1  C   UNL     1     -12.395 -16.037  32.256  1.00  0.00     0.402 A 
ATOM      2  O   UNL     1     -13.045 -15.426  31.270  1.00  0.00    -0.202 OA
ATOM      3  C   UNL     1     -13.189 -15.949  30.056  1.00  0.00     0.368 A 
ATOM      4  C   UNL     1     -13.887 -15.229  29.084  1.00  0.00     0.162 A 
ATOM      5  C   UNL     1     -14.050 -15.752  27.798  1.00  0.00     0.128 A 
ATOM      6  C   UNL     1     -13.511 -17.002  27.484  1.00  0.00     0.093 A 
ATOM      7  C   UNL     1     -12.806 -17.744  28.441  1.00  0.00     0.136 A 
ATOM      8  C   UNL     1     -12.640 -17.216  29.747  1.00  0.00     0.125 A 
ATOM      9  C   UNL     1     -11.962 -17.895  30.773  1.00  0.00     0.078 A 
ATOM     10  C   UNL     1     -11.842 -17.314  32.039  1.00  0.00     0.223 A 
ENDROOT
BRANCH   1  11
ATOM     11  C   UNL     1     -12.294 -15.348  33.563  1.00  0.00     0.091 A 
ATOM     12  C   UNL     1     -13.343 -14.523  33.988  1.00  0.00     0.068 A 
ATOM     13  C   UNL     1     -13.265 -13.844  35.211  1.00  0.00     0.162 A 
ATOM     14  C   UNL     1     -11.144 -15.456  34.361  1.00  0.00     0.068 A 
ATOM     15  C   UNL     1     -12.125 -13.970  36.018  1.00  0.00     0.200 A 
ATOM     16  C   UNL     1     -11.049 -14.781  35.584  1.00  0.00     0.162 A 
BRANCH  13  17
ATOM     17  O   UNL     1     -14.321 -13.038  35.634  1.00  0.00    -0.504 OA
ATOM     18  H   UNL     1     -15.277 -13.230  35.361  1.00  0.00     0.293 HD
ENDBRANCH  13  17
BRANCH  15  19
ATOM     19  O   UNL     1     -12.101 -13.278  37.232  1.00  0.00    -0.502 OA
ATOM     20  H   UNL     1     -12.853 -12.692  37.564  1.00  0.00     0.293 HD
ENDBRANCH  15  19
BRANCH  16  21
ATOM     21  O   UNL     1      -9.875 -14.937  36.324  1.00  0.00    -0.504 OA
ATOM     22  H   UNL     1      -9.019 -14.438  36.137  1.00  0.00     0.293 HD
ENDBRANCH  16  21
ENDBRANCH   1  11
BRANCH  10  23
ATOM     23  O   UNL     1     -11.212 -18.008  33.071  1.00  0.00    -0.500 OA
ATOM     24  H   UNL     1     -10.918 -17.545  33.923  1.00  0.00     0.294 HD
ENDBRANCH  10  23
BRANCH   5  25
ATOM     25  O   UNL     1     -14.745 -15.040  26.824  1.00  0.00    -0.507 OA
ATOM     26  H   UNL     1     -14.507 -14.081  26.597  1.00  0.00     0.293 HD
ENDBRANCH   5  25
BRANCH   7  27
ATOM     27  O   UNL     1     -12.296 -18.983  28.044  1.00  0.00    -0.507 OA
ATOM     28  H   UNL     1     -12.769 -19.865  28.183  1.00  0.00     0.293 HD
ENDBRANCH   7  27
TORSDOF 7
ENDMDL
MODEL 7
REMARK VINA RESULT:    -3.699      1.325      6.954
REMARK INTER + INTRA:          -4.864
REMARK INTER:                  -4.774
REMARK INTRA:                  -0.090
REMARK UNBOUND:                -0.299
REMARK SMILES Oc1cc(O)c2cc(O)c(-c3cc(O)c(O)c(O)c3)[o+]c2c1
REMARK SMILES IDX 10 1 20 2 21 3 22 4 2 5 3 6 4 7 6 8 7 9 8 10 11 11 12 12
REMARK SMILES IDX 13 13 19 14 15 15 17 16 14 17 16 19 18 21 9 23 1 25 5 27
REMARK H PARENT 14 18 16 20 18 22 9 24 1 26 5 28
REMARK Flexibility Score: inf
ROOT
ATOM      1  C   UNL     1     -13.011 -16.206  32.661  1.00  0.00     0.402 A 
ATOM      2  O   UNL     1     -12.700 -17.494  32.775  1.00  0.00    -0.202 OA
ATOM      3  C   UNL     1     -12.937 -18.389  31.821  1.00  0.00     0.368 A 
ATOM      4  C   UNL     1     -12.577 -19.722  32.035  1.00  0.00     0.162 A 
ATOM      5  C   UNL     1     -12.818 -20.685  31.051  1.00  0.00     0.128 A 
ATOM      6  C   UNL     1     -13.421 -20.313  29.847  1.00  0.00     0.093 A 
ATOM      7  C   UNL     1     -13.792 -18.983  29.609  1.00  0.00     0.136 A 
ATOM      8  C   UNL     1     -13.548 -18.002  30.604  1.00  0.00     0.125 A 
ATOM      9  C   UNL     1     -13.873 -16.645  30.447  1.00  0.00     0.078 A 
ATOM     10  C   UNL     1     -13.597 -15.734  31.471  1.00  0.00     0.223 A 
ENDROOT
BRANCH   1  11
ATOM     11  C   UNL     1     -12.705 -15.307  33.798  1.00  0.00     0.091 A 
ATOM     12  C   UNL     1     -11.446 -15.371  34.406  1.00  0.00     0.068 A 
ATOM     13  C   UNL     1     -11.138 -14.547  35.496  1.00  0.00     0.162 A 
ATOM     14  C   UNL     1     -13.672 -14.432  34.320  1.00  0.00     0.068 A 
ATOM     15  C   UNL     1     -12.096 -13.656  36.002  1.00  0.00     0.200 A 
ATOM     16  C   UNL     1     -13.381 -13.604  35.410  1.00  0.00     0.162 A 
BRANCH  13  17
ATOM     17  O   UNL     1      -9.875 -14.606  36.085  1.00  0.00    -0.504 OA
ATOM     18  H   UNL     1      -9.110 -14.028  35.759  1.00  0.00     0.293 HD
ENDBRANCH  13  17
BRANCH  15  19
ATOM     19  O   UNL     1     -11.735 -12.850  37.085  1.00  0.00    -0.502 OA
ATOM     20  H   UNL     1     -11.944 -13.071  38.048  1.00  0.00     0.293 HD
ENDBRANCH  15  19
BRANCH  16  21
ATOM     21  O   UNL     1     -14.391 -12.758  35.873  1.00  0.00    -0.504 OA
ATOM     22  H   UNL     1     -15.072 -13.021  36.570  1.00  0.00     0.293 HD
ENDBRANCH  16  21
ENDBRANCH   1  11
BRANCH  10  23
ATOM     23  O   UNL     1     -13.875 -14.379  31.296  1.00  0.00    -0.500 OA
ATOM     24  H   UNL     1     -13.268 -13.777  30.752  1.00  0.00     0.294 HD
ENDBRANCH  10  23
BRANCH   5  25
ATOM     25  O   UNL     1     -12.461 -22.016  31.257  1.00  0.00    -0.507 OA
ATOM     26  H   UNL     1     -12.313 -22.651  30.480  1.00  0.00     0.293 HD
ENDBRANCH   5  25
BRANCH   7  27
ATOM     27  O   UNL     1     -14.394 -18.694  28.380  1.00  0.00    -0.507 OA
ATOM     28  H   UNL     1     -14.349 -19.293  27.568  1.00  0.00     0.293 HD
ENDBRANCH   7  27
TORSDOF 7
ENDMDL
MODEL 8
REMARK VINA RESULT:    -3.617      1.348      7.044
REMARK INTER + INTRA:          -4.762
REMARK INTER:                  -4.746
REMARK INTRA:                  -0.015
REMARK UNBOUND:                -0.299
REMARK SMILES Oc1cc(O)c2cc(O)c(-c3cc(O)c(O)c(O)c3)[o+]c2c1
REMARK SMILES IDX 10 1 20 2 21 3 22 4 2 5 3 6 4 7 6 8 7 9 8 10 11 11 12 12
REMARK SMILES IDX 13 13 19 14 15 15 17 16 14 17 16 19 18 21 9 23 1 25 5 27
REMARK H PARENT 14 18 16 20 18 22 9 24 1 26 5 28
REMARK Flexibility Score: inf
ROOT
ATOM      1  C   UNL     1     -13.009 -16.250  32.688  1.00  0.00     0.402 A 
ATOM      2  O   UNL     1     -12.700 -17.539  32.791  1.00  0.00    -0.202 OA
ATOM      3  C   UNL     1     -12.936 -18.424  31.828  1.00  0.00     0.368 A 
ATOM      4  C   UNL     1     -12.579 -19.760  32.030  1.00  0.00     0.162 A 
ATOM      5  C   UNL     1     -12.818 -20.713  31.036  1.00  0.00     0.128 A 
ATOM      6  C   UNL     1     -13.417 -20.329  29.834  1.00  0.00     0.093 A 
ATOM      7  C   UNL     1     -13.785 -18.996  29.607  1.00  0.00     0.136 A 
ATOM      8  C   UNL     1     -13.542 -18.025  30.613  1.00  0.00     0.125 A 
ATOM      9  C   UNL     1     -13.865 -16.666  30.468  1.00  0.00     0.078 A 
ATOM     10  C   UNL     1     -13.591 -15.765  31.502  1.00  0.00     0.223 A 
ENDROOT
BRANCH   1  11
ATOM     11  C   UNL     1     -12.705 -15.362  33.835  1.00  0.00     0.091 A 
ATOM     12  C   UNL     1     -13.680 -14.464  34.286  1.00  0.00     0.068 A 
ATOM     13  C   UNL     1     -13.411 -13.600  35.356  1.00  0.00     0.162 A 
ATOM     14  C   UNL     1     -11.439 -15.360  34.444  1.00  0.00     0.068 A 
ATOM     15  C   UNL     1     -12.155 -13.614  35.978  1.00  0.00     0.200 A 
ATOM     16  C   UNL     1     -11.155 -14.500  35.511  1.00  0.00     0.162 A 
BRANCH  13  17
ATOM     17  O   UNL     1     -14.394 -12.720  35.809  1.00  0.00    -0.504 OA
ATOM     18  H   UNL     1     -15.349 -13.022  35.957  1.00  0.00     0.293 HD
ENDBRANCH  13  17
BRANCH  15  19
ATOM     19  O   UNL     1     -11.942 -12.738  37.046  1.00  0.00    -0.502 OA
ATOM     20  H   UNL     1     -12.342 -11.813  37.107  1.00  0.00     0.293 HD
ENDBRANCH  15  19
BRANCH  16  21
ATOM     21  O   UNL     1      -9.875 -14.555  36.068  1.00  0.00    -0.504 OA
ATOM     22  H   UNL     1      -9.302 -13.745  36.246  1.00  0.00     0.293 HD
ENDBRANCH  16  21
ENDBRANCH   1  11
BRANCH  10  23
ATOM     23  O   UNL     1     -13.866 -14.408  31.338  1.00  0.00    -0.500 OA
ATOM     24  H   UNL     1     -13.945 -13.781  32.131  1.00  0.00     0.294 HD
ENDBRANCH  10  23
BRANCH   5  25
ATOM     25  O   UNL     1     -12.464 -22.047  31.230  1.00  0.00    -0.507 OA
ATOM     26  H   UNL     1     -12.034 -22.360  32.093  1.00  0.00     0.293 HD
ENDBRANCH   5  25
BRANCH   7  27
ATOM     27  O   UNL     1     -14.383 -18.695  28.380  1.00  0.00    -0.507 OA
ATOM     28  H   UNL     1     -15.379 -18.701  28.214  1.00  0.00     0.293 HD
ENDBRANCH   7  27
TORSDOF 7
ENDMDL
