MODEL 1
REMARK VINA RESULT:    -3.715      0.000      0.000
REMARK INTER + INTRA:          -7.232
REMARK INTER:                  -5.886
REMARK INTRA:                  -1.345
REMARK UNBOUND:                -1.345
REMARK SMILES CCCCCCCCCCCC(=O)[O-]
REMARK SMILES IDX 7 1 8 2 9 3 10 4 11 5 12 6 13 7 14 8 6 9 5 10 4 11 3 12 2 13
REMARK SMILES IDX 1 14
REMARK H PARENT
REMARK Flexibility Score: inf
ROOT
ATOM      1  C   UNL     1       4.810   2.027 401.362  1.00  0.00     0.000 C 
ENDROOT
BRANCH   1   2
ATOM      2  C   UNL     1       4.619   2.102 402.885  1.00  0.00     0.000 C 
BRANCH   2   3
ATOM      3  C   UNL     1       4.990   0.789 403.594  1.00  0.00     0.000 C 
BRANCH   3   4
ATOM      4  C   UNL     1       3.765  -0.099 403.872  1.00  0.00     0.006 C 
BRANCH   4   5
ATOM      5  C   UNL     1       4.161  -1.537 404.231  1.00  0.00     0.053 C 
BRANCH   5   6
ATOM      6  C   UNL     1       3.200  -2.157 405.198  1.00  0.00     0.041 C 
ATOM      7  O   UNL     1       3.302  -1.923 406.431  1.00  0.00    -0.550 OA
ATOM      8  O   UNL     1       2.172  -2.968 404.736  1.00  0.00    -0.550 OA
ENDBRANCH   5   6
ENDBRANCH   4   5
ENDBRANCH   3   4
ENDBRANCH   2   3
ENDBRANCH   1   2
BRANCH   1   9
ATOM      9  C   UNL     1       3.481   1.733 400.656  1.00  0.00     0.000 C 
BRANCH   9  10
ATOM     10  C   UNL     1       3.511   0.361 399.971  1.00  0.00    -0.000 C 
BRANCH  10  11
ATOM     11  C   UNL     1       4.926  -0.234 399.997  1.00  0.00    -0.000 C 
BRANCH  11  12
ATOM     12  C   UNL     1       4.952  -1.679 400.522  1.00  0.00    -0.000 C 
BRANCH  12  13
ATOM     13  C   UNL     1       3.751  -2.505 400.037  1.00  0.00    -0.003 C 
ATOM     14  C   UNL     1       3.143  -3.313 401.181  1.00  0.00     0.004 C 
ENDBRANCH  12  13
ENDBRANCH  11  12
ENDBRANCH  10  11
ENDBRANCH   9  10
ENDBRANCH   1   9
TORSDOF 10
ENDMDL
MODEL 2
REMARK VINA RESULT:    -3.631      0.852      1.487
REMARK INTER + INTRA:          -7.099
REMARK INTER:                  -5.885
REMARK INTRA:                  -1.215
REMARK UNBOUND:                -1.345
REMARK SMILES CCCCCCCCCCCC(=O)[O-]
REMARK SMILES IDX 7 1 8 2 9 3 10 4 11 5 12 6 13 7 14 8 6 9 5 10 4 11 3 12 2 13
REMARK SMILES IDX 1 14
REMARK H PARENT
REMARK Flexibility Score: inf
ROOT
ATOM      1  C   UNL     1       5.754   2.352 402.594  1.00  0.00     0.000 C 
ENDROOT
BRANCH   1   2
ATOM      2  C   UNL     1       5.822   1.667 403.968  1.00  0.00     0.000 C 
BRANCH   2   3
ATOM      3  C   UNL     1       4.586   0.801 404.260  1.00  0.00     0.000 C 
BRANCH   3   4
ATOM      4  C   UNL     1       4.912  -0.702 404.296  1.00  0.00     0.006 C 
BRANCH   4   5
ATOM      5  C   UNL     1       3.743  -1.561 403.795  1.00  0.00     0.053 C 
BRANCH   5   6
ATOM      6  C   UNL     1       3.020  -2.232 404.922  1.00  0.00     0.041 C 
ATOM      7  O   UNL     1       3.282  -1.925 406.114  1.00  0.00    -0.550 OA
ATOM      8  O   UNL     1       2.034  -3.173 404.655  1.00  0.00    -0.550 OA
ENDBRANCH   5   6
ENDBRANCH   4   5
ENDBRANCH   3   4
ENDBRANCH   2   3
ENDBRANCH   1   2
BRANCH   1   9
ATOM      9  C   UNL     1       4.373   2.975 402.359  1.00  0.00     0.000 C 
BRANCH   9  10
ATOM     10  C   UNL     1       3.765   2.488 401.038  1.00  0.00    -0.000 C 
BRANCH  10  11
ATOM     11  C   UNL     1       4.561   1.303 400.470  1.00  0.00    -0.000 C 
BRANCH  11  12
ATOM     12  C   UNL     1       3.723   0.018 400.373  1.00  0.00    -0.000 C 
BRANCH  12  13
ATOM     13  C   UNL     1       4.588  -1.243 400.237  1.00  0.00    -0.003 C 
ATOM     14  C   UNL     1       3.722  -2.496 400.145  1.00  0.00     0.004 C 
ENDBRANCH  12  13
ENDBRANCH  11  12
ENDBRANCH  10  11
ENDBRANCH   9  10
ENDBRANCH   1   9
TORSDOF 10
ENDMDL
MODEL 3
REMARK VINA RESULT:    -3.552      1.920      4.052
REMARK INTER + INTRA:          -6.973
REMARK INTER:                  -5.877
REMARK INTRA:                  -1.096
REMARK UNBOUND:                -1.345
REMARK SMILES CCCCCCCCCCCC(=O)[O-]
REMARK SMILES IDX 7 1 8 2 9 3 10 4 11 5 12 6 13 7 14 8 6 9 5 10 4 11 3 12 2 13
REMARK SMILES IDX 1 14
REMARK H PARENT
REMARK Flexibility Score: inf
ROOT
ATOM      1  C   UNL     1       5.377  -0.376 400.147  1.00  0.00     0.000 C 
ENDROOT
BRANCH   1   2
ATOM      2  C   UNL     1       3.991  -1.001 400.372  1.00  0.00     0.000 C 
BRANCH   2   3
ATOM      3  C   UNL     1       3.967  -1.977 401.560  1.00  0.00     0.000 C 
BRANCH   3   4
ATOM      4  C   UNL     1       3.517  -3.391 401.154  1.00  0.00     0.006 C 
BRANCH   4   5
ATOM      5  C   UNL     1       4.563  -4.456 401.507  1.00  0.00     0.053 C 
BRANCH   5   6
ATOM      6  C   UNL     1       4.110  -5.333 402.633  1.00  0.00     0.041 C 
ATOM      7  O   UNL     1       3.685  -6.495 402.399  1.00  0.00    -0.550 OA
ATOM      8  O   UNL     1       4.185  -4.879 403.943  1.00  0.00    -0.550 OA
ENDBRANCH   5   6
ENDBRANCH   4   5
ENDBRANCH   3   4
ENDBRANCH   2   3
ENDBRANCH   1   2
BRANCH   1   9
ATOM      9  C   UNL     1       5.301   1.155 400.191  1.00  0.00     0.000 C 
BRANCH   9  10
ATOM     10  C   UNL     1       3.882   1.629 400.525  1.00  0.00    -0.000 C 
BRANCH  10  11
ATOM     11  C   UNL     1       3.906   2.713 401.613  1.00  0.00    -0.000 C 
BRANCH  11  12
ATOM     12  C   UNL     1       4.867   2.375 402.765  1.00  0.00    -0.000 C 
BRANCH  12  13
ATOM     13  C   UNL     1       4.289   1.328 403.729  1.00  0.00    -0.003 C 
ATOM     14  C   UNL     1       5.365   0.342 404.176  1.00  0.00     0.004 C 
ENDBRANCH  12  13
ENDBRANCH  11  12
ENDBRANCH  10  11
ENDBRANCH   9  10
ENDBRANCH   1   9
TORSDOF 10
ENDMDL
MODEL 4
REMARK VINA RESULT:    -3.539      2.766      5.455
REMARK INTER + INTRA:          -6.953
REMARK INTER:                  -6.041
REMARK INTRA:                  -0.912
REMARK UNBOUND:                -1.345
REMARK SMILES CCCCCCCCCCCC(=O)[O-]
REMARK SMILES IDX 7 1 8 2 9 3 10 4 11 5 12 6 13 7 14 8 6 9 5 10 4 11 3 12 2 13
REMARK SMILES IDX 1 14
REMARK H PARENT
REMARK Flexibility Score: inf
ROOT
ATOM      1  C   UNL     1       3.166  -3.377 401.147  1.00  0.00     0.000 C 
ENDROOT
BRANCH   1   2
ATOM      2  C   UNL     1       3.611  -2.458 400.000  1.00  0.00     0.000 C 
BRANCH   2   3
ATOM      3  C   UNL     1       4.576  -1.355 400.463  1.00  0.00     0.000 C 
BRANCH   3   4
ATOM      4  C   UNL     1       4.058   0.058 400.142  1.00  0.00     0.006 C 
BRANCH   4   5
ATOM      5  C   UNL     1       5.046   1.150 400.575  1.00  0.00     0.053 C 
BRANCH   5   6
ATOM      6  C   UNL     1       4.367   2.245 401.340  1.00  0.00     0.041 C 
ATOM      7  O   UNL     1       3.505   2.970 400.777  1.00  0.00    -0.550 OA
ATOM      8  O   UNL     1       4.664   2.446 402.681  1.00  0.00    -0.550 OA
ENDBRANCH   5   6
ENDBRANCH   4   5
ENDBRANCH   3   4
ENDBRANCH   2   3
ENDBRANCH   1   2
BRANCH   1   9
ATOM      9  C   UNL     1       4.323  -4.270 401.614  1.00  0.00     0.000 C 
BRANCH   9  10
ATOM     10  C   UNL     1       3.985  -4.962 402.940  1.00  0.00    -0.000 C 
BRANCH  10  11
ATOM     11  C   UNL     1       4.278  -4.040 404.132  1.00  0.00    -0.000 C 
BRANCH  11  12
ATOM     12  C   UNL     1       3.000  -3.479 404.776  1.00  0.00    -0.000 C 
BRANCH  12  13
ATOM     13  C   UNL     1       3.146  -2.009 405.196  1.00  0.00    -0.003 C 
ATOM     14  C   UNL     1       3.914  -1.212 404.145  1.00  0.00     0.004 C 
ENDBRANCH  12  13
ENDBRANCH  11  12
ENDBRANCH  10  11
ENDBRANCH   9  10
ENDBRANCH   1   9
TORSDOF 10
ENDMDL
MODEL 5
REMARK VINA RESULT:    -3.535      1.771      2.564
REMARK INTER + INTRA:          -6.947
REMARK INTER:                  -5.301
REMARK INTRA:                  -1.646
REMARK UNBOUND:                -1.345
REMARK SMILES CCCCCCCCCCCC(=O)[O-]
REMARK SMILES IDX 7 1 8 2 9 3 10 4 11 5 12 6 13 7 14 8 6 9 5 10 4 11 3 12 2 13
REMARK SMILES IDX 1 14
REMARK H PARENT
REMARK Flexibility Score: inf
ROOT
ATOM      1  C   UNL     1       4.188   2.227 402.471  1.00  0.00     0.000 C 
ENDROOT
BRANCH   1   2
ATOM      2  C   UNL     1       5.688   2.470 402.699  1.00  0.00     0.000 C 
BRANCH   2   3
ATOM      3  C   UNL     1       6.358   1.338 403.493  1.00  0.00     0.000 C 
BRANCH   3   4
ATOM      4  C   UNL     1       5.339   0.361 404.106  1.00  0.00     0.006 C 
BRANCH   4   5
ATOM      5  C   UNL     1       5.881  -1.073 404.176  1.00  0.00     0.053 C 
BRANCH   5   6
ATOM      6  C   UNL     1       5.021  -2.033 403.413  1.00  0.00     0.041 C 
ATOM      7  O   UNL     1       5.546  -2.865 402.627  1.00  0.00    -0.550 OA
ATOM      8  O   UNL     1       3.644  -2.029 403.592  1.00  0.00    -0.550 OA
ENDBRANCH   5   6
ENDBRANCH   4   5
ENDBRANCH   3   4
ENDBRANCH   2   3
ENDBRANCH   1   2
BRANCH   1   9
ATOM      9  C   UNL     1       3.750   2.749 401.097  1.00  0.00     0.000 C 
BRANCH   9  10
ATOM     10  C   UNL     1       3.210   1.613 400.221  1.00  0.00    -0.000 C 
BRANCH  10  11
ATOM     11  C   UNL     1       3.610   0.243 400.789  1.00  0.00    -0.000 C 
BRANCH  11  12
ATOM     12  C   UNL     1       4.544  -0.538 399.851  1.00  0.00    -0.000 C 
BRANCH  12  13
ATOM     13  C   UNL     1       6.027  -0.341 400.196  1.00  0.00    -0.003 C 
ATOM     14  C   UNL     1       6.642   0.776 399.357  1.00  0.00     0.004 C 
ENDBRANCH  12  13
ENDBRANCH  11  12
ENDBRANCH  10  11
ENDBRANCH   9  10
ENDBRANCH   1   9
TORSDOF 10
ENDMDL
MODEL 6
REMARK VINA RESULT:    -3.528      1.011      3.514
REMARK INTER + INTRA:          -6.936
REMARK INTER:                  -5.704
REMARK INTRA:                  -1.233
REMARK UNBOUND:                -1.345
REMARK SMILES CCCCCCCCCCCC(=O)[O-]
REMARK SMILES IDX 7 1 8 2 9 3 10 4 11 5 12 6 13 7 14 8 6 9 5 10 4 11 3 12 2 13
REMARK SMILES IDX 1 14
REMARK H PARENT
REMARK Flexibility Score: inf
ROOT
ATOM      1  C   UNL     1       5.244  -1.374 400.401  1.00  0.00     0.000 C 
ENDROOT
BRANCH   1   2
ATOM      2  C   UNL     1       3.959  -2.159 400.099  1.00  0.00     0.000 C 
BRANCH   2   3
ATOM      3  C   UNL     1       3.492  -3.013 401.288  1.00  0.00     0.000 C 
BRANCH   3   4
ATOM      4  C   UNL     1       3.953  -2.445 402.642  1.00  0.00     0.006 C 
BRANCH   4   5
ATOM      5  C   UNL     1       3.783  -3.457 403.783  1.00  0.00     0.053 C 
BRANCH   5   6
ATOM      6  C   UNL     1       2.731  -3.027 404.758  1.00  0.00     0.041 C 
ATOM      7  O   UNL     1       1.515  -3.252 404.518  1.00  0.00    -0.550 OA
ATOM      8  O   UNL     1       3.093  -2.405 405.946  1.00  0.00    -0.550 OA
ENDBRANCH   5   6
ENDBRANCH   4   5
ENDBRANCH   3   4
ENDBRANCH   2   3
ENDBRANCH   1   2
BRANCH   1   9
ATOM      9  C   UNL     1       5.096   0.099 399.998  1.00  0.00     0.000 C 
BRANCH   9  10
ATOM     10  C   UNL     1       3.679   0.610 400.286  1.00  0.00    -0.000 C 
BRANCH  10  11
ATOM     11  C   UNL     1       3.704   1.745 401.319  1.00  0.00    -0.000 C 
BRANCH  11  12
ATOM     12  C   UNL     1       3.674   1.230 402.768  1.00  0.00    -0.000 C 
BRANCH  12  13
ATOM     13  C   UNL     1       4.905   1.666 403.576  1.00  0.00    -0.003 C 
ATOM     14  C   UNL     1       5.739   0.460 403.999  1.00  0.00     0.004 C 
ENDBRANCH  12  13
ENDBRANCH  11  12
ENDBRANCH  10  11
ENDBRANCH   9  10
ENDBRANCH   1   9
TORSDOF 10
ENDMDL
MODEL 7
REMARK VINA RESULT:    -3.493      2.870      4.576
REMARK INTER + INTRA:          -6.881
REMARK INTER:                  -5.850
REMARK INTRA:                  -1.031
REMARK UNBOUND:                -1.345
REMARK SMILES CCCCCCCCCCCC(=O)[O-]
REMARK SMILES IDX 7 1 8 2 9 3 10 4 11 5 12 6 13 7 14 8 6 9 5 10 4 11 3 12 2 13
REMARK SMILES IDX 1 14
REMARK H PARENT
REMARK Flexibility Score: inf
ROOT
ATOM      1  C   UNL     1       3.658  -2.423 399.955  1.00  0.00     0.000 C 
ENDROOT
BRANCH   1   2
ATOM      2  C   UNL     1       4.862  -1.619 400.467  1.00  0.00     0.000 C 
BRANCH   2   3
ATOM      3  C   UNL     1       4.796  -0.135 400.073  1.00  0.00     0.000 C 
BRANCH   3   4
ATOM      4  C   UNL     1       3.578   0.585 400.679  1.00  0.00     0.006 C 
BRANCH   4   5
ATOM      5  C   UNL     1       3.592   0.555 402.213  1.00  0.00     0.053 C 
BRANCH   5   6
ATOM      6  C   UNL     1       4.227   1.783 402.790  1.00  0.00     0.041 C 
ATOM      7  O   UNL     1       4.322   2.831 402.098  1.00  0.00    -0.550 OA
ATOM      8  O   UNL     1       4.687   1.780 404.100  1.00  0.00    -0.550 OA
ENDBRANCH   5   6
ENDBRANCH   4   5
ENDBRANCH   3   4
ENDBRANCH   2   3
ENDBRANCH   1   2
BRANCH   1   9
ATOM      9  C   UNL     1       3.091  -3.326 401.058  1.00  0.00     0.000 C 
BRANCH   9  10
ATOM     10  C   UNL     1       3.913  -3.204 402.347  1.00  0.00    -0.000 C 
BRANCH  10  11
ATOM     11  C   UNL     1       4.373  -4.585 402.838  1.00  0.00    -0.000 C 
BRANCH  11  12
ATOM     12  C   UNL     1       5.403  -5.234 401.900  1.00  0.00    -0.000 C 
BRANCH  12  13
ATOM     13  C   UNL     1       5.102  -6.715 401.625  1.00  0.00    -0.003 C 
ATOM     14  C   UNL     1       3.666  -7.062 402.008  1.00  0.00     0.004 C 
ENDBRANCH  12  13
ENDBRANCH  11  12
ENDBRANCH  10  11
ENDBRANCH   9  10
ENDBRANCH   1   9
TORSDOF 10
ENDMDL
MODEL 8
REMARK VINA RESULT:    -3.473      1.677      2.732
REMARK INTER + INTRA:          -6.849
REMARK INTER:                  -5.715
REMARK INTRA:                  -1.134
REMARK UNBOUND:                -1.345
REMARK SMILES CCCCCCCCCCCC(=O)[O-]
REMARK SMILES IDX 7 1 8 2 9 3 10 4 11 5 12 6 13 7 14 8 6 9 5 10 4 11 3 12 2 13
REMARK SMILES IDX 1 14
REMARK H PARENT
REMARK Flexibility Score: inf
ROOT
ATOM      1  C   UNL     1       5.501   1.045 400.430  1.00  0.00     0.000 C 
ENDROOT
BRANCH   1   2
ATOM      2  C   UNL     1       4.159   1.768 400.619  1.00  0.00     0.000 C 
BRANCH   2   3
ATOM      3  C   UNL     1       4.103   2.582 401.921  1.00  0.00     0.000 C 
BRANCH   3   4
ATOM      4  C   UNL     1       5.268   2.258 402.873  1.00  0.00     0.006 C 
BRANCH   4   5
ATOM      5  C   UNL     1       4.793   1.559 404.154  1.00  0.00     0.053 C 
BRANCH   5   6
ATOM      6  C   UNL     1       4.809   0.067 404.015  1.00  0.00     0.041 C 
ATOM      7  O   UNL     1       3.776  -0.544 403.633  1.00  0.00    -0.550 OA
ATOM      8  O   UNL     1       5.971  -0.645 404.276  1.00  0.00    -0.550 OA
ENDBRANCH   5   6
ENDBRANCH   4   5
ENDBRANCH   3   4
ENDBRANCH   2   3
ENDBRANCH   1   2
BRANCH   1   9
ATOM      9  C   UNL     1       5.296  -0.472 400.323  1.00  0.00     0.000 C 
BRANCH   9  10
ATOM     10  C   UNL     1       3.863  -0.807 399.894  1.00  0.00    -0.000 C 
BRANCH  10  11
ATOM     11  C   UNL     1       3.656  -2.326 399.805  1.00  0.00    -0.000 C 
BRANCH  11  12
ATOM     12  C   UNL     1       3.294  -2.955 401.160  1.00  0.00    -0.000 C 
BRANCH  12  13
ATOM     13  C   UNL     1       4.225  -4.116 401.540  1.00  0.00    -0.003 C 
ATOM     14  C   UNL     1       5.212  -3.694 402.625  1.00  0.00     0.004 C 
ENDBRANCH  12  13
ENDBRANCH  11  12
ENDBRANCH  10  11
ENDBRANCH   9  10
ENDBRANCH   1   9
TORSDOF 10
ENDMDL
MODEL 9
REMARK VINA RESULT:    -3.427      2.196      3.434
REMARK INTER + INTRA:          -6.775
REMARK INTER:                  -5.211
REMARK INTRA:                  -1.564
REMARK UNBOUND:                -1.345
REMARK SMILES CCCCCCCCCCCC(=O)[O-]
REMARK SMILES IDX 7 1 8 2 9 3 10 4 11 5 12 6 13 7 14 8 6 9 5 10 4 11 3 12 2 13
REMARK SMILES IDX 1 14
REMARK H PARENT
REMARK Flexibility Score: inf
ROOT
ATOM      1  C   UNL     1       6.563   1.144 403.353  1.00  0.00     0.000 C 
ENDROOT
BRANCH   1   2
ATOM      2  C   UNL     1       5.514   0.255 404.039  1.00  0.00     0.000 C 
BRANCH   2   3
ATOM      3  C   UNL     1       5.421  -1.144 403.410  1.00  0.00     0.000 C 
BRANCH   3   4
ATOM      4  C   UNL     1       3.975  -1.667 403.343  1.00  0.00     0.006 C 
BRANCH   4   5
ATOM      5  C   UNL     1       3.914  -3.157 402.982  1.00  0.00     0.053 C 
BRANCH   5   6
ATOM      6  C   UNL     1       3.954  -3.376 401.501  1.00  0.00     0.041 C 
ATOM      7  O   UNL     1       2.901  -3.281 400.818  1.00  0.00    -0.550 OA
ATOM      8  O   UNL     1       5.160  -3.652 400.870  1.00  0.00    -0.550 OA
ENDBRANCH   5   6
ENDBRANCH   4   5
ENDBRANCH   3   4
ENDBRANCH   2   3
ENDBRANCH   1   2
BRANCH   1   9
ATOM      9  C   UNL     1       5.971   2.513 402.993  1.00  0.00     0.000 C 
BRANCH   9  10
ATOM     10  C   UNL     1       4.509   2.382 402.549  1.00  0.00    -0.000 C 
BRANCH  10  11
ATOM     11  C   UNL     1       4.413   2.150 401.034  1.00  0.00    -0.000 C 
BRANCH  11  12
ATOM     12  C   UNL     1       3.540   0.936 400.675  1.00  0.00    -0.000 C 
BRANCH  12  13
ATOM     13  C   UNL     1       4.301  -0.117 399.855  1.00  0.00    -0.003 C 
ATOM     14  C   UNL     1       5.794   0.197 399.810  1.00  0.00     0.004 C 
ENDBRANCH  12  13
ENDBRANCH  11  12
ENDBRANCH  10  11
ENDBRANCH   9  10
ENDBRANCH   1   9
TORSDOF 10
ENDMDL
