MODEL 1
REMARK VINA RESULT:    -3.481      0.000      0.000
REMARK INTER + INTRA:          -8.997
REMARK INTER:                  -6.736
REMARK INTRA:                  -2.260
REMARK UNBOUND:                -2.260
REMARK SMILES CCCCCCCCCCCCCCCCCC(=O)[O-]
REMARK SMILES IDX 10 1 11 2 12 3 13 4 14 5 15 6 16 7 17 8 18 9 19 10 20 11
REMARK SMILES IDX 9 12 8 13 7 14 6 15 5 16 4 17 3 18 2 19 1 20
REMARK H PARENT
REMARK Flexibility Score: inf
ROOT
ATOM      1  C   UNL     1     -15.166 -13.167   5.664  1.00  0.00     0.000 C 
ENDROOT
BRANCH   1   2
ATOM      2  C   UNL     1     -13.665 -12.835   5.683  1.00  0.00     0.000 C 
BRANCH   2   3
ATOM      3  C   UNL     1     -13.309 -11.650   4.771  1.00  0.00     0.000 C 
BRANCH   3   4
ATOM      4  C   UNL     1     -12.429 -12.106   3.598  1.00  0.00     0.000 C 
BRANCH   4   5
ATOM      5  C   UNL     1     -13.246 -12.497   2.352  1.00  0.00     0.000 C 
BRANCH   5   6
ATOM      6  C   UNL     1     -14.581 -11.747   2.179  1.00  0.00     0.000 C 
BRANCH   6   7
ATOM      7  C   UNL     1     -14.478 -10.360   1.516  1.00  0.00     0.006 C 
BRANCH   7   8
ATOM      8  C   UNL     1     -14.925  -9.198   2.423  1.00  0.00     0.053 C 
BRANCH   8   9
ATOM      9  C   UNL     1     -13.780  -8.335   2.861  1.00  0.00     0.041 C 
ATOM     10  O   UNL     1     -13.472  -8.260   4.081  1.00  0.00    -0.550 OA
ATOM     11  O   UNL     1     -13.076  -7.584   1.929  1.00  0.00    -0.550 OA
ENDBRANCH   8   9
ENDBRANCH   7   8
ENDBRANCH   6   7
ENDBRANCH   5   6
ENDBRANCH   4   5
ENDBRANCH   3   4
ENDBRANCH   2   3
ENDBRANCH   1   2
BRANCH   1  12
ATOM     12  C   UNL     1     -15.439 -14.648   5.348  1.00  0.00     0.000 C 
BRANCH  12  13
ATOM     13  C   UNL     1     -14.242 -15.351   4.684  1.00  0.00    -0.000 C 
BRANCH  13  14
ATOM     14  C   UNL     1     -14.521 -15.927   3.283  1.00  0.00    -0.000 C 
BRANCH  14  15
ATOM     15  C   UNL     1     -13.302 -16.648   2.681  1.00  0.00    -0.000 C 
BRANCH  15  16
ATOM     16  C   UNL     1     -13.412 -18.178   2.773  1.00  0.00    -0.000 C 
BRANCH  16  17
ATOM     17  C   UNL     1     -12.221 -18.811   3.512  1.00  0.00    -0.000 C 
BRANCH  17  18
ATOM     18  C   UNL     1     -12.294 -18.620   5.039  1.00  0.00    -0.000 C 
BRANCH  18  19
ATOM     19  C   UNL     1     -13.428 -19.392   5.738  1.00  0.00    -0.003 C 
ATOM     20  C   UNL     1     -14.403 -18.480   6.481  1.00  0.00     0.004 C 
ENDBRANCH  18  19
ENDBRANCH  17  18
ENDBRANCH  16  17
ENDBRANCH  15  16
ENDBRANCH  14  15
ENDBRANCH  13  14
ENDBRANCH  12  13
ENDBRANCH   1  12
TORSDOF 16
ENDMDL
MODEL 2
REMARK VINA RESULT:    -3.462      3.654      8.054
REMARK INTER + INTRA:          -8.961
REMARK INTER:                  -7.025
REMARK INTRA:                  -1.936
REMARK UNBOUND:                -2.260
REMARK SMILES CCCCCCCCCCCCCCCCCC(=O)[O-]
REMARK SMILES IDX 10 1 11 2 12 3 13 4 14 5 15 6 16 7 17 8 18 9 19 10 20 11
REMARK SMILES IDX 9 12 8 13 7 14 6 15 5 16 4 17 3 18 2 19 1 20
REMARK H PARENT
REMARK Flexibility Score: inf
ROOT
ATOM      1  C   UNL     1     -13.170 -15.788   2.208  1.00  0.00     0.000 C 
ENDROOT
BRANCH   1   2
ATOM      2  C   UNL     1     -14.442 -15.796   3.070  1.00  0.00     0.000 C 
BRANCH   2   3
ATOM      3  C   UNL     1     -14.182 -15.342   4.515  1.00  0.00     0.000 C 
BRANCH   3   4
ATOM      4  C   UNL     1     -15.343 -15.749   5.434  1.00  0.00     0.000 C 
BRANCH   4   5
ATOM      5  C   UNL     1     -15.573 -17.271   5.474  1.00  0.00     0.000 C 
BRANCH   5   6
ATOM      6  C   UNL     1     -14.867 -18.012   6.625  1.00  0.00     0.000 C 
BRANCH   6   7
ATOM      7  C   UNL     1     -13.719 -18.949   6.202  1.00  0.00     0.006 C 
BRANCH   7   8
ATOM      8  C   UNL     1     -13.534 -19.064   4.678  1.00  0.00     0.053 C 
BRANCH   8   9
ATOM      9  C   UNL     1     -12.112 -18.858   4.251  1.00  0.00     0.041 C 
ATOM     10  O   UNL     1     -11.253 -18.454   5.079  1.00  0.00    -0.550 OA
ATOM     11  O   UNL     1     -11.741 -19.077   2.931  1.00  0.00    -0.550 OA
ENDBRANCH   8   9
ENDBRANCH   7   8
ENDBRANCH   6   7
ENDBRANCH   5   6
ENDBRANCH   4   5
ENDBRANCH   3   4
ENDBRANCH   2   3
ENDBRANCH   1   2
BRANCH   1  12
ATOM     12  C   UNL     1     -13.170 -14.658   1.165  1.00  0.00     0.000 C 
BRANCH  12  13
ATOM     13  C   UNL     1     -12.370 -13.423   1.617  1.00  0.00    -0.000 C 
BRANCH  13  14
ATOM     14  C   UNL     1     -13.188 -12.357   2.370  1.00  0.00    -0.000 C 
BRANCH  14  15
ATOM     15  C   UNL     1     -12.603 -12.022   3.753  1.00  0.00    -0.000 C 
BRANCH  15  16
ATOM     16  C   UNL     1     -13.628 -11.359   4.686  1.00  0.00    -0.000 C 
BRANCH  16  17
ATOM     17  C   UNL     1     -14.309 -10.139   4.043  1.00  0.00    -0.000 C 
BRANCH  17  18
ATOM     18  C   UNL     1     -13.395  -8.901   3.991  1.00  0.00    -0.000 C 
BRANCH  18  19
ATOM     19  C   UNL     1     -13.554  -8.028   2.734  1.00  0.00    -0.003 C 
ATOM     20  C   UNL     1     -14.030  -8.815   1.514  1.00  0.00     0.004 C 
ENDBRANCH  18  19
ENDBRANCH  17  18
ENDBRANCH  16  17
ENDBRANCH  15  16
ENDBRANCH  14  15
ENDBRANCH  13  14
ENDBRANCH  12  13
ENDBRANCH   1  12
TORSDOF 16
ENDMDL
MODEL 3
REMARK VINA RESULT:    -3.441      2.112      4.552
REMARK INTER + INTRA:          -8.920
REMARK INTER:                  -6.582
REMARK INTRA:                  -2.338
REMARK UNBOUND:                -2.260
REMARK SMILES CCCCCCCCCCCCCCCCCC(=O)[O-]
REMARK SMILES IDX 10 1 11 2 12 3 13 4 14 5 15 6 16 7 17 8 18 9 19 10 20 11
REMARK SMILES IDX 9 12 8 13 7 14 6 15 5 16 4 17 3 18 2 19 1 20
REMARK H PARENT
REMARK Flexibility Score: inf
ROOT
ATOM      1  C   UNL     1     -13.511 -19.122   6.117  1.00  0.00     0.000 C 
ENDROOT
BRANCH   1   2
ATOM      2  C   UNL     1     -14.781 -18.413   5.622  1.00  0.00     0.000 C 
BRANCH   2   3
ATOM      3  C   UNL     1     -15.380 -17.467   6.675  1.00  0.00     0.000 C 
BRANCH   3   4
ATOM      4  C   UNL     1     -15.859 -16.159   6.026  1.00  0.00     0.000 C 
BRANCH   4   5
ATOM      5  C   UNL     1     -15.260 -15.930   4.626  1.00  0.00     0.000 C 
BRANCH   5   6
ATOM      6  C   UNL     1     -14.249 -14.772   4.525  1.00  0.00     0.000 C 
BRANCH   6   7
ATOM      7  C   UNL     1     -14.514 -13.579   5.464  1.00  0.00     0.006 C 
BRANCH   7   8
ATOM      8  C   UNL     1     -13.301 -12.649   5.653  1.00  0.00     0.053 C 
BRANCH   8   9
ATOM      9  C   UNL     1     -13.138 -11.676   4.524  1.00  0.00     0.041 C 
ATOM     10  O   UNL     1     -12.492 -12.002   3.493  1.00  0.00    -0.550 OA
ATOM     11  O   UNL     1     -13.668 -10.397   4.625  1.00  0.00    -0.550 OA
ENDBRANCH   8   9
ENDBRANCH   7   8
ENDBRANCH   6   7
ENDBRANCH   5   6
ENDBRANCH   4   5
ENDBRANCH   3   4
ENDBRANCH   2   3
ENDBRANCH   1   2
BRANCH   1  12
ATOM     12  C   UNL     1     -12.432 -19.231   5.027  1.00  0.00     0.000 C 
BRANCH  12  13
ATOM     13  C   UNL     1     -12.386 -18.002   4.102  1.00  0.00    -0.000 C 
BRANCH  13  14
ATOM     14  C   UNL     1     -12.790 -18.270   2.641  1.00  0.00    -0.000 C 
BRANCH  14  15
ATOM     15  C   UNL     1     -13.027 -19.763   2.352  1.00  0.00    -0.000 C 
BRANCH  15  16
ATOM     16  C   UNL     1     -14.519 -20.129   2.312  1.00  0.00    -0.000 C 
BRANCH  16  17
ATOM     17  C   UNL     1     -14.779 -21.589   2.719  1.00  0.00    -0.000 C 
BRANCH  17  18
ATOM     18  C   UNL     1     -15.368 -21.720   4.136  1.00  0.00    -0.000 C 
BRANCH  18  19
ATOM     19  C   UNL     1     -14.524 -22.551   5.118  1.00  0.00    -0.003 C 
ATOM     20  C   UNL     1     -13.129 -22.873   4.583  1.00  0.00     0.004 C 
ENDBRANCH  18  19
ENDBRANCH  17  18
ENDBRANCH  16  17
ENDBRANCH  15  16
ENDBRANCH  14  15
ENDBRANCH  13  14
ENDBRANCH  12  13
ENDBRANCH   1  12
TORSDOF 16
ENDMDL
MODEL 4
REMARK VINA RESULT:    -3.373      3.885      8.017
REMARK INTER + INTRA:          -8.789
REMARK INTER:                  -6.633
REMARK INTRA:                  -2.156
REMARK UNBOUND:                -2.260
REMARK SMILES CCCCCCCCCCCCCCCCCC(=O)[O-]
REMARK SMILES IDX 10 1 11 2 12 3 13 4 14 5 15 6 16 7 17 8 18 9 19 10 20 11
REMARK SMILES IDX 9 12 8 13 7 14 6 15 5 16 4 17 3 18 2 19 1 20
REMARK H PARENT
REMARK Flexibility Score: inf
ROOT
ATOM      1  C   UNL     1     -13.170 -12.605   5.361  1.00  0.00     0.000 C 
ENDROOT
BRANCH   1   2
ATOM      2  C   UNL     1     -14.689 -12.747   5.543  1.00  0.00     0.000 C 
BRANCH   2   3
ATOM      3  C   UNL     1     -15.271 -13.932   4.756  1.00  0.00     0.000 C 
BRANCH   3   4
ATOM      4  C   UNL     1     -14.266 -15.093   4.692  1.00  0.00     0.000 C 
BRANCH   4   5
ATOM      5  C   UNL     1     -13.988 -15.567   3.253  1.00  0.00     0.000 C 
BRANCH   5   6
ATOM      6  C   UNL     1     -13.634 -17.059   3.109  1.00  0.00     0.000 C 
BRANCH   6   7
ATOM      7  C   UNL     1     -12.750 -17.639   4.231  1.00  0.00     0.006 C 
BRANCH   7   8
ATOM      8  C   UNL     1     -12.782 -19.176   4.321  1.00  0.00     0.053 C 
BRANCH   8   9
ATOM      9  C   UNL     1     -13.454 -19.668   5.568  1.00  0.00     0.041 C 
ATOM     10  O   UNL     1     -13.782 -18.856   6.474  1.00  0.00    -0.550 OA
ATOM     11  O   UNL     1     -13.685 -21.025   5.746  1.00  0.00    -0.550 OA
ENDBRANCH   8   9
ENDBRANCH   7   8
ENDBRANCH   6   7
ENDBRANCH   5   6
ENDBRANCH   4   5
ENDBRANCH   3   4
ENDBRANCH   2   3
ENDBRANCH   1   2
BRANCH   1  12
ATOM     12  C   UNL     1     -12.798 -11.663   4.203  1.00  0.00     0.000 C 
BRANCH  12  13
ATOM     13  C   UNL     1     -12.395 -12.416   2.922  1.00  0.00    -0.000 C 
BRANCH  13  14
ATOM     14  C   UNL     1     -13.353 -12.233   1.730  1.00  0.00    -0.000 C 
BRANCH  14  15
ATOM     15  C   UNL     1     -14.475 -11.220   2.017  1.00  0.00    -0.000 C 
BRANCH  15  16
ATOM     16  C   UNL     1     -14.249  -9.870   1.317  1.00  0.00    -0.000 C 
BRANCH  16  17
ATOM     17  C   UNL     1     -14.663  -8.676   2.193  1.00  0.00    -0.000 C 
BRANCH  17  18
ATOM     18  C   UNL     1     -13.547  -8.219   3.150  1.00  0.00    -0.000 C 
BRANCH  18  19
ATOM     19  C   UNL     1     -13.917  -8.252   4.644  1.00  0.00    -0.003 C 
ATOM     20  C   UNL     1     -15.246  -8.956   4.916  1.00  0.00     0.004 C 
ENDBRANCH  18  19
ENDBRANCH  17  18
ENDBRANCH  16  17
ENDBRANCH  15  16
ENDBRANCH  14  15
ENDBRANCH  13  14
ENDBRANCH  12  13
ENDBRANCH   1  12
TORSDOF 16
ENDMDL
MODEL 5
REMARK VINA RESULT:    -3.355      1.453      2.950
REMARK INTER + INTRA:          -8.753
REMARK INTER:                  -6.935
REMARK INTRA:                  -1.818
REMARK UNBOUND:                -2.260
REMARK SMILES CCCCCCCCCCCCCCCCCC(=O)[O-]
REMARK SMILES IDX 10 1 11 2 12 3 13 4 14 5 15 6 16 7 17 8 18 9 19 10 20 11
REMARK SMILES IDX 9 12 8 13 7 14 6 15 5 16 4 17 3 18 2 19 1 20
REMARK H PARENT
REMARK Flexibility Score: inf
ROOT
ATOM      1  C   UNL     1     -15.591 -16.403   4.753  1.00  0.00     0.000 C 
ENDROOT
BRANCH   1   2
ATOM      2  C   UNL     1     -14.271 -15.631   4.601  1.00  0.00     0.000 C 
BRANCH   2   3
ATOM      3  C   UNL     1     -14.488 -14.156   4.226  1.00  0.00     0.000 C 
BRANCH   3   4
ATOM      4  C   UNL     1     -14.255 -13.243   5.438  1.00  0.00     0.000 C 
BRANCH   4   5
ATOM      5  C   UNL     1     -12.940 -12.446   5.345  1.00  0.00     0.000 C 
BRANCH   5   6
ATOM      6  C   UNL     1     -12.874 -11.419   4.199  1.00  0.00     0.000 C 
BRANCH   6   7
ATOM      7  C   UNL     1     -13.840 -10.225   4.325  1.00  0.00     0.006 C 
BRANCH   7   8
ATOM      8  C   UNL     1     -13.429  -8.996   3.493  1.00  0.00     0.053 C 
BRANCH   8   9
ATOM      9  C   UNL     1     -14.010  -7.719   4.022  1.00  0.00     0.041 C 
ATOM     10  O   UNL     1     -14.783  -7.738   5.016  1.00  0.00    -0.550 OA
ATOM     11  O   UNL     1     -13.728  -6.513   3.395  1.00  0.00    -0.550 OA
ENDBRANCH   8   9
ENDBRANCH   7   8
ENDBRANCH   6   7
ENDBRANCH   5   6
ENDBRANCH   4   5
ENDBRANCH   3   4
ENDBRANCH   2   3
ENDBRANCH   1   2
BRANCH   1  12
ATOM     12  C   UNL     1     -15.869 -16.817   6.209  1.00  0.00     0.000 C 
BRANCH  12  13
ATOM     13  C   UNL     1     -15.040 -18.034   6.657  1.00  0.00    -0.000 C 
BRANCH  13  14
ATOM     14  C   UNL     1     -15.065 -19.231   5.688  1.00  0.00    -0.000 C 
BRANCH  14  15
ATOM     15  C   UNL     1     -13.668 -19.825   5.438  1.00  0.00    -0.000 C 
BRANCH  15  16
ATOM     16  C   UNL     1     -12.546 -18.784   5.579  1.00  0.00    -0.000 C 
BRANCH  16  17
ATOM     17  C   UNL     1     -11.588 -18.784   4.375  1.00  0.00    -0.000 C 
BRANCH  17  18
ATOM     18  C   UNL     1     -12.255 -19.278   3.079  1.00  0.00    -0.000 C 
BRANCH  18  19
ATOM     19  C   UNL     1     -12.871 -18.174   2.202  1.00  0.00    -0.003 C 
ATOM     20  C   UNL     1     -14.377 -18.340   1.999  1.00  0.00     0.004 C 
ENDBRANCH  18  19
ENDBRANCH  17  18
ENDBRANCH  16  17
ENDBRANCH  15  16
ENDBRANCH  14  15
ENDBRANCH  13  14
ENDBRANCH  12  13
ENDBRANCH   1  12
TORSDOF 16
ENDMDL
MODEL 6
REMARK VINA RESULT:    -3.347      4.919      8.566
REMARK INTER + INTRA:          -8.739
REMARK INTER:                  -6.197
REMARK INTRA:                  -2.542
REMARK UNBOUND:                -2.260
REMARK SMILES CCCCCCCCCCCCCCCCCC(=O)[O-]
REMARK SMILES IDX 10 1 11 2 12 3 13 4 14 5 15 6 16 7 17 8 18 9 19 10 20 11
REMARK SMILES IDX 9 12 8 13 7 14 6 15 5 16 4 17 3 18 2 19 1 20
REMARK H PARENT
REMARK Flexibility Score: inf
ROOT
ATOM      1  C   UNL     1     -11.978 -19.176   3.486  1.00  0.00     0.000 C 
ENDROOT
BRANCH   1   2
ATOM      2  C   UNL     1     -12.405 -18.299   4.673  1.00  0.00     0.000 C 
BRANCH   2   3
ATOM      3  C   UNL     1     -13.069 -19.109   5.798  1.00  0.00     0.000 C 
BRANCH   3   4
ATOM      4  C   UNL     1     -14.406 -18.475   6.213  1.00  0.00     0.000 C 
BRANCH   4   5
ATOM      5  C   UNL     1     -15.539 -18.754   5.209  1.00  0.00     0.000 C 
BRANCH   5   6
ATOM      6  C   UNL     1     -15.894 -20.241   5.014  1.00  0.00     0.000 C 
BRANCH   6   7
ATOM      7  C   UNL     1     -15.481 -20.846   3.657  1.00  0.00     0.006 C 
BRANCH   7   8
ATOM      8  C   UNL     1     -15.091 -22.334   3.729  1.00  0.00     0.053 C 
BRANCH   8   9
ATOM      9  C   UNL     1     -13.611 -22.537   3.858  1.00  0.00     0.041 C 
ATOM     10  O   UNL     1     -13.105 -22.821   4.976  1.00  0.00    -0.550 OA
ATOM     11  O   UNL     1     -12.786 -22.378   2.753  1.00  0.00    -0.550 OA
ENDBRANCH   8   9
ENDBRANCH   7   8
ENDBRANCH   6   7
ENDBRANCH   5   6
ENDBRANCH   4   5
ENDBRANCH   3   4
ENDBRANCH   2   3
ENDBRANCH   1   2
BRANCH   1  12
ATOM     12  C   UNL     1     -12.574 -18.696   2.152  1.00  0.00     0.000 C 
BRANCH  12  13
ATOM     13  C   UNL     1     -13.622 -17.583   2.328  1.00  0.00    -0.000 C 
BRANCH  13  14
ATOM     14  C   UNL     1     -13.257 -16.236   1.677  1.00  0.00    -0.000 C 
BRANCH  14  15
ATOM     15  C   UNL     1     -13.799 -15.028   2.460  1.00  0.00    -0.000 C 
BRANCH  15  16
ATOM     16  C   UNL     1     -14.662 -15.439   3.663  1.00  0.00    -0.000 C 
BRANCH  16  17
ATOM     17  C   UNL     1     -14.138 -14.861   4.989  1.00  0.00    -0.000 C 
BRANCH  17  18
ATOM     18  C   UNL     1     -14.483 -13.371   5.171  1.00  0.00    -0.000 C 
BRANCH  18  19
ATOM     19  C   UNL     1     -13.275 -12.448   5.409  1.00  0.00    -0.003 C 
ATOM     20  C   UNL     1     -12.643 -11.944   4.112  1.00  0.00     0.004 C 
ENDBRANCH  18  19
ENDBRANCH  17  18
ENDBRANCH  16  17
ENDBRANCH  15  16
ENDBRANCH  14  15
ENDBRANCH  13  14
ENDBRANCH  12  13
ENDBRANCH   1  12
TORSDOF 16
ENDMDL
MODEL 7
REMARK VINA RESULT:    -3.285      5.357      9.162
REMARK INTER + INTRA:          -8.619
REMARK INTER:                  -6.839
REMARK INTRA:                  -1.780
REMARK UNBOUND:                -2.260
REMARK SMILES CCCCCCCCCCCCCCCCCC(=O)[O-]
REMARK SMILES IDX 10 1 11 2 12 3 13 4 14 5 15 6 16 7 17 8 18 9 19 10 20 11
REMARK SMILES IDX 9 12 8 13 7 14 6 15 5 16 4 17 3 18 2 19 1 20
REMARK H PARENT
REMARK Flexibility Score: inf
ROOT
ATOM      1  C   UNL     1     -13.491 -19.126   6.108  1.00  0.00     0.000 C 
ENDROOT
BRANCH   1   2
ATOM      2  C   UNL     1     -12.192 -18.749   5.379  1.00  0.00     0.000 C 
BRANCH   2   3
ATOM      3  C   UNL     1     -12.438 -18.273   3.938  1.00  0.00     0.000 C 
BRANCH   3   4
ATOM      4  C   UNL     1     -12.110 -19.384   2.930  1.00  0.00     0.000 C 
BRANCH   4   5
ATOM      5  C   UNL     1     -13.358 -19.929   2.211  1.00  0.00     0.000 C 
BRANCH   5   6
ATOM      6  C   UNL     1     -14.050 -21.119   2.902  1.00  0.00     0.000 C 
BRANCH   6   7
ATOM      7  C   UNL     1     -13.115 -22.064   3.682  1.00  0.00     0.006 C 
BRANCH   7   8
ATOM      8  C   UNL     1     -13.697 -22.558   5.019  1.00  0.00     0.053 C 
BRANCH   8   9
ATOM      9  C   UNL     1     -14.864 -23.481   4.835  1.00  0.00     0.041 C 
ATOM     10  O   UNL     1     -15.714 -23.621   5.754  1.00  0.00    -0.550 OA
ATOM     11  O   UNL     1     -14.995 -24.215   3.664  1.00  0.00    -0.550 OA
ENDBRANCH   8   9
ENDBRANCH   7   8
ENDBRANCH   6   7
ENDBRANCH   5   6
ENDBRANCH   4   5
ENDBRANCH   3   4
ENDBRANCH   2   3
ENDBRANCH   1   2
BRANCH   1  12
ATOM     12  C   UNL     1     -14.724 -18.418   5.523  1.00  0.00     0.000 C 
BRANCH  12  13
ATOM     13  C   UNL     1     -15.470 -17.557   6.559  1.00  0.00    -0.000 C 
BRANCH  13  14
ATOM     14  C   UNL     1     -15.768 -16.114   6.113  1.00  0.00    -0.000 C 
BRANCH  14  15
ATOM     15  C   UNL     1     -14.778 -15.600   5.052  1.00  0.00    -0.000 C 
BRANCH  15  16
ATOM     16  C   UNL     1     -15.155 -14.212   4.512  1.00  0.00    -0.000 C 
BRANCH  16  17
ATOM     17  C   UNL     1     -14.881 -13.090   5.527  1.00  0.00    -0.000 C 
BRANCH  17  18
ATOM     18  C   UNL     1     -13.381 -12.780   5.687  1.00  0.00    -0.000 C 
BRANCH  18  19
ATOM     19  C   UNL     1     -12.759 -11.964   4.540  1.00  0.00    -0.003 C 
ATOM     20  C   UNL     1     -13.490 -10.647   4.278  1.00  0.00     0.004 C 
ENDBRANCH  18  19
ENDBRANCH  17  18
ENDBRANCH  16  17
ENDBRANCH  15  16
ENDBRANCH  14  15
ENDBRANCH  13  14
ENDBRANCH  12  13
ENDBRANCH   1  12
TORSDOF 16
ENDMDL
MODEL 8
REMARK VINA RESULT:    -3.259      5.283      8.677
REMARK INTER + INTRA:          -8.567
REMARK INTER:                  -5.807
REMARK INTRA:                  -2.760
REMARK UNBOUND:                -2.260
REMARK SMILES CCCCCCCCCCCCCCCCCC(=O)[O-]
REMARK SMILES IDX 10 1 11 2 12 3 13 4 14 5 15 6 16 7 17 8 18 9 19 10 20 11
REMARK SMILES IDX 9 12 8 13 7 14 6 15 5 16 4 17 3 18 2 19 1 20
REMARK H PARENT
REMARK Flexibility Score: inf
ROOT
ATOM      1  C   UNL     1     -12.334 -18.779   4.982  1.00  0.00     0.000 C 
ENDROOT
BRANCH   1   2
ATOM      2  C   UNL     1     -12.337 -19.229   3.513  1.00  0.00     0.000 C 
BRANCH   2   3
ATOM      3  C   UNL     1     -12.769 -18.110   2.551  1.00  0.00     0.000 C 
BRANCH   3   4
ATOM      4  C   UNL     1     -14.278 -18.183   2.271  1.00  0.00     0.000 C 
BRANCH   4   5
ATOM      5  C   UNL     1     -14.792 -19.627   2.123  1.00  0.00     0.000 C 
BRANCH   5   6
ATOM      6  C   UNL     1     -16.081 -19.949   2.903  1.00  0.00     0.000 C 
BRANCH   6   7
ATOM      7  C   UNL     1     -16.039 -21.240   3.743  1.00  0.00     0.006 C 
BRANCH   7   8
ATOM      8  C   UNL     1     -14.795 -22.111   3.491  1.00  0.00     0.053 C 
BRANCH   8   9
ATOM      9  C   UNL     1     -14.310 -22.799   4.731  1.00  0.00     0.041 C 
ATOM     10  O   UNL     1     -13.083 -23.035   4.888  1.00  0.00    -0.550 OA
ATOM     11  O   UNL     1     -15.216 -23.214   5.698  1.00  0.00    -0.550 OA
ENDBRANCH   8   9
ENDBRANCH   7   8
ENDBRANCH   6   7
ENDBRANCH   5   6
ENDBRANCH   4   5
ENDBRANCH   3   4
ENDBRANCH   2   3
ENDBRANCH   1   2
BRANCH   1  12
ATOM     12  C   UNL     1     -13.478 -19.409   5.795  1.00  0.00     0.000 C 
BRANCH  12  13
ATOM     13  C   UNL     1     -14.314 -18.368   6.562  1.00  0.00    -0.000 C 
BRANCH  13  14
ATOM     14  C   UNL     1     -15.492 -17.768   5.771  1.00  0.00    -0.000 C 
BRANCH  14  15
ATOM     15  C   UNL     1     -15.461 -16.230   5.729  1.00  0.00    -0.000 C 
BRANCH  15  16
ATOM     16  C   UNL     1     -14.392 -15.684   4.770  1.00  0.00    -0.000 C 
BRANCH  16  17
ATOM     17  C   UNL     1     -14.186 -14.167   4.919  1.00  0.00    -0.000 C 
BRANCH  17  18
ATOM     18  C   UNL     1     -13.929 -13.463   3.574  1.00  0.00    -0.000 C 
BRANCH  18  19
ATOM     19  C   UNL     1     -13.840 -14.399   2.355  1.00  0.00    -0.003 C 
ATOM     20  C   UNL     1     -12.595 -14.157   1.503  1.00  0.00     0.004 C 
ENDBRANCH  18  19
ENDBRANCH  17  18
ENDBRANCH  16  17
ENDBRANCH  15  16
ENDBRANCH  14  15
ENDBRANCH  13  14
ENDBRANCH  12  13
ENDBRANCH   1  12
TORSDOF 16
ENDMDL
MODEL 9
REMARK VINA RESULT:    -3.255      1.582      3.214
REMARK INTER + INTRA:          -8.561
REMARK INTER:                  -6.228
REMARK INTRA:                  -2.332
REMARK UNBOUND:                -2.260
REMARK SMILES CCCCCCCCCCCCCCCCCC(=O)[O-]
REMARK SMILES IDX 10 1 11 2 12 3 13 4 14 5 15 6 16 7 17 8 18 9 19 10 20 11
REMARK SMILES IDX 9 12 8 13 7 14 6 15 5 16 4 17 3 18 2 19 1 20
REMARK H PARENT
REMARK Flexibility Score: inf
ROOT
ATOM      1  C   UNL     1     -14.515 -15.537   4.082  1.00  0.00     0.000 C 
ENDROOT
BRANCH   1   2
ATOM      2  C   UNL     1     -14.525 -15.527   2.545  1.00  0.00     0.000 C 
BRANCH   2   3
ATOM      3  C   UNL     1     -13.114 -15.426   1.944  1.00  0.00     0.000 C 
BRANCH   3   4
ATOM      4  C   UNL     1     -13.008 -14.223   0.995  1.00  0.00     0.000 C 
BRANCH   4   5
ATOM      5  C   UNL     1     -12.273 -13.025   1.624  1.00  0.00     0.000 C 
BRANCH   5   6
ATOM      6  C   UNL     1     -13.137 -12.120   2.522  1.00  0.00     0.000 C 
BRANCH   6   7
ATOM      7  C   UNL     1     -12.693 -12.033   3.995  1.00  0.00     0.006 C 
BRANCH   7   8
ATOM      8  C   UNL     1     -13.837 -11.713   4.975  1.00  0.00     0.053 C 
BRANCH   8   9
ATOM      9  C   UNL     1     -14.528 -10.422   4.655  1.00  0.00     0.041 C 
ATOM     10  O   UNL     1     -13.883  -9.340   4.653  1.00  0.00    -0.550 OA
ATOM     11  O   UNL     1     -15.891 -10.407   4.394  1.00  0.00    -0.550 OA
ENDBRANCH   8   9
ENDBRANCH   7   8
ENDBRANCH   6   7
ENDBRANCH   5   6
ENDBRANCH   4   5
ENDBRANCH   3   4
ENDBRANCH   2   3
ENDBRANCH   1   2
BRANCH   1  12
ATOM     12  C   UNL     1     -15.875 -15.939   4.679  1.00  0.00     0.000 C 
BRANCH  12  13
ATOM     13  C   UNL     1     -15.759 -16.518   6.100  1.00  0.00    -0.000 C 
BRANCH  13  14
ATOM     14  C   UNL     1     -15.561 -18.044   6.167  1.00  0.00    -0.000 C 
BRANCH  14  15
ATOM     15  C   UNL     1     -14.176 -18.444   6.705  1.00  0.00    -0.000 C 
BRANCH  15  16
ATOM     16  C   UNL     1     -13.411 -19.369   5.746  1.00  0.00    -0.000 C 
BRANCH  16  17
ATOM     17  C   UNL     1     -12.294 -18.636   4.985  1.00  0.00    -0.000 C 
BRANCH  17  18
ATOM     18  C   UNL     1     -12.482 -18.681   3.457  1.00  0.00    -0.000 C 
BRANCH  18  19
ATOM     19  C   UNL     1     -13.507 -19.715   2.958  1.00  0.00    -0.003 C 
ATOM     20  C   UNL     1     -14.621 -19.095   2.115  1.00  0.00     0.004 C 
ENDBRANCH  18  19
ENDBRANCH  17  18
ENDBRANCH  16  17
ENDBRANCH  15  16
ENDBRANCH  14  15
ENDBRANCH  13  14
ENDBRANCH  12  13
ENDBRANCH   1  12
TORSDOF 16
ENDMDL
