MODEL 1
REMARK VINA RESULT:    -3.701      0.000      0.000
REMARK INTER + INTRA:          -9.041
REMARK INTER:                  -6.729
REMARK INTRA:                  -2.311
REMARK UNBOUND:                -2.311
REMARK SMILES CCCCCCCCCCCCCCCC(=O)[O-]
REMARK SMILES IDX 9 1 10 2 11 3 12 4 13 5 14 6 15 7 16 8 17 9 18 10 8 11 7 12
REMARK SMILES IDX 6 13 5 14 4 15 3 16 2 17 1 18
REMARK H PARENT
REMARK Flexibility Score: inf
ROOT
ATOM      1  C   UNL     1       3.917   1.347  -6.721  1.00  0.00     0.000 C 
ENDROOT
BRANCH   1   2
ATOM      2  C   UNL     1       5.043   1.686  -5.729  1.00  0.00     0.000 C 
BRANCH   2   3
ATOM      3  C   UNL     1       5.449   0.483  -4.864  1.00  0.00     0.000 C 
BRANCH   3   4
ATOM      4  C   UNL     1       5.110  -0.863  -5.530  1.00  0.00     0.000 C 
BRANCH   4   5
ATOM      5  C   UNL     1       6.312  -1.486  -6.262  1.00  0.00     0.000 C 
BRANCH   5   6
ATOM      6  C   UNL     1       6.145  -2.970  -6.636  1.00  0.00     0.006 C 
BRANCH   6   7
ATOM      7  C   UNL     1       5.689  -3.836  -5.455  1.00  0.00     0.053 C 
BRANCH   7   8
ATOM      8  C   UNL     1       6.721  -4.872  -5.138  1.00  0.00     0.041 C 
ATOM      9  O   UNL     1       7.133  -5.014  -3.956  1.00  0.00    -0.550 OA
ATOM     10  O   UNL     1       7.264  -5.647  -6.154  1.00  0.00    -0.550 OA
ENDBRANCH   7   8
ENDBRANCH   6   7
ENDBRANCH   5   6
ENDBRANCH   4   5
ENDBRANCH   3   4
ENDBRANCH   2   3
ENDBRANCH   1   2
BRANCH   1  11
ATOM     11  C   UNL     1       3.847   2.334  -7.897  1.00  0.00     0.000 C 
BRANCH  11  12
ATOM     12  C   UNL     1       4.076   1.652  -9.255  1.00  0.00    -0.000 C 
BRANCH  12  13
ATOM     13  C   UNL     1       4.570   0.212  -9.072  1.00  0.00    -0.000 C 
BRANCH  13  14
ATOM     14  C   UNL     1       5.965   0.026  -9.686  1.00  0.00    -0.000 C 
BRANCH  14  15
ATOM     15  C   UNL     1       6.863   1.260  -9.498  1.00  0.00    -0.000 C 
BRANCH  15  16
ATOM     16  C   UNL     1       7.671   1.208  -8.190  1.00  0.00    -0.000 C 
BRANCH  16  17
ATOM     17  C   UNL     1       8.240   2.580  -7.795  1.00  0.00    -0.003 C 
ATOM     18  C   UNL     1       7.248   3.719  -8.027  1.00  0.00     0.004 C 
ENDBRANCH  16  17
ENDBRANCH  15  16
ENDBRANCH  14  15
ENDBRANCH  13  14
ENDBRANCH  12  13
ENDBRANCH  11  12
ENDBRANCH   1  11
TORSDOF 14
ENDMDL
MODEL 2
REMARK VINA RESULT:    -3.645      1.387      3.399
REMARK INTER + INTRA:          -8.939
REMARK INTER:                  -6.642
REMARK INTRA:                  -2.297
REMARK UNBOUND:                -2.311
REMARK SMILES CCCCCCCCCCCCCCCC(=O)[O-]
REMARK SMILES IDX 9 1 10 2 11 3 12 4 13 5 14 6 15 7 16 8 17 9 18 10 8 11 7 12
REMARK SMILES IDX 6 13 5 14 4 15 3 16 2 17 1 18
REMARK H PARENT
REMARK Flexibility Score: inf
ROOT
ATOM      1  C   UNL     1       8.050   0.615  -7.044  1.00  0.00     0.000 C 
ENDROOT
BRANCH   1   2
ATOM      2  C   UNL     1       7.932  -0.837  -7.539  1.00  0.00     0.000 C 
BRANCH   2   3
ATOM      3  C   UNL     1       6.762  -1.033  -8.516  1.00  0.00     0.000 C 
BRANCH   3   4
ATOM      4  C   UNL     1       5.730  -2.052  -8.002  1.00  0.00     0.000 C 
BRANCH   4   5
ATOM      5  C   UNL     1       6.041  -3.493  -8.446  1.00  0.00     0.000 C 
BRANCH   5   6
ATOM      6  C   UNL     1       6.130  -4.518  -7.301  1.00  0.00     0.006 C 
BRANCH   6   7
ATOM      7  C   UNL     1       5.614  -3.970  -5.966  1.00  0.00     0.053 C 
BRANCH   7   8
ATOM      8  C   UNL     1       6.723  -3.901  -4.965  1.00  0.00     0.041 C 
ATOM      9  O   UNL     1       7.419  -2.856  -4.861  1.00  0.00    -0.550 OA
ATOM     10  O   UNL     1       7.022  -5.007  -4.181  1.00  0.00    -0.550 OA
ENDBRANCH   7   8
ENDBRANCH   6   7
ENDBRANCH   5   6
ENDBRANCH   4   5
ENDBRANCH   3   4
ENDBRANCH   2   3
ENDBRANCH   1   2
BRANCH   1  11
ATOM     11  C   UNL     1       7.566   1.636  -8.086  1.00  0.00     0.000 C 
BRANCH  11  12
ATOM     12  C   UNL     1       7.173   2.981  -7.457  1.00  0.00    -0.000 C 
BRANCH  12  13
ATOM     13  C   UNL     1       5.664   3.227  -7.579  1.00  0.00    -0.000 C 
BRANCH  13  14
ATOM     14  C   UNL     1       5.040   2.299  -8.631  1.00  0.00    -0.000 C 
BRANCH  14  15
ATOM     15  C   UNL     1       4.054   1.290  -8.019  1.00  0.00    -0.000 C 
BRANCH  15  16
ATOM     16  C   UNL     1       3.877   1.482  -6.503  1.00  0.00    -0.000 C 
BRANCH  16  17
ATOM     17  C   UNL     1       4.415   0.291  -5.694  1.00  0.00    -0.003 C 
ATOM     18  C   UNL     1       5.434   0.709  -4.634  1.00  0.00     0.004 C 
ENDBRANCH  16  17
ENDBRANCH  15  16
ENDBRANCH  14  15
ENDBRANCH  13  14
ENDBRANCH  12  13
ENDBRANCH  11  12
ENDBRANCH   1  11
TORSDOF 14
ENDMDL
MODEL 3
REMARK VINA RESULT:    -3.556      1.239      2.539
REMARK INTER + INTRA:          -8.778
REMARK INTER:                  -6.799
REMARK INTRA:                  -1.978
REMARK UNBOUND:                -2.311
REMARK SMILES CCCCCCCCCCCCCCCC(=O)[O-]
REMARK SMILES IDX 9 1 10 2 11 3 12 4 13 5 14 6 15 7 16 8 17 9 18 10 8 11 7 12
REMARK SMILES IDX 6 13 5 14 4 15 3 16 2 17 1 18
REMARK H PARENT
REMARK Flexibility Score: inf
ROOT
ATOM      1  C   UNL     1       5.637  -1.002  -5.600  1.00  0.00     0.000 C 
ENDROOT
BRANCH   1   2
ATOM      2  C   UNL     1       6.878  -0.303  -6.183  1.00  0.00     0.000 C 
BRANCH   2   3
ATOM      3  C   UNL     1       7.188  -0.753  -7.619  1.00  0.00     0.000 C 
BRANCH   3   4
ATOM      4  C   UNL     1       6.384  -1.999  -8.032  1.00  0.00     0.000 C 
BRANCH   4   5
ATOM      5  C   UNL     1       7.244  -3.275  -8.080  1.00  0.00     0.000 C 
BRANCH   5   6
ATOM      6  C   UNL     1       6.528  -4.556  -7.616  1.00  0.00     0.006 C 
BRANCH   6   7
ATOM      7  C   UNL     1       6.085  -4.496  -6.150  1.00  0.00     0.053 C 
BRANCH   7   8
ATOM      8  C   UNL     1       7.157  -5.035  -5.257  1.00  0.00     0.041 C 
ATOM      9  O   UNL     1       7.067  -4.902  -4.007  1.00  0.00    -0.550 OA
ATOM     10  O   UNL     1       8.280  -5.640  -5.805  1.00  0.00    -0.550 OA
ENDBRANCH   7   8
ENDBRANCH   6   7
ENDBRANCH   5   6
ENDBRANCH   4   5
ENDBRANCH   3   4
ENDBRANCH   2   3
ENDBRANCH   1   2
BRANCH   1  11
ATOM     11  C   UNL     1       4.485  -0.025  -5.321  1.00  0.00     0.000 C 
BRANCH  11  12
ATOM     12  C   UNL     1       4.820   1.417  -5.733  1.00  0.00    -0.000 C 
BRANCH  12  13
ATOM     13  C   UNL     1       3.846   1.924  -6.804  1.00  0.00    -0.000 C 
BRANCH  13  14
ATOM     14  C   UNL     1       4.179   1.323  -8.177  1.00  0.00    -0.000 C 
BRANCH  14  15
ATOM     15  C   UNL     1       5.204   2.162  -8.958  1.00  0.00    -0.000 C 
BRANCH  15  16
ATOM     16  C   UNL     1       5.151   3.654  -8.588  1.00  0.00    -0.000 C 
BRANCH  16  17
ATOM     17  C   UNL     1       6.501   4.182  -8.079  1.00  0.00    -0.003 C 
ATOM     18  C   UNL     1       7.479   3.061  -7.727  1.00  0.00     0.004 C 
ENDBRANCH  16  17
ENDBRANCH  15  16
ENDBRANCH  14  15
ENDBRANCH  13  14
ENDBRANCH  12  13
ENDBRANCH  11  12
ENDBRANCH   1  11
TORSDOF 14
ENDMDL
MODEL 4
REMARK VINA RESULT:    -3.464      1.060      2.636
REMARK INTER + INTRA:          -8.610
REMARK INTER:                  -6.239
REMARK INTRA:                  -2.370
REMARK UNBOUND:                -2.311
REMARK SMILES CCCCCCCCCCCCCCCC(=O)[O-]
REMARK SMILES IDX 9 1 10 2 11 3 12 4 13 5 14 6 15 7 16 8 17 9 18 10 8 11 7 12
REMARK SMILES IDX 6 13 5 14 4 15 3 16 2 17 1 18
REMARK H PARENT
REMARK Flexibility Score: inf
ROOT
ATOM      1  C   UNL     1       4.168   0.003  -8.982  1.00  0.00     0.000 C 
ENDROOT
BRANCH   1   2
ATOM      2  C   UNL     1       5.493  -0.346  -9.681  1.00  0.00     0.000 C 
BRANCH   2   3
ATOM      3  C   UNL     1       5.703  -1.861  -9.822  1.00  0.00     0.000 C 
BRANCH   3   4
ATOM      4  C   UNL     1       5.363  -2.626  -8.531  1.00  0.00     0.000 C 
BRANCH   4   5
ATOM      5  C   UNL     1       6.462  -2.508  -7.460  1.00  0.00     0.000 C 
BRANCH   5   6
ATOM      6  C   UNL     1       6.034  -2.932  -6.043  1.00  0.00     0.006 C 
BRANCH   6   7
ATOM      7  C   UNL     1       5.923  -4.452  -5.881  1.00  0.00     0.053 C 
BRANCH   7   8
ATOM      8  C   UNL     1       7.079  -4.980  -5.092  1.00  0.00     0.041 C 
ATOM      9  O   UNL     1       7.111  -4.835  -3.841  1.00  0.00    -0.550 OA
ATOM     10  O   UNL     1       8.145  -5.588  -5.742  1.00  0.00    -0.550 OA
ENDBRANCH   7   8
ENDBRANCH   6   7
ENDBRANCH   5   6
ENDBRANCH   4   5
ENDBRANCH   3   4
ENDBRANCH   2   3
ENDBRANCH   1   2
BRANCH   1  11
ATOM     11  C   UNL     1       4.102   1.474  -8.541  1.00  0.00     0.000 C 
BRANCH  11  12
ATOM     12  C   UNL     1       3.918   1.629  -7.024  1.00  0.00    -0.000 C 
BRANCH  12  13
ATOM     13  C   UNL     1       4.406   0.380  -6.280  1.00  0.00    -0.000 C 
BRANCH  13  14
ATOM     14  C   UNL     1       5.559   0.724  -5.326  1.00  0.00    -0.000 C 
BRANCH  14  15
ATOM     15  C   UNL     1       6.669   1.540  -6.009  1.00  0.00    -0.000 C 
BRANCH  15  16
ATOM     16  C   UNL     1       7.679   0.653  -6.757  1.00  0.00    -0.000 C 
BRANCH  16  17
ATOM     17  C   UNL     1       8.259   1.344  -8.001  1.00  0.00    -0.003 C 
ATOM     18  C   UNL     1       7.584   2.681  -8.303  1.00  0.00     0.004 C 
ENDBRANCH  16  17
ENDBRANCH  15  16
ENDBRANCH  14  15
ENDBRANCH  13  14
ENDBRANCH  12  13
ENDBRANCH  11  12
ENDBRANCH   1  11
TORSDOF 14
ENDMDL
MODEL 5
REMARK VINA RESULT:    -3.423      1.345      2.298
REMARK INTER + INTRA:          -8.536
REMARK INTER:                  -6.248
REMARK INTRA:                  -2.288
REMARK UNBOUND:                -2.311
REMARK SMILES CCCCCCCCCCCCCCCC(=O)[O-]
REMARK SMILES IDX 9 1 10 2 11 3 12 4 13 5 14 6 15 7 16 8 17 9 18 10 8 11 7 12
REMARK SMILES IDX 6 13 5 14 4 15 3 16 2 17 1 18
REMARK H PARENT
REMARK Flexibility Score: inf
ROOT
ATOM      1  C   UNL     1       5.533   0.794  -5.150  1.00  0.00     0.000 C 
ENDROOT
BRANCH   1   2
ATOM      2  C   UNL     1       6.056  -0.580  -5.605  1.00  0.00     0.000 C 
BRANCH   2   3
ATOM      3  C   UNL     1       5.339  -1.097  -6.861  1.00  0.00     0.000 C 
BRANCH   3   4
ATOM      4  C   UNL     1       6.277  -1.882  -7.795  1.00  0.00     0.000 C 
BRANCH   4   5
ATOM      5  C   UNL     1       5.744  -3.284  -8.136  1.00  0.00     0.000 C 
BRANCH   5   6
ATOM      6  C   UNL     1       6.615  -4.449  -7.632  1.00  0.00     0.006 C 
BRANCH   6   7
ATOM      7  C   UNL     1       7.370  -4.115  -6.340  1.00  0.00     0.053 C 
BRANCH   7   8
ATOM      8  C   UNL     1       6.574  -4.536  -5.145  1.00  0.00     0.041 C 
ATOM      9  O   UNL     1       5.349  -4.252  -5.068  1.00  0.00    -0.550 OA
ATOM     10  O   UNL     1       7.194  -5.196  -4.093  1.00  0.00    -0.550 OA
ENDBRANCH   7   8
ENDBRANCH   6   7
ENDBRANCH   5   6
ENDBRANCH   4   5
ENDBRANCH   3   4
ENDBRANCH   2   3
ENDBRANCH   1   2
BRANCH   1  11
ATOM     11  C   UNL     1       4.292   1.243  -5.937  1.00  0.00     0.000 C 
BRANCH  11  12
ATOM     12  C   UNL     1       4.509   2.573  -6.675  1.00  0.00    -0.000 C 
BRANCH  12  13
ATOM     13  C   UNL     1       4.156   2.442  -8.161  1.00  0.00    -0.000 C 
BRANCH  13  14
ATOM     14  C   UNL     1       5.350   1.906  -8.965  1.00  0.00    -0.000 C 
BRANCH  14  15
ATOM     15  C   UNL     1       6.688   2.511  -8.510  1.00  0.00    -0.000 C 
BRANCH  15  16
ATOM     16  C   UNL     1       7.826   1.477  -8.486  1.00  0.00    -0.000 C 
BRANCH  16  17
ATOM     17  C   UNL     1       8.652   1.542  -7.192  1.00  0.00    -0.003 C 
ATOM     18  C   UNL     1       9.324   0.211  -6.852  1.00  0.00     0.004 C 
ENDBRANCH  16  17
ENDBRANCH  15  16
ENDBRANCH  14  15
ENDBRANCH  13  14
ENDBRANCH  12  13
ENDBRANCH  11  12
ENDBRANCH   1  11
TORSDOF 14
ENDMDL
MODEL 6
REMARK VINA RESULT:    -3.398      0.991      1.928
REMARK INTER + INTRA:          -8.490
REMARK INTER:                  -5.869
REMARK INTRA:                  -2.621
REMARK UNBOUND:                -2.311
REMARK SMILES CCCCCCCCCCCCCCCC(=O)[O-]
REMARK SMILES IDX 9 1 10 2 11 3 12 4 13 5 14 6 15 7 16 8 17 9 18 10 8 11 7 12
REMARK SMILES IDX 6 13 5 14 4 15 3 16 2 17 1 18
REMARK H PARENT
REMARK Flexibility Score: inf
ROOT
ATOM      1  C   UNL     1       4.311   1.014  -8.745  1.00  0.00     0.000 C 
ENDROOT
BRANCH   1   2
ATOM      2  C   UNL     1       4.086   0.973  -7.223  1.00  0.00     0.000 C 
BRANCH   2   3
ATOM      3  C   UNL     1       5.324   1.423  -6.432  1.00  0.00     0.000 C 
BRANCH   3   4
ATOM      4  C   UNL     1       5.674   0.458  -5.286  1.00  0.00     0.000 C 
BRANCH   4   5
ATOM      5  C   UNL     1       5.161  -0.972  -5.532  1.00  0.00     0.000 C 
BRANCH   5   6
ATOM      6  C   UNL     1       6.262  -2.041  -5.661  1.00  0.00     0.006 C 
BRANCH   6   7
ATOM      7  C   UNL     1       5.703  -3.448  -5.905  1.00  0.00     0.053 C 
BRANCH   7   8
ATOM      8  C   UNL     1       6.668  -4.485  -5.424  1.00  0.00     0.041 C 
ATOM      9  O   UNL     1       7.190  -4.384  -4.282  1.00  0.00    -0.550 OA
ATOM     10  O   UNL     1       7.031  -5.536  -6.256  1.00  0.00    -0.550 OA
ENDBRANCH   7   8
ENDBRANCH   6   7
ENDBRANCH   5   6
ENDBRANCH   4   5
ENDBRANCH   3   4
ENDBRANCH   2   3
ENDBRANCH   1   2
BRANCH   1  11
ATOM     11  C   UNL     1       5.752   0.653  -9.139  1.00  0.00     0.000 C 
BRANCH  11  12
ATOM     12  C   UNL     1       5.980  -0.865  -9.220  1.00  0.00    -0.000 C 
BRANCH  12  13
ATOM     13  C   UNL     1       7.443  -1.218  -8.925  1.00  0.00    -0.000 C 
BRANCH  13  14
ATOM     14  C   UNL     1       8.291   0.051  -8.754  1.00  0.00    -0.000 C 
BRANCH  14  15
ATOM     15  C   UNL     1       8.801   0.231  -7.316  1.00  0.00    -0.000 C 
BRANCH  15  16
ATOM     16  C   UNL     1       8.954   1.711  -6.925  1.00  0.00    -0.000 C 
BRANCH  16  17
ATOM     17  C   UNL     1       8.824   2.654  -8.131  1.00  0.00    -0.003 C 
ATOM     18  C   UNL     1       7.729   3.705  -7.943  1.00  0.00     0.004 C 
ENDBRANCH  16  17
ENDBRANCH  15  16
ENDBRANCH  14  15
ENDBRANCH  13  14
ENDBRANCH  12  13
ENDBRANCH  11  12
ENDBRANCH   1  11
TORSDOF 14
ENDMDL
MODEL 7
REMARK VINA RESULT:    -3.388      1.607      3.506
REMARK INTER + INTRA:          -8.471
REMARK INTER:                  -6.121
REMARK INTRA:                  -2.350
REMARK UNBOUND:                -2.311
REMARK SMILES CCCCCCCCCCCCCCCC(=O)[O-]
REMARK SMILES IDX 9 1 10 2 11 3 12 4 13 5 14 6 15 7 16 8 17 9 18 10 8 11 7 12
REMARK SMILES IDX 6 13 5 14 4 15 3 16 2 17 1 18
REMARK H PARENT
REMARK Flexibility Score: inf
ROOT
ATOM      1  C   UNL     1       4.385  -0.574  -9.245  1.00  0.00     0.000 C 
ENDROOT
BRANCH   1   2
ATOM      2  C   UNL     1       5.395  -1.679  -9.602  1.00  0.00     0.000 C 
BRANCH   2   3
ATOM      3  C   UNL     1       5.114  -2.995  -8.860  1.00  0.00     0.000 C 
BRANCH   3   4
ATOM      4  C   UNL     1       6.261  -4.010  -9.007  1.00  0.00     0.000 C 
BRANCH   4   5
ATOM      5  C   UNL     1       7.613  -3.458  -8.520  1.00  0.00     0.000 C 
BRANCH   5   6
ATOM      6  C   UNL     1       8.100  -4.032  -7.177  1.00  0.00     0.006 C 
BRANCH   6   7
ATOM      7  C   UNL     1       7.134  -5.062  -6.580  1.00  0.00     0.053 C 
BRANCH   7   8
ATOM      8  C   UNL     1       6.559  -4.557  -5.295  1.00  0.00     0.041 C 
ATOM      9  O   UNL     1       7.266  -4.526  -4.253  1.00  0.00    -0.550 OA
ATOM     10  O   UNL     1       5.227  -4.168  -5.234  1.00  0.00    -0.550 OA
ENDBRANCH   7   8
ENDBRANCH   6   7
ENDBRANCH   5   6
ENDBRANCH   4   5
ENDBRANCH   3   4
ENDBRANCH   2   3
ENDBRANCH   1   2
BRANCH   1  11
ATOM     11  C   UNL     1       4.794   0.801  -9.797  1.00  0.00     0.000 C 
BRANCH  11  12
ATOM     12  C   UNL     1       4.738   1.906  -8.730  1.00  0.00    -0.000 C 
BRANCH  12  13
ATOM     13  C   UNL     1       4.005   1.422  -7.473  1.00  0.00    -0.000 C 
BRANCH  13  14
ATOM     14  C   UNL     1       4.585   2.078  -6.212  1.00  0.00    -0.000 C 
BRANCH  14  15
ATOM     15  C   UNL     1       5.045   1.048  -5.167  1.00  0.00    -0.000 C 
BRANCH  15  16
ATOM     16  C   UNL     1       5.044  -0.389  -5.715  1.00  0.00    -0.000 C 
BRANCH  16  17
ATOM     17  C   UNL     1       6.458  -0.983  -5.812  1.00  0.00    -0.003 C 
ATOM     18  C   UNL     1       7.357  -0.210  -6.777  1.00  0.00     0.004 C 
ENDBRANCH  16  17
ENDBRANCH  15  16
ENDBRANCH  14  15
ENDBRANCH  13  14
ENDBRANCH  12  13
ENDBRANCH  11  12
ENDBRANCH   1  11
TORSDOF 14
ENDMDL
MODEL 8
REMARK VINA RESULT:    -3.350      1.154      2.254
REMARK INTER + INTRA:          -8.403
REMARK INTER:                  -6.297
REMARK INTRA:                  -2.106
REMARK UNBOUND:                -2.311
REMARK SMILES CCCCCCCCCCCCCCCC(=O)[O-]
REMARK SMILES IDX 9 1 10 2 11 3 12 4 13 5 14 6 15 7 16 8 17 9 18 10 8 11 7 12
REMARK SMILES IDX 6 13 5 14 4 15 3 16 2 17 1 18
REMARK H PARENT
REMARK Flexibility Score: inf
ROOT
ATOM      1  C   UNL     1       3.885   2.202  -7.780  1.00  0.00     0.000 C 
ENDROOT
BRANCH   1   2
ATOM      2  C   UNL     1       4.288   0.942  -6.995  1.00  0.00     0.000 C 
BRANCH   2   3
ATOM      3  C   UNL     1       4.958   1.275  -5.653  1.00  0.00     0.000 C 
BRANCH   3   4
ATOM      4  C   UNL     1       5.645   0.052  -5.018  1.00  0.00     0.000 C 
BRANCH   4   5
ATOM      5  C   UNL     1       5.445  -1.236  -5.835  1.00  0.00     0.000 C 
BRANCH   5   6
ATOM      6  C   UNL     1       6.574  -2.273  -5.696  1.00  0.00     0.006 C 
BRANCH   6   7
ATOM      7  C   UNL     1       6.057  -3.686  -5.404  1.00  0.00     0.053 C 
BRANCH   7   8
ATOM      8  C   UNL     1       6.880  -4.705  -6.126  1.00  0.00     0.041 C 
ATOM      9  O   UNL     1       7.889  -5.214  -5.569  1.00  0.00    -0.550 OA
ATOM     10  O   UNL     1       6.565  -5.056  -7.432  1.00  0.00    -0.550 OA
ENDBRANCH   7   8
ENDBRANCH   6   7
ENDBRANCH   5   6
ENDBRANCH   4   5
ENDBRANCH   3   4
ENDBRANCH   2   3
ENDBRANCH   1   2
BRANCH   1  11
ATOM     11  C   UNL     1       4.607   2.312  -9.132  1.00  0.00     0.000 C 
BRANCH  11  12
ATOM     12  C   UNL     1       5.324   3.660  -9.311  1.00  0.00    -0.000 C 
BRANCH  12  13
ATOM     13  C   UNL     1       5.877   4.171  -7.975  1.00  0.00    -0.000 C 
BRANCH  13  14
ATOM     14  C   UNL     1       7.410   4.247  -8.008  1.00  0.00    -0.000 C 
BRANCH  14  15
ATOM     15  C   UNL     1       8.063   2.891  -8.322  1.00  0.00    -0.000 C 
BRANCH  15  16
ATOM     16  C   UNL     1       8.602   2.190  -7.063  1.00  0.00    -0.000 C 
BRANCH  16  17
ATOM     17  C   UNL     1       8.426   0.664  -7.120  1.00  0.00    -0.003 C 
ATOM     18  C   UNL     1       7.750   0.195  -8.408  1.00  0.00     0.004 C 
ENDBRANCH  16  17
ENDBRANCH  15  16
ENDBRANCH  14  15
ENDBRANCH  13  14
ENDBRANCH  12  13
ENDBRANCH  11  12
ENDBRANCH   1  11
TORSDOF 14
ENDMDL
MODEL 9
REMARK VINA RESULT:    -3.280      3.312      5.979
REMARK INTER + INTRA:          -8.275
REMARK INTER:                  -6.289
REMARK INTRA:                  -1.986
REMARK UNBOUND:                -2.311
REMARK SMILES CCCCCCCCCCCCCCCC(=O)[O-]
REMARK SMILES IDX 9 1 10 2 11 3 12 4 13 5 14 6 15 7 16 8 17 9 18 10 8 11 7 12
REMARK SMILES IDX 6 13 5 14 4 15 3 16 2 17 1 18
REMARK H PARENT
REMARK Flexibility Score: inf
ROOT
ATOM      1  C   UNL     1       5.610  -1.000  -5.577  1.00  0.00     0.000 C 
ENDROOT
BRANCH   1   2
ATOM      2  C   UNL     1       5.034   0.369  -5.174  1.00  0.00     0.000 C 
BRANCH   2   3
ATOM      3  C   UNL     1       3.984   0.882  -6.171  1.00  0.00     0.000 C 
BRANCH   3   4
ATOM      4  C   UNL     1       4.242   2.336  -6.604  1.00  0.00     0.000 C 
BRANCH   4   5
ATOM      5  C   UNL     1       4.261   2.509  -8.134  1.00  0.00     0.000 C 
BRANCH   5   6
ATOM      6  C   UNL     1       5.409   3.381  -8.673  1.00  0.00     0.006 C 
BRANCH   6   7
ATOM      7  C   UNL     1       6.729   2.613  -8.810  1.00  0.00     0.053 C 
BRANCH   7   8
ATOM      8  C   UNL     1       7.698   3.045  -7.755  1.00  0.00     0.041 C 
ATOM      9  O   UNL     1       7.843   2.359  -6.709  1.00  0.00    -0.550 OA
ATOM     10  O   UNL     1       8.403   4.232  -7.903  1.00  0.00    -0.550 OA
ENDBRANCH   7   8
ENDBRANCH   6   7
ENDBRANCH   5   6
ENDBRANCH   4   5
ENDBRANCH   3   4
ENDBRANCH   2   3
ENDBRANCH   1   2
BRANCH   1  11
ATOM     11  C   UNL     1       6.943  -0.880  -6.332  1.00  0.00     0.000 C 
BRANCH  11  12
ATOM     12  C   UNL     1       6.767  -0.962  -7.857  1.00  0.00    -0.000 C 
BRANCH  12  13
ATOM     13  C   UNL     1       5.556  -1.827  -8.226  1.00  0.00    -0.000 C 
BRANCH  13  14
ATOM     14  C   UNL     1       5.961  -2.962  -9.177  1.00  0.00    -0.000 C 
BRANCH  14  15
ATOM     15  C   UNL     1       5.773  -4.354  -8.551  1.00  0.00    -0.000 C 
BRANCH  15  16
ATOM     16  C   UNL     1       5.623  -4.298  -7.022  1.00  0.00    -0.000 C 
BRANCH  16  17
ATOM     17  C   UNL     1       6.904  -4.724  -6.289  1.00  0.00    -0.003 C 
ATOM     18  C   UNL     1       6.836  -4.469  -4.783  1.00  0.00     0.004 C 
ENDBRANCH  16  17
ENDBRANCH  15  16
ENDBRANCH  14  15
ENDBRANCH  13  14
ENDBRANCH  12  13
ENDBRANCH  11  12
ENDBRANCH   1  11
TORSDOF 14
ENDMDL
