MODEL 1
REMARK VINA RESULT:    -6.159      0.000      0.000
REMARK INTER + INTRA:          -9.535
REMARK INTER:                  -8.860
REMARK INTRA:                  -0.676
REMARK UNBOUND:                -0.676
REMARK SMILES O=c1cc(-c2ccc(O)c(O)c2)oc2cc(O[C@H]3O[C@H](CO)[C@@H](O)[C@H](O)[C@@H]3O)cc(O)c12
REMARK SMILES IDX 17 1 16 2 4 3 3 4 13 5 2 6 14 7 1 8 32 9 15 10 30 11 29 12
REMARK SMILES IDX 5 13 6 14 7 15 8 16 12 17 10 18 9 19 11 21 31 23 18 25 27 26
REMARK SMILES IDX 19 27 25 28 20 29 23 30 28 31 26 33 21 35 22 36 24 38
REMARK H PARENT 9 20 11 22 31 24 28 32 26 34 22 37 24 39
REMARK Flexibility Score: inf
ROOT
ATOM      1  O   UNL     1      22.940  19.991   8.954  1.00  0.00    -0.462 OA
ENDROOT
BRANCH   1   2
ATOM      2  C   UNL     1      23.087  19.680   7.593  1.00  0.00     0.130 A 
ATOM      3  C   UNL     1      22.075  16.604   4.091  1.00  0.00     0.138 A 
ATOM      4  C   UNL     1      22.751  17.376   3.132  1.00  0.00     0.100 A 
ATOM      5  O   UNL     1      22.025  17.025   5.354  1.00  0.00    -0.456 OA
ATOM      6  C   UNL     1      23.372  18.563   3.520  1.00  0.00     0.197 A 
ATOM      7  C   UNL     1      22.601  18.148   5.772  1.00  0.00     0.146 A 
ATOM      8  O   UNL     1      23.975  19.251   2.652  1.00  0.00    -0.289 OA
ATOM      9  C   UNL     1      23.309  18.973   4.867  1.00  0.00     0.107 A 
ATOM     10  C   UNL     1      22.497  18.506   7.118  1.00  0.00     0.094 A 
ATOM     11  C   UNL     1      23.911  20.160   5.344  1.00  0.00     0.134 A 
ATOM     12  C   UNL     1      23.797  20.503   6.701  1.00  0.00     0.093 A 
BRANCH   3  13
ATOM     13  C   UNL     1      21.395  15.333   3.736  1.00  0.00     0.021 A 
ATOM     14  C   UNL     1      20.061  15.077   4.111  1.00  0.00     0.016 A 
ATOM     15  C   UNL     1      19.443  13.876   3.754  1.00  0.00     0.051 A 
ATOM     16  C   UNL     1      20.136  12.915   3.014  1.00  0.00     0.157 A 
ATOM     17  C   UNL     1      22.082  14.367   2.979  1.00  0.00     0.062 A 
ATOM     18  C   UNL     1      21.463  13.161   2.622  1.00  0.00     0.158 A 
BRANCH  16  19
ATOM     19  O   UNL     1      19.492  11.725   2.674  1.00  0.00    -0.504 OA
ATOM     20  H   UNL     1      18.717  11.700   2.024  1.00  0.00     0.293 HD
ENDBRANCH  16  19
BRANCH  18  21
ATOM     21  O   UNL     1      22.159  12.208   1.880  1.00  0.00    -0.504 OA
ATOM     22  H   UNL     1      22.933  11.688   2.277  1.00  0.00     0.293 HD
ENDBRANCH  18  21
ENDBRANCH   3  13
BRANCH  11  23
ATOM     23  O   UNL     1      24.620  21.000   4.484  1.00  0.00    -0.507 OA
ATOM     24  H   UNL     1      24.388  21.076   3.501  1.00  0.00     0.293 HD
ENDBRANCH  11  23
ENDBRANCH   1   2
BRANCH   1  25
ATOM     25  C   UNL     1      23.176  19.083  10.035  1.00  0.00     0.339 C 
ATOM     26  C   UNL     1      21.838  18.530  10.569  1.00  0.00     0.214 C 
ATOM     27  O   UNL     1      23.931  19.695  11.071  1.00  0.00    -0.332 OA
ATOM     28  C   UNL     1      21.049  19.624  11.312  1.00  0.00     0.180 C 
ATOM     29  C   UNL     1      23.253  20.813  11.624  1.00  0.00     0.179 C 
ATOM     30  C   UNL     1      21.944  20.371  12.318  1.00  0.00     0.177 C 
BRANCH  26  31
ATOM     31  O   UNL     1      22.047  17.401  11.384  1.00  0.00    -0.384 OA
ATOM     32  H   UNL     1      21.553  17.536  12.234  1.00  0.00     0.211 HD
ENDBRANCH  26  31
BRANCH  28  33
ATOM     33  O   UNL     1      19.951  19.043  11.971  1.00  0.00    -0.387 OA
ATOM     34  H   UNL     1      20.242  18.145  12.279  1.00  0.00     0.211 HD
ENDBRANCH  28  33
BRANCH  29  35
ATOM     35  C   UNL     1      24.197  21.499  12.618  1.00  0.00     0.191 C 
BRANCH  35  36
ATOM     36  O   UNL     1      25.440  21.719  12.010  1.00  0.00    -0.394 OA
ATOM     37  H   UNL     1      25.418  22.650  11.667  1.00  0.00     0.210 HD
ENDBRANCH  35  36
ENDBRANCH  29  35
BRANCH  30  38
ATOM     38  O   UNL     1      21.247  21.496  12.794  1.00  0.00    -0.387 OA
ATOM     39  H   UNL     1      21.033  22.063  12.008  1.00  0.00     0.211 HD
ENDBRANCH  30  38
ENDBRANCH   1  25
TORSDOF 11
ENDMDL
MODEL 2
REMARK VINA RESULT:    -5.972      2.367      8.354
REMARK INTER + INTRA:          -9.266
REMARK INTER:                  -8.673
REMARK INTRA:                  -0.593
REMARK UNBOUND:                -0.676
REMARK SMILES O=c1cc(-c2ccc(O)c(O)c2)oc2cc(O[C@H]3O[C@H](CO)[C@@H](O)[C@H](O)[C@@H]3O)cc(O)c12
REMARK SMILES IDX 17 1 16 2 4 3 3 4 13 5 2 6 14 7 1 8 32 9 15 10 30 11 29 12
REMARK SMILES IDX 5 13 6 14 7 15 8 16 12 17 10 18 9 19 11 21 31 23 18 25 27 26
REMARK SMILES IDX 19 27 25 28 20 29 23 30 28 31 26 33 21 35 22 36 24 38
REMARK H PARENT 9 20 11 22 31 24 28 32 26 34 22 37 24 39
REMARK Flexibility Score: inf
ROOT
ATOM      1  O   UNL     1      24.351  18.970   5.762  1.00  0.00    -0.462 OA
ENDROOT
BRANCH   1   2
ATOM      2  C   UNL     1      24.202  19.401   7.090  1.00  0.00     0.130 A 
ATOM      3  C   UNL     1      21.273  19.787  10.834  1.00  0.00     0.138 A 
ATOM      4  C   UNL     1      22.269  20.373  11.633  1.00  0.00     0.100 A 
ATOM      5  O   UNL     1      21.561  19.436   9.583  1.00  0.00    -0.456 OA
ATOM      6  C   UNL     1      23.539  20.589  11.098  1.00  0.00     0.197 A 
ATOM      7  C   UNL     1      22.755  19.622   9.028  1.00  0.00     0.146 A 
ATOM      8  O   UNL     1      24.428  21.113  11.823  1.00  0.00    -0.289 OA
ATOM      9  C   UNL     1      23.806  20.215   9.766  1.00  0.00     0.107 A 
ATOM     10  C   UNL     1      22.960  19.222   7.705  1.00  0.00     0.094 A 
ATOM     11  C   UNL     1      25.063  20.400   9.145  1.00  0.00     0.134 A 
ATOM     12  C   UNL     1      25.251  19.994   7.815  1.00  0.00     0.093 A 
BRANCH   3  13
ATOM     13  C   UNL     1      19.905  19.531  11.351  1.00  0.00     0.021 A 
ATOM     14  C   UNL     1      19.662  19.295  12.717  1.00  0.00     0.016 A 
ATOM     15  C   UNL     1      18.362  19.067  13.177  1.00  0.00     0.051 A 
ATOM     16  C   UNL     1      17.284  19.078  12.288  1.00  0.00     0.157 A 
ATOM     17  C   UNL     1      18.814  19.555  10.463  1.00  0.00     0.062 A 
ATOM     18  C   UNL     1      17.510  19.325  10.923  1.00  0.00     0.158 A 
BRANCH  16  19
ATOM     19  O   UNL     1      15.999  18.846  12.777  1.00  0.00    -0.504 OA
ATOM     20  H   UNL     1      15.349  18.225  12.309  1.00  0.00     0.293 HD
ENDBRANCH  16  19
BRANCH  18  21
ATOM     21  O   UNL     1      16.438  19.343  10.031  1.00  0.00    -0.504 OA
ATOM     22  H   UNL     1      16.037  20.212   9.700  1.00  0.00     0.293 HD
ENDBRANCH  18  21
ENDBRANCH   3  13
BRANCH  11  23
ATOM     23  O   UNL     1      26.125  20.983   9.839  1.00  0.00    -0.507 OA
ATOM     24  H   UNL     1      26.503  20.569  10.683  1.00  0.00     0.293 HD
ENDBRANCH  11  23
ENDBRANCH   1   2
BRANCH   1  25
ATOM     25  C   UNL     1      23.357  19.099   4.740  1.00  0.00     0.339 C 
ATOM     26  C   UNL     1      22.211  18.094   4.980  1.00  0.00     0.214 C 
ATOM     27  O   UNL     1      23.920  18.939   3.446  1.00  0.00    -0.332 OA
ATOM     28  C   UNL     1      22.679  16.652   4.711  1.00  0.00     0.180 C 
ATOM     29  C   UNL     1      24.503  17.654   3.283  1.00  0.00     0.179 C 
ATOM     30  C   UNL     1      23.424  16.550   3.367  1.00  0.00     0.177 C 
BRANCH  26  31
ATOM     31  O   UNL     1      21.081  18.422   4.207  1.00  0.00    -0.384 OA
ATOM     32  H   UNL     1      20.386  17.732   4.364  1.00  0.00     0.211 HD
ENDBRANCH  26  31
BRANCH  28  33
ATOM     33  O   UNL     1      21.569  15.790   4.721  1.00  0.00    -0.387 OA
ATOM     34  H   UNL     1      21.897  14.902   5.021  1.00  0.00     0.211 HD
ENDBRANCH  28  33
BRANCH  29  35
ATOM     35  C   UNL     1      25.216  17.623   1.926  1.00  0.00     0.191 C 
BRANCH  35  36
ATOM     36  O   UNL     1      26.124  16.556   1.898  1.00  0.00    -0.394 OA
ATOM     37  H   UNL     1      25.857  15.987   1.130  1.00  0.00     0.210 HD
ENDBRANCH  35  36
ENDBRANCH  29  35
BRANCH  30  38
ATOM     38  O   UNL     1      24.025  15.281   3.279  1.00  0.00    -0.387 OA
ATOM     39  H   UNL     1      23.591  14.801   2.526  1.00  0.00     0.211 HD
ENDBRANCH  30  38
ENDBRANCH   1  25
TORSDOF 11
ENDMDL
MODEL 3
REMARK VINA RESULT:    -5.136      1.489      2.770
REMARK INTER + INTRA:          -8.063
REMARK INTER:                  -7.053
REMARK INTRA:                  -1.010
REMARK UNBOUND:                -0.676
REMARK SMILES O=c1cc(-c2ccc(O)c(O)c2)oc2cc(O[C@H]3O[C@H](CO)[C@@H](O)[C@H](O)[C@@H]3O)cc(O)c12
REMARK SMILES IDX 17 1 16 2 4 3 3 4 13 5 2 6 14 7 1 8 32 9 15 10 30 11 29 12
REMARK SMILES IDX 5 13 6 14 7 15 8 16 12 17 10 18 9 19 11 21 31 23 18 25 27 26
REMARK SMILES IDX 19 27 25 28 20 29 23 30 28 31 26 33 21 35 22 36 24 38
REMARK H PARENT 9 20 11 22 31 24 28 32 26 34 22 37 24 39
REMARK Flexibility Score: inf
ROOT
ATOM      1  O   UNL     1      21.579  19.792   8.456  1.00  0.00    -0.462 OA
ENDROOT
BRANCH   1   2
ATOM      2  C   UNL     1      22.274  19.549   7.260  1.00  0.00     0.130 A 
ATOM      3  C   UNL     1      23.432  16.343   3.924  1.00  0.00     0.138 A 
ATOM      4  C   UNL     1      24.166  17.285   3.184  1.00  0.00     0.100 A 
ATOM      5  O   UNL     1      22.830  16.721   5.050  1.00  0.00    -0.456 OA
ATOM      6  C   UNL     1      24.263  18.597   3.648  1.00  0.00     0.197 A 
ATOM      7  C   UNL     1      22.894  17.959   5.532  1.00  0.00     0.146 A 
ATOM      8  O   UNL     1      24.922  19.436   2.976  1.00  0.00    -0.289 OA
ATOM      9  C   UNL     1      23.622  18.960   4.849  1.00  0.00     0.107 A 
ATOM     10  C   UNL     1      22.230  18.259   6.724  1.00  0.00     0.094 A 
ATOM     11  C   UNL     1      23.672  20.265   5.390  1.00  0.00     0.134 A 
ATOM     12  C   UNL     1      23.000  20.549   6.590  1.00  0.00     0.093 A 
BRANCH   3  13
ATOM     13  C   UNL     1      23.292  14.934   3.479  1.00  0.00     0.021 A 
ATOM     14  C   UNL     1      24.393  14.055   3.449  1.00  0.00     0.016 A 
ATOM     15  C   UNL     1      24.230  12.730   3.035  1.00  0.00     0.051 A 
ATOM     16  C   UNL     1      22.972  12.257   2.653  1.00  0.00     0.157 A 
ATOM     17  C   UNL     1      22.026  14.447   3.107  1.00  0.00     0.062 A 
ATOM     18  C   UNL     1      21.863  13.118   2.690  1.00  0.00     0.158 A 
BRANCH  16  19
ATOM     19  O   UNL     1      22.842  10.930   2.243  1.00  0.00    -0.504 OA
ATOM     20  H   UNL     1      22.473  10.681   1.334  1.00  0.00     0.293 HD
ENDBRANCH  16  19
BRANCH  18  21
ATOM     21  O   UNL     1      20.604  12.651   2.314  1.00  0.00    -0.504 OA
ATOM     22  H   UNL     1      20.153  11.888   2.806  1.00  0.00     0.293 HD
ENDBRANCH  18  21
ENDBRANCH   3  13
BRANCH  11  23
ATOM     23  O   UNL     1      24.381  21.281   4.747  1.00  0.00    -0.507 OA
ATOM     24  H   UNL     1      24.416  22.224   5.117  1.00  0.00     0.293 HD
ENDBRANCH  11  23
ENDBRANCH   1   2
BRANCH   1  25
ATOM     25  C   UNL     1      22.166  20.297   9.660  1.00  0.00     0.339 C 
ATOM     26  C   UNL     1      23.133  19.255  10.260  1.00  0.00     0.214 C 
ATOM     27  O   UNL     1      21.172  20.679  10.600  1.00  0.00    -0.332 OA
ATOM     28  C   UNL     1      22.359  18.051  10.829  1.00  0.00     0.180 C 
ATOM     29  C   UNL     1      20.357  19.580  10.979  1.00  0.00     0.179 C 
ATOM     30  C   UNL     1      21.191  18.511  11.721  1.00  0.00     0.177 C 
BRANCH  26  31
ATOM     31  O   UNL     1      23.966  19.839  11.233  1.00  0.00    -0.384 OA
ATOM     32  H   UNL     1      24.793  20.154  10.785  1.00  0.00     0.211 HD
ENDBRANCH  26  31
BRANCH  28  33
ATOM     33  O   UNL     1      23.238  17.232  11.559  1.00  0.00    -0.387 OA
ATOM     34  H   UNL     1      23.991  17.808  11.854  1.00  0.00     0.211 HD
ENDBRANCH  28  33
BRANCH  29  35
ATOM     35  C   UNL     1      19.226  20.109  11.868  1.00  0.00     0.191 C 
BRANCH  35  36
ATOM     36  O   UNL     1      18.105  19.277  11.746  1.00  0.00    -0.394 OA
ATOM     37  H   UNL     1      17.724  19.193  12.659  1.00  0.00     0.210 HD
ENDBRANCH  35  36
ENDBRANCH  29  35
BRANCH  30  38
ATOM     38  O   UNL     1      20.387  17.396  12.022  1.00  0.00    -0.387 OA
ATOM     39  H   UNL     1      20.811  16.605  11.598  1.00  0.00     0.211 HD
ENDBRANCH  30  38
ENDBRANCH   1  25
TORSDOF 11
ENDMDL
MODEL 4
REMARK VINA RESULT:    -4.516      1.418      9.070
REMARK INTER + INTRA:          -7.172
REMARK INTER:                  -6.467
REMARK INTRA:                  -0.705
REMARK UNBOUND:                -0.676
REMARK SMILES O=c1cc(-c2ccc(O)c(O)c2)oc2cc(O[C@H]3O[C@H](CO)[C@@H](O)[C@H](O)[C@@H]3O)cc(O)c12
REMARK SMILES IDX 17 1 16 2 4 3 3 4 13 5 2 6 14 7 1 8 32 9 15 10 30 11 29 12
REMARK SMILES IDX 5 13 6 14 7 15 8 16 12 17 10 18 9 19 11 21 31 23 18 25 27 26
REMARK SMILES IDX 19 27 25 28 20 29 23 30 28 31 26 33 21 35 22 36 24 38
REMARK H PARENT 9 20 11 22 31 24 28 32 26 34 22 37 24 39
REMARK Flexibility Score: inf
ROOT
ATOM      1  O   UNL     1      22.435  15.166   3.942  1.00  0.00    -0.462 OA
ENDROOT
BRANCH   1   2
ATOM      2  C   UNL     1      22.782  16.471   4.324  1.00  0.00     0.130 A 
ATOM      3  C   UNL     1      22.988  19.647   7.877  1.00  0.00     0.138 A 
ATOM      4  C   UNL     1      23.552  20.632   7.048  1.00  0.00     0.100 A 
ATOM      5  O   UNL     1      22.703  18.450   7.369  1.00  0.00    -0.456 OA
ATOM      6  C   UNL     1      23.790  20.343   5.704  1.00  0.00     0.197 A 
ATOM      7  C   UNL     1      22.911  18.128   6.095  1.00  0.00     0.146 A 
ATOM      8  O   UNL     1      24.298  21.232   4.968  1.00  0.00    -0.289 OA
ATOM      9  C   UNL     1      23.466  19.069   5.197  1.00  0.00     0.107 A 
ATOM     10  C   UNL     1      22.576  16.845   5.654  1.00  0.00     0.094 A 
ATOM     11  C   UNL     1      23.672  18.695   3.849  1.00  0.00     0.134 A 
ATOM     12  C   UNL     1      23.329  17.403   3.424  1.00  0.00     0.093 A 
BRANCH   3  13
ATOM     13  C   UNL     1      22.714  19.896   9.314  1.00  0.00     0.021 A 
ATOM     14  C   UNL     1      21.400  19.947   9.819  1.00  0.00     0.016 A 
ATOM     15  C   UNL     1      21.172  20.173  11.179  1.00  0.00     0.051 A 
ATOM     16  C   UNL     1      22.244  20.343  12.058  1.00  0.00     0.157 A 
ATOM     17  C   UNL     1      23.789  20.055  10.207  1.00  0.00     0.062 A 
ATOM     18  C   UNL     1      23.561  20.283  11.571  1.00  0.00     0.158 A 
BRANCH  16  19
ATOM     19  O   UNL     1      21.984  20.569  13.410  1.00  0.00    -0.504 OA
ATOM     20  H   UNL     1      21.498  19.892  13.985  1.00  0.00     0.293 HD
ENDBRANCH  16  19
BRANCH  18  21
ATOM     21  O   UNL     1      24.636  20.448  12.444  1.00  0.00    -0.504 OA
ATOM     22  H   UNL     1      25.584  20.223  12.166  1.00  0.00     0.293 HD
ENDBRANCH  18  21
ENDBRANCH   3  13
BRANCH  11  23
ATOM     23  O   UNL     1      24.216  19.596   2.932  1.00  0.00    -0.507 OA
ATOM     24  H   UNL     1      23.682  20.378   2.572  1.00  0.00     0.293 HD
ENDBRANCH  11  23
ENDBRANCH   1   2
BRANCH   1  25
ATOM     25  C   UNL     1      21.761  14.815   2.729  1.00  0.00     0.339 C 
ATOM     26  C   UNL     1      20.344  14.289   3.038  1.00  0.00     0.214 C 
ATOM     27  O   UNL     1      22.508  13.871   1.975  1.00  0.00    -0.332 OA
ATOM     28  C   UNL     1      20.406  12.906   3.713  1.00  0.00     0.180 C 
ATOM     29  C   UNL     1      22.702  12.661   2.693  1.00  0.00     0.179 C 
ATOM     30  C   UNL     1      21.350  11.957   2.952  1.00  0.00     0.177 C 
BRANCH  26  31
ATOM     31  O   UNL     1      19.551  14.260   1.876  1.00  0.00    -0.384 OA
ATOM     32  H   UNL     1      19.338  13.314   1.667  1.00  0.00     0.211 HD
ENDBRANCH  26  31
BRANCH  28  33
ATOM     33  O   UNL     1      19.113  12.360   3.780  1.00  0.00    -0.387 OA
ATOM     34  H   UNL     1      18.736  12.397   2.863  1.00  0.00     0.211 HD
ENDBRANCH  28  33
BRANCH  29  35
ATOM     35  C   UNL     1      23.640  11.767   1.875  1.00  0.00     0.191 C 
BRANCH  35  36
ATOM     36  O   UNL     1      24.964  12.189   2.052  1.00  0.00    -0.394 OA
ATOM     37  H   UNL     1      25.179  12.756   1.266  1.00  0.00     0.210 HD
ENDBRANCH  35  36
ENDBRANCH  29  35
BRANCH  30  38
ATOM     38  O   UNL     1      21.550  10.801   3.728  1.00  0.00    -0.387 OA
ATOM     39  H   UNL     1      22.019  10.139   3.155  1.00  0.00     0.211 HD
ENDBRANCH  30  38
ENDBRANCH   1  25
TORSDOF 11
ENDMDL
MODEL 5
REMARK VINA RESULT:    -3.695      1.832      8.594
REMARK INTER + INTRA:          -5.990
REMARK INTER:                  -5.113
REMARK INTRA:                  -0.878
REMARK UNBOUND:                -0.676
REMARK SMILES O=c1cc(-c2ccc(O)c(O)c2)oc2cc(O[C@H]3O[C@H](CO)[C@@H](O)[C@H](O)[C@@H]3O)cc(O)c12
REMARK SMILES IDX 17 1 16 2 4 3 3 4 13 5 2 6 14 7 1 8 32 9 15 10 30 11 29 12
REMARK SMILES IDX 5 13 6 14 7 15 8 16 12 17 10 18 9 19 11 21 31 23 18 25 27 26
REMARK SMILES IDX 19 27 25 28 20 29 23 30 28 31 26 33 21 35 22 36 24 38
REMARK H PARENT 9 20 11 22 31 24 28 32 26 34 22 37 24 39
REMARK Flexibility Score: inf
ROOT
ATOM      1  O   UNL     1      22.576  17.108   4.388  1.00  0.00    -0.462 OA
ENDROOT
BRANCH   1   2
ATOM      2  C   UNL     1      23.147  17.946   5.358  1.00  0.00     0.130 A 
ATOM      3  C   UNL     1      22.826  19.683   9.789  1.00  0.00     0.138 A 
ATOM      4  C   UNL     1      24.008  20.429   9.649  1.00  0.00     0.100 A 
ATOM      5  O   UNL     1      22.401  18.934   8.773  1.00  0.00    -0.456 OA
ATOM      6  C   UNL     1      24.709  20.386   8.444  1.00  0.00     0.197 A 
ATOM      7  C   UNL     1      23.034  18.861   7.605  1.00  0.00     0.146 A 
ATOM      8  O   UNL     1      25.770  21.057   8.328  1.00  0.00    -0.289 OA
ATOM      9  C   UNL     1      24.224  19.591   7.385  1.00  0.00     0.107 A 
ATOM     10  C   UNL     1      22.508  18.049   6.597  1.00  0.00     0.094 A 
ATOM     11  C   UNL     1      24.871  19.492   6.132  1.00  0.00     0.134 A 
ATOM     12  C   UNL     1      24.328  18.673   5.130  1.00  0.00     0.093 A 
BRANCH   3  13
ATOM     13  C   UNL     1      22.040  19.689  11.048  1.00  0.00     0.021 A 
ATOM     14  C   UNL     1      22.458  20.418  12.178  1.00  0.00     0.016 A 
ATOM     15  C   UNL     1      21.692  20.414  13.346  1.00  0.00     0.051 A 
ATOM     16  C   UNL     1      20.497  19.693  13.408  1.00  0.00     0.157 A 
ATOM     17  C   UNL     1      20.829  18.976  11.112  1.00  0.00     0.062 A 
ATOM     18  C   UNL     1      20.061  18.971  12.285  1.00  0.00     0.158 A 
BRANCH  16  19
ATOM     19  O   UNL     1      19.756  19.707  14.590  1.00  0.00    -0.504 OA
ATOM     20  H   UNL     1      20.058  19.213  15.420  1.00  0.00     0.293 HD
ENDBRANCH  16  19
BRANCH  18  21
ATOM     21  O   UNL     1      18.867  18.252  12.338  1.00  0.00    -0.504 OA
ATOM     22  H   UNL     1      18.022  18.594  11.895  1.00  0.00     0.293 HD
ENDBRANCH  18  21
ENDBRANCH   3  13
BRANCH  11  23
ATOM     23  O   UNL     1      26.047  20.199   5.875  1.00  0.00    -0.507 OA
ATOM     24  H   UNL     1      26.478  20.202   4.958  1.00  0.00     0.293 HD
ENDBRANCH  11  23
ENDBRANCH   1   2
BRANCH   1  25
ATOM     25  C   UNL     1      21.562  17.499   3.456  1.00  0.00     0.339 C 
ATOM     26  C   UNL     1      20.243  17.802   4.197  1.00  0.00     0.214 C 
ATOM     27  O   UNL     1      21.373  16.514   2.450  1.00  0.00    -0.332 OA
ATOM     28  C   UNL     1      19.611  16.509   4.745  1.00  0.00     0.180 C 
ATOM     29  C   UNL     1      20.956  15.274   3.002  1.00  0.00     0.179 C 
ATOM     30  C   UNL     1      19.566  15.411   3.666  1.00  0.00     0.177 C 
BRANCH  26  31
ATOM     31  O   UNL     1      19.347  18.504   3.369  1.00  0.00    -0.384 OA
ATOM     32  H   UNL     1      18.442  18.446   3.771  1.00  0.00     0.211 HD
ENDBRANCH  26  31
BRANCH  28  33
ATOM     33  O   UNL     1      18.316  16.784   5.216  1.00  0.00    -0.387 OA
ATOM     34  H   UNL     1      18.341  16.686   6.204  1.00  0.00     0.211 HD
ENDBRANCH  28  33
BRANCH  29  35
ATOM     35  C   UNL     1      20.927  14.236   1.875  1.00  0.00     0.191 C 
BRANCH  35  36
ATOM     36  O   UNL     1      21.196  12.964   2.400  1.00  0.00    -0.394 OA
ATOM     37  H   UNL     1      20.856  12.313   1.732  1.00  0.00     0.210 HD
ENDBRANCH  35  36
ENDBRANCH  29  35
BRANCH  30  38
ATOM     38  O   UNL     1      19.201  14.196   4.273  1.00  0.00    -0.387 OA
ATOM     39  H   UNL     1      18.704  13.666   3.596  1.00  0.00     0.211 HD
ENDBRANCH  30  38
ENDBRANCH   1  25
TORSDOF 11
ENDMDL
MODEL 6
REMARK VINA RESULT:    -3.333      1.443      2.112
REMARK INTER + INTRA:          -5.470
REMARK INTER:                  -4.719
REMARK INTRA:                  -0.751
REMARK UNBOUND:                -0.676
REMARK SMILES O=c1cc(-c2ccc(O)c(O)c2)oc2cc(O[C@H]3O[C@H](CO)[C@@H](O)[C@H](O)[C@@H]3O)cc(O)c12
REMARK SMILES IDX 17 1 16 2 4 3 3 4 13 5 2 6 14 7 1 8 32 9 15 10 30 11 29 12
REMARK SMILES IDX 5 13 6 14 7 15 8 16 12 17 10 18 9 19 11 21 31 23 18 25 27 26
REMARK SMILES IDX 19 27 25 28 20 29 23 30 28 31 26 33 21 35 22 36 24 38
REMARK H PARENT 9 20 11 22 31 24 28 32 26 34 22 37 24 39
REMARK Flexibility Score: inf
ROOT
ATOM      1  O   UNL     1      22.846  19.909   8.556  1.00  0.00    -0.462 OA
ENDROOT
BRANCH   1   2
ATOM      2  C   UNL     1      23.175  19.615   7.223  1.00  0.00     0.130 A 
ATOM      3  C   UNL     1      23.335  16.281   3.816  1.00  0.00     0.138 A 
ATOM      4  C   UNL     1      23.833  17.187   2.865  1.00  0.00     0.100 A 
ATOM      5  O   UNL     1      23.076  16.705   5.051  1.00  0.00    -0.456 OA
ATOM      6  C   UNL     1      24.062  18.513   3.234  1.00  0.00     0.197 A 
ATOM      7  C   UNL     1      23.277  17.958   5.450  1.00  0.00     0.146 A 
ATOM      8  O   UNL     1      24.506  19.319   2.373  1.00  0.00    -0.289 OA
ATOM      9  C   UNL     1      23.786  18.925   4.553  1.00  0.00     0.107 A 
ATOM     10  C   UNL     1      22.978  18.308   6.769  1.00  0.00     0.094 A 
ATOM     11  C   UNL     1      23.990  20.248   5.010  1.00  0.00     0.134 A 
ATOM     12  C   UNL     1      23.685  20.581   6.338  1.00  0.00     0.093 A 
BRANCH   3  13
ATOM     13  C   UNL     1      23.071  14.859   3.481  1.00  0.00     0.021 A 
ATOM     14  C   UNL     1      21.815  14.430   3.011  1.00  0.00     0.016 A 
ATOM     15  C   UNL     1      21.598  13.087   2.693  1.00  0.00     0.051 A 
ATOM     16  C   UNL     1      22.627  12.152   2.829  1.00  0.00     0.157 A 
ATOM     17  C   UNL     1      24.107  13.915   3.602  1.00  0.00     0.062 A 
ATOM     18  C   UNL     1      23.890  12.567   3.285  1.00  0.00     0.158 A 
BRANCH  16  19
ATOM     19  O   UNL     1      22.379  10.818   2.505  1.00  0.00    -0.504 OA
ATOM     20  H   UNL     1      22.177  10.523   1.558  1.00  0.00     0.293 HD
ENDBRANCH  16  19
BRANCH  18  21
ATOM     21  O   UNL     1      24.922  11.639   3.419  1.00  0.00    -0.504 OA
ATOM     22  H   UNL     1      25.850  11.918   3.717  1.00  0.00     0.293 HD
ENDBRANCH  18  21
ENDBRANCH   3  13
BRANCH  11  23
ATOM     23  O   UNL     1      24.493  21.231   4.156  1.00  0.00    -0.507 OA
ATOM     24  H   UNL     1      25.415  21.629   4.285  1.00  0.00     0.293 HD
ENDBRANCH  11  23
ENDBRANCH   1   2
BRANCH   1  25
ATOM     25  C   UNL     1      21.789  19.292   9.297  1.00  0.00     0.339 C 
ATOM     26  C   UNL     1      20.851  20.366   9.885  1.00  0.00     0.214 C 
ATOM     27  O   UNL     1      22.298  18.440  10.315  1.00  0.00    -0.332 OA
ATOM     28  C   UNL     1      21.546  21.145  11.017  1.00  0.00     0.180 C 
ATOM     29  C   UNL     1      23.084  19.157  11.255  1.00  0.00     0.179 C 
ATOM     30  C   UNL     1      22.220  20.188  12.018  1.00  0.00     0.177 C 
BRANCH  26  31
ATOM     31  O   UNL     1      19.639  19.797  10.319  1.00  0.00    -0.384 OA
ATOM     32  H   UNL     1      19.812  19.304  11.162  1.00  0.00     0.211 HD
ENDBRANCH  26  31
BRANCH  28  33
ATOM     33  O   UNL     1      20.606  21.956  11.674  1.00  0.00    -0.387 OA
ATOM     34  H   UNL     1      19.707  21.628  11.409  1.00  0.00     0.211 HD
ENDBRANCH  28  33
BRANCH  29  35
ATOM     35  C   UNL     1      23.714  18.147  12.219  1.00  0.00     0.191 C 
BRANCH  35  36
ATOM     36  O   UNL     1      23.057  16.914  12.103  1.00  0.00    -0.394 OA
ATOM     37  H   UNL     1      23.639  16.249  12.555  1.00  0.00     0.210 HD
ENDBRANCH  35  36
ENDBRANCH  29  35
BRANCH  30  38
ATOM     38  O   UNL     1      23.026  20.941  12.890  1.00  0.00    -0.387 OA
ATOM     39  H   UNL     1      23.936  20.976  12.492  1.00  0.00     0.211 HD
ENDBRANCH  30  38
ENDBRANCH   1  25
TORSDOF 11
ENDMDL
