MODEL 1
REMARK VINA RESULT:   142.631      0.000      0.000
REMARK INTER + INTRA:         146.800
REMARK INTER:                 146.800
REMARK INTRA:                   0.000
REMARK UNBOUND:                 0.000
REMARK SMILES CC1(C)CC[C@@]2(C)CC[C@@]3(C)C(=CC[C@@H]4[C@@]5(C)CC[C@H](O)C(C)(C)[C@@H]5CC[C@]43C)[C@H]2C1
REMARK SMILES IDX 1 1 2 2 4 3 5 4 6 5 8 6 9 7 10 8 12 9 13 10 14 11 15 12
REMARK SMILES IDX 28 13 27 14 26 15 25 16 16 17 18 18 19 19 20 20 22 21 23 22
REMARK SMILES IDX 24 23 17 24 29 25 30 26 31 27 11 28 7 29 3 30 21 31
REMARK H PARENT 21 32
REMARK Flexibility Score: inf
ROOT
ATOM      1  C   UNL     1     -29.248  35.266 -16.070  1.00  0.00     0.011 C 
ATOM      2  C   UNL     1     -30.124  34.036 -15.741  1.00  0.00    -0.035 C 
ATOM      3  C   UNL     1     -31.032  34.396 -14.536  1.00  0.00     0.007 C 
ATOM      4  C   UNL     1     -31.730  33.176 -13.920  1.00  0.00     0.008 C 
ATOM      5  C   UNL     1     -30.744  32.044 -13.501  1.00  0.00    -0.026 C 
ATOM      6  C   UNL     1     -31.500  30.821 -12.934  1.00  0.00     0.008 C 
ATOM      7  C   UNL     1     -32.468  30.198 -13.933  1.00  0.00     0.012 C 
ATOM      8  C   UNL     1     -31.824  29.748 -15.294  1.00  0.00    -0.006 C 
ATOM      9  C   UNL     1     -30.558  30.590 -15.676  1.00  0.00    -0.064 C 
ATOM     10  C   UNL     1     -29.862  30.190 -16.780  1.00  0.00    -0.027 C 
ATOM     11  C   UNL     1     -30.006  28.785 -17.304  1.00  0.00     0.032 C 
ATOM     12  C   UNL     1     -30.119  27.877 -16.063  1.00  0.00     0.006 C 
ATOM     13  C   UNL     1     -31.510  28.119 -15.345  1.00  0.00    -0.020 C 
ATOM     14  C   UNL     1     -31.358  27.433 -13.941  1.00  0.00     0.008 C 
ATOM     15  C   UNL     1     -30.883  25.960 -13.993  1.00  0.00     0.005 C 
ATOM     16  C   UNL     1     -29.543  25.781 -14.749  1.00  0.00     0.003 C 
ATOM     17  C   UNL     1     -29.570  26.397 -16.199  1.00  0.00    -0.025 C 
ATOM     18  C   UNL     1     -28.085  26.451 -16.732  1.00  0.00     0.010 C 
ATOM     19  C   UNL     1     -27.101  25.447 -16.094  1.00  0.00     0.033 C 
ATOM     20  C   UNL     1     -27.751  24.121 -15.684  1.00  0.00     0.120 C 
ATOM     21  C   UNL     1     -28.894  24.334 -14.620  1.00  0.00    -0.006 C 
ATOM     22  C   UNL     1     -29.939  23.191 -14.719  1.00  0.00     0.014 C 
ATOM     23  C   UNL     1     -28.245  24.209 -13.211  1.00  0.00     0.014 C 
ATOM     24  C   UNL     1     -30.430  25.582 -17.209  1.00  0.00     0.012 C 
ATOM     25  C   UNL     1     -32.699  27.394 -16.057  1.00  0.00     0.012 C 
ATOM     26  C   UNL     1     -29.878  31.604 -14.719  1.00  0.00     0.022 C 
ATOM     27  C   UNL     1     -29.193  32.842 -15.394  1.00  0.00     0.015 C 
ATOM     28  C   UNL     1     -32.886  30.179 -16.369  1.00  0.00     0.017 C 
ATOM     29  C   UNL     1     -29.836  32.552 -12.343  1.00  0.00     0.012 C 
ATOM     30  C   UNL     1     -30.963  33.718 -16.995  1.00  0.00     0.011 C 
ENDROOT
BRANCH  20  31
ATOM     31  O   UNL     1     -28.205  23.459 -16.839  1.00  0.00    -0.393 OA
ATOM     32  H   UNL     1     -28.570  22.579 -16.558  1.00  0.00     0.210 HD
ENDBRANCH  20  31
TORSDOF 1
ENDMDL
