MODEL 1
REMARK VINA RESULT:    -3.467      0.000      0.000
REMARK INTER + INTRA:          -8.703
REMARK INTER:                  -6.508
REMARK INTRA:                  -2.195
REMARK UNBOUND:                -2.195
REMARK SMILES CCCCCCCCC=CCCCCCCCC(=O)[O-]
REMARK SMILES IDX 10 1 9 2 11 3 12 4 13 5 14 6 15 7 16 8 17 9 18 10 19 11
REMARK SMILES IDX 20 12 8 13 7 14 6 15 5 16 4 17 3 18 2 19 1 20
REMARK H PARENT
REMARK Flexibility Score: inf
ROOT
ATOM      1  C   UNL     1      64.401  31.863  59.389  1.00  0.00    -0.031 C 
ATOM      2  C   UNL     1      64.109  30.927  60.305  1.00  0.00    -0.031 C 
ENDROOT
BRANCH   1   3
ATOM      3  C   UNL     1      63.871  33.267  59.501  1.00  0.00     0.027 C 
BRANCH   3   4
ATOM      4  C   UNL     1      64.347  33.938  60.796  1.00  0.00     0.004 C 
BRANCH   4   5
ATOM      5  C   UNL     1      63.503  35.181  61.112  1.00  0.00     0.000 C 
BRANCH   5   6
ATOM      6  C   UNL     1      62.889  35.820  59.855  1.00  0.00     0.000 C 
BRANCH   6   7
ATOM      7  C   UNL     1      61.378  36.065  59.995  1.00  0.00     0.000 C 
BRANCH   7   8
ATOM      8  C   UNL     1      60.630  35.997  58.651  1.00  0.00     0.006 C 
BRANCH   8   9
ATOM      9  C   UNL     1      59.104  35.861  58.789  1.00  0.00     0.053 C 
BRANCH   9  10
ATOM     10  C   UNL     1      58.602  34.522  58.341  1.00  0.00     0.041 C 
ATOM     11  O   UNL     1      59.399  33.554  58.227  1.00  0.00    -0.550 OA
ATOM     12  O   UNL     1      57.250  34.334  58.083  1.00  0.00    -0.550 OA
ENDBRANCH   9  10
ENDBRANCH   8   9
ENDBRANCH   7   8
ENDBRANCH   6   7
ENDBRANCH   5   6
ENDBRANCH   4   5
ENDBRANCH   3   4
ENDBRANCH   1   3
BRANCH   2  13
ATOM     13  C   UNL     1      64.637  29.523  60.192  1.00  0.00     0.027 C 
BRANCH  13  14
ATOM     14  C   UNL     1      63.569  28.497  60.599  1.00  0.00     0.004 C 
BRANCH  14  15
ATOM     15  C   UNL     1      62.279  29.158  61.109  1.00  0.00     0.000 C 
BRANCH  15  16
ATOM     16  C   UNL     1      61.009  28.433  60.629  1.00  0.00     0.000 C 
BRANCH  16  17
ATOM     17  C   UNL     1      60.590  28.866  59.210  1.00  0.00    -0.000 C 
BRANCH  17  18
ATOM     18  C   UNL     1      60.811  30.363  58.920  1.00  0.00    -0.000 C 
BRANCH  18  19
ATOM     19  C   UNL     1      61.418  30.656  57.533  1.00  0.00    -0.003 C 
ATOM     20  C   UNL     1      62.443  29.606  57.104  1.00  0.00     0.004 C 
ENDBRANCH  18  19
ENDBRANCH  17  18
ENDBRANCH  16  17
ENDBRANCH  15  16
ENDBRANCH  14  15
ENDBRANCH  13  14
ENDBRANCH   2  13
TORSDOF 15
ENDMDL
MODEL 2
REMARK VINA RESULT:    -3.463     11.780     15.161
REMARK INTER + INTRA:          -8.695
REMARK INTER:                  -6.975
REMARK INTRA:                  -1.721
REMARK UNBOUND:                -2.195
REMARK SMILES CCCCCCCCC=CCCCCCCCC(=O)[O-]
REMARK SMILES IDX 10 1 9 2 11 3 12 4 13 5 14 6 15 7 16 8 17 9 18 10 19 11
REMARK SMILES IDX 20 12 8 13 7 14 6 15 5 16 4 17 3 18 2 19 1 20
REMARK H PARENT
REMARK Flexibility Score: inf
ROOT
ATOM      1  C   UNL     1      59.837  24.293  49.718  1.00  0.00    -0.031 C 
ATOM      2  C   UNL     1      58.885  24.655  50.592  1.00  0.00    -0.031 C 
ENDROOT
BRANCH   1   3
ATOM      3  C   UNL     1      61.238  23.977  50.166  1.00  0.00     0.027 C 
BRANCH   3   4
ATOM      4  C   UNL     1      61.484  22.463  50.193  1.00  0.00     0.004 C 
BRANCH   4   5
ATOM      5  C   UNL     1      61.358  21.862  48.786  1.00  0.00     0.000 C 
BRANCH   5   6
ATOM      6  C   UNL     1      60.332  20.719  48.716  1.00  0.00     0.000 C 
BRANCH   6   7
ATOM      7  C   UNL     1      59.911  20.217  50.107  1.00  0.00     0.000 C 
BRANCH   7   8
ATOM      8  C   UNL     1      59.901  18.681  50.215  1.00  0.00     0.006 C 
BRANCH   8   9
ATOM      9  C   UNL     1      59.038  17.984  49.149  1.00  0.00     0.053 C 
BRANCH   9  10
ATOM     10  C   UNL     1      57.751  17.456  49.705  1.00  0.00     0.041 C 
ATOM     11  O   UNL     1      57.694  16.285  50.165  1.00  0.00    -0.550 OA
ATOM     12  O   UNL     1      56.623  18.266  49.746  1.00  0.00    -0.550 OA
ENDBRANCH   9  10
ENDBRANCH   8   9
ENDBRANCH   7   8
ENDBRANCH   6   7
ENDBRANCH   5   6
ENDBRANCH   4   5
ENDBRANCH   3   4
ENDBRANCH   1   3
BRANCH   2  13
ATOM     13  C   UNL     1      57.485  24.972  50.144  1.00  0.00     0.027 C 
BRANCH  13  14
ATOM     14  C   UNL     1      56.661  25.574  51.292  1.00  0.00     0.004 C 
BRANCH  14  15
ATOM     15  C   UNL     1      56.626  27.110  51.252  1.00  0.00     0.000 C 
BRANCH  15  16
ATOM     16  C   UNL     1      56.631  27.668  49.818  1.00  0.00     0.000 C 
BRANCH  16  17
ATOM     17  C   UNL     1      57.718  28.741  49.612  1.00  0.00    -0.000 C 
BRANCH  17  18
ATOM     18  C   UNL     1      58.690  28.436  48.456  1.00  0.00    -0.000 C 
BRANCH  18  19
ATOM     19  C   UNL     1      60.001  27.752  48.894  1.00  0.00    -0.003 C 
ATOM     20  C   UNL     1      60.712  28.505  50.018  1.00  0.00     0.004 C 
ENDBRANCH  18  19
ENDBRANCH  17  18
ENDBRANCH  16  17
ENDBRANCH  15  16
ENDBRANCH  14  15
ENDBRANCH  13  14
ENDBRANCH   2  13
TORSDOF 15
ENDMDL
MODEL 3
REMARK VINA RESULT:    -3.338      5.431      8.138
REMARK INTER + INTRA:          -8.461
REMARK INTER:                  -6.615
REMARK INTRA:                  -1.846
REMARK UNBOUND:                -2.195
REMARK SMILES CCCCCCCCC=CCCCCCCCC(=O)[O-]
REMARK SMILES IDX 10 1 9 2 11 3 12 4 13 5 14 6 15 7 16 8 17 9 18 10 19 11
REMARK SMILES IDX 20 12 8 13 7 14 6 15 5 16 4 17 3 18 2 19 1 20
REMARK H PARENT
REMARK Flexibility Score: inf
ROOT
ATOM      1  C   UNL     1      70.156  28.243  60.773  1.00  0.00    -0.031 C 
ATOM      2  C   UNL     1      71.053  29.053  61.356  1.00  0.00    -0.031 C 
ENDROOT
BRANCH   1   3
ATOM      3  C   UNL     1      68.731  28.173  61.250  1.00  0.00     0.027 C 
BRANCH   3   4
ATOM      4  C   UNL     1      67.754  28.096  60.071  1.00  0.00     0.004 C 
BRANCH   4   5
ATOM      5  C   UNL     1      66.306  28.294  60.545  1.00  0.00     0.000 C 
BRANCH   5   6
ATOM      6  C   UNL     1      65.482  29.174  59.590  1.00  0.00     0.000 C 
BRANCH   6   7
ATOM      7  C   UNL     1      64.489  30.082  60.333  1.00  0.00     0.000 C 
BRANCH   7   8
ATOM      8  C   UNL     1      63.018  29.756  60.012  1.00  0.00     0.006 C 
BRANCH   8   9
ATOM      9  C   UNL     1      62.272  29.042  61.152  1.00  0.00     0.053 C 
BRANCH   9  10
ATOM     10  C   UNL     1      61.887  27.638  60.798  1.00  0.00     0.041 C 
ATOM     11  O   UNL     1      60.674  27.334  60.648  1.00  0.00    -0.550 OA
ATOM     12  O   UNL     1      62.866  26.673  60.601  1.00  0.00    -0.550 OA
ENDBRANCH   9  10
ENDBRANCH   8   9
ENDBRANCH   7   8
ENDBRANCH   6   7
ENDBRANCH   5   6
ENDBRANCH   4   5
ENDBRANCH   3   4
ENDBRANCH   1   3
BRANCH   2  13
ATOM     13  C   UNL     1      72.479  29.121  60.881  1.00  0.00     0.027 C 
BRANCH  13  14
ATOM     14  C   UNL     1      72.699  30.337  59.968  1.00  0.00     0.004 C 
BRANCH  14  15
ATOM     15  C   UNL     1      71.779  31.516  60.323  1.00  0.00     0.000 C 
BRANCH  15  16
ATOM     16  C   UNL     1      71.232  32.239  59.079  1.00  0.00     0.000 C 
BRANCH  16  17
ATOM     17  C   UNL     1      70.948  31.267  57.917  1.00  0.00    -0.000 C 
BRANCH  17  18
ATOM     18  C   UNL     1      69.542  30.639  57.953  1.00  0.00    -0.000 C 
BRANCH  18  19
ATOM     19  C   UNL     1      69.415  29.326  57.154  1.00  0.00    -0.003 C 
ATOM     20  C   UNL     1      68.045  29.167  56.495  1.00  0.00     0.004 C 
ENDBRANCH  18  19
ENDBRANCH  17  18
ENDBRANCH  16  17
ENDBRANCH  15  16
ENDBRANCH  14  15
ENDBRANCH  13  14
ENDBRANCH   2  13
TORSDOF 15
ENDMDL
MODEL 4
REMARK VINA RESULT:    -3.316     11.419     13.909
REMARK INTER + INTRA:          -8.420
REMARK INTER:                  -7.180
REMARK INTRA:                  -1.240
REMARK UNBOUND:                -2.195
REMARK SMILES CCCCCCCCC=CCCCCCCCC(=O)[O-]
REMARK SMILES IDX 10 1 9 2 11 3 12 4 13 5 14 6 15 7 16 8 17 9 18 10 19 11
REMARK SMILES IDX 20 12 8 13 7 14 6 15 5 16 4 17 3 18 2 19 1 20
REMARK H PARENT
REMARK Flexibility Score: inf
ROOT
ATOM      1  C   UNL     1      60.004  22.811  50.336  1.00  0.00    -0.031 C 
ATOM      2  C   UNL     1      60.701  22.514  49.229  1.00  0.00    -0.031 C 
ENDROOT
BRANCH   1   3
ATOM      3  C   UNL     1      59.808  24.234  50.784  1.00  0.00     0.027 C 
BRANCH   3   4
ATOM      4  C   UNL     1      58.322  24.617  50.782  1.00  0.00     0.004 C 
BRANCH   4   5
ATOM      5  C   UNL     1      57.983  25.493  49.567  1.00  0.00     0.000 C 
BRANCH   5   6
ATOM      6  C   UNL     1      59.232  26.073  48.883  1.00  0.00     0.000 C 
BRANCH   6   7
ATOM      7  C   UNL     1      59.203  27.608  48.802  1.00  0.00     0.000 C 
BRANCH   7   8
ATOM      8  C   UNL     1      58.296  28.250  49.868  1.00  0.00     0.006 C 
BRANCH   8   9
ATOM      9  C   UNL     1      57.103  29.030  49.287  1.00  0.00     0.053 C 
BRANCH   9  10
ATOM     10  C   UNL     1      55.845  28.831  50.077  1.00  0.00     0.041 C 
ATOM     11  O   UNL     1      54.802  29.469  49.776  1.00  0.00    -0.550 OA
ATOM     12  O   UNL     1      55.814  27.917  51.122  1.00  0.00    -0.550 OA
ENDBRANCH   9  10
ENDBRANCH   8   9
ENDBRANCH   7   8
ENDBRANCH   6   7
ENDBRANCH   5   6
ENDBRANCH   4   5
ENDBRANCH   3   4
ENDBRANCH   1   3
BRANCH   2  13
ATOM     13  C   UNL     1      60.899  21.091  48.781  1.00  0.00     0.027 C 
BRANCH  13  14
ATOM     14  C   UNL     1      60.407  20.103  49.849  1.00  0.00     0.004 C 
BRANCH  14  15
ATOM     15  C   UNL     1      59.532  18.985  49.259  1.00  0.00     0.000 C 
BRANCH  15  16
ATOM     16  C   UNL     1      59.662  17.659  50.031  1.00  0.00     0.000 C 
BRANCH  16  17
ATOM     17  C   UNL     1      58.316  17.192  50.620  1.00  0.00    -0.000 C 
BRANCH  17  18
ATOM     18  C   UNL     1      57.122  17.349  49.659  1.00  0.00    -0.000 C 
BRANCH  18  19
ATOM     19  C   UNL     1      55.941  18.150  50.243  1.00  0.00    -0.003 C 
ATOM     20  C   UNL     1      56.258  18.757  51.610  1.00  0.00     0.004 C 
ENDBRANCH  18  19
ENDBRANCH  17  18
ENDBRANCH  16  17
ENDBRANCH  15  16
ENDBRANCH  14  15
ENDBRANCH  13  14
ENDBRANCH   2  13
TORSDOF 15
ENDMDL
MODEL 5
REMARK VINA RESULT:    -3.288      9.587     11.903
REMARK INTER + INTRA:          -8.367
REMARK INTER:                  -6.343
REMARK INTRA:                  -2.025
REMARK UNBOUND:                -2.195
REMARK SMILES CCCCCCCCC=CCCCCCCCC(=O)[O-]
REMARK SMILES IDX 10 1 9 2 11 3 12 4 13 5 14 6 15 7 16 8 17 9 18 10 19 11
REMARK SMILES IDX 20 12 8 13 7 14 6 15 5 16 4 17 3 18 2 19 1 20
REMARK H PARENT
REMARK Flexibility Score: inf
ROOT
ATOM      1  C   UNL     1      62.223  26.507  49.237  1.00  0.00    -0.031 C 
ATOM      2  C   UNL     1      63.427  25.987  48.954  1.00  0.00    -0.031 C 
ENDROOT
BRANCH   1   3
ATOM      3  C   UNL     1      61.097  25.653  49.753  1.00  0.00     0.027 C 
BRANCH   3   4
ATOM      4  C   UNL     1      59.742  26.140  49.223  1.00  0.00     0.004 C 
BRANCH   4   5
ATOM      5  C   UNL     1      59.881  27.508  48.539  1.00  0.00     0.000 C 
BRANCH   5   6
ATOM      6  C   UNL     1      58.568  28.308  48.535  1.00  0.00     0.000 C 
BRANCH   6   7
ATOM      7  C   UNL     1      57.925  28.393  49.929  1.00  0.00     0.000 C 
BRANCH   7   8
ATOM      8  C   UNL     1      56.397  28.199  49.900  1.00  0.00     0.006 C 
BRANCH   8   9
ATOM      9  C   UNL     1      55.656  28.891  51.058  1.00  0.00     0.053 C 
BRANCH   9  10
ATOM     10  C   UNL     1      54.998  30.170  50.638  1.00  0.00     0.041 C 
ATOM     11  O   UNL     1      55.224  30.653  49.497  1.00  0.00    -0.550 OA
ATOM     12  O   UNL     1      54.110  30.812  51.491  1.00  0.00    -0.550 OA
ENDBRANCH   9  10
ENDBRANCH   8   9
ENDBRANCH   7   8
ENDBRANCH   6   7
ENDBRANCH   5   6
ENDBRANCH   4   5
ENDBRANCH   3   4
ENDBRANCH   1   3
BRANCH   2  13
ATOM     13  C   UNL     1      64.552  26.840  48.437  1.00  0.00     0.027 C 
BRANCH  13  14
ATOM     14  C   UNL     1      64.071  27.767  47.311  1.00  0.00     0.004 C 
BRANCH  14  15
ATOM     15  C   UNL     1      65.063  28.904  47.017  1.00  0.00     0.000 C 
BRANCH  15  16
ATOM     16  C   UNL     1      65.498  29.656  48.287  1.00  0.00     0.000 C 
BRANCH  16  17
ATOM     17  C   UNL     1      64.525  30.795  48.653  1.00  0.00    -0.000 C 
BRANCH  17  18
ATOM     18  C   UNL     1      63.672  30.514  49.905  1.00  0.00    -0.000 C 
BRANCH  18  19
ATOM     19  C   UNL     1      62.189  30.217  49.607  1.00  0.00    -0.003 C 
ATOM     20  C   UNL     1      61.395  29.859  50.863  1.00  0.00     0.004 C 
ENDBRANCH  18  19
ENDBRANCH  17  18
ENDBRANCH  16  17
ENDBRANCH  15  16
ENDBRANCH  14  15
ENDBRANCH  13  14
ENDBRANCH   2  13
TORSDOF 15
ENDMDL
MODEL 6
REMARK VINA RESULT:    -3.273      5.605      8.397
REMARK INTER + INTRA:          -8.338
REMARK INTER:                  -7.073
REMARK INTRA:                  -1.265
REMARK UNBOUND:                -2.195
REMARK SMILES CCCCCCCCC=CCCCCCCCC(=O)[O-]
REMARK SMILES IDX 10 1 9 2 11 3 12 4 13 5 14 6 15 7 16 8 17 9 18 10 19 11
REMARK SMILES IDX 20 12 8 13 7 14 6 15 5 16 4 17 3 18 2 19 1 20
REMARK H PARENT
REMARK Flexibility Score: inf
ROOT
ATOM      1  C   UNL     1      67.067  28.997  59.116  1.00  0.00    -0.031 C 
ATOM      2  C   UNL     1      66.043  28.925  59.980  1.00  0.00    -0.031 C 
ENDROOT
BRANCH   1   3
ATOM      3  C   UNL     1      68.318  28.184  59.309  1.00  0.00     0.027 C 
BRANCH   3   4
ATOM      4  C   UNL     1      68.550  27.864  60.791  1.00  0.00     0.004 C 
BRANCH   4   5
ATOM      5  C   UNL     1      69.775  28.617  61.330  1.00  0.00     0.000 C 
BRANCH   5   6
ATOM      6  C   UNL     1      71.085  28.186  60.650  1.00  0.00     0.000 C 
BRANCH   6   7
ATOM      7  C   UNL     1      72.331  28.704  61.387  1.00  0.00     0.000 C 
BRANCH   7   8
ATOM      8  C   UNL     1      72.606  30.197  61.128  1.00  0.00     0.006 C 
BRANCH   8   9
ATOM      9  C   UNL     1      72.407  30.626  59.664  1.00  0.00     0.053 C 
BRANCH   9  10
ATOM     10  C   UNL     1      71.288  31.609  59.498  1.00  0.00     0.041 C 
ATOM     11  O   UNL     1      70.363  31.381  58.675  1.00  0.00    -0.550 OA
ATOM     12  O   UNL     1      71.249  32.760  60.275  1.00  0.00    -0.550 OA
ENDBRANCH   9  10
ENDBRANCH   8   9
ENDBRANCH   7   8
ENDBRANCH   6   7
ENDBRANCH   5   6
ENDBRANCH   4   5
ENDBRANCH   3   4
ENDBRANCH   1   3
BRANCH   2  13
ATOM     13  C   UNL     1      64.792  29.739  59.789  1.00  0.00     0.027 C 
BRANCH  13  14
ATOM     14  C   UNL     1      63.729  29.372  60.834  1.00  0.00     0.004 C 
BRANCH  14  15
ATOM     15  C   UNL     1      62.942  28.107  60.457  1.00  0.00     0.000 C 
BRANCH  15  16
ATOM     16  C   UNL     1      61.516  28.099  61.037  1.00  0.00     0.000 C 
BRANCH  16  17
ATOM     17  C   UNL     1      60.664  29.269  60.508  1.00  0.00    -0.000 C 
BRANCH  17  18
ATOM     18  C   UNL     1      60.693  29.425  58.975  1.00  0.00    -0.000 C 
BRANCH  18  19
ATOM     19  C   UNL     1      60.513  30.875  58.483  1.00  0.00    -0.003 C 
ATOM     20  C   UNL     1      61.825  31.660  58.467  1.00  0.00     0.004 C 
ENDBRANCH  18  19
ENDBRANCH  17  18
ENDBRANCH  16  17
ENDBRANCH  15  16
ENDBRANCH  14  15
ENDBRANCH  13  14
ENDBRANCH   2  13
TORSDOF 15
ENDMDL
MODEL 7
REMARK VINA RESULT:    -3.251      9.735     12.716
REMARK INTER + INTRA:          -8.296
REMARK INTER:                  -5.713
REMARK INTRA:                  -2.584
REMARK UNBOUND:                -2.195
REMARK SMILES CCCCCCCCC=CCCCCCCCC(=O)[O-]
REMARK SMILES IDX 10 1 9 2 11 3 12 4 13 5 14 6 15 7 16 8 17 9 18 10 19 11
REMARK SMILES IDX 20 12 8 13 7 14 6 15 5 16 4 17 3 18 2 19 1 20
REMARK H PARENT
REMARK Flexibility Score: inf
ROOT
ATOM      1  C   UNL     1      59.225  24.525  49.682  1.00  0.00    -0.031 C 
ATOM      2  C   UNL     1      58.105  24.922  50.305  1.00  0.00    -0.031 C 
ENDROOT
BRANCH   1   3
ATOM      3  C   UNL     1      60.083  23.420  50.236  1.00  0.00     0.027 C 
BRANCH   3   4
ATOM      4  C   UNL     1      61.438  23.956  50.715  1.00  0.00     0.004 C 
BRANCH   4   5
ATOM      5  C   UNL     1      62.057  24.895  49.670  1.00  0.00     0.000 C 
BRANCH   5   6
ATOM      6  C   UNL     1      63.463  25.379  50.062  1.00  0.00     0.000 C 
BRANCH   6   7
ATOM      7  C   UNL     1      64.424  25.434  48.864  1.00  0.00     0.000 C 
BRANCH   7   8
ATOM      8  C   UNL     1      64.225  26.686  47.989  1.00  0.00     0.006 C 
BRANCH   8   9
ATOM      9  C   UNL     1      64.013  27.982  48.790  1.00  0.00     0.053 C 
BRANCH   9  10
ATOM     10  C   UNL     1      64.211  29.212  47.957  1.00  0.00     0.041 C 
ATOM     11  O   UNL     1      63.623  30.284  48.262  1.00  0.00    -0.550 OA
ATOM     12  O   UNL     1      65.068  29.186  46.865  1.00  0.00    -0.550 OA
ENDBRANCH   9  10
ENDBRANCH   8   9
ENDBRANCH   7   8
ENDBRANCH   6   7
ENDBRANCH   5   6
ENDBRANCH   4   5
ENDBRANCH   3   4
ENDBRANCH   1   3
BRANCH   2  13
ATOM     13  C   UNL     1      57.247  26.028  49.753  1.00  0.00     0.027 C 
BRANCH  13  14
ATOM     14  C   UNL     1      57.541  27.360  50.459  1.00  0.00     0.004 C 
BRANCH  14  15
ATOM     15  C   UNL     1      57.791  28.509  49.469  1.00  0.00     0.000 C 
BRANCH  15  16
ATOM     16  C   UNL     1      58.921  28.200  48.471  1.00  0.00     0.000 C 
BRANCH  16  17
ATOM     17  C   UNL     1      60.276  27.979  49.173  1.00  0.00    -0.000 C 
BRANCH  17  18
ATOM     18  C   UNL     1      60.731  29.164  50.046  1.00  0.00    -0.000 C 
BRANCH  18  19
ATOM     19  C   UNL     1      61.385  28.753  51.380  1.00  0.00    -0.003 C 
ATOM     20  C   UNL     1      60.821  27.445  51.935  1.00  0.00     0.004 C 
ENDBRANCH  18  19
ENDBRANCH  17  18
ENDBRANCH  16  17
ENDBRANCH  15  16
ENDBRANCH  14  15
ENDBRANCH  13  14
ENDBRANCH   2  13
TORSDOF 15
ENDMDL
MODEL 8
REMARK VINA RESULT:    -3.245     10.759     13.829
REMARK INTER + INTRA:          -8.286
REMARK INTER:                  -5.560
REMARK INTRA:                  -2.725
REMARK UNBOUND:                -2.195
REMARK SMILES CCCCCCCCC=CCCCCCCCC(=O)[O-]
REMARK SMILES IDX 10 1 9 2 11 3 12 4 13 5 14 6 15 7 16 8 17 9 18 10 19 11
REMARK SMILES IDX 20 12 8 13 7 14 6 15 5 16 4 17 3 18 2 19 1 20
REMARK H PARENT
REMARK Flexibility Score: inf
ROOT
ATOM      1  C   UNL     1      60.787  24.845  50.857  1.00  0.00    -0.031 C 
ATOM      2  C   UNL     1      60.047  24.709  49.746  1.00  0.00    -0.031 C 
ENDROOT
BRANCH   1   3
ATOM      3  C   UNL     1      62.283  24.687  50.831  1.00  0.00     0.027 C 
BRANCH   3   4
ATOM      4  C   UNL     1      62.789  24.419  49.408  1.00  0.00     0.004 C 
BRANCH   4   5
ATOM      5  C   UNL     1      63.737  23.211  49.382  1.00  0.00     0.000 C 
BRANCH   5   6
ATOM      6  C   UNL     1      63.000  21.871  49.546  1.00  0.00     0.000 C 
BRANCH   6   7
ATOM      7  C   UNL     1      61.794  21.741  48.602  1.00  0.00     0.000 C 
BRANCH   7   8
ATOM      8  C   UNL     1      60.637  20.929  49.213  1.00  0.00     0.006 C 
BRANCH   8   9
ATOM      9  C   UNL     1      60.449  21.146  50.725  1.00  0.00     0.053 C 
BRANCH   9  10
ATOM     10  C   UNL     1      59.244  20.438  51.264  1.00  0.00     0.041 C 
ATOM     11  O   UNL     1      58.556  20.965  52.177  1.00  0.00    -0.550 OA
ATOM     12  O   UNL     1      58.859  19.212  50.735  1.00  0.00    -0.550 OA
ENDBRANCH   9  10
ENDBRANCH   8   9
ENDBRANCH   7   8
ENDBRANCH   6   7
ENDBRANCH   5   6
ENDBRANCH   4   5
ENDBRANCH   3   4
ENDBRANCH   1   3
BRANCH   2  13
ATOM     13  C   UNL     1      58.551  24.866  49.771  1.00  0.00     0.027 C 
BRANCH  13  14
ATOM     14  C   UNL     1      58.060  25.247  51.175  1.00  0.00     0.004 C 
BRANCH  14  15
ATOM     15  C   UNL     1      57.156  26.491  51.167  1.00  0.00     0.000 C 
BRANCH  15  16
ATOM     16  C   UNL     1      56.943  27.061  49.753  1.00  0.00     0.000 C 
BRANCH  16  17
ATOM     17  C   UNL     1      57.601  28.443  49.575  1.00  0.00    -0.000 C 
BRANCH  17  18
ATOM     18  C   UNL     1      58.806  28.447  48.615  1.00  0.00    -0.000 C 
BRANCH  18  19
ATOM     19  C   UNL     1      60.168  28.244  49.308  1.00  0.00    -0.003 C 
ATOM     20  C   UNL     1      60.164  28.707  50.765  1.00  0.00     0.004 C 
ENDBRANCH  18  19
ENDBRANCH  17  18
ENDBRANCH  16  17
ENDBRANCH  15  16
ENDBRANCH  14  15
ENDBRANCH  13  14
ENDBRANCH   2  13
TORSDOF 15
ENDMDL
MODEL 9
REMARK VINA RESULT:    -3.216     12.202     15.026
REMARK INTER + INTRA:          -8.230
REMARK INTER:                  -6.334
REMARK INTRA:                  -1.896
REMARK UNBOUND:                -2.195
REMARK SMILES CCCCCCCCC=CCCCCCCCC(=O)[O-]
REMARK SMILES IDX 10 1 9 2 11 3 12 4 13 5 14 6 15 7 16 8 17 9 18 10 19 11
REMARK SMILES IDX 20 12 8 13 7 14 6 15 5 16 4 17 3 18 2 19 1 20
REMARK H PARENT
REMARK Flexibility Score: inf
ROOT
ATOM      1  C   UNL     1      59.836  20.363  51.103  1.00  0.00    -0.031 C 
ATOM      2  C   UNL     1      60.404  19.163  50.910  1.00  0.00    -0.031 C 
ENDROOT
BRANCH   1   3
ATOM      3  C   UNL     1      60.346  21.596  50.409  1.00  0.00     0.027 C 
BRANCH   3   4
ATOM      4  C   UNL     1      60.815  21.277  48.984  1.00  0.00     0.004 C 
BRANCH   4   5
ATOM      5  C   UNL     1      62.223  21.838  48.731  1.00  0.00     0.000 C 
BRANCH   5   6
ATOM      6  C   UNL     1      62.708  22.760  49.861  1.00  0.00     0.000 C 
BRANCH   6   7
ATOM      7  C   UNL     1      62.741  24.239  49.443  1.00  0.00     0.000 C 
BRANCH   7   8
ATOM      8  C   UNL     1      61.595  25.065  50.058  1.00  0.00     0.006 C 
BRANCH   8   9
ATOM      9  C   UNL     1      60.302  25.058  49.225  1.00  0.00     0.053 C 
BRANCH   9  10
ATOM     10  C   UNL     1      59.728  26.430  49.042  1.00  0.00     0.041 C 
ATOM     11  O   UNL     1      58.538  26.668  49.379  1.00  0.00    -0.550 OA
ATOM     12  O   UNL     1      60.515  27.455  48.532  1.00  0.00    -0.550 OA
ENDBRANCH   9  10
ENDBRANCH   8   9
ENDBRANCH   7   8
ENDBRANCH   6   7
ENDBRANCH   5   6
ENDBRANCH   4   5
ENDBRANCH   3   4
ENDBRANCH   1   3
BRANCH   2  13
ATOM     13  C   UNL     1      59.896  17.930  51.606  1.00  0.00     0.027 C 
BRANCH  13  14
ATOM     14  C   UNL     1      59.577  16.818  50.595  1.00  0.00     0.004 C 
BRANCH  14  15
ATOM     15  C   UNL     1      58.066  16.586  50.430  1.00  0.00     0.000 C 
BRANCH  15  16
ATOM     16  C   UNL     1      57.361  17.752  49.714  1.00  0.00     0.000 C 
BRANCH  16  17
ATOM     17  C   UNL     1      56.045  18.153  50.409  1.00  0.00    -0.000 C 
BRANCH  17  18
ATOM     18  C   UNL     1      56.241  18.950  51.713  1.00  0.00    -0.000 C 
BRANCH  18  19
ATOM     19  C   UNL     1      55.840  18.183  52.990  1.00  0.00    -0.003 C 
ATOM     20  C   UNL     1      57.040  17.836  53.871  1.00  0.00     0.004 C 
ENDBRANCH  18  19
ENDBRANCH  17  18
ENDBRANCH  16  17
ENDBRANCH  15  16
ENDBRANCH  14  15
ENDBRANCH  13  14
ENDBRANCH   2  13
TORSDOF 15
ENDMDL
