MODEL 1
REMARK VINA RESULT:    -3.767      0.000      0.000
REMARK INTER + INTRA:         -13.245
REMARK INTER:                  -8.612
REMARK INTRA:                  -4.633
REMARK UNBOUND:                -4.633
REMARK SMILES CCCCCCCCCCCCCCCCCCCCCCCC(=O)[O-]
REMARK SMILES IDX 13 1 14 2 15 3 16 4 17 5 18 6 19 7 20 8 21 9 22 10 23 11
REMARK SMILES IDX 24 12 25 13 26 14 12 15 11 16 10 17 9 18 8 19 7 20 6 21 5 22
REMARK SMILES IDX 4 23 3 24 2 25 1 26
REMARK H PARENT
REMARK Flexibility Score: inf
ROOT
ATOM      1  C   UNL     1     163.923 176.463 181.490  1.00  0.00     0.000 C 
ENDROOT
BRANCH   1   2
ATOM      2  C   UNL     1     164.882 177.485 180.845  1.00  0.00     0.000 C 
BRANCH   2   3
ATOM      3  C   UNL     1     164.495 178.957 181.096  1.00  0.00     0.000 C 
BRANCH   3   4
ATOM      4  C   UNL     1     163.281 179.109 182.032  1.00  0.00     0.000 C 
BRANCH   4   5
ATOM      5  C   UNL     1     162.085 179.791 181.348  1.00  0.00     0.000 C 
BRANCH   5   6
ATOM      6  C   UNL     1     162.348 180.108 179.868  1.00  0.00     0.000 C 
BRANCH   6   7
ATOM      7  C   UNL     1     161.315 179.422 178.962  1.00  0.00     0.000 C 
BRANCH   7   8
ATOM      8  C   UNL     1     161.974 178.440 177.976  1.00  0.00     0.000 C 
BRANCH   8   9
ATOM      9  C   UNL     1     163.392 178.888 177.579  1.00  0.00     0.000 C 
BRANCH   9  10
ATOM     10  C   UNL     1     164.060 177.927 176.582  1.00  0.00     0.006 C 
BRANCH  10  11
ATOM     11  C   UNL     1     164.515 176.621 177.242  1.00  0.00     0.053 C 
BRANCH  11  12
ATOM     12  C   UNL     1     165.997 176.627 177.443  1.00  0.00     0.041 C 
ATOM     13  O   UNL     1     166.670 175.583 177.231  1.00  0.00    -0.550 OA
ATOM     14  O   UNL     1     166.645 177.802 177.801  1.00  0.00    -0.550 OA
ENDBRANCH  11  12
ENDBRANCH  10  11
ENDBRANCH   9  10
ENDBRANCH   8   9
ENDBRANCH   7   8
ENDBRANCH   6   7
ENDBRANCH   5   6
ENDBRANCH   4   5
ENDBRANCH   3   4
ENDBRANCH   2   3
ENDBRANCH   1   2
BRANCH   1  15
ATOM     15  C   UNL     1     162.912 175.811 180.531  1.00  0.00     0.000 C 
BRANCH  15  16
ATOM     16  C   UNL     1     161.431 176.143 180.814  1.00  0.00     0.000 C 
BRANCH  16  17
ATOM     17  C   UNL     1     160.517 174.917 181.004  1.00  0.00     0.000 C 
BRANCH  17  18
ATOM     18  C   UNL     1     161.265 173.707 181.580  1.00  0.00    -0.000 C 
BRANCH  18  19
ATOM     19  C   UNL     1     161.226 172.519 180.608  1.00  0.00    -0.000 C 
BRANCH  19  20
ATOM     20  C   UNL     1     160.680 172.907 179.221  1.00  0.00    -0.000 C 
BRANCH  20  21
ATOM     21  C   UNL     1     161.730 172.919 178.090  1.00  0.00    -0.000 C 
BRANCH  21  22
ATOM     22  C   UNL     1     161.746 174.196 177.225  1.00  0.00    -0.000 C 
BRANCH  22  23
ATOM     23  C   UNL     1     160.363 174.828 176.985  1.00  0.00    -0.000 C 
BRANCH  23  24
ATOM     24  C   UNL     1     160.396 175.931 175.913  1.00  0.00    -0.000 C 
BRANCH  24  25
ATOM     25  C   UNL     1     161.595 175.789 174.963  1.00  0.00    -0.003 C 
ATOM     26  C   UNL     1     161.315 176.386 173.584  1.00  0.00     0.004 C 
ENDBRANCH  24  25
ENDBRANCH  23  24
ENDBRANCH  22  23
ENDBRANCH  21  22
ENDBRANCH  20  21
ENDBRANCH  19  20
ENDBRANCH  18  19
ENDBRANCH  17  18
ENDBRANCH  16  17
ENDBRANCH  15  16
ENDBRANCH   1  15
TORSDOF 22
ENDMDL
MODEL 2
REMARK VINA RESULT:    -3.695      9.275     12.681
REMARK INTER + INTRA:         -13.079
REMARK INTER:                  -8.932
REMARK INTRA:                  -4.148
REMARK UNBOUND:                -4.633
REMARK SMILES CCCCCCCCCCCCCCCCCCCCCCCC(=O)[O-]
REMARK SMILES IDX 13 1 14 2 15 3 16 4 17 5 18 6 19 7 20 8 21 9 22 10 23 11
REMARK SMILES IDX 24 12 25 13 26 14 12 15 11 16 10 17 9 18 8 19 7 20 6 21 5 22
REMARK SMILES IDX 4 23 3 24 2 25 1 26
REMARK H PARENT
REMARK Flexibility Score: inf
ROOT
ATOM      1  C   UNL     1     177.133 178.676 178.788  1.00  0.00     0.000 C 
ENDROOT
BRANCH   1   2
ATOM      2  C   UNL     1     177.435 179.722 179.880  1.00  0.00     0.000 C 
BRANCH   2   3
ATOM      3  C   UNL     1     176.718 179.457 181.220  1.00  0.00     0.000 C 
BRANCH   3   4
ATOM      4  C   UNL     1     176.215 178.007 181.358  1.00  0.00     0.000 C 
BRANCH   4   5
ATOM      5  C   UNL     1     174.690 177.920 181.519  1.00  0.00     0.000 C 
BRANCH   5   6
ATOM      6  C   UNL     1     174.133 176.532 181.167  1.00  0.00     0.000 C 
BRANCH   6   7
ATOM      7  C   UNL     1     173.671 176.474 179.703  1.00  0.00     0.000 C 
BRANCH   7   8
ATOM      8  C   UNL     1     174.228 175.240 178.970  1.00  0.00     0.000 C 
BRANCH   8   9
ATOM      9  C   UNL     1     175.343 175.616 177.979  1.00  0.00     0.000 C 
BRANCH   9  10
ATOM     10  C   UNL     1     176.690 174.961 178.326  1.00  0.00     0.006 C 
BRANCH  10  11
ATOM     11  C   UNL     1     176.630 174.155 179.629  1.00  0.00     0.053 C 
BRANCH  11  12
ATOM     12  C   UNL     1     177.860 174.392 180.446  1.00  0.00     0.041 C 
ATOM     13  O   UNL     1     178.324 173.474 181.174  1.00  0.00    -0.550 OA
ATOM     14  O   UNL     1     178.532 175.604 180.355  1.00  0.00    -0.550 OA
ENDBRANCH  11  12
ENDBRANCH  10  11
ENDBRANCH   9  10
ENDBRANCH   8   9
ENDBRANCH   7   8
ENDBRANCH   6   7
ENDBRANCH   5   6
ENDBRANCH   4   5
ENDBRANCH   3   4
ENDBRANCH   2   3
ENDBRANCH   1   2
BRANCH   1  15
ATOM     15  C   UNL     1     176.326 179.194 177.583  1.00  0.00     0.000 C 
BRANCH  15  16
ATOM     16  C   UNL     1     174.841 179.503 177.874  1.00  0.00     0.000 C 
BRANCH  16  17
ATOM     17  C   UNL     1     173.844 178.888 176.874  1.00  0.00     0.000 C 
BRANCH  17  18
ATOM     18  C   UNL     1     172.433 179.479 177.007  1.00  0.00    -0.000 C 
BRANCH  18  19
ATOM     19  C   UNL     1     171.505 178.524 177.773  1.00  0.00    -0.000 C 
BRANCH  19  20
ATOM     20  C   UNL     1     170.744 179.227 178.913  1.00  0.00    -0.000 C 
BRANCH  20  21
ATOM     21  C   UNL     1     171.600 179.569 180.150  1.00  0.00    -0.000 C 
BRANCH  21  22
ATOM     22  C   UNL     1     171.143 178.906 181.466  1.00  0.00    -0.000 C 
BRANCH  22  23
ATOM     23  C   UNL     1     169.652 178.524 181.511  1.00  0.00    -0.000 C 
BRANCH  23  24
ATOM     24  C   UNL     1     169.431 177.058 181.922  1.00  0.00    -0.000 C 
BRANCH  24  25
ATOM     25  C   UNL     1     170.721 176.385 182.414  1.00  0.00    -0.003 C 
ATOM     26  C   UNL     1     170.625 175.945 183.874  1.00  0.00     0.004 C 
ENDBRANCH  24  25
ENDBRANCH  23  24
ENDBRANCH  22  23
ENDBRANCH  21  22
ENDBRANCH  20  21
ENDBRANCH  19  20
ENDBRANCH  18  19
ENDBRANCH  17  18
ENDBRANCH  16  17
ENDBRANCH  15  16
ENDBRANCH   1  15
TORSDOF 22
ENDMDL
MODEL 3
REMARK VINA RESULT:    -3.690      2.820      6.567
REMARK INTER + INTRA:         -13.069
REMARK INTER:                  -9.529
REMARK INTRA:                  -3.540
REMARK UNBOUND:                -4.633
REMARK SMILES CCCCCCCCCCCCCCCCCCCCCCCC(=O)[O-]
REMARK SMILES IDX 13 1 14 2 15 3 16 4 17 5 18 6 19 7 20 8 21 9 22 10 23 11
REMARK SMILES IDX 24 12 25 13 26 14 12 15 11 16 10 17 9 18 8 19 7 20 6 21 5 22
REMARK SMILES IDX 4 23 3 24 2 25 1 26
REMARK H PARENT
REMARK Flexibility Score: inf
ROOT
ATOM      1  C   UNL     1     163.037 179.751 180.336  1.00  0.00     0.000 C 
ENDROOT
BRANCH   1   2
ATOM      2  C   UNL     1     162.878 178.797 181.538  1.00  0.00     0.000 C 
BRANCH   2   3
ATOM      3  C   UNL     1     163.725 177.513 181.437  1.00  0.00     0.000 C 
BRANCH   3   4
ATOM      4  C   UNL     1     162.881 176.254 181.158  1.00  0.00     0.000 C 
BRANCH   4   5
ATOM      5  C   UNL     1     161.371 176.539 181.159  1.00  0.00     0.000 C 
BRANCH   5   6
ATOM      6  C   UNL     1     160.524 175.258 181.101  1.00  0.00     0.000 C 
BRANCH   6   7
ATOM      7  C   UNL     1     161.189 174.192 180.218  1.00  0.00     0.000 C 
BRANCH   7   8
ATOM      8  C   UNL     1     160.971 172.770 180.766  1.00  0.00     0.000 C 
BRANCH   8   9
ATOM      9  C   UNL     1     161.040 172.729 182.303  1.00  0.00     0.000 C 
BRANCH   9  10
ATOM     10  C   UNL     1     162.483 172.760 182.832  1.00  0.00     0.006 C 
BRANCH  10  11
ATOM     11  C   UNL     1     163.383 171.731 182.138  1.00  0.00     0.053 C 
BRANCH  11  12
ATOM     12  C   UNL     1     164.780 171.823 182.663  1.00  0.00     0.041 C 
ATOM     13  O   UNL     1     165.135 171.119 183.646  1.00  0.00    -0.550 OA
ATOM     14  O   UNL     1     165.710 172.636 182.028  1.00  0.00    -0.550 OA
ENDBRANCH  11  12
ENDBRANCH  10  11
ENDBRANCH   9  10
ENDBRANCH   8   9
ENDBRANCH   7   8
ENDBRANCH   6   7
ENDBRANCH   5   6
ENDBRANCH   4   5
ENDBRANCH   3   4
ENDBRANCH   2   3
ENDBRANCH   1   2
BRANCH   1  15
ATOM     15  C   UNL     1     161.814 179.849 179.405  1.00  0.00     0.000 C 
BRANCH  15  16
ATOM     16  C   UNL     1     162.037 179.317 177.973  1.00  0.00     0.000 C 
BRANCH  16  17
ATOM     17  C   UNL     1     161.575 177.866 177.742  1.00  0.00     0.000 C 
BRANCH  17  18
ATOM     18  C   UNL     1     162.575 177.054 176.907  1.00  0.00    -0.000 C 
BRANCH  18  19
ATOM     19  C   UNL     1     163.746 176.561 177.770  1.00  0.00    -0.000 C 
BRANCH  19  20
ATOM     20  C   UNL     1     165.095 177.164 177.338  1.00  0.00    -0.000 C 
BRANCH  20  21
ATOM     21  C   UNL     1     165.636 178.274 178.263  1.00  0.00    -0.000 C 
BRANCH  21  22
ATOM     22  C   UNL     1     166.670 177.809 179.309  1.00  0.00    -0.000 C 
BRANCH  22  23
ATOM     23  C   UNL     1     167.025 178.862 180.375  1.00  0.00    -0.000 C 
BRANCH  23  24
ATOM     24  C   UNL     1     168.422 178.642 180.980  1.00  0.00    -0.000 C 
BRANCH  24  25
ATOM     25  C   UNL     1     169.084 177.352 180.473  1.00  0.00    -0.003 C 
ATOM     26  C   UNL     1     169.331 176.346 181.597  1.00  0.00     0.004 C 
ENDBRANCH  24  25
ENDBRANCH  23  24
ENDBRANCH  22  23
ENDBRANCH  21  22
ENDBRANCH  20  21
ENDBRANCH  19  20
ENDBRANCH  18  19
ENDBRANCH  17  18
ENDBRANCH  16  17
ENDBRANCH  15  16
ENDBRANCH   1  15
TORSDOF 22
ENDMDL
MODEL 4
REMARK VINA RESULT:    -3.690      6.665      9.993
REMARK INTER + INTRA:         -13.068
REMARK INTER:                 -10.825
REMARK INTRA:                  -2.243
REMARK UNBOUND:                -4.633
REMARK SMILES CCCCCCCCCCCCCCCCCCCCCCCC(=O)[O-]
REMARK SMILES IDX 13 1 14 2 15 3 16 4 17 5 18 6 19 7 20 8 21 9 22 10 23 11
REMARK SMILES IDX 24 12 25 13 26 14 12 15 11 16 10 17 9 18 8 19 7 20 6 21 5 22
REMARK SMILES IDX 4 23 3 24 2 25 1 26
REMARK H PARENT
REMARK Flexibility Score: inf
ROOT
ATOM      1  C   UNL     1     168.702 177.404 180.858  1.00  0.00     0.000 C 
ENDROOT
BRANCH   1   2
ATOM      2  C   UNL     1     167.252 177.741 180.455  1.00  0.00     0.000 C 
BRANCH   2   3
ATOM      3  C   UNL     1     166.937 179.251 180.445  1.00  0.00     0.000 C 
BRANCH   3   4
ATOM      4  C   UNL     1     165.426 179.551 180.483  1.00  0.00     0.000 C 
BRANCH   4   5
ATOM      5  C   UNL     1     164.610 178.416 181.120  1.00  0.00     0.000 C 
BRANCH   5   6
ATOM      6  C   UNL     1     163.465 178.931 182.008  1.00  0.00     0.000 C 
BRANCH   6   7
ATOM      7  C   UNL     1     162.612 179.970 181.266  1.00  0.00     0.000 C 
BRANCH   7   8
ATOM      8  C   UNL     1     161.730 179.325 180.181  1.00  0.00     0.000 C 
BRANCH   8   9
ATOM      9  C   UNL     1     162.096 179.823 178.772  1.00  0.00     0.000 C 
BRANCH   9  10
ATOM     10  C   UNL     1     162.660 178.707 177.877  1.00  0.00     0.006 C 
BRANCH  10  11
ATOM     11  C   UNL     1     161.599 177.668 177.497  1.00  0.00     0.053 C 
BRANCH  11  12
ATOM     12  C   UNL     1     161.908 176.351 178.133  1.00  0.00     0.041 C 
ATOM     13  O   UNL     1     163.055 175.843 178.011  1.00  0.00    -0.550 OA
ATOM     14  O   UNL     1     160.954 175.714 178.915  1.00  0.00    -0.550 OA
ENDBRANCH  11  12
ENDBRANCH  10  11
ENDBRANCH   9  10
ENDBRANCH   8   9
ENDBRANCH   7   8
ENDBRANCH   6   7
ENDBRANCH   5   6
ENDBRANCH   4   5
ENDBRANCH   3   4
ENDBRANCH   2   3
ENDBRANCH   1   2
BRANCH   1  15
ATOM     15  C   UNL     1     169.493 178.557 181.502  1.00  0.00     0.000 C 
BRANCH  15  16
ATOM     16  C   UNL     1     171.028 178.396 181.472  1.00  0.00     0.000 C 
BRANCH  16  17
ATOM     17  C   UNL     1     171.807 179.681 181.131  1.00  0.00     0.000 C 
BRANCH  17  18
ATOM     18  C   UNL     1     173.327 179.465 181.119  1.00  0.00    -0.000 C 
BRANCH  18  19
ATOM     19  C   UNL     1     173.672 177.974 180.987  1.00  0.00    -0.000 C 
BRANCH  19  20
ATOM     20  C   UNL     1     175.161 177.685 181.253  1.00  0.00    -0.000 C 
BRANCH  20  21
ATOM     21  C   UNL     1     175.964 178.878 181.811  1.00  0.00    -0.000 C 
BRANCH  21  22
ATOM     22  C   UNL     1     177.117 179.369 180.912  1.00  0.00    -0.000 C 
BRANCH  22  23
ATOM     23  C   UNL     1     177.121 178.780 179.490  1.00  0.00    -0.000 C 
BRANCH  23  24
ATOM     24  C   UNL     1     176.792 179.830 178.415  1.00  0.00    -0.000 C 
BRANCH  24  25
ATOM     25  C   UNL     1     175.296 179.867 178.069  1.00  0.00    -0.003 C 
ATOM     26  C   UNL     1     174.813 178.560 177.442  1.00  0.00     0.004 C 
ENDBRANCH  24  25
ENDBRANCH  23  24
ENDBRANCH  22  23
ENDBRANCH  21  22
ENDBRANCH  20  21
ENDBRANCH  19  20
ENDBRANCH  18  19
ENDBRANCH  17  18
ENDBRANCH  16  17
ENDBRANCH  15  16
ENDBRANCH   1  15
TORSDOF 22
ENDMDL
MODEL 5
REMARK VINA RESULT:    -3.658      2.163      5.749
REMARK INTER + INTRA:         -12.996
REMARK INTER:                  -8.495
REMARK INTRA:                  -4.501
REMARK UNBOUND:                -4.633
REMARK SMILES CCCCCCCCCCCCCCCCCCCCCCCC(=O)[O-]
REMARK SMILES IDX 13 1 14 2 15 3 16 4 17 5 18 6 19 7 20 8 21 9 22 10 23 11
REMARK SMILES IDX 24 12 25 13 26 14 12 15 11 16 10 17 9 18 8 19 7 20 6 21 5 22
REMARK SMILES IDX 4 23 3 24 2 25 1 26
REMARK H PARENT
REMARK Flexibility Score: inf
ROOT
ATOM      1  C   UNL     1     162.739 175.973 180.697  1.00  0.00     0.000 C 
ENDROOT
BRANCH   1   2
ATOM      2  C   UNL     1     161.306 176.336 181.140  1.00  0.00     0.000 C 
BRANCH   2   3
ATOM      3  C   UNL     1     160.316 175.154 181.093  1.00  0.00     0.000 C 
BRANCH   3   4
ATOM      4  C   UNL     1     160.764 174.029 180.140  1.00  0.00     0.000 C 
BRANCH   4   5
ATOM      5  C   UNL     1     160.960 172.685 180.857  1.00  0.00     0.000 C 
BRANCH   5   6
ATOM      6  C   UNL     1     161.047 172.832 182.384  1.00  0.00     0.000 C 
BRANCH   6   7
ATOM      7  C   UNL     1     162.478 172.585 182.885  1.00  0.00     0.000 C 
BRANCH   7   8
ATOM      8  C   UNL     1     163.377 171.981 181.791  1.00  0.00     0.000 C 
BRANCH   8   9
ATOM      9  C   UNL     1     164.623 172.844 181.529  1.00  0.00     0.000 C 
BRANCH   9  10
ATOM     10  C   UNL     1     165.180 172.665 180.107  1.00  0.00     0.006 C 
BRANCH  10  11
ATOM     11  C   UNL     1     164.215 173.176 179.031  1.00  0.00     0.053 C 
BRANCH  11  12
ATOM     12  C   UNL     1     163.930 172.100 178.033  1.00  0.00     0.041 C 
ATOM     13  O   UNL     1     164.156 172.295 176.809  1.00  0.00    -0.550 OA
ATOM     14  O   UNL     1     163.476 170.859 178.459  1.00  0.00    -0.550 OA
ENDBRANCH  11  12
ENDBRANCH  10  11
ENDBRANCH   9  10
ENDBRANCH   8   9
ENDBRANCH   7   8
ENDBRANCH   6   7
ENDBRANCH   5   6
ENDBRANCH   4   5
ENDBRANCH   3   4
ENDBRANCH   2   3
ENDBRANCH   1   2
BRANCH   1  15
ATOM     15  C   UNL     1     163.866 176.538 181.582  1.00  0.00     0.000 C 
BRANCH  15  16
ATOM     16  C   UNL     1     164.214 178.021 181.333  1.00  0.00     0.000 C 
BRANCH  16  17
ATOM     17  C   UNL     1     163.246 179.031 181.979  1.00  0.00     0.000 C 
BRANCH  17  18
ATOM     18  C   UNL     1     162.462 179.845 180.940  1.00  0.00    -0.000 C 
BRANCH  18  19
ATOM     19  C   UNL     1     163.171 179.833 179.578  1.00  0.00    -0.000 C 
BRANCH  19  20
ATOM     20  C   UNL     1     162.185 179.784 178.396  1.00  0.00    -0.000 C 
BRANCH  20  21
ATOM     21  C   UNL     1     161.373 178.477 178.282  1.00  0.00    -0.000 C 
BRANCH  21  22
ATOM     22  C   UNL     1     161.894 177.472 177.234  1.00  0.00    -0.000 C 
BRANCH  22  23
ATOM     23  C   UNL     1     163.248 177.845 176.602  1.00  0.00    -0.000 C 
BRANCH  23  24
ATOM     24  C   UNL     1     164.266 176.693 176.666  1.00  0.00    -0.000 C 
BRANCH  24  25
ATOM     25  C   UNL     1     165.093 176.712 177.959  1.00  0.00    -0.003 C 
ATOM     26  C   UNL     1     165.973 177.957 178.067  1.00  0.00     0.004 C 
ENDBRANCH  24  25
ENDBRANCH  23  24
ENDBRANCH  22  23
ENDBRANCH  21  22
ENDBRANCH  20  21
ENDBRANCH  19  20
ENDBRANCH  18  19
ENDBRANCH  17  18
ENDBRANCH  16  17
ENDBRANCH  15  16
ENDBRANCH   1  15
TORSDOF 22
ENDMDL
MODEL 6
REMARK VINA RESULT:    -3.639      7.030     10.477
REMARK INTER + INTRA:         -12.951
REMARK INTER:                 -10.162
REMARK INTRA:                  -2.789
REMARK UNBOUND:                -4.633
REMARK SMILES CCCCCCCCCCCCCCCCCCCCCCCC(=O)[O-]
REMARK SMILES IDX 13 1 14 2 15 3 16 4 17 5 18 6 19 7 20 8 21 9 22 10 23 11
REMARK SMILES IDX 24 12 25 13 26 14 12 15 11 16 10 17 9 18 8 19 7 20 6 21 5 22
REMARK SMILES IDX 4 23 3 24 2 25 1 26
REMARK H PARENT
REMARK Flexibility Score: inf
ROOT
ATOM      1  C   UNL     1     170.382 178.392 179.284  1.00  0.00     0.000 C 
ENDROOT
BRANCH   1   2
ATOM      2  C   UNL     1     169.685 177.956 180.589  1.00  0.00     0.000 C 
BRANCH   2   3
ATOM      3  C   UNL     1     168.283 178.568 180.788  1.00  0.00     0.000 C 
BRANCH   3   4
ATOM      4  C   UNL     1     167.152 177.673 180.247  1.00  0.00     0.000 C 
BRANCH   4   5
ATOM      5  C   UNL     1     166.002 178.479 179.624  1.00  0.00     0.000 C 
BRANCH   5   6
ATOM      6  C   UNL     1     165.705 179.779 180.388  1.00  0.00     0.000 C 
BRANCH   6   7
ATOM      7  C   UNL     1     164.405 179.662 181.198  1.00  0.00     0.000 C 
BRANCH   7   8
ATOM      8  C   UNL     1     163.176 179.458 180.293  1.00  0.00     0.000 C 
BRANCH   8   9
ATOM      9  C   UNL     1     162.097 178.599 180.974  1.00  0.00     0.000 C 
BRANCH   9  10
ATOM     10  C   UNL     1     162.554 177.151 181.212  1.00  0.00     0.006 C 
BRANCH  10  11
ATOM     11  C   UNL     1     162.742 176.374 179.903  1.00  0.00     0.053 C 
BRANCH  11  12
ATOM     12  C   UNL     1     161.417 175.943 179.359  1.00  0.00     0.041 C 
ATOM     13  O   UNL     1     161.118 176.178 178.158  1.00  0.00    -0.550 OA
ATOM     14  O   UNL     1     160.538 175.223 180.158  1.00  0.00    -0.550 OA
ENDBRANCH  11  12
ENDBRANCH  10  11
ENDBRANCH   9  10
ENDBRANCH   8   9
ENDBRANCH   7   8
ENDBRANCH   6   7
ENDBRANCH   5   6
ENDBRANCH   4   5
ENDBRANCH   3   4
ENDBRANCH   2   3
ENDBRANCH   1   2
BRANCH   1  15
ATOM     15  C   UNL     1     171.571 179.355 179.461  1.00  0.00     0.000 C 
BRANCH  15  16
ATOM     16  C   UNL     1     172.057 179.535 180.915  1.00  0.00     0.000 C 
BRANCH  16  17
ATOM     17  C   UNL     1     173.576 179.378 181.114  1.00  0.00     0.000 C 
BRANCH  17  18
ATOM     18  C   UNL     1     174.018 177.908 181.153  1.00  0.00    -0.000 C 
BRANCH  18  19
ATOM     19  C   UNL     1     175.540 177.792 181.320  1.00  0.00    -0.000 C 
BRANCH  19  20
ATOM     20  C   UNL     1     176.207 179.147 181.621  1.00  0.00    -0.000 C 
BRANCH  20  21
ATOM     21  C   UNL     1     177.328 179.550 180.640  1.00  0.00    -0.000 C 
BRANCH  21  22
ATOM     22  C   UNL     1     177.058 179.211 179.160  1.00  0.00    -0.000 C 
BRANCH  22  23
ATOM     23  C   UNL     1     175.967 180.068 178.493  1.00  0.00    -0.000 C 
BRANCH  23  24
ATOM     24  C   UNL     1     175.223 179.313 177.378  1.00  0.00    -0.000 C 
BRANCH  24  25
ATOM     25  C   UNL     1     175.232 177.792 177.592  1.00  0.00    -0.003 C 
ATOM     26  C   UNL     1     173.825 177.196 177.576  1.00  0.00     0.004 C 
ENDBRANCH  24  25
ENDBRANCH  23  24
ENDBRANCH  22  23
ENDBRANCH  21  22
ENDBRANCH  20  21
ENDBRANCH  19  20
ENDBRANCH  18  19
ENDBRANCH  17  18
ENDBRANCH  16  17
ENDBRANCH  15  16
ENDBRANCH   1  15
TORSDOF 22
ENDMDL
MODEL 7
REMARK VINA RESULT:    -3.616      2.529      4.925
REMARK INTER + INTRA:         -12.900
REMARK INTER:                  -8.361
REMARK INTRA:                  -4.539
REMARK UNBOUND:                -4.633
REMARK SMILES CCCCCCCCCCCCCCCCCCCCCCCC(=O)[O-]
REMARK SMILES IDX 13 1 14 2 15 3 16 4 17 5 18 6 19 7 20 8 21 9 22 10 23 11
REMARK SMILES IDX 24 12 25 13 26 14 12 15 11 16 10 17 9 18 8 19 7 20 6 21 5 22
REMARK SMILES IDX 4 23 3 24 2 25 1 26
REMARK H PARENT
REMARK Flexibility Score: inf
ROOT
ATOM      1  C   UNL     1     165.482 179.281 180.383  1.00  0.00     0.000 C 
ENDROOT
BRANCH   1   2
ATOM      2  C   UNL     1     166.264 177.951 180.363  1.00  0.00     0.000 C 
BRANCH   2   3
ATOM      3  C   UNL     1     165.455 176.753 179.826  1.00  0.00     0.000 C 
BRANCH   3   4
ATOM      4  C   UNL     1     165.195 175.673 180.894  1.00  0.00     0.000 C 
BRANCH   4   5
ATOM      5  C   UNL     1     163.786 175.762 181.499  1.00  0.00     0.000 C 
BRANCH   5   6
ATOM      6  C   UNL     1     162.718 176.153 180.466  1.00  0.00     0.000 C 
BRANCH   6   7
ATOM      7  C   UNL     1     161.353 176.374 181.134  1.00  0.00     0.000 C 
BRANCH   7   8
ATOM      8  C   UNL     1     160.492 175.097 181.124  1.00  0.00     0.000 C 
BRANCH   8   9
ATOM      9  C   UNL     1     160.668 174.295 179.822  1.00  0.00     0.000 C 
BRANCH   9  10
ATOM     10  C   UNL     1     160.960 172.808 180.077  1.00  0.00     0.006 C 
BRANCH  10  11
ATOM     11  C   UNL     1     162.450 172.537 180.321  1.00  0.00     0.053 C 
BRANCH  11  12
ATOM     12  C   UNL     1     162.656 171.940 181.676  1.00  0.00     0.041 C 
ATOM     13  O   UNL     1     163.261 170.842 181.800  1.00  0.00    -0.550 OA
ATOM     14  O   UNL     1     162.239 172.626 182.809  1.00  0.00    -0.550 OA
ENDBRANCH  11  12
ENDBRANCH  10  11
ENDBRANCH   9  10
ENDBRANCH   8   9
ENDBRANCH   7   8
ENDBRANCH   6   7
ENDBRANCH   5   6
ENDBRANCH   4   5
ENDBRANCH   3   4
ENDBRANCH   2   3
ENDBRANCH   1   2
BRANCH   1  15
ATOM     15  C   UNL     1     164.380 179.381 181.453  1.00  0.00     0.000 C 
BRANCH  15  16
ATOM     16  C   UNL     1     162.972 179.716 180.915  1.00  0.00     0.000 C 
BRANCH  16  17
ATOM     17  C   UNL     1     162.866 179.786 179.379  1.00  0.00     0.000 C 
BRANCH  17  18
ATOM     18  C   UNL     1     161.493 179.334 178.861  1.00  0.00    -0.000 C 
BRANCH  18  19
ATOM     19  C   UNL     1     161.641 178.299 177.736  1.00  0.00    -0.000 C 
BRANCH  19  20
ATOM     20  C   UNL     1     163.111 178.044 177.355  1.00  0.00    -0.000 C 
BRANCH  20  21
ATOM     21  C   UNL     1     163.332 176.883 176.363  1.00  0.00    -0.000 C 
BRANCH  21  22
ATOM     22  C   UNL     1     163.330 175.475 176.991  1.00  0.00    -0.000 C 
BRANCH  22  23
ATOM     23  C   UNL     1     162.978 174.336 176.016  1.00  0.00    -0.000 C 
BRANCH  23  24
ATOM     24  C   UNL     1     161.590 173.731 176.291  1.00  0.00    -0.000 C 
BRANCH  24  25
ATOM     25  C   UNL     1     160.521 174.254 175.321  1.00  0.00    -0.003 C 
ATOM     26  C   UNL     1     159.881 175.554 175.808  1.00  0.00     0.004 C 
ENDBRANCH  24  25
ENDBRANCH  23  24
ENDBRANCH  22  23
ENDBRANCH  21  22
ENDBRANCH  20  21
ENDBRANCH  19  20
ENDBRANCH  18  19
ENDBRANCH  17  18
ENDBRANCH  16  17
ENDBRANCH  15  16
ENDBRANCH   1  15
TORSDOF 22
ENDMDL
MODEL 8
REMARK VINA RESULT:    -3.605      2.743      6.397
REMARK INTER + INTRA:         -12.874
REMARK INTER:                  -7.934
REMARK INTRA:                  -4.940
REMARK UNBOUND:                -4.633
REMARK SMILES CCCCCCCCCCCCCCCCCCCCCCCC(=O)[O-]
REMARK SMILES IDX 13 1 14 2 15 3 16 4 17 5 18 6 19 7 20 8 21 9 22 10 23 11
REMARK SMILES IDX 24 12 25 13 26 14 12 15 11 16 10 17 9 18 8 19 7 20 6 21 5 22
REMARK SMILES IDX 4 23 3 24 2 25 1 26
REMARK H PARENT
REMARK Flexibility Score: inf
ROOT
ATOM      1  C   UNL     1     163.175 177.369 177.392  1.00  0.00     0.000 C 
ENDROOT
BRANCH   1   2
ATOM      2  C   UNL     1     161.635 177.441 177.366  1.00  0.00     0.000 C 
BRANCH   2   3
ATOM      3  C   UNL     1     160.950 176.118 176.963  1.00  0.00     0.000 C 
BRANCH   3   4
ATOM      4  C   UNL     1     161.913 174.915 176.971  1.00  0.00     0.000 C 
BRANCH   4   5
ATOM      5  C   UNL     1     161.343 173.703 177.724  1.00  0.00     0.000 C 
BRANCH   5   6
ATOM      6  C   UNL     1     160.713 174.083 179.073  1.00  0.00     0.000 C 
BRANCH   6   7
ATOM      7  C   UNL     1     161.156 173.119 180.184  1.00  0.00     0.000 C 
BRANCH   7   8
ATOM      8  C   UNL     1     160.658 173.567 181.570  1.00  0.00     0.000 C 
BRANCH   8   9
ATOM      9  C   UNL     1     161.333 172.778 182.706  1.00  0.00     0.000 C 
BRANCH   9  10
ATOM     10  C   UNL     1     162.671 172.152 182.279  1.00  0.00     0.006 C 
BRANCH  10  11
ATOM     11  C   UNL     1     163.827 172.555 183.202  1.00  0.00     0.053 C 
BRANCH  11  12
ATOM     12  C   UNL     1     164.987 171.630 183.019  1.00  0.00     0.041 C 
ATOM     13  O   UNL     1     164.857 170.578 182.338  1.00  0.00    -0.550 OA
ATOM     14  O   UNL     1     166.229 171.960 183.544  1.00  0.00    -0.550 OA
ENDBRANCH  11  12
ENDBRANCH  10  11
ENDBRANCH   9  10
ENDBRANCH   8   9
ENDBRANCH   7   8
ENDBRANCH   6   7
ENDBRANCH   5   6
ENDBRANCH   4   5
ENDBRANCH   3   4
ENDBRANCH   2   3
ENDBRANCH   1   2
BRANCH   1  15
ATOM     15  C   UNL     1     163.891 178.688 177.735  1.00  0.00     0.000 C 
BRANCH  15  16
ATOM     16  C   UNL     1     165.168 178.538 178.590  1.00  0.00     0.000 C 
BRANCH  16  17
ATOM     17  C   UNL     1     165.138 179.285 179.937  1.00  0.00     0.000 C 
BRANCH  17  18
ATOM     18  C   UNL     1     163.727 179.754 180.320  1.00  0.00    -0.000 C 
BRANCH  18  19
ATOM     19  C   UNL     1     163.191 178.967 181.525  1.00  0.00    -0.000 C 
BRANCH  19  20
ATOM     20  C   UNL     1     162.145 177.910 181.124  1.00  0.00    -0.000 C 
BRANCH  20  21
ATOM     21  C   UNL     1     162.694 176.475 180.981  1.00  0.00    -0.000 C 
BRANCH  21  22
ATOM     22  C   UNL     1     164.022 176.205 181.717  1.00  0.00    -0.000 C 
BRANCH  22  23
ATOM     23  C   UNL     1     164.999 175.284 180.964  1.00  0.00    -0.000 C 
BRANCH  23  24
ATOM     24  C   UNL     1     164.440 174.811 179.611  1.00  0.00    -0.000 C 
BRANCH  24  25
ATOM     25  C   UNL     1     164.731 173.327 179.343  1.00  0.00    -0.003 C 
ATOM     26  C   UNL     1     165.073 173.059 177.877  1.00  0.00     0.004 C 
ENDBRANCH  24  25
ENDBRANCH  23  24
ENDBRANCH  22  23
ENDBRANCH  21  22
ENDBRANCH  20  21
ENDBRANCH  19  20
ENDBRANCH  18  19
ENDBRANCH  17  18
ENDBRANCH  16  17
ENDBRANCH  15  16
ENDBRANCH   1  15
TORSDOF 22
ENDMDL
MODEL 9
REMARK VINA RESULT:    -3.595      7.685     11.231
REMARK INTER + INTRA:         -12.852
REMARK INTER:                 -10.502
REMARK INTRA:                  -2.350
REMARK UNBOUND:                -4.633
REMARK SMILES CCCCCCCCCCCCCCCCCCCCCCCC(=O)[O-]
REMARK SMILES IDX 13 1 14 2 15 3 16 4 17 5 18 6 19 7 20 8 21 9 22 10 23 11
REMARK SMILES IDX 24 12 25 13 26 14 12 15 11 16 10 17 9 18 8 19 7 20 6 21 5 22
REMARK SMILES IDX 4 23 3 24 2 25 1 26
REMARK H PARENT
REMARK Flexibility Score: inf
ROOT
ATOM      1  C   UNL     1     171.599 177.986 180.265  1.00  0.00     0.000 C 
ENDROOT
BRANCH   1   2
ATOM      2  C   UNL     1     170.575 177.578 181.345  1.00  0.00     0.000 C 
BRANCH   2   3
ATOM      3  C   UNL     1     169.331 178.489 181.407  1.00  0.00     0.000 C 
BRANCH   3   4
ATOM      4  C   UNL     1     168.399 178.321 180.191  1.00  0.00     0.000 C 
BRANCH   4   5
ATOM      5  C   UNL     1     167.022 178.967 180.404  1.00  0.00     0.000 C 
BRANCH   5   6
ATOM      6  C   UNL     1     166.018 178.606 179.299  1.00  0.00     0.000 C 
BRANCH   6   7
ATOM      7  C   UNL     1     164.627 179.182 179.602  1.00  0.00     0.000 C 
BRANCH   7   8
ATOM      8  C   UNL     1     164.514 179.686 181.053  1.00  0.00     0.000 C 
BRANCH   8   9
ATOM      9  C   UNL     1     163.453 178.908 181.851  1.00  0.00     0.000 C 
BRANCH   9  10
ATOM     10  C   UNL     1     162.196 178.599 181.022  1.00  0.00     0.006 C 
BRANCH  10  11
ATOM     11  C   UNL     1     161.818 177.113 181.064  1.00  0.00     0.053 C 
BRANCH  11  12
ATOM     12  C   UNL     1     161.400 176.643 179.707  1.00  0.00     0.041 C 
ATOM     13  O   UNL     1     161.028 175.451 179.536  1.00  0.00    -0.550 OA
ATOM     14  O   UNL     1     161.358 177.536 178.645  1.00  0.00    -0.550 OA
ENDBRANCH  11  12
ENDBRANCH  10  11
ENDBRANCH   9  10
ENDBRANCH   8   9
ENDBRANCH   7   8
ENDBRANCH   6   7
ENDBRANCH   5   6
ENDBRANCH   4   5
ENDBRANCH   3   4
ENDBRANCH   2   3
ENDBRANCH   1   2
BRANCH   1  15
ATOM     15  C   UNL     1     172.187 179.401 180.415  1.00  0.00     0.000 C 
BRANCH  15  16
ATOM     16  C   UNL     1     173.572 179.466 181.093  1.00  0.00     0.000 C 
BRANCH  16  17
ATOM     17  C   UNL     1     174.347 178.135 181.112  1.00  0.00     0.000 C 
BRANCH  17  18
ATOM     18  C   UNL     1     175.796 178.301 181.594  1.00  0.00    -0.000 C 
BRANCH  18  19
ATOM     19  C   UNL     1     176.353 179.678 181.203  1.00  0.00    -0.000 C 
BRANCH  19  20
ATOM     20  C   UNL     1     177.467 179.587 180.144  1.00  0.00    -0.000 C 
BRANCH  20  21
ATOM     21  C   UNL     1     177.019 179.907 178.702  1.00  0.00    -0.000 C 
BRANCH  21  22
ATOM     22  C   UNL     1     176.273 178.767 177.980  1.00  0.00    -0.000 C 
BRANCH  22  23
ATOM     23  C   UNL     1     177.008 177.414 177.981  1.00  0.00    -0.000 C 
BRANCH  23  24
ATOM     24  C   UNL     1     176.058 176.226 178.212  1.00  0.00    -0.000 C 
BRANCH  24  25
ATOM     25  C   UNL     1     176.406 175.434 179.481  1.00  0.00    -0.003 C 
ATOM     26  C   UNL     1     177.790 175.791 180.025  1.00  0.00     0.004 C 
ENDBRANCH  24  25
ENDBRANCH  23  24
ENDBRANCH  22  23
ENDBRANCH  21  22
ENDBRANCH  20  21
ENDBRANCH  19  20
ENDBRANCH  18  19
ENDBRANCH  17  18
ENDBRANCH  16  17
ENDBRANCH  15  16
ENDBRANCH   1  15
TORSDOF 22
ENDMDL
