MODEL 1
REMARK VINA RESULT:    -3.985      0.000      0.000
REMARK INTER + INTRA:          -4.932
REMARK INTER:                  -4.684
REMARK INTRA:                  -0.248
REMARK UNBOUND:                -0.248
REMARK SMILES O=C([O-])C=Cc1ccc(O)c(O)c1
REMARK SMILES IDX 6 1 13 2 7 3 11 4 8 5 9 6 5 7 4 8 2 9 1 10 3 11 12 12 10 14
REMARK H PARENT 12 13 10 15
REMARK Flexibility Score: inf
ROOT
ATOM      1  C   UNL     1      -8.132  21.216  17.796  1.00  0.00    -0.022 A 
ATOM      2  C   UNL     1      -8.686  22.472  18.083  1.00  0.00     0.058 A 
ATOM      3  C   UNL     1      -7.342  20.576  18.765  1.00  0.00     0.012 A 
ATOM      4  C   UNL     1      -8.414  23.110  19.299  1.00  0.00     0.157 A 
ATOM      5  C   UNL     1      -7.068  21.209  19.981  1.00  0.00     0.051 A 
ATOM      6  C   UNL     1      -7.598  22.478  20.252  1.00  0.00     0.157 A 
ENDROOT
BRANCH   1   7
ATOM      7  C   UNL     1      -8.479  20.545  16.527  1.00  0.00     0.010 C 
ATOM      8  C   UNL     1      -7.651  20.378  15.483  1.00  0.00     0.025 C 
BRANCH   8   9
ATOM      9  C   UNL     1      -6.312  20.982  15.339  1.00  0.00     0.064 C 
ATOM     10  O   UNL     1      -6.131  22.029  14.663  1.00  0.00    -0.545 OA
ATOM     11  O   UNL     1      -5.217  20.344  15.905  1.00  0.00    -0.545 OA
ENDBRANCH   8   9
ENDBRANCH   1   7
BRANCH   4  12
ATOM     12  O   UNL     1      -8.965  24.368  19.543  1.00  0.00    -0.504 OA
ATOM     13  H   UNL     1      -9.218  24.673  20.474  1.00  0.00     0.293 HD
ENDBRANCH   4  12
BRANCH   6  14
ATOM     14  O   UNL     1      -7.320  23.108  21.465  1.00  0.00    -0.504 OA
ATOM     15  H   UNL     1      -6.493  23.679  21.589  1.00  0.00     0.293 HD
ENDBRANCH   6  14
TORSDOF 4
ENDMDL
MODEL 2
REMARK VINA RESULT:    -3.848      0.888      1.893
REMARK INTER + INTRA:          -4.771
REMARK INTER:                  -4.544
REMARK INTRA:                  -0.227
REMARK UNBOUND:                -0.248
REMARK SMILES O=C([O-])C=Cc1ccc(O)c(O)c1
REMARK SMILES IDX 6 1 13 2 7 3 11 4 8 5 9 6 5 7 4 8 2 9 1 10 3 11 12 12 10 14
REMARK H PARENT 12 13 10 15
REMARK Flexibility Score: inf
ROOT
ATOM      1  C   UNL     1      -8.517  21.509  18.041  1.00  0.00    -0.022 A 
ATOM      2  C   UNL     1      -7.809  20.831  19.044  1.00  0.00     0.058 A 
ATOM      3  C   UNL     1      -8.783  22.879  18.195  1.00  0.00     0.012 A 
ATOM      4  C   UNL     1      -7.416  21.496  20.212  1.00  0.00     0.157 A 
ATOM      5  C   UNL     1      -8.393  23.548  19.359  1.00  0.00     0.051 A 
ATOM      6  C   UNL     1      -7.713  22.860  20.373  1.00  0.00     0.157 A 
ENDROOT
BRANCH   1   7
ATOM      7  C   UNL     1      -8.872  20.795  16.797  1.00  0.00     0.010 C 
ATOM      8  C   UNL     1      -8.023  20.503  15.799  1.00  0.00     0.025 C 
BRANCH   8   9
ATOM      9  C   UNL     1      -6.635  20.989  15.676  1.00  0.00     0.064 C 
ATOM     10  O   UNL     1      -6.340  21.952  14.921  1.00  0.00    -0.545 OA
ATOM     11  O   UNL     1      -5.623  20.325  16.355  1.00  0.00    -0.545 OA
ENDBRANCH   8   9
ENDBRANCH   1   7
BRANCH   4  12
ATOM     12  O   UNL     1      -6.731  20.786  21.198  1.00  0.00    -0.504 OA
ATOM     13  H   UNL     1      -5.941  21.180  21.693  1.00  0.00     0.293 HD
ENDBRANCH   4  12
BRANCH   6  14
ATOM     14  O   UNL     1      -7.327  23.528  21.535  1.00  0.00    -0.504 OA
ATOM     15  H   UNL     1      -6.428  23.988  21.609  1.00  0.00     0.293 HD
ENDBRANCH   6  14
TORSDOF 4
ENDMDL
MODEL 3
REMARK VINA RESULT:    -3.296      1.106      4.970
REMARK INTER + INTRA:          -4.121
REMARK INTER:                  -3.898
REMARK INTRA:                  -0.224
REMARK UNBOUND:                -0.248
REMARK SMILES O=C([O-])C=Cc1ccc(O)c(O)c1
REMARK SMILES IDX 6 1 13 2 7 3 11 4 8 5 9 6 5 7 4 8 2 9 1 10 3 11 12 12 10 14
REMARK H PARENT 12 13 10 15
REMARK Flexibility Score: inf
ROOT
ATOM      1  C   UNL     1      -7.669  20.548  18.044  1.00  0.00    -0.022 A 
ATOM      2  C   UNL     1      -6.328  20.153  17.940  1.00  0.00     0.058 A 
ATOM      3  C   UNL     1      -8.340  21.010  16.900  1.00  0.00     0.012 A 
ATOM      4  C   UNL     1      -5.644  20.267  16.723  1.00  0.00     0.157 A 
ATOM      5  C   UNL     1      -7.662  21.125  15.682  1.00  0.00     0.051 A 
ATOM      6  C   UNL     1      -6.313  20.759  15.589  1.00  0.00     0.157 A 
ENDROOT
BRANCH   1   7
ATOM      7  C   UNL     1      -8.379  20.367  19.326  1.00  0.00     0.010 C 
ATOM      8  C   UNL     1      -8.783  21.358  20.138  1.00  0.00     0.025 C 
BRANCH   8   9
ATOM      9  C   UNL     1      -8.442  22.786  19.993  1.00  0.00     0.064 C 
ATOM     10  O   UNL     1      -9.090  23.543  19.223  1.00  0.00    -0.545 OA
ATOM     11  O   UNL     1      -7.338  23.290  20.668  1.00  0.00    -0.545 OA
ENDBRANCH   8   9
ENDBRANCH   1   7
BRANCH   4  12
ATOM     12  O   UNL     1      -4.305  19.884  16.660  1.00  0.00    -0.504 OA
ATOM     13  H   UNL     1      -3.560  20.554  16.514  1.00  0.00     0.293 HD
ENDBRANCH   4  12
BRANCH   6  14
ATOM     14  O   UNL     1      -5.638  20.877  14.375  1.00  0.00    -0.504 OA
ATOM     15  H   UNL     1      -5.998  21.450  13.621  1.00  0.00     0.293 HD
ENDBRANCH   6  14
TORSDOF 4
ENDMDL
MODEL 4
REMARK VINA RESULT:    -3.144      1.272      4.700
REMARK INTER + INTRA:          -3.943
REMARK INTER:                  -3.812
REMARK INTRA:                  -0.131
REMARK UNBOUND:                -0.248
REMARK SMILES O=C([O-])C=Cc1ccc(O)c(O)c1
REMARK SMILES IDX 6 1 13 2 7 3 11 4 8 5 9 6 5 7 4 8 2 9 1 10 3 11 12 12 10 14
REMARK H PARENT 12 13 10 15
REMARK Flexibility Score: inf
ROOT
ATOM      1  C   UNL     1      -7.466  20.486  18.593  1.00  0.00    -0.022 A 
ATOM      2  C   UNL     1      -8.199  20.875  17.462  1.00  0.00     0.058 A 
ATOM      3  C   UNL     1      -6.094  20.215  18.463  1.00  0.00     0.012 A 
ATOM      4  C   UNL     1      -7.586  20.942  16.205  1.00  0.00     0.157 A 
ATOM      5  C   UNL     1      -5.478  20.281  17.210  1.00  0.00     0.051 A 
ATOM      6  C   UNL     1      -6.220  20.640  16.076  1.00  0.00     0.157 A 
ENDROOT
BRANCH   1   7
ATOM      7  C   UNL     1      -8.126  20.475  19.915  1.00  0.00     0.010 C 
ATOM      8  C   UNL     1      -8.551  21.561  20.581  1.00  0.00     0.025 C 
BRANCH   8   9
ATOM      9  C   UNL     1      -8.283  22.963  20.206  1.00  0.00     0.064 C 
ATOM     10  O   UNL     1      -7.352  23.621  20.741  1.00  0.00    -0.545 OA
ATOM     11  O   UNL     1      -9.120  23.591  19.294  1.00  0.00    -0.545 OA
ENDBRANCH   8   9
ENDBRANCH   1   7
BRANCH   4  12
ATOM     12  O   UNL     1      -8.350  21.313  15.098  1.00  0.00    -0.504 OA
ATOM     13  H   UNL     1      -9.317  21.033  14.994  1.00  0.00     0.293 HD
ENDBRANCH   4  12
BRANCH   6  14
ATOM     14  O   UNL     1      -5.604  20.702  14.827  1.00  0.00    -0.504 OA
ATOM     15  H   UNL     1      -5.519  19.883  14.236  1.00  0.00     0.293 HD
ENDBRANCH   6  14
TORSDOF 4
ENDMDL
MODEL 5
REMARK VINA RESULT:    -3.037      2.349      3.453
REMARK INTER + INTRA:          -3.817
REMARK INTER:                  -3.895
REMARK INTRA:                   0.077
REMARK UNBOUND:                -0.248
REMARK SMILES O=C([O-])C=Cc1ccc(O)c(O)c1
REMARK SMILES IDX 6 1 13 2 7 3 11 4 8 5 9 6 5 7 4 8 2 9 1 10 3 11 12 12 10 14
REMARK H PARENT 12 13 10 15
REMARK Flexibility Score: inf
ROOT
ATOM      1  C   UNL     1      -8.587  22.542  20.406  1.00  0.00    -0.022 A 
ATOM      2  C   UNL     1      -7.957  23.188  21.479  1.00  0.00     0.058 A 
ATOM      3  C   UNL     1      -9.125  21.259  20.597  1.00  0.00     0.012 A 
ATOM      4  C   UNL     1      -7.816  22.545  22.715  1.00  0.00     0.157 A 
ATOM      5  C   UNL     1      -8.987  20.612  21.828  1.00  0.00     0.051 A 
ATOM      6  C   UNL     1      -8.330  21.249  22.890  1.00  0.00     0.157 A 
ENDROOT
BRANCH   1   7
ATOM      7  C   UNL     1      -8.767  23.266  19.131  1.00  0.00     0.010 C 
ATOM      8  C   UNL     1      -8.633  22.730  17.907  1.00  0.00     0.025 C 
BRANCH   8   9
ATOM      9  C   UNL     1      -8.113  21.382  17.607  1.00  0.00     0.064 C 
ATOM     10  O   UNL     1      -6.879  21.132  17.636  1.00  0.00    -0.545 OA
ATOM     11  O   UNL     1      -8.998  20.386  17.218  1.00  0.00    -0.545 OA
ENDBRANCH   8   9
ENDBRANCH   1   7
BRANCH   4  12
ATOM     12  O   UNL     1      -7.167  23.209  23.755  1.00  0.00    -0.504 OA
ATOM     13  H   UNL     1      -6.734  22.712  24.523  1.00  0.00     0.293 HD
ENDBRANCH   4  12
BRANCH   6  14
ATOM     14  O   UNL     1      -8.191  20.600  24.117  1.00  0.00    -0.504 OA
ATOM     15  H   UNL     1      -8.053  21.116  24.977  1.00  0.00     0.293 HD
ENDBRANCH   6  14
TORSDOF 4
ENDMDL
MODEL 6
REMARK VINA RESULT:    -2.917      2.066      4.770
REMARK INTER + INTRA:          -3.677
REMARK INTER:                  -3.537
REMARK INTRA:                  -0.140
REMARK UNBOUND:                -0.248
REMARK SMILES O=C([O-])C=Cc1ccc(O)c(O)c1
REMARK SMILES IDX 6 1 13 2 7 3 11 4 8 5 9 6 5 7 4 8 2 9 1 10 3 11 12 12 10 14
REMARK H PARENT 12 13 10 15
REMARK Flexibility Score: inf
ROOT
ATOM      1  C   UNL     1      -6.879  20.447  16.229  1.00  0.00    -0.022 A 
ATOM      2  C   UNL     1      -6.015  20.101  17.278  1.00  0.00     0.058 A 
ATOM      3  C   UNL     1      -6.338  20.852  14.998  1.00  0.00     0.012 A 
ATOM      4  C   UNL     1      -4.627  20.208  17.123  1.00  0.00     0.157 A 
ATOM      5  C   UNL     1      -4.953  20.961  14.838  1.00  0.00     0.051 A 
ATOM      6  C   UNL     1      -4.093  20.643  15.898  1.00  0.00     0.157 A 
ENDROOT
BRANCH   1   7
ATOM      7  C   UNL     1      -8.336  20.274  16.404  1.00  0.00     0.010 C 
ATOM      8  C   UNL     1      -9.125  21.049  17.166  1.00  0.00     0.025 C 
BRANCH   8   9
ATOM      9  C   UNL     1      -8.665  22.095  18.100  1.00  0.00     0.064 C 
ATOM     10  O   UNL     1      -8.332  23.239  17.694  1.00  0.00    -0.545 OA
ATOM     11  O   UNL     1      -8.532  21.788  19.447  1.00  0.00    -0.545 OA
ENDBRANCH   8   9
ENDBRANCH   1   7
BRANCH   4  12
ATOM     12  O   UNL     1      -3.798  19.875  18.193  1.00  0.00    -0.504 OA
ATOM     13  H   UNL     1      -2.791  19.839  18.102  1.00  0.00     0.293 HD
ENDBRANCH   4  12
BRANCH   6  14
ATOM     14  O   UNL     1      -2.713  20.755  15.737  1.00  0.00    -0.504 OA
ATOM     15  H   UNL     1      -2.107  21.011  16.508  1.00  0.00     0.293 HD
ENDBRANCH   6  14
TORSDOF 4
ENDMDL
MODEL 7
REMARK VINA RESULT:    -2.781     14.499     16.377
REMARK INTER + INTRA:          -3.517
REMARK INTER:                  -3.250
REMARK INTRA:                  -0.267
REMARK UNBOUND:                -0.248
REMARK SMILES O=C([O-])C=Cc1ccc(O)c(O)c1
REMARK SMILES IDX 6 1 13 2 7 3 11 4 8 5 9 6 5 7 4 8 2 9 1 10 3 11 12 12 10 14
REMARK H PARENT 12 13 10 15
REMARK Flexibility Score: inf
ROOT
ATOM      1  C   UNL     1       8.625  20.376  14.948  1.00  0.00    -0.022 A 
ATOM      2  C   UNL     1       7.735  20.203  13.878  1.00  0.00     0.058 A 
ATOM      3  C   UNL     1       8.119  20.715  16.214  1.00  0.00     0.012 A 
ATOM      4  C   UNL     1       6.362  20.416  14.051  1.00  0.00     0.157 A 
ATOM      5  C   UNL     1       6.749  20.929  16.392  1.00  0.00     0.051 A 
ATOM      6  C   UNL     1       5.866  20.785  15.313  1.00  0.00     0.157 A 
ENDROOT
BRANCH   1   7
ATOM      7  C   UNL     1      10.061  20.093  14.749  1.00  0.00     0.010 C 
ATOM      8  C   UNL     1      11.017  21.017  14.560  1.00  0.00     0.025 C 
BRANCH   8   9
ATOM      9  C   UNL     1      10.792  22.460  14.342  1.00  0.00     0.064 C 
ATOM     10  O   UNL     1      10.365  22.899  13.242  1.00  0.00    -0.545 OA
ATOM     11  O   UNL     1      11.125  23.356  15.348  1.00  0.00    -0.545 OA
ENDBRANCH   8   9
ENDBRANCH   1   7
BRANCH   4  12
ATOM     12  O   UNL     1       5.508  20.254  12.960  1.00  0.00    -0.504 OA
ATOM     13  H   UNL     1       4.592  19.833  13.052  1.00  0.00     0.293 HD
ENDBRANCH   4  12
BRANCH   6  14
ATOM     14  O   UNL     1       4.501  21.002  15.492  1.00  0.00    -0.504 OA
ATOM     15  H   UNL     1       4.144  21.883  15.843  1.00  0.00     0.293 HD
ENDBRANCH   6  14
TORSDOF 4
ENDMDL
MODEL 8
REMARK VINA RESULT:    -2.706      2.123      3.083
REMARK INTER + INTRA:          -3.428
REMARK INTER:                  -3.462
REMARK INTRA:                   0.033
REMARK UNBOUND:                -0.248
REMARK SMILES O=C([O-])C=Cc1ccc(O)c(O)c1
REMARK SMILES IDX 6 1 13 2 7 3 11 4 8 5 9 6 5 7 4 8 2 9 1 10 3 11 12 12 10 14
REMARK H PARENT 12 13 10 15
REMARK Flexibility Score: inf
ROOT
ATOM      1  C   UNL     1      -8.679  21.888  19.994  1.00  0.00    -0.022 A 
ATOM      2  C   UNL     1      -8.766  21.082  21.139  1.00  0.00     0.058 A 
ATOM      3  C   UNL     1      -8.075  23.153  20.089  1.00  0.00     0.012 A 
ATOM      4  C   UNL     1      -8.305  21.550  22.376  1.00  0.00     0.157 A 
ATOM      5  C   UNL     1      -7.613  23.624  21.321  1.00  0.00     0.051 A 
ATOM      6  C   UNL     1      -7.730  22.828  22.469  1.00  0.00     0.157 A 
ENDROOT
BRANCH   1   7
ATOM      7  C   UNL     1      -9.125  21.349  18.694  1.00  0.00     0.010 C 
ATOM      8  C   UNL     1      -8.362  20.649  17.838  1.00  0.00     0.025 C 
BRANCH   8   9
ATOM      9  C   UNL     1      -6.904  20.444  17.952  1.00  0.00     0.064 C 
ATOM     10  O   UNL     1      -6.136  20.622  16.970  1.00  0.00    -0.545 OA
ATOM     11  O   UNL     1      -6.378  19.979  19.149  1.00  0.00    -0.545 OA
ENDBRANCH   8   9
ENDBRANCH   1   7
BRANCH   4  12
ATOM     12  O   UNL     1      -8.426  20.730  23.497  1.00  0.00    -0.504 OA
ATOM     13  H   UNL     1      -8.951  19.865  23.477  1.00  0.00     0.293 HD
ENDBRANCH   4  12
BRANCH   6  14
ATOM     14  O   UNL     1      -7.271  23.301  23.698  1.00  0.00    -0.504 OA
ATOM     15  H   UNL     1      -7.888  23.389  24.497  1.00  0.00     0.293 HD
ENDBRANCH   6  14
TORSDOF 4
ENDMDL
