MODEL 1
REMARK VINA RESULT:    -0.003      0.000      0.000
REMARK INTER + INTRA:          -0.144
REMARK INTER:                  -0.004
REMARK INTRA:                  -0.140
REMARK UNBOUND:                -0.140
REMARK SMILES O=C([O-])C=Cc1ccc(O)c(O)c1
REMARK SMILES IDX 6 1 13 2 7 3 11 4 8 5 9 6 5 7 4 8 2 9 1 10 3 11 12 12 10 14
REMARK H PARENT 12 13 10 15
REMARK Flexibility Score: inf
ROOT
ATOM      1  C   UNL     1       4.722  25.824  45.360  1.00  0.00    -0.022 A 
ATOM      2  C   UNL     1       4.367  25.230  46.583  1.00  0.00     0.058 A 
ATOM      3  C   UNL     1       5.960  25.490  44.775  1.00  0.00     0.012 A 
ATOM      4  C   UNL     1       5.218  24.302  47.200  1.00  0.00     0.157 A 
ATOM      5  C   UNL     1       6.807  24.565  45.392  1.00  0.00     0.051 A 
ATOM      6  C   UNL     1       6.438  23.967  46.602  1.00  0.00     0.157 A 
ENDROOT
BRANCH   1   7
ATOM      7  C   UNL     1       3.791  26.809  44.752  1.00  0.00     0.010 C 
ATOM      8  C   UNL     1       4.043  27.466  43.612  1.00  0.00     0.025 C 
BRANCH   8   9
ATOM      9  C   UNL     1       3.085  28.426  43.040  1.00  0.00     0.064 C 
ATOM     10  O   UNL     1       3.363  29.013  41.962  1.00  0.00    -0.545 OA
ATOM     11  O   UNL     1       1.877  28.697  43.672  1.00  0.00    -0.545 OA
ENDBRANCH   8   9
ENDBRANCH   1   7
BRANCH   4  12
ATOM     12  O   UNL     1       4.855  23.708  48.409  1.00  0.00    -0.504 OA
ATOM     13  H   UNL     1       4.119  23.014  48.459  1.00  0.00     0.293 HD
ENDBRANCH   4  12
BRANCH   6  14
ATOM     14  O   UNL     1       7.280  23.043  47.219  1.00  0.00    -0.504 OA
ATOM     15  H   UNL     1       8.029  22.587  46.711  1.00  0.00     0.293 HD
ENDBRANCH   6  14
TORSDOF 4
ENDMDL
MODEL 2
REMARK VINA RESULT:    -0.001     11.893     14.143
REMARK INTER + INTRA:          -0.141
REMARK INTER:                   0.000
REMARK INTRA:                  -0.141
REMARK UNBOUND:                -0.140
REMARK SMILES O=C([O-])C=Cc1ccc(O)c(O)c1
REMARK SMILES IDX 6 1 13 2 7 3 11 4 8 5 9 6 5 7 4 8 2 9 1 10 3 11 12 12 10 14
REMARK H PARENT 12 13 10 15
REMARK Flexibility Score: inf
ROOT
ATOM      1  C   UNL     1      15.455  22.019  51.123  1.00  0.00    -0.022 A 
ATOM      2  C   UNL     1      15.088  22.133  49.771  1.00  0.00     0.058 A 
ATOM      3  C   UNL     1      16.320  22.984  51.677  1.00  0.00     0.012 A 
ATOM      4  C   UNL     1      15.554  23.201  48.991  1.00  0.00     0.157 A 
ATOM      5  C   UNL     1      16.785  24.048  50.897  1.00  0.00     0.051 A 
ATOM      6  C   UNL     1      16.402  24.161  49.556  1.00  0.00     0.157 A 
ENDROOT
BRANCH   1   7
ATOM      7  C   UNL     1      14.942  20.865  51.903  1.00  0.00     0.010 C 
ATOM      8  C   UNL     1      15.566  20.354  52.973  1.00  0.00     0.025 C 
BRANCH   8   9
ATOM      9  C   UNL     1      15.014  19.214  53.724  1.00  0.00     0.064 C 
ATOM     10  O   UNL     1      13.931  18.691  53.352  1.00  0.00    -0.545 OA
ATOM     11  O   UNL     1      15.668  18.706  54.840  1.00  0.00    -0.545 OA
ENDBRANCH   8   9
ENDBRANCH   1   7
BRANCH   4  12
ATOM     12  O   UNL     1      15.179  23.313  47.653  1.00  0.00    -0.504 OA
ATOM     13  H   UNL     1      14.502  24.003  47.348  1.00  0.00     0.293 HD
ENDBRANCH   4  12
BRANCH   6  14
ATOM     14  O   UNL     1      16.862  25.221  48.777  1.00  0.00    -0.504 OA
ATOM     15  H   UNL     1      17.554  25.874  49.126  1.00  0.00     0.293 HD
ENDBRANCH   6  14
TORSDOF 4
ENDMDL
MODEL 3
REMARK VINA RESULT:    -0.001     12.663     14.881
REMARK INTER + INTRA:          -0.141
REMARK INTER:                   0.000
REMARK INTRA:                  -0.141
REMARK UNBOUND:                -0.140
REMARK SMILES O=C([O-])C=Cc1ccc(O)c(O)c1
REMARK SMILES IDX 6 1 13 2 7 3 11 4 8 5 9 6 5 7 4 8 2 9 1 10 3 11 12 12 10 14
REMARK H PARENT 12 13 10 15
REMARK Flexibility Score: inf
ROOT
ATOM      1  C   UNL     1      10.762  17.491  54.691  1.00  0.00    -0.022 A 
ATOM      2  C   UNL     1       9.755  18.432  54.417  1.00  0.00     0.058 A 
ATOM      3  C   UNL     1      11.786  17.834  55.596  1.00  0.00     0.012 A 
ATOM      4  C   UNL     1       9.754  19.683  55.051  1.00  0.00     0.157 A 
ATOM      5  C   UNL     1      11.785  19.082  56.226  1.00  0.00     0.051 A 
ATOM      6  C   UNL     1      10.768  20.007  55.959  1.00  0.00     0.157 A 
ENDROOT
BRANCH   1   7
ATOM      7  C   UNL     1      10.723  16.184  53.987  1.00  0.00     0.010 C 
ATOM      8  C   UNL     1      11.808  15.435  53.750  1.00  0.00     0.025 C 
BRANCH   8   9
ATOM      9  C   UNL     1      11.720  14.138  53.057  1.00  0.00     0.064 C 
ATOM     10  O   UNL     1      10.597  13.706  52.688  1.00  0.00    -0.545 OA
ATOM     11  O   UNL     1      12.859  13.381  52.806  1.00  0.00    -0.545 OA
ENDBRANCH   8   9
ENDBRANCH   1   7
BRANCH   4  12
ATOM     12  O   UNL     1       8.746  20.609  54.782  1.00  0.00    -0.504 OA
ATOM     13  H   UNL     1       8.308  20.666  53.870  1.00  0.00     0.293 HD
ENDBRANCH   4  12
BRANCH   6  14
ATOM     14  O   UNL     1      10.763  21.252  56.586  1.00  0.00    -0.504 OA
ATOM     15  H   UNL     1      11.619  21.684  56.915  1.00  0.00     0.293 HD
ENDBRANCH   6  14
TORSDOF 4
ENDMDL
MODEL 4
REMARK VINA RESULT:    -0.001     10.640     12.346
REMARK INTER + INTRA:          -0.141
REMARK INTER:                   0.000
REMARK INTRA:                  -0.141
REMARK UNBOUND:                -0.140
REMARK SMILES O=C([O-])C=Cc1ccc(O)c(O)c1
REMARK SMILES IDX 6 1 13 2 7 3 11 4 8 5 9 6 5 7 4 8 2 9 1 10 3 11 12 12 10 14
REMARK H PARENT 12 13 10 15
REMARK Flexibility Score: inf
ROOT
ATOM      1  C   UNL     1      10.496  18.131  52.404  1.00  0.00    -0.022 A 
ATOM      2  C   UNL     1       9.780  18.950  53.293  1.00  0.00     0.058 A 
ATOM      3  C   UNL     1      11.617  17.424  52.883  1.00  0.00     0.012 A 
ATOM      4  C   UNL     1      10.158  19.046  54.640  1.00  0.00     0.157 A 
ATOM      5  C   UNL     1      11.993  17.521  54.226  1.00  0.00     0.051 A 
ATOM      6  C   UNL     1      11.264  18.328  55.108  1.00  0.00     0.157 A 
ENDROOT
BRANCH   1   7
ATOM      7  C   UNL     1      10.061  18.071  50.986  1.00  0.00     0.010 C 
ATOM      8  C   UNL     1      10.880  17.778  49.968  1.00  0.00     0.025 C 
BRANCH   8   9
ATOM      9  C   UNL     1      10.402  17.719  48.577  1.00  0.00     0.064 C 
ATOM     10  O   UNL     1       9.185  17.930  48.329  1.00  0.00    -0.545 OA
ATOM     11  O   UNL     1      11.271  17.431  47.531  1.00  0.00    -0.545 OA
ENDBRANCH   8   9
ENDBRANCH   1   7
BRANCH   4  12
ATOM     12  O   UNL     1       9.437  19.853  55.519  1.00  0.00    -0.504 OA
ATOM     13  H   UNL     1       8.859  19.456  56.251  1.00  0.00     0.293 HD
ENDBRANCH   4  12
BRANCH   6  14
ATOM     14  O   UNL     1      11.636  18.425  56.447  1.00  0.00    -0.504 OA
ATOM     15  H   UNL     1      11.657  17.613  57.052  1.00  0.00     0.293 HD
ENDBRANCH   6  14
TORSDOF 4
ENDMDL
MODEL 5
REMARK VINA RESULT:    -0.001      7.120      7.836
REMARK INTER + INTRA:          -0.141
REMARK INTER:                   0.000
REMARK INTRA:                  -0.141
REMARK UNBOUND:                -0.140
REMARK SMILES O=C([O-])C=Cc1ccc(O)c(O)c1
REMARK SMILES IDX 6 1 13 2 7 3 11 4 8 5 9 6 5 7 4 8 2 9 1 10 3 11 12 12 10 14
REMARK H PARENT 12 13 10 15
REMARK Flexibility Score: inf
ROOT
ATOM      1  C   UNL     1       9.244  22.715  48.902  1.00  0.00    -0.022 A 
ATOM      2  C   UNL     1      10.032  23.796  48.471  1.00  0.00     0.058 A 
ATOM      3  C   UNL     1       9.391  21.469  48.262  1.00  0.00     0.012 A 
ATOM      4  C   UNL     1      10.967  23.633  47.438  1.00  0.00     0.157 A 
ATOM      5  C   UNL     1      10.322  21.307  47.232  1.00  0.00     0.051 A 
ATOM      6  C   UNL     1      11.114  22.386  46.820  1.00  0.00     0.157 A 
ENDROOT
BRANCH   1   7
ATOM      7  C   UNL     1       8.263  22.942  49.993  1.00  0.00     0.010 C 
ATOM      8  C   UNL     1       7.149  22.216  50.155  1.00  0.00     0.025 C 
BRANCH   8   9
ATOM      9  C   UNL     1       6.209  22.470  51.259  1.00  0.00     0.064 C 
ATOM     10  O   UNL     1       6.461  23.380  52.092  1.00  0.00    -0.545 OA
ATOM     11  O   UNL     1       5.048  21.719  51.400  1.00  0.00    -0.545 OA
ENDBRANCH   8   9
ENDBRANCH   1   7
BRANCH   4  12
ATOM     12  O   UNL     1      11.753  24.707  47.022  1.00  0.00    -0.504 OA
ATOM     13  H   UNL     1      11.359  25.630  46.886  1.00  0.00     0.293 HD
ENDBRANCH   4  12
BRANCH   6  14
ATOM     14  O   UNL     1      12.044  22.228  45.795  1.00  0.00    -0.504 OA
ATOM     15  H   UNL     1      11.803  22.409  44.827  1.00  0.00     0.293 HD
ENDBRANCH   6  14
TORSDOF 4
ENDMDL
MODEL 6
REMARK VINA RESULT:    -0.001      8.083     11.493
REMARK INTER + INTRA:          -0.141
REMARK INTER:                   0.000
REMARK INTRA:                  -0.141
REMARK UNBOUND:                -0.140
REMARK SMILES O=C([O-])C=Cc1ccc(O)c(O)c1
REMARK SMILES IDX 6 1 13 2 7 3 11 4 8 5 9 6 5 7 4 8 2 9 1 10 3 11 12 12 10 14
REMARK H PARENT 12 13 10 15
REMARK Flexibility Score: inf
ROOT
ATOM      1  C   UNL     1       8.923  24.147  53.920  1.00  0.00    -0.022 A 
ATOM      2  C   UNL     1       9.296  25.342  53.281  1.00  0.00     0.058 A 
ATOM      3  C   UNL     1       7.738  23.501  53.517  1.00  0.00     0.012 A 
ATOM      4  C   UNL     1       8.516  25.871  52.242  1.00  0.00     0.157 A 
ATOM      5  C   UNL     1       6.961  24.030  52.482  1.00  0.00     0.051 A 
ATOM      6  C   UNL     1       7.349  25.212  51.840  1.00  0.00     0.157 A 
ENDROOT
BRANCH   1   7
ATOM      7  C   UNL     1       9.777  23.634  55.020  1.00  0.00     0.010 C 
ATOM      8  C   UNL     1       9.325  22.855  56.012  1.00  0.00     0.025 C 
BRANCH   8   9
ATOM      9  C   UNL     1      10.213  22.360  57.077  1.00  0.00     0.064 C 
ATOM     10  O   UNL     1      11.434  22.666  57.061  1.00  0.00    -0.545 OA
ATOM     11  O   UNL     1       9.725  21.555  58.101  1.00  0.00    -0.545 OA
ENDBRANCH   8   9
ENDBRANCH   1   7
BRANCH   4  12
ATOM     12  O   UNL     1       8.897  27.052  51.606  1.00  0.00    -0.504 OA
ATOM     13  H   UNL     1       9.695  27.590  51.921  1.00  0.00     0.293 HD
ENDBRANCH   4  12
BRANCH   6  14
ATOM     14  O   UNL     1       6.577  25.741  50.807  1.00  0.00    -0.504 OA
ATOM     15  H   UNL     1       6.390  25.215  49.962  1.00  0.00     0.293 HD
ENDBRANCH   6  14
TORSDOF 4
ENDMDL
MODEL 7
REMARK VINA RESULT:    -0.001     12.002     15.449
REMARK INTER + INTRA:          -0.141
REMARK INTER:                   0.000
REMARK INTRA:                  -0.141
REMARK UNBOUND:                -0.140
REMARK SMILES O=C([O-])C=Cc1ccc(O)c(O)c1
REMARK SMILES IDX 6 1 13 2 7 3 11 4 8 5 9 6 5 7 4 8 2 9 1 10 3 11 12 12 10 14
REMARK H PARENT 12 13 10 15
REMARK Flexibility Score: inf
ROOT
ATOM      1  C   UNL     1      11.908  15.093  51.426  1.00  0.00    -0.022 A 
ATOM      2  C   UNL     1      10.926  16.076  51.639  1.00  0.00     0.058 A 
ATOM      3  C   UNL     1      12.903  15.324  50.456  1.00  0.00     0.012 A 
ATOM      4  C   UNL     1      10.950  17.278  50.917  1.00  0.00     0.157 A 
ATOM      5  C   UNL     1      12.925  16.522  49.736  1.00  0.00     0.051 A 
ATOM      6  C   UNL     1      11.953  17.502  49.966  1.00  0.00     0.157 A 
ENDROOT
BRANCH   1   7
ATOM      7  C   UNL     1      11.833  13.834  52.210  1.00  0.00     0.010 C 
ATOM      8  C   UNL     1      12.337  12.666  51.791  1.00  0.00     0.025 C 
BRANCH   8   9
ATOM      9  C   UNL     1      12.250  11.444  52.608  1.00  0.00     0.064 C 
ATOM     10  O   UNL     1      11.694  11.490  53.736  1.00  0.00    -0.545 OA
ATOM     11  O   UNL     1      12.774  10.239  52.154  1.00  0.00    -0.545 OA
ENDBRANCH   8   9
ENDBRANCH   1   7
BRANCH   4  12
ATOM     12  O   UNL     1       9.979  18.254  51.139  1.00  0.00    -0.504 OA
ATOM     13  H   UNL     1      10.083  18.948  51.869  1.00  0.00     0.293 HD
ENDBRANCH   4  12
BRANCH   6  14
ATOM     14  O   UNL     1      11.973  18.698  49.251  1.00  0.00    -0.504 OA
ATOM     15  H   UNL     1      12.039  19.595  49.719  1.00  0.00     0.293 HD
ENDBRANCH   6  14
TORSDOF 4
ENDMDL
MODEL 8
REMARK VINA RESULT:    -0.001      8.611     10.922
REMARK INTER + INTRA:          -0.141
REMARK INTER:                   0.000
REMARK INTRA:                  -0.141
REMARK UNBOUND:                -0.140
REMARK SMILES O=C([O-])C=Cc1ccc(O)c(O)c1
REMARK SMILES IDX 6 1 13 2 7 3 11 4 8 5 9 6 5 7 4 8 2 9 1 10 3 11 12 12 10 14
REMARK H PARENT 12 13 10 15
REMARK Flexibility Score: inf
ROOT
ATOM      1  C   UNL     1       6.273  16.193  49.976  1.00  0.00    -0.022 A 
ATOM      2  C   UNL     1       6.071  15.609  51.238  1.00  0.00     0.058 A 
ATOM      3  C   UNL     1       6.925  15.445  48.976  1.00  0.00     0.012 A 
ATOM      4  C   UNL     1       6.487  14.294  51.493  1.00  0.00     0.157 A 
ATOM      5  C   UNL     1       7.341  14.134  49.232  1.00  0.00     0.051 A 
ATOM      6  C   UNL     1       7.121  13.555  50.487  1.00  0.00     0.157 A 
ENDROOT
BRANCH   1   7
ATOM      7  C   UNL     1       5.822  17.591  49.761  1.00  0.00     0.010 C 
ATOM      8  C   UNL     1       6.366  18.418  48.858  1.00  0.00     0.025 C 
BRANCH   8   9
ATOM      9  C   UNL     1       5.878  19.794  48.670  1.00  0.00     0.064 C 
ATOM     10  O   UNL     1       4.917  20.212  49.368  1.00  0.00    -0.545 OA
ATOM     11  O   UNL     1       6.460  20.640  47.733  1.00  0.00    -0.545 OA
ENDBRANCH   8   9
ENDBRANCH   1   7
BRANCH   4  12
ATOM     12  O   UNL     1       6.274  13.716  52.744  1.00  0.00    -0.504 OA
ATOM     13  H   UNL     1       6.823  12.927  53.063  1.00  0.00     0.293 HD
ENDBRANCH   4  12
BRANCH   6  14
ATOM     14  O   UNL     1       7.533  12.249  50.744  1.00  0.00    -0.504 OA
ATOM     15  H   UNL     1       7.019  11.451  50.387  1.00  0.00     0.293 HD
ENDBRANCH   6  14
TORSDOF 4
ENDMDL
MODEL 9
REMARK VINA RESULT:    -0.001      6.543      9.090
REMARK INTER + INTRA:          -0.141
REMARK INTER:                   0.000
REMARK INTRA:                  -0.141
REMARK UNBOUND:                -0.140
REMARK SMILES O=C([O-])C=Cc1ccc(O)c(O)c1
REMARK SMILES IDX 6 1 13 2 7 3 11 4 8 5 9 6 5 7 4 8 2 9 1 10 3 11 12 12 10 14
REMARK H PARENT 12 13 10 15
REMARK Flexibility Score: inf
ROOT
ATOM      1  C   UNL     1      10.896  21.110  49.746  1.00  0.00    -0.022 A 
ATOM      2  C   UNL     1      11.548  21.606  50.888  1.00  0.00     0.058 A 
ATOM      3  C   UNL     1      10.989  19.735  49.452  1.00  0.00     0.012 A 
ATOM      4  C   UNL     1      12.258  20.744  51.737  1.00  0.00     0.157 A 
ATOM      5  C   UNL     1      11.699  18.878  50.298  1.00  0.00     0.051 A 
ATOM      6  C   UNL     1      12.331  19.378  51.442  1.00  0.00     0.157 A 
ENDROOT
BRANCH   1   7
ATOM      7  C   UNL     1      10.165  22.065  48.875  1.00  0.00     0.010 C 
ATOM      8  C   UNL     1       9.949  21.865  47.568  1.00  0.00     0.025 C 
BRANCH   8   9
ATOM      9  C   UNL     1       9.208  22.835  46.745  1.00  0.00     0.064 C 
ATOM     10  O   UNL     1       8.761  23.886  47.276  1.00  0.00    -0.545 OA
ATOM     11  O   UNL     1       8.989  22.608  45.391  1.00  0.00    -0.545 OA
ENDBRANCH   8   9
ENDBRANCH   1   7
BRANCH   4  12
ATOM     12  O   UNL     1      12.894  21.241  52.874  1.00  0.00    -0.504 OA
ATOM     13  H   UNL     1      13.450  20.643  53.474  1.00  0.00     0.293 HD
ENDBRANCH   4  12
BRANCH   6  14
ATOM     14  O   UNL     1      13.038  18.526  52.289  1.00  0.00    -0.504 OA
ATOM     15  H   UNL     1      12.568  17.820  52.844  1.00  0.00     0.293 HD
ENDBRANCH   6  14
TORSDOF 4
ENDMDL
