MODEL 1
REMARK VINA RESULT:     3.255      0.000      0.000
REMARK INTER + INTRA:           4.429
REMARK INTER:                   3.921
REMARK INTRA:                   0.508
REMARK UNBOUND:                 0.508
REMARK SMILES O=c1c(O)c(-c2ccc(O)cc2O)oc2cc(O)cc(O)c12
REMARK SMILES IDX 5 1 3 2 2 3 1 4 22 5 20 6 19 7 17 8 16 9 15 10 14 11 6 12
REMARK SMILES IDX 8 13 7 14 9 15 11 16 12 17 10 18 13 20 4 22 21 24 18 26
REMARK H PARENT 10 19 13 21 4 23 21 25 18 27
REMARK Flexibility Score: inf
ROOT
ATOM      1  C   UNL     1      11.298  13.734  20.610  1.00  0.00     0.184 A 
ATOM      2  C   UNL     1      11.595  13.013  21.777  1.00  0.00     0.208 A 
ATOM      3  C   UNL     1      12.621  13.473  22.618  1.00  0.00     0.238 A 
ATOM      4  O   UNL     1      12.846  12.853  23.690  1.00  0.00    -0.285 OA
ATOM      5  C   UNL     1      13.347  14.638  22.270  1.00  0.00     0.111 A 
ATOM      6  C   UNL     1      14.433  15.171  23.027  1.00  0.00     0.134 A 
ATOM      7  C   UNL     1      14.993  16.400  22.658  1.00  0.00     0.093 A 
ATOM      8  C   UNL     1      14.549  17.083  21.523  1.00  0.00     0.123 A 
ATOM      9  C   UNL     1      13.530  16.541  20.743  1.00  0.00     0.094 A 
ATOM     10  C   UNL     1      12.926  15.334  21.107  1.00  0.00     0.146 A 
ATOM     11  O   UNL     1      11.950  14.858  20.342  1.00  0.00    -0.451 OA
ENDROOT
BRANCH   1  12
ATOM     12  C   UNL     1      10.242  13.295  19.673  1.00  0.00     0.063 A 
ATOM     13  C   UNL     1       8.297  11.901  19.241  1.00  0.00     0.047 A 
ATOM     14  C   UNL     1       9.310  12.335  20.100  1.00  0.00     0.020 A 
ATOM     15  C   UNL     1       8.193  12.430  17.952  1.00  0.00     0.119 A 
ATOM     16  C   UNL     1       9.104  13.405  17.525  1.00  0.00     0.093 A 
ATOM     17  C   UNL     1      10.121  13.849  18.382  1.00  0.00     0.130 A 
BRANCH  15  18
ATOM     18  O   UNL     1       7.181  11.984  17.106  1.00  0.00    -0.508 OA
ATOM     19  H   UNL     1       7.353  11.276  16.402  1.00  0.00     0.293 HD
ENDBRANCH  15  18
BRANCH  17  20
ATOM     20  O   UNL     1      10.992  14.855  17.962  1.00  0.00    -0.507 OA
ATOM     21  H   UNL     1      11.472  14.806  17.072  1.00  0.00     0.293 HD
ENDBRANCH  17  20
ENDBRANCH   1  12
BRANCH   2  22
ATOM     22  O   UNL     1      10.850  11.877  22.106  1.00  0.00    -0.502 OA
ATOM     23  H   UNL     1      10.200  11.860  22.882  1.00  0.00     0.293 HD
ENDBRANCH   2  22
BRANCH   6  24
ATOM     24  O   UNL     1      15.012  14.525  24.123  1.00  0.00    -0.507 OA
ATOM     25  H   UNL     1      14.597  14.467  25.041  1.00  0.00     0.293 HD
ENDBRANCH   6  24
BRANCH   8  26
ATOM     26  O   UNL     1      15.123  18.298  21.154  1.00  0.00    -0.508 OA
ATOM     27  H   UNL     1      14.910  18.736  20.266  1.00  0.00     0.293 HD
ENDBRANCH   8  26
TORSDOF 6
ENDMDL
MODEL 2
REMARK VINA RESULT:     5.213      1.404      3.182
REMARK INTER + INTRA:           6.787
REMARK INTER:                   6.788
REMARK INTRA:                  -0.001
REMARK UNBOUND:                 0.508
REMARK SMILES O=c1c(O)c(-c2ccc(O)cc2O)oc2cc(O)cc(O)c12
REMARK SMILES IDX 5 1 3 2 2 3 1 4 22 5 20 6 19 7 17 8 16 9 15 10 14 11 6 12
REMARK SMILES IDX 8 13 7 14 9 15 11 16 12 17 10 18 13 20 4 22 21 24 18 26
REMARK H PARENT 10 19 13 21 4 23 21 25 18 27
REMARK Flexibility Score: inf
ROOT
ATOM      1  C   UNL     1      11.061  13.943  20.080  1.00  0.00     0.184 A 
ATOM      2  C   UNL     1      11.404  15.303  20.054  1.00  0.00     0.208 A 
ATOM      3  C   UNL     1      12.440  15.761  20.884  1.00  0.00     0.238 A 
ATOM      4  O   UNL     1      12.779  16.971  20.817  1.00  0.00    -0.285 OA
ATOM      5  C   UNL     1      13.107  14.852  21.742  1.00  0.00     0.111 A 
ATOM      6  C   UNL     1      14.143  15.213  22.655  1.00  0.00     0.134 A 
ATOM      7  C   UNL     1      14.820  14.211  23.361  1.00  0.00     0.093 A 
ATOM      8  C   UNL     1      14.455  12.868  23.234  1.00  0.00     0.123 A 
ATOM      9  C   UNL     1      13.405  12.512  22.391  1.00  0.00     0.094 A 
ATOM     10  C   UNL     1      12.734  13.486  21.646  1.00  0.00     0.146 A 
ATOM     11  O   UNL     1      11.747  13.102  20.846  1.00  0.00    -0.451 OA
ENDROOT
BRANCH   1  12
ATOM     12  C   UNL     1       9.969  13.400  19.245  1.00  0.00     0.063 A 
ATOM     13  C   UNL     1       8.813  13.362  17.107  1.00  0.00     0.047 A 
ATOM     14  C   UNL     1       9.831  13.858  17.925  1.00  0.00     0.020 A 
ATOM     15  C   UNL     1       7.929  12.394  17.590  1.00  0.00     0.119 A 
ATOM     16  C   UNL     1       8.074  11.913  18.898  1.00  0.00     0.093 A 
ATOM     17  C   UNL     1       9.096  12.402  19.725  1.00  0.00     0.130 A 
BRANCH  15  18
ATOM     18  O   UNL     1       6.917  11.913  16.764  1.00  0.00    -0.508 OA
ATOM     19  H   UNL     1       6.173  12.516  16.433  1.00  0.00     0.293 HD
ENDBRANCH  15  18
BRANCH  17  20
ATOM     20  O   UNL     1       9.259  11.880  21.009  1.00  0.00    -0.507 OA
ATOM     21  H   UNL     1       9.428  12.478  21.809  1.00  0.00     0.293 HD
ENDBRANCH  17  20
ENDBRANCH   1  12
BRANCH   2  22
ATOM     22  O   UNL     1      10.742  16.175  19.184  1.00  0.00    -0.502 OA
ATOM     23  H   UNL     1      11.064  17.119  19.012  1.00  0.00     0.293 HD
ENDBRANCH   2  22
BRANCH   6  24
ATOM     24  O   UNL     1      14.523  16.531  22.923  1.00  0.00    -0.507 OA
ATOM     25  H   UNL     1      14.878  16.859  23.809  1.00  0.00     0.293 HD
ENDBRANCH   6  24
BRANCH   8  26
ATOM     26  O   UNL     1      15.124  11.879  23.953  1.00  0.00    -0.508 OA
ATOM     27  H   UNL     1      15.971  12.083  24.472  1.00  0.00     0.293 HD
ENDBRANCH   8  26
TORSDOF 6
ENDMDL
