MODEL 1
REMARK VINA RESULT:    -7.307      0.000      0.000
REMARK INTER + INTRA:         -11.511
REMARK INTER:                 -10.084
REMARK INTRA:                  -1.427
REMARK UNBOUND:                -1.427
REMARK SMILES CC[C@@H](CC[C@H](C)[C@@H]1CC[C@@H]2C3=CC[C@H]4C[C@@H](O)CC[C@]4(C)[C@@H]3CC[C@@]21C)C(C)C
REMARK SMILES IDX 5 1 4 2 3 3 2 4 1 5 28 6 29 7 30 8 6 9 7 10 8 11 9 12 26 13
REMARK SMILES IDX 10 14 11 15 25 16 27 17 12 18 24 19 23 20 13 21 21 22 14 23
REMARK SMILES IDX 15 24 20 25 22 26 16 27 19 28 17 29 18 30
REMARK H PARENT 18 31
REMARK Flexibility Score: inf
ROOT
ATOM      1  C   UNL     1       3.518  17.839  47.819  1.00  0.00     0.004 C 
ENDROOT
BRANCH   1   2
ATOM      2  C   UNL     1       2.450  18.069  46.733  1.00  0.00     0.004 C 
BRANCH   2   3
ATOM      3  C   UNL     1       1.382  16.935  46.702  1.00  0.00    -0.009 C 
BRANCH   3   4
ATOM      4  C   UNL     1       1.607  16.049  45.441  1.00  0.00     0.000 C 
ATOM      5  C   UNL     1       0.369  15.875  44.559  1.00  0.00     0.004 C 
ENDBRANCH   3   4
BRANCH   3   6
ATOM      6  C   UNL     1      -0.059  17.539  46.849  1.00  0.00    -0.014 C 
ATOM      7  C   UNL     1      -0.965  16.744  47.801  1.00  0.00     0.007 C 
ATOM      8  C   UNL     1      -0.067  19.034  47.207  1.00  0.00     0.007 C 
ENDBRANCH   3   6
ENDBRANCH   2   3
ENDBRANCH   1   2
BRANCH   1   9
ATOM      9  C   UNL     1       4.802  17.166  47.255  1.00  0.00    -0.011 C 
ATOM     10  C   UNL     1       5.103  15.880  48.054  1.00  0.00     0.008 C 
BRANCH   9  11
ATOM     11  C   UNL     1       6.074  18.098  47.223  1.00  0.00    -0.002 C 
ATOM     12  C   UNL     1       5.911  19.385  48.043  1.00  0.00     0.005 C 
ATOM     13  C   UNL     1       6.645  18.545  45.814  1.00  0.00    -0.023 C 
ATOM     14  C   UNL     1       5.740  20.509  47.042  1.00  0.00     0.009 C 
ATOM     15  C   UNL     1       6.572  20.113  45.818  1.00  0.00     0.021 C 
ATOM     16  C   UNL     1       5.879  17.941  44.587  1.00  0.00     0.008 C 
ATOM     17  C   UNL     1       8.127  18.084  45.725  1.00  0.00     0.012 C 
ATOM     18  C   UNL     1       6.105  20.684  44.477  1.00  0.00    -0.067 C 
ATOM     19  C   UNL     1       6.271  18.534  43.213  1.00  0.00     0.009 C 
ATOM     20  C   UNL     1       6.726  20.021  43.256  1.00  0.00     0.021 C 
ATOM     21  C   UNL     1       5.174  21.664  44.369  1.00  0.00    -0.027 C 
ATOM     22  C   UNL     1       6.520  20.844  41.930  1.00  0.00    -0.023 C 
ATOM     23  C   UNL     1       4.656  22.188  43.053  1.00  0.00     0.031 C 
ATOM     24  C   UNL     1       5.025  21.285  41.861  1.00  0.00     0.002 C 
ATOM     25  C   UNL     1       6.877  19.998  40.665  1.00  0.00     0.010 C 
ATOM     26  C   UNL     1       7.481  22.073  41.978  1.00  0.00     0.012 C 
ATOM     27  C   UNL     1       4.659  21.968  40.525  1.00  0.00     0.036 C 
ATOM     28  C   UNL     1       6.514  20.711  39.353  1.00  0.00     0.032 C 
ATOM     29  C   UNL     1       5.025  21.086  39.324  1.00  0.00     0.114 C 
BRANCH  29  30
ATOM     30  O   UNL     1       4.733  21.781  38.139  1.00  0.00    -0.393 OA
ATOM     31  H   UNL     1       4.600  22.732  38.389  1.00  0.00     0.210 HD
ENDBRANCH  29  30
ENDBRANCH   9  11
ENDBRANCH   1   9
TORSDOF 7
ENDMDL
MODEL 2
REMARK VINA RESULT:    -7.195      4.006      7.091
REMARK INTER + INTRA:         -11.357
REMARK INTER:                  -9.394
REMARK INTRA:                  -1.963
REMARK UNBOUND:                -1.427
REMARK SMILES CC[C@@H](CC[C@H](C)[C@@H]1CC[C@@H]2C3=CC[C@H]4C[C@@H](O)CC[C@]4(C)[C@@H]3CC[C@@]21C)C(C)C
REMARK SMILES IDX 5 1 4 2 3 3 2 4 1 5 28 6 29 7 30 8 6 9 7 10 8 11 9 12 26 13
REMARK SMILES IDX 10 14 11 15 25 16 27 17 12 18 24 19 23 20 13 21 21 22 14 23
REMARK SMILES IDX 15 24 20 25 22 26 16 27 19 28 17 29 18 30
REMARK H PARENT 18 31
REMARK Flexibility Score: inf
ROOT
ATOM      1  C   UNL     1      -2.314  20.362  49.606  1.00  0.00     0.004 C 
ENDROOT
BRANCH   1   2
ATOM      2  C   UNL     1      -1.408  19.116  49.634  1.00  0.00     0.004 C 
BRANCH   2   3
ATOM      3  C   UNL     1      -2.183  17.810  49.285  1.00  0.00    -0.009 C 
BRANCH   3   4
ATOM      4  C   UNL     1      -1.311  16.577  49.663  1.00  0.00     0.000 C 
ATOM      5  C   UNL     1      -0.869  16.537  51.127  1.00  0.00     0.004 C 
ENDBRANCH   3   4
BRANCH   3   6
ATOM      6  C   UNL     1      -2.677  17.850  47.796  1.00  0.00    -0.014 C 
ATOM      7  C   UNL     1      -1.981  16.825  46.889  1.00  0.00     0.007 C 
ATOM      8  C   UNL     1      -4.206  17.759  47.652  1.00  0.00     0.007 C 
ENDBRANCH   3   6
ENDBRANCH   2   3
ENDBRANCH   1   2
BRANCH   1   9
ATOM      9  C   UNL     1      -1.500  21.687  49.588  1.00  0.00    -0.011 C 
ATOM     10  C   UNL     1      -2.380  22.839  50.117  1.00  0.00     0.008 C 
BRANCH   9  11
ATOM     11  C   UNL     1      -0.890  22.066  48.184  1.00  0.00    -0.002 C 
ATOM     12  C   UNL     1      -1.660  21.464  47.000  1.00  0.00     0.005 C 
ATOM     13  C   UNL     1       0.640  21.753  47.917  1.00  0.00    -0.023 C 
ATOM     14  C   UNL     1      -0.798  20.343  46.456  1.00  0.00     0.009 C 
ATOM     15  C   UNL     1       0.653  20.780  46.685  1.00  0.00     0.021 C 
ATOM     16  C   UNL     1       1.394  21.133  49.142  1.00  0.00     0.008 C 
ATOM     17  C   UNL     1       1.348  23.086  47.546  1.00  0.00     0.012 C 
ATOM     18  C   UNL     1       1.676  19.652  46.837  1.00  0.00    -0.067 C 
ATOM     19  C   UNL     1       2.820  20.613  48.841  1.00  0.00     0.009 C 
ATOM     20  C   UNL     1       3.024  20.090  47.391  1.00  0.00     0.021 C 
ATOM     21  C   UNL     1       1.400  18.354  46.557  1.00  0.00    -0.027 C 
ATOM     22  C   UNL     1       4.154  19.011  47.200  1.00  0.00    -0.023 C 
ATOM     23  C   UNL     1       2.377  17.224  46.767  1.00  0.00     0.031 C 
ATOM     24  C   UNL     1       3.582  17.626  47.637  1.00  0.00     0.002 C 
ATOM     25  C   UNL     1       5.423  19.347  48.050  1.00  0.00     0.010 C 
ATOM     26  C   UNL     1       4.566  19.014  45.693  1.00  0.00     0.012 C 
ATOM     27  C   UNL     1       4.647  16.509  47.645  1.00  0.00     0.036 C 
ATOM     28  C   UNL     1       6.469  18.222  48.025  1.00  0.00     0.032 C 
ATOM     29  C   UNL     1       5.861  16.895  48.502  1.00  0.00     0.114 C 
BRANCH  29  30
ATOM     30  O   UNL     1       6.822  15.875  48.420  1.00  0.00    -0.393 OA
ATOM     31  H   UNL     1       7.464  16.023  49.163  1.00  0.00     0.210 HD
ENDBRANCH  29  30
ENDBRANCH   9  11
ENDBRANCH   1   9
TORSDOF 7
ENDMDL
MODEL 3
REMARK VINA RESULT:    -7.038      3.325      6.993
REMARK INTER + INTRA:         -11.140
REMARK INTER:                  -8.057
REMARK INTRA:                  -3.082
REMARK UNBOUND:                -1.427
REMARK SMILES CC[C@@H](CC[C@H](C)[C@@H]1CC[C@@H]2C3=CC[C@H]4C[C@@H](O)CC[C@]4(C)[C@@H]3CC[C@@]21C)C(C)C
REMARK SMILES IDX 5 1 4 2 3 3 2 4 1 5 28 6 29 7 30 8 6 9 7 10 8 11 9 12 26 13
REMARK SMILES IDX 10 14 11 15 25 16 27 17 12 18 24 19 23 20 13 21 21 22 14 23
REMARK SMILES IDX 15 24 20 25 22 26 16 27 19 28 17 29 18 30
REMARK H PARENT 18 31
REMARK Flexibility Score: inf
ROOT
ATOM      1  C   UNL     1       9.037  18.504  41.410  1.00  0.00     0.004 C 
ENDROOT
BRANCH   1   2
ATOM      2  C   UNL     1       8.588  19.978  41.394  1.00  0.00     0.004 C 
BRANCH   2   3
ATOM      3  C   UNL     1       7.163  20.171  41.994  1.00  0.00    -0.009 C 
BRANCH   3   4
ATOM      4  C   UNL     1       6.139  20.368  40.837  1.00  0.00     0.000 C 
ATOM      5  C   UNL     1       6.765  20.751  39.495  1.00  0.00     0.004 C 
ENDBRANCH   3   4
BRANCH   3   6
ATOM      6  C   UNL     1       7.175  21.305  43.078  1.00  0.00    -0.014 C 
ATOM      7  C   UNL     1       8.538  21.997  43.228  1.00  0.00     0.007 C 
ATOM      8  C   UNL     1       6.053  22.341  42.900  1.00  0.00     0.007 C 
ENDBRANCH   3   6
ENDBRANCH   2   3
ENDBRANCH   1   2
BRANCH   1   9
ATOM      9  C   UNL     1       9.711  18.104  42.753  1.00  0.00    -0.011 C 
ATOM     10  C   UNL     1      11.125  17.552  42.476  1.00  0.00     0.008 C 
BRANCH   9  11
ATOM     11  C   UNL     1       8.886  17.080  43.624  1.00  0.00    -0.002 C 
ATOM     12  C   UNL     1       7.705  16.450  42.872  1.00  0.00     0.005 C 
ATOM     13  C   UNL     1       8.308  17.568  45.016  1.00  0.00    -0.023 C 
ATOM     14  C   UNL     1       6.452  17.091  43.430  1.00  0.00     0.009 C 
ATOM     15  C   UNL     1       6.753  17.389  44.903  1.00  0.00     0.021 C 
ATOM     16  C   UNL     1       8.687  19.042  45.390  1.00  0.00     0.008 C 
ATOM     17  C   UNL     1       8.869  16.635  46.126  1.00  0.00     0.012 C 
ATOM     18  C   UNL     1       5.979  18.556  45.522  1.00  0.00    -0.067 C 
ATOM     19  C   UNL     1       7.955  19.614  46.628  1.00  0.00     0.009 C 
ATOM     20  C   UNL     1       6.527  19.042  46.856  1.00  0.00     0.021 C 
ATOM     21  C   UNL     1       4.923  19.153  44.917  1.00  0.00    -0.027 C 
ATOM     22  C   UNL     1       5.527  19.975  47.635  1.00  0.00    -0.023 C 
ATOM     23  C   UNL     1       4.195  20.347  45.484  1.00  0.00     0.031 C 
ATOM     24  C   UNL     1       4.963  21.028  46.630  1.00  0.00     0.002 C 
ATOM     25  C   UNL     1       6.229  20.708  48.825  1.00  0.00     0.010 C 
ATOM     26  C   UNL     1       4.394  19.075  48.221  1.00  0.00     0.012 C 
ATOM     27  C   UNL     1       4.088  22.103  47.311  1.00  0.00     0.036 C 
ATOM     28  C   UNL     1       5.327  21.759  49.489  1.00  0.00     0.032 C 
ATOM     29  C   UNL     1       4.835  22.790  48.463  1.00  0.00     0.114 C 
BRANCH  29  30
ATOM     30  O   UNL     1       3.973  23.706  49.086  1.00  0.00    -0.393 OA
ATOM     31  H   UNL     1       3.163  23.773  48.516  1.00  0.00     0.210 HD
ENDBRANCH  29  30
ENDBRANCH   9  11
ENDBRANCH   1   9
TORSDOF 7
ENDMDL
MODEL 4
REMARK VINA RESULT:    -7.025      7.402     11.314
REMARK INTER + INTRA:         -11.121
REMARK INTER:                  -7.837
REMARK INTRA:                  -3.285
REMARK UNBOUND:                -1.427
REMARK SMILES CC[C@@H](CC[C@H](C)[C@@H]1CC[C@@H]2C3=CC[C@H]4C[C@@H](O)CC[C@]4(C)[C@@H]3CC[C@@]21C)C(C)C
REMARK SMILES IDX 5 1 4 2 3 3 2 4 1 5 28 6 29 7 30 8 6 9 7 10 8 11 9 12 26 13
REMARK SMILES IDX 10 14 11 15 25 16 27 17 12 18 24 19 23 20 13 21 21 22 14 23
REMARK SMILES IDX 15 24 20 25 22 26 16 27 19 28 17 29 18 30
REMARK H PARENT 18 31
REMARK Flexibility Score: inf
ROOT
ATOM      1  C   UNL     1      -0.021  27.780  53.315  1.00  0.00     0.004 C 
ENDROOT
BRANCH   1   2
ATOM      2  C   UNL     1       1.365  27.389  52.767  1.00  0.00     0.004 C 
BRANCH   2   3
ATOM      3  C   UNL     1       1.371  25.970  52.125  1.00  0.00    -0.009 C 
BRANCH   3   4
ATOM      4  C   UNL     1       1.861  24.930  53.177  1.00  0.00     0.000 C 
ATOM      5  C   UNL     1       3.374  24.911  53.393  1.00  0.00     0.004 C 
ENDBRANCH   3   4
BRANCH   3   6
ATOM      6  C   UNL     1       2.172  25.985  50.775  1.00  0.00    -0.014 C 
ATOM      7  C   UNL     1       1.992  24.709  49.940  1.00  0.00     0.007 C 
ATOM      8  C   UNL     1       1.916  27.238  49.921  1.00  0.00     0.007 C 
ENDBRANCH   3   6
ENDBRANCH   2   3
ENDBRANCH   1   2
BRANCH   1   9
ATOM      9  C   UNL     1      -1.110  27.808  52.205  1.00  0.00    -0.011 C 
ATOM     10  C   UNL     1      -1.664  29.241  52.063  1.00  0.00     0.008 C 
BRANCH   9  11
ATOM     11  C   UNL     1      -2.292  26.785  52.417  1.00  0.00    -0.002 C 
ATOM     12  C   UNL     1      -2.228  26.046  53.761  1.00  0.00     0.005 C 
ATOM     13  C   UNL     1      -2.532  25.672  51.315  1.00  0.00    -0.023 C 
ATOM     14  C   UNL     1      -1.790  24.630  53.448  1.00  0.00     0.009 C 
ATOM     15  C   UNL     1      -2.371  24.304  52.069  1.00  0.00     0.021 C 
ATOM     16  C   UNL     1      -1.565  25.763  50.086  1.00  0.00     0.008 C 
ATOM     17  C   UNL     1      -3.988  25.818  50.789  1.00  0.00     0.012 C 
ATOM     18  C   UNL     1      -1.605  23.266  51.247  1.00  0.00    -0.067 C 
ATOM     19  C   UNL     1      -1.629  24.563  49.110  1.00  0.00     0.009 C 
ATOM     20  C   UNL     1      -1.997  23.207  49.778  1.00  0.00     0.021 C 
ATOM     21  C   UNL     1      -0.617  22.491  51.760  1.00  0.00    -0.027 C 
ATOM     22  C   UNL     1      -1.473  21.915  49.046  1.00  0.00    -0.023 C 
ATOM     23  C   UNL     1       0.192  21.513  50.945  1.00  0.00     0.031 C 
ATOM     24  C   UNL     1       0.027  21.715  49.428  1.00  0.00     0.002 C 
ATOM     25  C   UNL     1      -1.608  22.036  47.493  1.00  0.00     0.010 C 
ATOM     26  C   UNL     1      -2.351  20.712  49.517  1.00  0.00     0.012 C 
ATOM     27  C   UNL     1       0.700  20.566  48.648  1.00  0.00     0.036 C 
ATOM     28  C   UNL     1      -0.941  20.870  46.747  1.00  0.00     0.032 C 
ATOM     29  C   UNL     1       0.541  20.747  47.131  1.00  0.00     0.114 C 
BRANCH  29  30
ATOM     30  O   UNL     1       1.111  19.644  46.476  1.00  0.00    -0.393 OA
ATOM     31  H   UNL     1       0.616  18.840  46.781  1.00  0.00     0.210 HD
ENDBRANCH  29  30
ENDBRANCH   9  11
ENDBRANCH   1   9
TORSDOF 7
ENDMDL
MODEL 5
REMARK VINA RESULT:    -6.941      6.105     10.219
REMARK INTER + INTRA:         -11.005
REMARK INTER:                  -7.805
REMARK INTRA:                  -3.199
REMARK UNBOUND:                -1.427
REMARK SMILES CC[C@@H](CC[C@H](C)[C@@H]1CC[C@@H]2C3=CC[C@H]4C[C@@H](O)CC[C@]4(C)[C@@H]3CC[C@@]21C)C(C)C
REMARK SMILES IDX 5 1 4 2 3 3 2 4 1 5 28 6 29 7 30 8 6 9 7 10 8 11 9 12 26 13
REMARK SMILES IDX 10 14 11 15 25 16 27 17 12 18 24 19 23 20 13 21 21 22 14 23
REMARK SMILES IDX 15 24 20 25 22 26 16 27 19 28 17 29 18 30
REMARK H PARENT 18 31
REMARK Flexibility Score: inf
ROOT
ATOM      1  C   UNL     1       2.005  20.027  47.372  1.00  0.00     0.004 C 
ENDROOT
BRANCH   1   2
ATOM      2  C   UNL     1       2.777  20.751  48.491  1.00  0.00     0.004 C 
BRANCH   2   3
ATOM      3  C   UNL     1       2.329  22.234  48.658  1.00  0.00    -0.009 C 
BRANCH   3   4
ATOM      4  C   UNL     1       2.529  22.987  47.310  1.00  0.00     0.000 C 
ATOM      5  C   UNL     1       2.911  24.461  47.457  1.00  0.00     0.004 C 
ENDBRANCH   3   4
BRANCH   3   6
ATOM      6  C   UNL     1       3.037  22.882  49.899  1.00  0.00    -0.014 C 
ATOM      7  C   UNL     1       2.200  22.821  51.186  1.00  0.00     0.007 C 
ATOM      8  C   UNL     1       4.458  22.349  50.145  1.00  0.00     0.007 C 
ENDBRANCH   3   6
ENDBRANCH   2   3
ENDBRANCH   1   2
BRANCH   1   9
ATOM      9  C   UNL     1       0.814  19.190  47.919  1.00  0.00    -0.011 C 
ATOM     10  C   UNL     1       0.967  17.721  47.470  1.00  0.00     0.008 C 
BRANCH   9  11
ATOM     11  C   UNL     1      -0.611  19.735  47.521  1.00  0.00    -0.002 C 
ATOM     12  C   UNL     1      -0.619  20.528  46.207  1.00  0.00     0.005 C 
ATOM     13  C   UNL     1      -1.399  20.622  48.572  1.00  0.00    -0.023 C 
ATOM     14  C   UNL     1      -0.773  21.986  46.588  1.00  0.00     0.009 C 
ATOM     15  C   UNL     1      -1.633  22.000  47.857  1.00  0.00     0.021 C 
ATOM     16  C   UNL     1      -0.661  20.808  49.941  1.00  0.00     0.008 C 
ATOM     17  C   UNL     1      -2.765  19.935  48.856  1.00  0.00     0.012 C 
ATOM     18  C   UNL     1      -1.425  23.192  48.793  1.00  0.00    -0.067 C 
ATOM     19  C   UNL     1      -1.299  21.845  50.896  1.00  0.00     0.009 C 
ATOM     20  C   UNL     1      -2.027  23.019  50.181  1.00  0.00     0.021 C 
ATOM     21  C   UNL     1      -0.719  24.297  48.448  1.00  0.00    -0.027 C 
ATOM     22  C   UNL     1      -2.121  24.366  50.989  1.00  0.00    -0.023 C 
ATOM     23  C   UNL     1      -0.450  25.448  49.384  1.00  0.00     0.031 C 
ATOM     24  C   UNL     1      -0.755  25.109  50.855  1.00  0.00     0.002 C 
ATOM     25  C   UNL     1      -2.434  24.112  52.500  1.00  0.00     0.010 C 
ATOM     26  C   UNL     1      -3.293  25.203  50.386  1.00  0.00     0.012 C 
ATOM     27  C   UNL     1      -0.667  26.374  51.736  1.00  0.00     0.036 C 
ATOM     28  C   UNL     1      -2.352  25.392  53.346  1.00  0.00     0.032 C 
ATOM     29  C   UNL     1      -0.976  26.058  53.206  1.00  0.00     0.114 C 
BRANCH  29  30
ATOM     30  O   UNL     1      -0.947  27.250  53.947  1.00  0.00    -0.393 OA
ATOM     31  H   UNL     1      -1.781  27.276  54.483  1.00  0.00     0.210 HD
ENDBRANCH  29  30
ENDBRANCH   9  11
ENDBRANCH   1   9
TORSDOF 7
ENDMDL
MODEL 6
REMARK VINA RESULT:    -6.914      2.225      3.594
REMARK INTER + INTRA:         -10.969
REMARK INTER:                  -7.721
REMARK INTRA:                  -3.247
REMARK UNBOUND:                -1.427
REMARK SMILES CC[C@@H](CC[C@H](C)[C@@H]1CC[C@@H]2C3=CC[C@H]4C[C@@H](O)CC[C@]4(C)[C@@H]3CC[C@@]21C)C(C)C
REMARK SMILES IDX 5 1 4 2 3 3 2 4 1 5 28 6 29 7 30 8 6 9 7 10 8 11 9 12 26 13
REMARK SMILES IDX 10 14 11 15 25 16 27 17 12 18 24 19 23 20 13 21 21 22 14 23
REMARK SMILES IDX 15 24 20 25 22 26 16 27 19 28 17 29 18 30
REMARK H PARENT 18 31
REMARK Flexibility Score: inf
ROOT
ATOM      1  C   UNL     1       6.254  18.043  48.775  1.00  0.00     0.004 C 
ENDROOT
BRANCH   1   2
ATOM      2  C   UNL     1       5.401  19.312  48.969  1.00  0.00     0.004 C 
BRANCH   2   3
ATOM      3  C   UNL     1       5.401  20.226  47.708  1.00  0.00    -0.009 C 
BRANCH   3   4
ATOM      4  C   UNL     1       6.381  21.415  47.933  1.00  0.00     0.000 C 
ATOM      5  C   UNL     1       6.593  21.794  49.400  1.00  0.00     0.004 C 
ENDBRANCH   3   4
BRANCH   3   6
ATOM      6  C   UNL     1       3.934  20.630  47.326  1.00  0.00    -0.014 C 
ATOM      7  C   UNL     1       3.836  21.428  46.018  1.00  0.00     0.007 C 
ATOM      8  C   UNL     1       2.951  19.447  47.320  1.00  0.00     0.007 C 
ENDBRANCH   3   6
ENDBRANCH   2   3
ENDBRANCH   1   2
BRANCH   1   9
ATOM      9  C   UNL     1       5.902  17.288  47.462  1.00  0.00    -0.011 C 
ATOM     10  C   UNL     1       5.380  15.876  47.804  1.00  0.00     0.008 C 
BRANCH   9  11
ATOM     11  C   UNL     1       7.082  17.195  46.420  1.00  0.00    -0.002 C 
ATOM     12  C   UNL     1       8.397  17.801  46.929  1.00  0.00     0.005 C 
ATOM     13  C   UNL     1       6.855  17.794  44.970  1.00  0.00    -0.023 C 
ATOM     14  C   UNL     1       8.578  19.111  46.189  1.00  0.00     0.009 C 
ATOM     15  C   UNL     1       7.956  18.902  44.805  1.00  0.00     0.021 C 
ATOM     16  C   UNL     1       5.421  18.376  44.730  1.00  0.00     0.008 C 
ATOM     17  C   UNL     1       7.089  16.657  43.936  1.00  0.00     0.012 C 
ATOM     18  C   UNL     1       7.427  20.159  44.112  1.00  0.00    -0.067 C 
ATOM     19  C   UNL     1       5.244  19.163  43.409  1.00  0.00     0.009 C 
ATOM     20  C   UNL     1       6.527  19.890  42.914  1.00  0.00     0.021 C 
ATOM     21  C   UNL     1       7.686  21.416  44.549  1.00  0.00    -0.027 C 
ATOM     22  C   UNL     1       6.295  21.160  42.014  1.00  0.00    -0.023 C 
ATOM     23  C   UNL     1       7.115  22.660  43.916  1.00  0.00     0.031 C 
ATOM     24  C   UNL     1       5.954  22.362  42.949  1.00  0.00     0.002 C 
ATOM     25  C   UNL     1       5.129  20.941  40.996  1.00  0.00     0.010 C 
ATOM     26  C   UNL     1       7.605  21.415  41.203  1.00  0.00     0.012 C 
ATOM     27  C   UNL     1       5.550  23.635  42.174  1.00  0.00     0.036 C 
ATOM     28  C   UNL     1       4.761  22.222  40.230  1.00  0.00     0.032 C 
ATOM     29  C   UNL     1       4.397  23.357  41.198  1.00  0.00     0.114 C 
BRANCH  29  30
ATOM     30  O   UNL     1       4.117  24.527  40.475  1.00  0.00    -0.393 OA
ATOM     31  H   UNL     1       4.139  24.283  39.513  1.00  0.00     0.210 HD
ENDBRANCH  29  30
ENDBRANCH   9  11
ENDBRANCH   1   9
TORSDOF 7
ENDMDL
MODEL 7
REMARK VINA RESULT:    -6.670      7.030     10.641
REMARK INTER + INTRA:         -10.631
REMARK INTER:                  -9.415
REMARK INTRA:                  -1.216
REMARK UNBOUND:                -1.427
REMARK SMILES CC[C@@H](CC[C@H](C)[C@@H]1CC[C@@H]2C3=CC[C@H]4C[C@@H](O)CC[C@]4(C)[C@@H]3CC[C@@]21C)C(C)C
REMARK SMILES IDX 5 1 4 2 3 3 2 4 1 5 28 6 29 7 30 8 6 9 7 10 8 11 9 12 26 13
REMARK SMILES IDX 10 14 11 15 25 16 27 17 12 18 24 19 23 20 13 21 21 22 14 23
REMARK SMILES IDX 15 24 20 25 22 26 16 27 19 28 17 29 18 30
REMARK H PARENT 18 31
REMARK Flexibility Score: inf
ROOT
ATOM      1  C   UNL     1      -0.365  20.258  47.221  1.00  0.00     0.004 C 
ENDROOT
BRANCH   1   2
ATOM      2  C   UNL     1       0.257  18.849  47.178  1.00  0.00     0.004 C 
BRANCH   2   3
ATOM      3  C   UNL     1      -0.730  17.782  46.618  1.00  0.00    -0.009 C 
BRANCH   3   4
ATOM      4  C   UNL     1      -1.824  17.481  47.684  1.00  0.00     0.000 C 
ATOM      5  C   UNL     1      -1.287  16.939  49.009  1.00  0.00     0.004 C 
ENDBRANCH   3   4
BRANCH   3   6
ATOM      6  C   UNL     1       0.059  16.530  46.096  1.00  0.00    -0.014 C 
ATOM      7  C   UNL     1      -0.257  16.168  44.637  1.00  0.00     0.007 C 
ATOM      8  C   UNL     1       1.577  16.620  46.320  1.00  0.00     0.007 C 
ENDBRANCH   3   6
ENDBRANCH   2   3
ENDBRANCH   1   2
BRANCH   1   9
ATOM      9  C   UNL     1       0.233  21.135  48.358  1.00  0.00    -0.011 C 
ATOM     10  C   UNL     1       1.759  20.918  48.429  1.00  0.00     0.008 C 
BRANCH   9  11
ATOM     11  C   UNL     1      -0.417  20.905  49.777  1.00  0.00    -0.002 C 
ATOM     12  C   UNL     1      -1.903  20.524  49.715  1.00  0.00     0.005 C 
ATOM     13  C   UNL     1      -0.307  22.062  50.853  1.00  0.00    -0.023 C 
ATOM     14  C   UNL     1      -2.676  21.745  50.168  1.00  0.00     0.009 C 
ATOM     15  C   UNL     1      -1.789  22.446  51.202  1.00  0.00     0.021 C 
ATOM     16  C   UNL     1       0.508  23.312  50.375  1.00  0.00     0.008 C 
ATOM     17  C   UNL     1       0.400  21.485  52.113  1.00  0.00     0.012 C 
ATOM     18  C   UNL     1      -1.988  23.956  51.343  1.00  0.00    -0.067 C 
ATOM     19  C   UNL     1       0.443  24.539  51.316  1.00  0.00     0.009 C 
ATOM     20  C   UNL     1      -0.887  24.671  52.112  1.00  0.00     0.021 C 
ATOM     21  C   UNL     1      -3.029  24.625  50.786  1.00  0.00    -0.027 C 
ATOM     22  C   UNL     1      -1.284  26.129  52.553  1.00  0.00    -0.023 C 
ATOM     23  C   UNL     1      -3.201  26.121  50.860  1.00  0.00     0.031 C 
ATOM     24  C   UNL     1      -1.927  26.849  51.326  1.00  0.00     0.002 C 
ATOM     25  C   UNL     1      -0.042  26.941  53.047  1.00  0.00     0.010 C 
ATOM     26  C   UNL     1      -2.289  26.011  53.742  1.00  0.00     0.012 C 
ATOM     27  C   UNL     1      -2.216  28.343  51.587  1.00  0.00     0.036 C 
ATOM     28  C   UNL     1      -0.367  28.420  53.311  1.00  0.00     0.032 C 
ATOM     29  C   UNL     1      -0.958  29.086  52.060  1.00  0.00     0.114 C 
BRANCH  29  30
ATOM     30  O   UNL     1      -1.293  30.419  52.345  1.00  0.00    -0.393 OA
ATOM     31  H   UNL     1      -1.576  30.834  51.489  1.00  0.00     0.210 HD
ENDBRANCH  29  30
ENDBRANCH   9  11
ENDBRANCH   1   9
TORSDOF 7
ENDMDL
MODEL 8
REMARK VINA RESULT:    -6.596      1.538      2.426
REMARK INTER + INTRA:         -10.530
REMARK INTER:                  -7.591
REMARK INTRA:                  -2.938
REMARK UNBOUND:                -1.427
REMARK SMILES CC[C@@H](CC[C@H](C)[C@@H]1CC[C@@H]2C3=CC[C@H]4C[C@@H](O)CC[C@]4(C)[C@@H]3CC[C@@]21C)C(C)C
REMARK SMILES IDX 5 1 4 2 3 3 2 4 1 5 28 6 29 7 30 8 6 9 7 10 8 11 9 12 26 13
REMARK SMILES IDX 10 14 11 15 25 16 27 17 12 18 24 19 23 20 13 21 21 22 14 23
REMARK SMILES IDX 15 24 20 25 22 26 16 27 19 28 17 29 18 30
REMARK H PARENT 18 31
REMARK Flexibility Score: inf
ROOT
ATOM      1  C   UNL     1       4.795  19.905  48.784  1.00  0.00     0.004 C 
ENDROOT
BRANCH   1   2
ATOM      2  C   UNL     1       3.811  20.879  48.107  1.00  0.00     0.004 C 
BRANCH   2   3
ATOM      3  C   UNL     1       3.201  20.292  46.799  1.00  0.00    -0.009 C 
BRANCH   3   4
ATOM      4  C   UNL     1       3.240  21.375  45.681  1.00  0.00     0.000 C 
ATOM      5  C   UNL     1       3.444  22.804  46.188  1.00  0.00     0.004 C 
ENDBRANCH   3   4
BRANCH   3   6
ATOM      6  C   UNL     1       1.787  19.676  47.085  1.00  0.00    -0.014 C 
ATOM      7  C   UNL     1       1.818  18.164  47.355  1.00  0.00     0.007 C 
ATOM      8  C   UNL     1       1.005  20.412  48.186  1.00  0.00     0.007 C 
ENDBRANCH   3   6
ENDBRANCH   2   3
ENDBRANCH   1   2
BRANCH   1   9
ATOM      9  C   UNL     1       5.399  18.881  47.783  1.00  0.00    -0.011 C 
ATOM     10  C   UNL     1       5.431  17.482  48.432  1.00  0.00     0.008 C 
BRANCH   9  11
ATOM     11  C   UNL     1       6.829  19.261  47.236  1.00  0.00    -0.002 C 
ATOM     12  C   UNL     1       7.361  20.592  47.786  1.00  0.00     0.005 C 
ATOM     13  C   UNL     1       7.047  19.317  45.668  1.00  0.00    -0.023 C 
ATOM     14  C   UNL     1       7.266  21.591  46.652  1.00  0.00     0.009 C 
ATOM     15  C   UNL     1       7.497  20.791  45.366  1.00  0.00     0.021 C 
ATOM     16  C   UNL     1       5.784  18.923  44.828  1.00  0.00     0.008 C 
ATOM     17  C   UNL     1       8.191  18.329  45.303  1.00  0.00     0.012 C 
ATOM     18  C   UNL     1       6.851  21.356  44.099  1.00  0.00    -0.067 C 
ATOM     19  C   UNL     1       5.900  19.184  43.307  1.00  0.00     0.009 C 
ATOM     20  C   UNL     1       6.807  20.389  42.925  1.00  0.00     0.021 C 
ATOM     21  C   UNL     1       6.308  22.597  44.030  1.00  0.00    -0.027 C 
ATOM     22  C   UNL     1       6.480  21.090  41.555  1.00  0.00    -0.023 C 
ATOM     23  C   UNL     1       5.608  23.140  42.810  1.00  0.00     0.031 C 
ATOM     24  C   UNL     1       5.269  22.050  41.777  1.00  0.00     0.002 C 
ATOM     25  C   UNL     1       6.127  20.049  40.443  1.00  0.00     0.010 C 
ATOM     26  C   UNL     1       7.755  21.869  41.102  1.00  0.00     0.012 C 
ATOM     27  C   UNL     1       4.751  22.681  40.467  1.00  0.00     0.036 C 
ATOM     28  C   UNL     1       5.629  20.710  39.148  1.00  0.00     0.032 C 
ATOM     29  C   UNL     1       4.414  21.609  39.421  1.00  0.00     0.114 C 
BRANCH  29  30
ATOM     30  O   UNL     1       4.013  22.239  38.232  1.00  0.00    -0.393 OA
ATOM     31  H   UNL     1       3.099  21.912  38.027  1.00  0.00     0.210 HD
ENDBRANCH  29  30
ENDBRANCH   9  11
ENDBRANCH   1   9
TORSDOF 7
ENDMDL
MODEL 9
REMARK VINA RESULT:    -6.586      7.460     11.155
REMARK INTER + INTRA:         -10.516
REMARK INTER:                  -7.339
REMARK INTRA:                  -3.177
REMARK UNBOUND:                -1.427
REMARK SMILES CC[C@@H](CC[C@H](C)[C@@H]1CC[C@@H]2C3=CC[C@H]4C[C@@H](O)CC[C@]4(C)[C@@H]3CC[C@@]21C)C(C)C
REMARK SMILES IDX 5 1 4 2 3 3 2 4 1 5 28 6 29 7 30 8 6 9 7 10 8 11 9 12 26 13
REMARK SMILES IDX 10 14 11 15 25 16 27 17 12 18 24 19 23 20 13 21 21 22 14 23
REMARK SMILES IDX 15 24 20 25 22 26 16 27 19 28 17 29 18 30
REMARK H PARENT 18 31
REMARK Flexibility Score: inf
ROOT
ATOM      1  C   UNL     1      -0.797  20.888  47.085  1.00  0.00     0.004 C 
ENDROOT
BRANCH   1   2
ATOM      2  C   UNL     1      -1.298  22.153  46.362  1.00  0.00     0.004 C 
BRANCH   2   3
ATOM      3  C   UNL     1      -0.568  23.441  46.847  1.00  0.00    -0.009 C 
BRANCH   3   4
ATOM      4  C   UNL     1      -1.611  24.429  47.447  1.00  0.00     0.000 C 
ATOM      5  C   UNL     1      -1.031  25.773  47.890  1.00  0.00     0.004 C 
ENDBRANCH   3   4
BRANCH   3   6
ATOM      6  C   UNL     1       0.326  24.027  45.698  1.00  0.00    -0.014 C 
ATOM      7  C   UNL     1       1.653  23.279  45.509  1.00  0.00     0.007 C 
ATOM      8  C   UNL     1      -0.413  24.176  44.357  1.00  0.00     0.007 C 
ENDBRANCH   3   6
ENDBRANCH   2   3
ENDBRANCH   1   2
BRANCH   1   9
ATOM      9  C   UNL     1       0.165  21.218  48.261  1.00  0.00    -0.011 C 
ATOM     10  C   UNL     1       1.478  20.426  48.090  1.00  0.00     0.008 C 
BRANCH   9  11
ATOM     11  C   UNL     1      -0.440  20.969  49.696  1.00  0.00    -0.002 C 
ATOM     12  C   UNL     1      -1.928  20.591  49.676  1.00  0.00     0.005 C 
ATOM     13  C   UNL     1      -0.293  22.110  50.785  1.00  0.00    -0.023 C 
ATOM     14  C   UNL     1      -2.684  21.807  50.170  1.00  0.00     0.009 C 
ATOM     15  C   UNL     1      -1.762  22.491  51.186  1.00  0.00     0.021 C 
ATOM     16  C   UNL     1       0.509  23.365  50.299  1.00  0.00     0.008 C 
ATOM     17  C   UNL     1       0.453  21.513  52.013  1.00  0.00     0.012 C 
ATOM     18  C   UNL     1      -1.954  23.999  51.355  1.00  0.00    -0.067 C 
ATOM     19  C   UNL     1       0.476  24.578  51.259  1.00  0.00     0.009 C 
ATOM     20  C   UNL     1      -0.827  24.701  52.099  1.00  0.00     0.021 C 
ATOM     21  C   UNL     1      -3.010  24.678  50.842  1.00  0.00    -0.027 C 
ATOM     22  C   UNL     1      -1.207  26.153  52.573  1.00  0.00    -0.023 C 
ATOM     23  C   UNL     1      -3.176  26.173  50.943  1.00  0.00     0.031 C 
ATOM     24  C   UNL     1      -1.887  26.892  51.379  1.00  0.00     0.002 C 
ATOM     25  C   UNL     1       0.052  26.956  53.039  1.00  0.00     0.010 C 
ATOM     26  C   UNL     1      -2.174  26.019  53.792  1.00  0.00     0.012 C 
ATOM     27  C   UNL     1      -2.164  28.383  51.670  1.00  0.00     0.036 C 
ATOM     28  C   UNL     1      -0.261  28.431  53.335  1.00  0.00     0.032 C 
ATOM     29  C   UNL     1      -0.890  29.116  52.114  1.00  0.00     0.114 C 
BRANCH  29  30
ATOM     30  O   UNL     1      -1.213  30.445  52.428  1.00  0.00    -0.393 OA
ATOM     31  H   UNL     1      -0.359  30.950  52.459  1.00  0.00     0.210 HD
ENDBRANCH  29  30
ENDBRANCH   9  11
ENDBRANCH   1   9
TORSDOF 7
ENDMDL
