MODEL 1
REMARK VINA RESULT:    -2.944      0.000      0.000
REMARK INTER + INTRA:          -6.628
REMARK INTER:                  -5.009
REMARK INTRA:                  -1.619
REMARK UNBOUND:                -1.619
REMARK SMILES CCCCCCCCCCCCCC(=O)[O-]
REMARK SMILES IDX 8 1 9 2 10 3 11 4 12 5 13 6 14 7 15 8 16 9 7 10 6 11 5 12
REMARK SMILES IDX 4 13 3 14 2 15 1 16
REMARK H PARENT
REMARK Flexibility Score: inf
ROOT
ATOM      1  C   UNL     1      35.780 -37.413   5.707  1.00  0.00     0.000 C 
ENDROOT
BRANCH   1   2
ATOM      2  C   UNL     1      35.196 -35.991   5.783  1.00  0.00     0.000 C 
BRANCH   2   3
ATOM      3  C   UNL     1      34.084 -35.875   6.847  1.00  0.00     0.000 C 
BRANCH   3   4
ATOM      4  C   UNL     1      34.066 -37.044   7.847  1.00  0.00     0.000 C 
BRANCH   4   5
ATOM      5  C   UNL     1      33.659 -36.612   9.265  1.00  0.00     0.006 C 
BRANCH   5   6
ATOM      6  C   UNL     1      34.358 -37.444  10.348  1.00  0.00     0.053 C 
BRANCH   6   7
ATOM      7  C   UNL     1      33.712 -37.270  11.689  1.00  0.00     0.041 C 
ATOM      8  O   UNL     1      32.465 -37.116  11.777  1.00  0.00    -0.550 OA
ATOM      9  O   UNL     1      34.491 -37.249  12.839  1.00  0.00    -0.550 OA
ENDBRANCH   6   7
ENDBRANCH   5   6
ENDBRANCH   4   5
ENDBRANCH   3   4
ENDBRANCH   2   3
ENDBRANCH   1   2
BRANCH   1  10
ATOM     10  C   UNL     1      36.404 -37.723   4.337  1.00  0.00     0.000 C 
BRANCH  10  11
ATOM     11  C   UNL     1      35.717 -36.966   3.188  1.00  0.00    -0.000 C 
BRANCH  11  12
ATOM     12  C   UNL     1      35.149 -37.922   2.117  1.00  0.00    -0.000 C 
BRANCH  12  13
ATOM     13  C   UNL     1      33.649 -38.229   2.293  1.00  0.00    -0.000 C 
BRANCH  13  14
ATOM     14  C   UNL     1      32.872 -37.197   3.130  1.00  0.00    -0.000 C 
BRANCH  14  15
ATOM     15  C   UNL     1      32.088 -37.839   4.284  1.00  0.00    -0.003 C 
ATOM     16  C   UNL     1      32.708 -39.173   4.691  1.00  0.00     0.004 C 
ENDBRANCH  14  15
ENDBRANCH  13  14
ENDBRANCH  12  13
ENDBRANCH  11  12
ENDBRANCH  10  11
ENDBRANCH   1  10
TORSDOF 12
ENDMDL
MODEL 2
REMARK VINA RESULT:    -2.919      3.764      7.266
REMARK INTER + INTRA:          -6.585
REMARK INTER:                  -4.920
REMARK INTRA:                  -1.665
REMARK UNBOUND:                -1.619
REMARK SMILES CCCCCCCCCCCCCC(=O)[O-]
REMARK SMILES IDX 8 1 9 2 10 3 11 4 12 5 13 6 14 7 15 8 16 9 7 10 6 11 5 12
REMARK SMILES IDX 4 13 3 14 2 15 1 16
REMARK H PARENT
REMARK Flexibility Score: inf
ROOT
ATOM      1  C   UNL     1      34.409 -37.334  12.120  1.00  0.00     0.000 C 
ENDROOT
BRANCH   1   2
ATOM      2  C   UNL     1      32.910 -37.341  11.769  1.00  0.00     0.000 C 
BRANCH   2   3
ATOM      3  C   UNL     1      32.644 -36.797  10.349  1.00  0.00     0.000 C 
BRANCH   3   4
ATOM      4  C   UNL     1      33.915 -36.661   9.494  1.00  0.00     0.000 C 
BRANCH   4   5
ATOM      5  C   UNL     1      33.628 -36.149   8.073  1.00  0.00     0.006 C 
BRANCH   5   6
ATOM      6  C   UNL     1      32.396 -36.820   7.452  1.00  0.00     0.053 C 
BRANCH   6   7
ATOM      7  C   UNL     1      32.392 -36.707   5.958  1.00  0.00     0.041 C 
ATOM      8  O   UNL     1      31.310 -36.800   5.319  1.00  0.00    -0.550 OA
ATOM      9  O   UNL     1      33.585 -36.527   5.270  1.00  0.00    -0.550 OA
ENDBRANCH   6   7
ENDBRANCH   5   6
ENDBRANCH   4   5
ENDBRANCH   3   4
ENDBRANCH   2   3
ENDBRANCH   1   2
BRANCH   1  10
ATOM     10  C   UNL     1      34.679 -37.781  13.565  1.00  0.00     0.000 C 
BRANCH  10  11
ATOM     11  C   UNL     1      35.469 -39.099  13.640  1.00  0.00    -0.000 C 
BRANCH  11  12
ATOM     12  C   UNL     1      34.568 -40.332  13.410  1.00  0.00    -0.000 C 
BRANCH  12  13
ATOM     13  C   UNL     1      34.788 -41.014  12.045  1.00  0.00    -0.000 C 
BRANCH  13  14
ATOM     14  C   UNL     1      33.614 -40.883  11.059  1.00  0.00    -0.000 C 
BRANCH  14  15
ATOM     15  C   UNL     1      34.054 -40.390   9.674  1.00  0.00    -0.003 C 
ATOM     16  C   UNL     1      35.531 -40.003   9.674  1.00  0.00     0.004 C 
ENDBRANCH  14  15
ENDBRANCH  13  14
ENDBRANCH  12  13
ENDBRANCH  11  12
ENDBRANCH  10  11
ENDBRANCH   1  10
TORSDOF 12
ENDMDL
MODEL 3
REMARK VINA RESULT:    -2.847      9.196     11.320
REMARK INTER + INTRA:          -6.463
REMARK INTER:                  -5.106
REMARK INTRA:                  -1.357
REMARK UNBOUND:                -1.619
REMARK SMILES CCCCCCCCCCCCCC(=O)[O-]
REMARK SMILES IDX 8 1 9 2 10 3 11 4 12 5 13 6 14 7 15 8 16 9 7 10 6 11 5 12
REMARK SMILES IDX 4 13 3 14 2 15 1 16
REMARK H PARENT
REMARK Flexibility Score: inf
ROOT
ATOM      1  C   UNL     1      37.442 -42.192  -3.896  1.00  0.00     0.000 C 
ENDROOT
BRANCH   1   2
ATOM      2  C   UNL     1      36.283 -43.159  -4.199  1.00  0.00     0.000 C 
BRANCH   2   3
ATOM      3  C   UNL     1      34.989 -42.766  -3.454  1.00  0.00     0.000 C 
BRANCH   3   4
ATOM      4  C   UNL     1      33.925 -42.130  -4.365  1.00  0.00     0.000 C 
BRANCH   4   5
ATOM      5  C   UNL     1      33.488 -40.735  -3.889  1.00  0.00     0.006 C 
BRANCH   5   6
ATOM      6  C   UNL     1      34.009 -40.413  -2.482  1.00  0.00     0.053 C 
BRANCH   6   7
ATOM      7  C   UNL     1      32.894 -40.295  -1.487  1.00  0.00     0.041 C 
ATOM      8  O   UNL     1      31.999 -41.179  -1.431  1.00  0.00    -0.550 OA
ATOM      9  O   UNL     1      32.828 -39.194  -0.643  1.00  0.00    -0.550 OA
ENDBRANCH   6   7
ENDBRANCH   5   6
ENDBRANCH   4   5
ENDBRANCH   3   4
ENDBRANCH   2   3
ENDBRANCH   1   2
BRANCH   1  10
ATOM     10  C   UNL     1      37.509 -41.021  -4.889  1.00  0.00     0.000 C 
BRANCH  10  11
ATOM     11  C   UNL     1      37.141 -39.675  -4.242  1.00  0.00    -0.000 C 
BRANCH  11  12
ATOM     12  C   UNL     1      37.929 -39.419  -2.939  1.00  0.00    -0.000 C 
BRANCH  12  13
ATOM     13  C   UNL     1      39.395 -39.003  -3.173  1.00  0.00    -0.000 C 
BRANCH  13  14
ATOM     14  C   UNL     1      39.619 -37.489  -3.334  1.00  0.00    -0.000 C 
BRANCH  14  15
ATOM     15  C   UNL     1      38.433 -36.656  -2.827  1.00  0.00    -0.003 C 
ATOM     16  C   UNL     1      38.730 -36.060  -1.454  1.00  0.00     0.004 C 
ENDBRANCH  14  15
ENDBRANCH  13  14
ENDBRANCH  12  13
ENDBRANCH  11  12
ENDBRANCH  10  11
ENDBRANCH   1  10
TORSDOF 12
ENDMDL
MODEL 4
REMARK VINA RESULT:    -2.833     10.597     12.469
REMARK INTER + INTRA:          -6.439
REMARK INTER:                  -5.365
REMARK INTRA:                  -1.074
REMARK UNBOUND:                -1.619
REMARK SMILES CCCCCCCCCCCCCC(=O)[O-]
REMARK SMILES IDX 8 1 9 2 10 3 11 4 12 5 13 6 14 7 15 8 16 9 7 10 6 11 5 12
REMARK SMILES IDX 4 13 3 14 2 15 1 16
REMARK H PARENT
REMARK Flexibility Score: inf
ROOT
ATOM      1  C   UNL     1      38.131 -37.758  -2.291  1.00  0.00     0.000 C 
ENDROOT
BRANCH   1   2
ATOM      2  C   UNL     1      38.508 -38.481  -3.596  1.00  0.00     0.000 C 
BRANCH   2   3
ATOM      3  C   UNL     1      37.458 -39.538  -3.999  1.00  0.00     0.000 C 
BRANCH   3   4
ATOM      4  C   UNL     1      36.270 -39.627  -3.025  1.00  0.00     0.000 C 
BRANCH   4   5
ATOM      5  C   UNL     1      35.121 -40.494  -3.563  1.00  0.00     0.006 C 
BRANCH   5   6
ATOM      6  C   UNL     1      35.596 -41.490  -4.630  1.00  0.00     0.053 C 
BRANCH   6   7
ATOM      7  C   UNL     1      35.918 -42.829  -4.041  1.00  0.00     0.041 C 
ATOM      8  O   UNL     1      37.100 -43.107  -3.707  1.00  0.00    -0.550 OA
ATOM      9  O   UNL     1      34.918 -43.782  -3.888  1.00  0.00    -0.550 OA
ENDBRANCH   6   7
ENDBRANCH   5   6
ENDBRANCH   4   5
ENDBRANCH   3   4
ENDBRANCH   2   3
ENDBRANCH   1   2
BRANCH   1  10
ATOM     10  C   UNL     1      38.585 -36.289  -2.277  1.00  0.00     0.000 C 
BRANCH  10  11
ATOM     11  C   UNL     1      39.570 -35.985  -1.135  1.00  0.00    -0.000 C 
BRANCH  11  12
ATOM     12  C   UNL     1      40.967 -36.589  -1.395  1.00  0.00    -0.000 C 
BRANCH  12  13
ATOM     13  C   UNL     1      41.754 -35.875  -2.512  1.00  0.00    -0.000 C 
BRANCH  13  14
ATOM     14  C   UNL     1      42.790 -36.752  -3.236  1.00  0.00    -0.000 C 
BRANCH  14  15
ATOM     15  C   UNL     1      42.206 -37.470  -4.462  1.00  0.00    -0.003 C 
ATOM     16  C   UNL     1      42.121 -38.975  -4.226  1.00  0.00     0.004 C 
ENDBRANCH  14  15
ENDBRANCH  13  14
ENDBRANCH  12  13
ENDBRANCH  11  12
ENDBRANCH  10  11
ENDBRANCH   1  10
TORSDOF 12
ENDMDL
MODEL 5
REMARK VINA RESULT:    -2.806      5.436      7.729
REMARK INTER + INTRA:          -6.394
REMARK INTER:                  -5.044
REMARK INTRA:                  -1.350
REMARK UNBOUND:                -1.619
REMARK SMILES CCCCCCCCCCCCCC(=O)[O-]
REMARK SMILES IDX 8 1 9 2 10 3 11 4 12 5 13 6 14 7 15 8 16 9 7 10 6 11 5 12
REMARK SMILES IDX 4 13 3 14 2 15 1 16
REMARK H PARENT
REMARK Flexibility Score: inf
ROOT
ATOM      1  C   UNL     1      39.791 -37.377   0.172  1.00  0.00     0.000 C 
ENDROOT
BRANCH   1   2
ATOM      2  C   UNL     1      39.677 -36.132   1.069  1.00  0.00     0.000 C 
BRANCH   2   3
ATOM      3  C   UNL     1      38.225 -35.876   1.527  1.00  0.00     0.000 C 
BRANCH   3   4
ATOM      4  C   UNL     1      37.234 -36.954   1.056  1.00  0.00     0.000 C 
BRANCH   4   5
ATOM      5  C   UNL     1      35.921 -36.948   1.856  1.00  0.00     0.006 C 
BRANCH   5   6
ATOM      6  C   UNL     1      35.971 -35.979   3.045  1.00  0.00     0.053 C 
BRANCH   6   7
ATOM      7  C   UNL     1      35.486 -36.621   4.309  1.00  0.00     0.041 C 
ATOM      8  O   UNL     1      36.296 -37.218   5.067  1.00  0.00    -0.550 OA
ATOM      9  O   UNL     1      34.136 -36.586   4.635  1.00  0.00    -0.550 OA
ENDBRANCH   6   7
ENDBRANCH   5   6
ENDBRANCH   4   5
ENDBRANCH   3   4
ENDBRANCH   2   3
ENDBRANCH   1   2
BRANCH   1  10
ATOM     10  C   UNL     1      40.537 -37.093  -1.141  1.00  0.00     0.000 C 
BRANCH  10  11
ATOM     11  C   UNL     1      39.917 -35.929  -1.934  1.00  0.00    -0.000 C 
BRANCH  11  12
ATOM     12  C   UNL     1      38.500 -36.264  -2.448  1.00  0.00    -0.000 C 
BRANCH  12  13
ATOM     13  C   UNL     1      38.458 -37.464  -3.415  1.00  0.00    -0.000 C 
BRANCH  13  14
ATOM     14  C   UNL     1      37.629 -38.663  -2.922  1.00  0.00    -0.000 C 
BRANCH  14  15
ATOM     15  C   UNL     1      38.204 -40.011  -3.381  1.00  0.00    -0.003 C 
ATOM     16  C   UNL     1      39.729 -39.975  -3.404  1.00  0.00     0.004 C 
ENDBRANCH  14  15
ENDBRANCH  13  14
ENDBRANCH  12  13
ENDBRANCH  11  12
ENDBRANCH  10  11
ENDBRANCH   1  10
TORSDOF 12
ENDMDL
MODEL 6
REMARK VINA RESULT:    -2.799     10.217     12.252
REMARK INTER + INTRA:          -6.382
REMARK INTER:                  -4.284
REMARK INTRA:                  -2.098
REMARK UNBOUND:                -1.619
REMARK SMILES CCCCCCCCCCCCCC(=O)[O-]
REMARK SMILES IDX 8 1 9 2 10 3 11 4 12 5 13 6 14 7 15 8 16 9 7 10 6 11 5 12
REMARK SMILES IDX 4 13 3 14 2 15 1 16
REMARK H PARENT
REMARK Flexibility Score: inf
ROOT
ATOM      1  C   UNL     1      40.558 -40.026  -0.790  1.00  0.00     0.000 C 
ENDROOT
BRANCH   1   2
ATOM      2  C   UNL     1      40.785 -38.506  -0.688  1.00  0.00     0.000 C 
BRANCH   2   3
ATOM      3  C   UNL     1      39.484 -37.708  -0.917  1.00  0.00     0.000 C 
BRANCH   3   4
ATOM      4  C   UNL     1      39.421 -37.017  -2.290  1.00  0.00     0.000 C 
BRANCH   4   5
ATOM      5  C   UNL     1      38.493 -37.740  -3.280  1.00  0.00     0.006 C 
BRANCH   5   6
ATOM      6  C   UNL     1      37.562 -38.738  -2.579  1.00  0.00     0.053 C 
BRANCH   6   7
ATOM      7  C   UNL     1      36.794 -39.570  -3.561  1.00  0.00     0.041 C 
ATOM      8  O   UNL     1      35.602 -39.896  -3.319  1.00  0.00    -0.550 OA
ATOM      9  O   UNL     1      37.406 -40.011  -4.728  1.00  0.00    -0.550 OA
ENDBRANCH   6   7
ENDBRANCH   5   6
ENDBRANCH   4   5
ENDBRANCH   3   4
ENDBRANCH   2   3
ENDBRANCH   1   2
BRANCH   1  10
ATOM     10  C   UNL     1      40.770 -40.559  -2.216  1.00  0.00     0.000 C 
BRANCH  10  11
ATOM     11  C   UNL     1      41.976 -39.912  -2.918  1.00  0.00    -0.000 C 
BRANCH  11  12
ATOM     12  C   UNL     1      41.653 -39.503  -4.372  1.00  0.00    -0.000 C 
BRANCH  12  13
ATOM     13  C   UNL     1      41.959 -38.025  -4.682  1.00  0.00    -0.000 C 
BRANCH  13  14
ATOM     14  C   UNL     1      43.074 -37.401  -3.826  1.00  0.00    -0.000 C 
BRANCH  14  15
ATOM     15  C   UNL     1      42.687 -36.028  -3.257  1.00  0.00    -0.003 C 
ATOM     16  C   UNL     1      43.168 -35.877  -1.816  1.00  0.00     0.004 C 
ENDBRANCH  14  15
ENDBRANCH  13  14
ENDBRANCH  12  13
ENDBRANCH  11  12
ENDBRANCH  10  11
ENDBRANCH   1  10
TORSDOF 12
ENDMDL
MODEL 7
REMARK VINA RESULT:    -2.799     10.219     12.329
REMARK INTER + INTRA:          -6.381
REMARK INTER:                  -4.524
REMARK INTRA:                  -1.857
REMARK UNBOUND:                -1.619
REMARK SMILES CCCCCCCCCCCCCC(=O)[O-]
REMARK SMILES IDX 8 1 9 2 10 3 11 4 12 5 13 6 14 7 15 8 16 9 7 10 6 11 5 12
REMARK SMILES IDX 4 13 3 14 2 15 1 16
REMARK H PARENT
REMARK Flexibility Score: inf
ROOT
ATOM      1  C   UNL     1      41.452 -37.369  -1.710  1.00  0.00     0.000 C 
ENDROOT
BRANCH   1   2
ATOM      2  C   UNL     1      40.522 -36.246  -2.202  1.00  0.00     0.000 C 
BRANCH   2   3
ATOM      3  C   UNL     1      39.101 -36.764  -2.515  1.00  0.00     0.000 C 
BRANCH   3   4
ATOM      4  C   UNL     1      38.523 -37.673  -1.417  1.00  0.00     0.000 C 
BRANCH   4   5
ATOM      5  C   UNL     1      37.808 -38.911  -1.981  1.00  0.00     0.006 C 
BRANCH   5   6
ATOM      6  C   UNL     1      37.668 -38.854  -3.508  1.00  0.00     0.053 C 
BRANCH   6   7
ATOM      7  C   UNL     1      36.917 -40.034  -4.045  1.00  0.00     0.041 C 
ATOM      8  O   UNL     1      35.817 -40.371  -3.534  1.00  0.00    -0.550 OA
ATOM      9  O   UNL     1      37.447 -40.780  -5.091  1.00  0.00    -0.550 OA
ENDBRANCH   6   7
ENDBRANCH   5   6
ENDBRANCH   4   5
ENDBRANCH   3   4
ENDBRANCH   2   3
ENDBRANCH   1   2
BRANCH   1  10
ATOM     10  C   UNL     1      42.724 -37.499  -2.564  1.00  0.00     0.000 C 
BRANCH  10  11
ATOM     11  C   UNL     1      42.532 -36.971  -3.996  1.00  0.00    -0.000 C 
BRANCH  11  12
ATOM     12  C   UNL     1      42.317 -38.113  -5.013  1.00  0.00    -0.000 C 
BRANCH  12  13
ATOM     13  C   UNL     1      42.315 -39.517  -4.378  1.00  0.00    -0.000 C 
BRANCH  13  14
ATOM     14  C   UNL     1      40.939 -40.206  -4.335  1.00  0.00    -0.000 C 
BRANCH  14  15
ATOM     15  C   UNL     1      40.720 -41.015  -3.048  1.00  0.00    -0.003 C 
ATOM     16  C   UNL     1      41.989 -41.050  -2.201  1.00  0.00     0.004 C 
ENDBRANCH  14  15
ENDBRANCH  13  14
ENDBRANCH  12  13
ENDBRANCH  11  12
ENDBRANCH  10  11
ENDBRANCH   1  10
TORSDOF 12
ENDMDL
MODEL 8
REMARK VINA RESULT:    -2.776      1.303      2.012
REMARK INTER + INTRA:          -6.342
REMARK INTER:                  -4.172
REMARK INTRA:                  -2.170
REMARK UNBOUND:                -1.619
REMARK SMILES CCCCCCCCCCCCCC(=O)[O-]
REMARK SMILES IDX 8 1 9 2 10 3 11 4 12 5 13 6 14 7 15 8 16 9 7 10 6 11 5 12
REMARK SMILES IDX 4 13 3 14 2 15 1 16
REMARK H PARENT
REMARK Flexibility Score: inf
ROOT
ATOM      1  C   UNL     1      36.244 -38.482   5.071  1.00  0.00     0.000 C 
ENDROOT
BRANCH   1   2
ATOM      2  C   UNL     1      35.458 -39.446   5.978  1.00  0.00     0.000 C 
BRANCH   2   3
ATOM      3  C   UNL     1      35.055 -38.787   7.314  1.00  0.00     0.000 C 
BRANCH   3   4
ATOM      4  C   UNL     1      33.533 -38.671   7.507  1.00  0.00     0.000 C 
BRANCH   4   5
ATOM      5  C   UNL     1      33.053 -37.214   7.614  1.00  0.00     0.006 C 
BRANCH   5   6
ATOM      6  C   UNL     1      33.841 -36.421   8.665  1.00  0.00     0.053 C 
BRANCH   6   7
ATOM      7  C   UNL     1      33.449 -36.798  10.061  1.00  0.00     0.041 C 
ATOM      8  O   UNL     1      34.333 -37.040  10.924  1.00  0.00    -0.550 OA
ATOM      9  O   UNL     1      32.106 -36.912  10.400  1.00  0.00    -0.550 OA
ENDBRANCH   6   7
ENDBRANCH   5   6
ENDBRANCH   4   5
ENDBRANCH   3   4
ENDBRANCH   2   3
ENDBRANCH   1   2
BRANCH   1  10
ATOM     10  C   UNL     1      36.097 -37.014   5.502  1.00  0.00     0.000 C 
BRANCH  10  11
ATOM     11  C   UNL     1      35.119 -36.230   4.611  1.00  0.00    -0.000 C 
BRANCH  11  12
ATOM     12  C   UNL     1      35.050 -36.802   3.178  1.00  0.00    -0.000 C 
BRANCH  12  13
ATOM     13  C   UNL     1      33.646 -37.295   2.775  1.00  0.00    -0.000 C 
BRANCH  13  14
ATOM     14  C   UNL     1      32.602 -37.270   3.905  1.00  0.00    -0.000 C 
BRANCH  14  15
ATOM     15  C   UNL     1      32.012 -38.657   4.198  1.00  0.00    -0.003 C 
ATOM     16  C   UNL     1      32.726 -39.738   3.389  1.00  0.00     0.004 C 
ENDBRANCH  14  15
ENDBRANCH  13  14
ENDBRANCH  12  13
ENDBRANCH  11  12
ENDBRANCH  10  11
ENDBRANCH   1  10
TORSDOF 12
ENDMDL
MODEL 9
REMARK VINA RESULT:    -2.735      5.376      8.006
REMARK INTER + INTRA:          -6.273
REMARK INTER:                  -4.704
REMARK INTRA:                  -1.569
REMARK UNBOUND:                -1.619
REMARK SMILES CCCCCCCCCCCCCC(=O)[O-]
REMARK SMILES IDX 8 1 9 2 10 3 11 4 12 5 13 6 14 7 15 8 16 9 7 10 6 11 5 12
REMARK SMILES IDX 4 13 3 14 2 15 1 16
REMARK H PARENT
REMARK Flexibility Score: inf
ROOT
ATOM      1  C   UNL     1      37.075 -39.430  -0.052  1.00  0.00     0.000 C 
ENDROOT
BRANCH   1   2
ATOM      2  C   UNL     1      38.360 -39.213   0.767  1.00  0.00     0.000 C 
BRANCH   2   3
ATOM      3  C   UNL     1      38.489 -37.760   1.271  1.00  0.00     0.000 C 
BRANCH   3   4
ATOM      4  C   UNL     1      37.354 -36.839   0.790  1.00  0.00     0.000 C 
BRANCH   4   5
ATOM      5  C   UNL     1      36.863 -35.876   1.883  1.00  0.00     0.006 C 
BRANCH   5   6
ATOM      6  C   UNL     1      35.581 -36.375   2.562  1.00  0.00     0.053 C 
BRANCH   6   7
ATOM      7  C   UNL     1      35.785 -36.625   4.025  1.00  0.00     0.041 C 
ATOM      8  O   UNL     1      35.109 -35.989   4.877  1.00  0.00    -0.550 OA
ATOM      9  O   UNL     1      36.742 -37.539   4.449  1.00  0.00    -0.550 OA
ENDBRANCH   6   7
ENDBRANCH   5   6
ENDBRANCH   4   5
ENDBRANCH   3   4
ENDBRANCH   2   3
ENDBRANCH   1   2
BRANCH   1  10
ATOM     10  C   UNL     1      37.356 -39.983  -1.458  1.00  0.00     0.000 C 
BRANCH  10  11
ATOM     11  C   UNL     1      37.242 -38.908  -2.552  1.00  0.00    -0.000 C 
BRANCH  11  12
ATOM     12  C   UNL     1      38.598 -38.230  -2.845  1.00  0.00    -0.000 C 
BRANCH  12  13
ATOM     13  C   UNL     1      38.523 -36.691  -2.902  1.00  0.00    -0.000 C 
BRANCH  13  14
ATOM     14  C   UNL     1      39.524 -35.960  -1.990  1.00  0.00    -0.000 C 
BRANCH  14  15
ATOM     15  C   UNL     1      40.825 -36.749  -1.786  1.00  0.00    -0.003 C 
ATOM     16  C   UNL     1      41.942 -36.200  -2.669  1.00  0.00     0.004 C 
ENDBRANCH  14  15
ENDBRANCH  13  14
ENDBRANCH  12  13
ENDBRANCH  11  12
ENDBRANCH  10  11
ENDBRANCH   1  10
TORSDOF 12
ENDMDL
