MODEL 1
REMARK VINA RESULT:    -4.532      0.000      0.000
REMARK INTER + INTRA:         -11.046
REMARK INTER:                  -8.507
REMARK INTRA:                  -2.539
REMARK UNBOUND:                -2.539
REMARK SMILES CCCCCCCCC=CCCCCCCCC(=O)[O-]
REMARK SMILES IDX 10 1 9 2 11 3 12 4 13 5 14 6 15 7 16 8 17 9 18 10 19 11
REMARK SMILES IDX 20 12 8 13 7 14 6 15 5 16 4 17 3 18 2 19 1 20
REMARK H PARENT
REMARK Flexibility Score: inf
ROOT
ATOM      1  C   UNL     1     -31.322  42.684  24.357  1.00  0.00    -0.031 C 
ATOM      2  C   UNL     1     -30.793  43.898  24.113  1.00  0.00    -0.031 C 
ENDROOT
BRANCH   1   3
ATOM      3  C   UNL     1     -30.540  41.483  24.830  1.00  0.00     0.027 C 
BRANCH   3   4
ATOM      4  C   UNL     1     -30.249  40.496  23.687  1.00  0.00     0.004 C 
BRANCH   4   5
ATOM      5  C   UNL     1     -31.259  40.559  22.525  1.00  0.00     0.000 C 
BRANCH   5   6
ATOM      6  C   UNL     1     -30.634  40.166  21.175  1.00  0.00     0.000 C 
BRANCH   6   7
ATOM      7  C   UNL     1     -29.393  41.006  20.823  1.00  0.00     0.000 C 
BRANCH   7   8
ATOM      8  C   UNL     1     -28.326  40.281  19.976  1.00  0.00     0.006 C 
BRANCH   8   9
ATOM      9  C   UNL     1     -27.366  39.393  20.783  1.00  0.00     0.053 C 
BRANCH   9  10
ATOM     10  C   UNL     1     -27.370  37.976  20.297  1.00  0.00     0.041 C 
ATOM     11  O   UNL     1     -26.983  37.706  19.131  1.00  0.00    -0.550 OA
ATOM     12  O   UNL     1     -27.772  36.950  21.143  1.00  0.00    -0.550 OA
ENDBRANCH   9  10
ENDBRANCH   8   9
ENDBRANCH   7   8
ENDBRANCH   6   7
ENDBRANCH   5   6
ENDBRANCH   4   5
ENDBRANCH   3   4
ENDBRANCH   1   3
BRANCH   2  13
ATOM     13  C   UNL     1     -29.320  44.222  24.180  1.00  0.00     0.027 C 
BRANCH  13  14
ATOM     14  C   UNL     1     -28.601  43.895  22.863  1.00  0.00     0.004 C 
BRANCH  14  15
ATOM     15  C   UNL     1     -27.154  43.424  23.099  1.00  0.00     0.000 C 
BRANCH  15  16
ATOM     16  C   UNL     1     -27.068  41.935  23.470  1.00  0.00     0.000 C 
BRANCH  16  17
ATOM     17  C   UNL     1     -25.694  41.549  24.046  1.00  0.00    -0.000 C 
BRANCH  17  18
ATOM     18  C   UNL     1     -25.686  41.490  25.584  1.00  0.00    -0.000 C 
BRANCH  18  19
ATOM     19  C   UNL     1     -27.018  41.869  26.256  1.00  0.00    -0.003 C 
ATOM     20  C   UNL     1     -27.487  40.836  27.280  1.00  0.00     0.004 C 
ENDBRANCH  18  19
ENDBRANCH  17  18
ENDBRANCH  16  17
ENDBRANCH  15  16
ENDBRANCH  14  15
ENDBRANCH  13  14
ENDBRANCH   2  13
TORSDOF 15
ENDMDL
MODEL 2
REMARK VINA RESULT:    -4.531      1.788      3.626
REMARK INTER + INTRA:         -11.044
REMARK INTER:                  -8.664
REMARK INTRA:                  -2.380
REMARK UNBOUND:                -2.539
REMARK SMILES CCCCCCCCC=CCCCCCCCC(=O)[O-]
REMARK SMILES IDX 10 1 9 2 11 3 12 4 13 5 14 6 15 7 16 8 17 9 18 10 19 11
REMARK SMILES IDX 20 12 8 13 7 14 6 15 5 16 4 17 3 18 2 19 1 20
REMARK H PARENT
REMARK Flexibility Score: inf
ROOT
ATOM      1  C   UNL     1     -29.435  39.512  22.381  1.00  0.00    -0.031 C 
ATOM      2  C   UNL     1     -28.103  39.327  22.443  1.00  0.00    -0.031 C 
ENDROOT
BRANCH   1   3
ATOM      3  C   UNL     1     -30.115  40.631  21.631  1.00  0.00     0.027 C 
BRANCH   3   4
ATOM      4  C   UNL     1     -31.222  40.114  20.696  1.00  0.00     0.004 C 
BRANCH   4   5
ATOM      5  C   UNL     1     -30.825  40.076  19.208  1.00  0.00     0.000 C 
BRANCH   5   6
ATOM      6  C   UNL     1     -29.500  40.808  18.930  1.00  0.00     0.000 C 
BRANCH   6   7
ATOM      7  C   UNL     1     -28.397  39.871  18.408  1.00  0.00     0.000 C 
BRANCH   7   8
ATOM      8  C   UNL     1     -28.586  38.378  18.748  1.00  0.00     0.006 C 
BRANCH   8   9
ATOM      9  C   UNL     1     -27.277  37.597  18.949  1.00  0.00     0.053 C 
BRANCH   9  10
ATOM     10  C   UNL     1     -27.037  36.612  17.847  1.00  0.00     0.041 C 
ATOM     11  O   UNL     1     -27.888  35.718  17.600  1.00  0.00    -0.550 OA
ATOM     12  O   UNL     1     -25.887  36.699  17.072  1.00  0.00    -0.550 OA
ENDBRANCH   9  10
ENDBRANCH   8   9
ENDBRANCH   7   8
ENDBRANCH   6   7
ENDBRANCH   5   6
ENDBRANCH   4   5
ENDBRANCH   3   4
ENDBRANCH   1   3
BRANCH   2  13
ATOM     13  C   UNL     1     -27.077  40.264  21.853  1.00  0.00     0.027 C 
BRANCH  13  14
ATOM     14  C   UNL     1     -25.832  40.385  22.744  1.00  0.00     0.004 C 
BRANCH  14  15
ATOM     15  C   UNL     1     -25.807  41.712  23.523  1.00  0.00     0.000 C 
BRANCH  15  16
ATOM     16  C   UNL     1     -26.538  41.621  24.872  1.00  0.00     0.000 C 
BRANCH  16  17
ATOM     17  C   UNL     1     -27.893  42.351  24.861  1.00  0.00    -0.000 C 
BRANCH  17  18
ATOM     18  C   UNL     1     -27.980  43.432  23.769  1.00  0.00    -0.000 C 
BRANCH  18  19
ATOM     19  C   UNL     1     -28.735  44.710  24.179  1.00  0.00    -0.003 C 
ATOM     20  C   UNL     1     -30.245  44.607  23.969  1.00  0.00     0.004 C 
ENDBRANCH  18  19
ENDBRANCH  17  18
ENDBRANCH  16  17
ENDBRANCH  15  16
ENDBRANCH  14  15
ENDBRANCH  13  14
ENDBRANCH   2  13
TORSDOF 15
ENDMDL
MODEL 3
REMARK VINA RESULT:    -4.528      2.037      4.292
REMARK INTER + INTRA:         -11.038
REMARK INTER:                  -8.630
REMARK INTRA:                  -2.408
REMARK UNBOUND:                -2.539
REMARK SMILES CCCCCCCCC=CCCCCCCCC(=O)[O-]
REMARK SMILES IDX 10 1 9 2 11 3 12 4 13 5 14 6 15 7 16 8 17 9 18 10 19 11
REMARK SMILES IDX 20 12 8 13 7 14 6 15 5 16 4 17 3 18 2 19 1 20
REMARK H PARENT
REMARK Flexibility Score: inf
ROOT
ATOM      1  C   UNL     1     -29.217  40.626  19.655  1.00  0.00    -0.031 C 
ATOM      2  C   UNL     1     -28.990  40.991  20.930  1.00  0.00    -0.031 C 
ENDROOT
BRANCH   1   3
ATOM      3  C   UNL     1     -29.912  39.355  19.233  1.00  0.00     0.027 C 
BRANCH   3   4
ATOM      4  C   UNL     1     -28.914  38.252  18.839  1.00  0.00     0.004 C 
BRANCH   4   5
ATOM      5  C   UNL     1     -28.607  37.247  19.967  1.00  0.00     0.000 C 
BRANCH   5   6
ATOM      6  C   UNL     1     -27.177  37.393  20.517  1.00  0.00     0.000 C 
BRANCH   6   7
ATOM      7  C   UNL     1     -26.390  38.531  19.843  1.00  0.00     0.000 C 
BRANCH   7   8
ATOM      8  C   UNL     1     -24.968  38.160  19.375  1.00  0.00     0.006 C 
BRANCH   8   9
ATOM      9  C   UNL     1     -24.691  38.436  17.889  1.00  0.00     0.053 C 
BRANCH   9  10
ATOM     10  C   UNL     1     -25.697  37.774  16.998  1.00  0.00     0.041 C 
ATOM     11  O   UNL     1     -26.274  38.433  16.096  1.00  0.00    -0.550 OA
ATOM     12  O   UNL     1     -25.975  36.420  17.146  1.00  0.00    -0.550 OA
ENDBRANCH   9  10
ENDBRANCH   8   9
ENDBRANCH   7   8
ENDBRANCH   6   7
ENDBRANCH   5   6
ENDBRANCH   4   5
ENDBRANCH   3   4
ENDBRANCH   1   3
BRANCH   2  13
ATOM     13  C   UNL     1     -29.308  40.141  22.136  1.00  0.00     0.027 C 
BRANCH  13  14
ATOM     14  C   UNL     1     -28.178  40.175  23.176  1.00  0.00     0.004 C 
BRANCH  14  15
ATOM     15  C   UNL     1     -26.916  40.867  22.632  1.00  0.00     0.000 C 
BRANCH  15  16
ATOM     16  C   UNL     1     -26.487  42.072  23.483  1.00  0.00     0.000 C 
BRANCH  16  17
ATOM     17  C   UNL     1     -27.393  43.298  23.270  1.00  0.00    -0.000 C 
BRANCH  17  18
ATOM     18  C   UNL     1     -28.415  43.491  24.405  1.00  0.00    -0.000 C 
BRANCH  18  19
ATOM     19  C   UNL     1     -29.890  43.390  23.976  1.00  0.00    -0.003 C 
ATOM     20  C   UNL     1     -30.641  44.716  24.096  1.00  0.00     0.004 C 
ENDBRANCH  18  19
ENDBRANCH  17  18
ENDBRANCH  16  17
ENDBRANCH  15  16
ENDBRANCH  14  15
ENDBRANCH  13  14
ENDBRANCH   2  13
TORSDOF 15
ENDMDL
MODEL 4
REMARK VINA RESULT:    -4.494      1.962      4.356
REMARK INTER + INTRA:         -10.973
REMARK INTER:                  -8.383
REMARK INTRA:                  -2.590
REMARK UNBOUND:                -2.539
REMARK SMILES CCCCCCCCC=CCCCCCCCC(=O)[O-]
REMARK SMILES IDX 10 1 9 2 11 3 12 4 13 5 14 6 15 7 16 8 17 9 18 10 19 11
REMARK SMILES IDX 20 12 8 13 7 14 6 15 5 16 4 17 3 18 2 19 1 20
REMARK H PARENT
REMARK Flexibility Score: inf
ROOT
ATOM      1  C   UNL     1     -27.922  40.094  20.180  1.00  0.00    -0.031 C 
ATOM      2  C   UNL     1     -26.887  39.586  20.875  1.00  0.00    -0.031 C 
ENDROOT
BRANCH   1   3
ATOM      3  C   UNL     1     -29.061  40.879  20.783  1.00  0.00     0.027 C 
BRANCH   3   4
ATOM      4  C   UNL     1     -30.425  40.219  20.517  1.00  0.00     0.004 C 
BRANCH   4   5
ATOM      5  C   UNL     1     -31.335  40.127  21.757  1.00  0.00     0.000 C 
BRANCH   5   6
ATOM      6  C   UNL     1     -30.720  40.805  22.994  1.00  0.00     0.000 C 
BRANCH   6   7
ATOM      7  C   UNL     1     -30.196  39.795  24.031  1.00  0.00     0.000 C 
BRANCH   7   8
ATOM      8  C   UNL     1     -30.026  38.351  23.514  1.00  0.00     0.006 C 
BRANCH   8   9
ATOM      9  C   UNL     1     -30.186  37.265  24.590  1.00  0.00     0.053 C 
BRANCH   9  10
ATOM     10  C   UNL     1     -29.004  36.346  24.640  1.00  0.00     0.041 C 
ATOM     11  O   UNL     1     -28.225  36.262  23.655  1.00  0.00    -0.550 OA
ATOM     12  O   UNL     1     -28.744  35.605  25.786  1.00  0.00    -0.550 OA
ENDBRANCH   9  10
ENDBRANCH   8   9
ENDBRANCH   7   8
ENDBRANCH   6   7
ENDBRANCH   5   6
ENDBRANCH   4   5
ENDBRANCH   3   4
ENDBRANCH   1   3
BRANCH   2  13
ATOM     13  C   UNL     1     -26.752  39.638  22.378  1.00  0.00     0.027 C 
BRANCH  13  14
ATOM     14  C   UNL     1     -25.725  40.688  22.825  1.00  0.00     0.004 C 
BRANCH  14  15
ATOM     15  C   UNL     1     -26.048  41.253  24.220  1.00  0.00     0.000 C 
BRANCH  15  16
ATOM     16  C   UNL     1     -27.316  42.122  24.228  1.00  0.00     0.000 C 
BRANCH  16  17
ATOM     17  C   UNL     1     -27.331  43.155  23.087  1.00  0.00    -0.000 C 
BRANCH  17  18
ATOM     18  C   UNL     1     -28.652  43.940  23.007  1.00  0.00    -0.000 C 
BRANCH  18  19
ATOM     19  C   UNL     1     -29.472  43.967  24.310  1.00  0.00    -0.003 C 
ATOM     20  C   UNL     1     -30.798  44.711  24.169  1.00  0.00     0.004 C 
ENDBRANCH  18  19
ENDBRANCH  17  18
ENDBRANCH  16  17
ENDBRANCH  15  16
ENDBRANCH  14  15
ENDBRANCH  13  14
ENDBRANCH   2  13
TORSDOF 15
ENDMDL
MODEL 5
REMARK VINA RESULT:    -4.473      1.587      3.382
REMARK INTER + INTRA:         -10.933
REMARK INTER:                  -8.426
REMARK INTRA:                  -2.508
REMARK UNBOUND:                -2.539
REMARK SMILES CCCCCCCCC=CCCCCCCCC(=O)[O-]
REMARK SMILES IDX 10 1 9 2 11 3 12 4 13 5 14 6 15 7 16 8 17 9 18 10 19 11
REMARK SMILES IDX 20 12 8 13 7 14 6 15 5 16 4 17 3 18 2 19 1 20
REMARK H PARENT
REMARK Flexibility Score: inf
ROOT
ATOM      1  C   UNL     1     -27.324  42.407  22.358  1.00  0.00    -0.031 C 
ATOM      2  C   UNL     1     -27.562  43.535  23.052  1.00  0.00    -0.031 C 
ENDROOT
BRANCH   1   3
ATOM      3  C   UNL     1     -28.333  41.706  21.481  1.00  0.00     0.027 C 
BRANCH   3   4
ATOM      4  C   UNL     1     -27.871  40.295  21.080  1.00  0.00     0.004 C 
BRANCH   4   5
ATOM      5  C   UNL     1     -26.685  39.760  21.906  1.00  0.00     0.000 C 
BRANCH   5   6
ATOM      6  C   UNL     1     -26.151  38.418  21.376  1.00  0.00     0.000 C 
BRANCH   6   7
ATOM      7  C   UNL     1     -25.038  38.589  20.327  1.00  0.00     0.000 C 
BRANCH   7   8
ATOM      8  C   UNL     1     -25.305  37.912  18.967  1.00  0.00     0.006 C 
BRANCH   8   9
ATOM      9  C   UNL     1     -26.460  38.529  18.162  1.00  0.00     0.053 C 
BRANCH   9  10
ATOM     10  C   UNL     1     -27.646  37.618  18.093  1.00  0.00     0.041 C 
ATOM     11  O   UNL     1     -27.521  36.447  17.649  1.00  0.00    -0.550 OA
ATOM     12  O   UNL     1     -28.885  38.051  18.549  1.00  0.00    -0.550 OA
ENDBRANCH   9  10
ENDBRANCH   8   9
ENDBRANCH   7   8
ENDBRANCH   6   7
ENDBRANCH   5   6
ENDBRANCH   4   5
ENDBRANCH   3   4
ENDBRANCH   1   3
BRANCH   2  13
ATOM     13  C   UNL     1     -28.901  44.225  23.138  1.00  0.00     0.027 C 
BRANCH  13  14
ATOM     14  C   UNL     1     -29.652  43.860  24.427  1.00  0.00     0.004 C 
BRANCH  14  15
ATOM     15  C   UNL     1     -30.699  42.757  24.191  1.00  0.00     0.000 C 
BRANCH  15  16
ATOM     16  C   UNL     1     -30.203  41.366  24.618  1.00  0.00     0.000 C 
BRANCH  16  17
ATOM     17  C   UNL     1     -29.010  41.438  25.589  1.00  0.00    -0.000 C 
BRANCH  17  18
ATOM     18  C   UNL     1     -27.986  40.312  25.363  1.00  0.00    -0.000 C 
BRANCH  18  19
ATOM     19  C   UNL     1     -26.514  40.729  25.531  1.00  0.00    -0.003 C 
ATOM     20  C   UNL     1     -26.327  41.889  26.508  1.00  0.00     0.004 C 
ENDBRANCH  18  19
ENDBRANCH  17  18
ENDBRANCH  16  17
ENDBRANCH  15  16
ENDBRANCH  14  15
ENDBRANCH  13  14
ENDBRANCH   2  13
TORSDOF 15
ENDMDL
MODEL 6
REMARK VINA RESULT:    -4.465      3.243      5.493
REMARK INTER + INTRA:         -10.920
REMARK INTER:                  -8.481
REMARK INTRA:                  -2.438
REMARK UNBOUND:                -2.539
REMARK SMILES CCCCCCCCC=CCCCCCCCC(=O)[O-]
REMARK SMILES IDX 10 1 9 2 11 3 12 4 13 5 14 6 15 7 16 8 17 9 18 10 19 11
REMARK SMILES IDX 20 12 8 13 7 14 6 15 5 16 4 17 3 18 2 19 1 20
REMARK H PARENT
REMARK Flexibility Score: inf
ROOT
ATOM      1  C   UNL     1     -26.497  37.672  19.450  1.00  0.00    -0.031 C 
ATOM      2  C   UNL     1     -25.632  38.491  20.078  1.00  0.00    -0.031 C 
ENDROOT
BRANCH   1   3
ATOM      3  C   UNL     1     -27.642  36.953  20.119  1.00  0.00     0.027 C 
BRANCH   3   4
ATOM      4  C   UNL     1     -28.988  37.241  19.431  1.00  0.00     0.004 C 
BRANCH   4   5
ATOM      5  C   UNL     1     -29.674  38.537  19.905  1.00  0.00     0.000 C 
BRANCH   5   6
ATOM      6  C   UNL     1     -30.036  39.476  18.740  1.00  0.00     0.000 C 
BRANCH   6   7
ATOM      7  C   UNL     1     -28.818  40.235  18.184  1.00  0.00     0.000 C 
BRANCH   7   8
ATOM      8  C   UNL     1     -28.375  39.819  16.766  1.00  0.00     0.006 C 
BRANCH   8   9
ATOM      9  C   UNL     1     -28.559  40.907  15.694  1.00  0.00     0.053 C 
BRANCH   9  10
ATOM     10  C   UNL     1     -29.966  41.419  15.651  1.00  0.00     0.041 C 
ATOM     11  O   UNL     1     -30.211  42.622  15.926  1.00  0.00    -0.550 OA
ATOM     12  O   UNL     1     -31.004  40.574  15.276  1.00  0.00    -0.550 OA
ENDBRANCH   9  10
ENDBRANCH   8   9
ENDBRANCH   7   8
ENDBRANCH   6   7
ENDBRANCH   5   6
ENDBRANCH   4   5
ENDBRANCH   3   4
ENDBRANCH   1   3
BRANCH   2  13
ATOM     13  C   UNL     1     -25.613  38.743  21.566  1.00  0.00     0.027 C 
BRANCH  13  14
ATOM     14  C   UNL     1     -26.328  40.051  21.936  1.00  0.00     0.004 C 
BRANCH  14  15
ATOM     15  C   UNL     1     -27.594  39.798  22.774  1.00  0.00     0.000 C 
BRANCH  15  16
ATOM     16  C   UNL     1     -28.692  40.844  22.520  1.00  0.00     0.000 C 
BRANCH  16  17
ATOM     17  C   UNL     1     -28.342  41.799  21.365  1.00  0.00    -0.000 C 
BRANCH  17  18
ATOM     18  C   UNL     1     -28.278  43.272  21.805  1.00  0.00    -0.000 C 
BRANCH  18  19
ATOM     19  C   UNL     1     -27.658  43.509  23.195  1.00  0.00    -0.003 C 
ATOM     20  C   UNL     1     -28.381  44.590  23.997  1.00  0.00     0.004 C 
ENDBRANCH  18  19
ENDBRANCH  17  18
ENDBRANCH  16  17
ENDBRANCH  15  16
ENDBRANCH  14  15
ENDBRANCH  13  14
ENDBRANCH   2  13
TORSDOF 15
ENDMDL
MODEL 7
REMARK VINA RESULT:    -4.431      8.099     10.404
REMARK INTER + INTRA:         -10.856
REMARK INTER:                  -8.417
REMARK INTRA:                  -2.439
REMARK UNBOUND:                -2.539
REMARK SMILES CCCCCCCCC=CCCCCCCCC(=O)[O-]
REMARK SMILES IDX 10 1 9 2 11 3 12 4 13 5 14 6 15 7 16 8 17 9 18 10 19 11
REMARK SMILES IDX 20 12 8 13 7 14 6 15 5 16 4 17 3 18 2 19 1 20
REMARK H PARENT
REMARK Flexibility Score: inf
ROOT
ATOM      1  C   UNL     1     -34.388  40.305  28.763  1.00  0.00    -0.031 C 
ATOM      2  C   UNL     1     -34.307  39.300  29.655  1.00  0.00    -0.031 C 
ENDROOT
BRANCH   1   3
ATOM      3  C   UNL     1     -34.341  40.133  27.264  1.00  0.00     0.027 C 
BRANCH   3   4
ATOM      4  C   UNL     1     -35.745  39.975  26.655  1.00  0.00     0.004 C 
BRANCH   4   5
ATOM      5  C   UNL     1     -36.877  40.564  27.518  1.00  0.00     0.000 C 
BRANCH   5   6
ATOM      6  C   UNL     1     -37.979  39.536  27.831  1.00  0.00     0.000 C 
BRANCH   6   7
ATOM      7  C   UNL     1     -38.105  38.447  26.751  1.00  0.00     0.000 C 
BRANCH   7   8
ATOM      8  C   UNL     1     -39.518  38.268  26.158  1.00  0.00     0.006 C 
BRANCH   8   9
ATOM      9  C   UNL     1     -39.920  39.340  25.132  1.00  0.00     0.053 C 
BRANCH   9  10
ATOM     10  C   UNL     1     -39.475  38.985  23.747  1.00  0.00     0.041 C 
ATOM     11  O   UNL     1     -38.728  39.766  23.102  1.00  0.00    -0.550 OA
ATOM     12  O   UNL     1     -39.860  37.777  23.178  1.00  0.00    -0.550 OA
ENDBRANCH   9  10
ENDBRANCH   8   9
ENDBRANCH   7   8
ENDBRANCH   6   7
ENDBRANCH   5   6
ENDBRANCH   4   5
ENDBRANCH   3   4
ENDBRANCH   1   3
BRANCH   2  13
ATOM     13  C   UNL     1     -34.060  37.854  29.299  1.00  0.00     0.027 C 
BRANCH  13  14
ATOM     14  C   UNL     1     -35.370  37.094  29.045  1.00  0.00     0.004 C 
BRANCH  14  15
ATOM     15  C   UNL     1     -35.383  36.415  27.664  1.00  0.00     0.000 C 
BRANCH  15  16
ATOM     16  C   UNL     1     -34.069  36.616  26.893  1.00  0.00     0.000 C 
BRANCH  16  17
ATOM     17  C   UNL     1     -34.271  36.595  25.367  1.00  0.00    -0.000 C 
BRANCH  17  18
ATOM     18  C   UNL     1     -35.525  35.812  24.940  1.00  0.00    -0.000 C 
BRANCH  18  19
ATOM     19  C   UNL     1     -35.276  34.339  24.565  1.00  0.00    -0.003 C 
ATOM     20  C   UNL     1     -34.846  34.157  23.110  1.00  0.00     0.004 C 
ENDBRANCH  18  19
ENDBRANCH  17  18
ENDBRANCH  16  17
ENDBRANCH  15  16
ENDBRANCH  14  15
ENDBRANCH  13  14
ENDBRANCH   2  13
TORSDOF 15
ENDMDL
MODEL 8
REMARK VINA RESULT:    -4.410      3.182      6.843
REMARK INTER + INTRA:         -10.816
REMARK INTER:                  -8.331
REMARK INTRA:                  -2.485
REMARK UNBOUND:                -2.539
REMARK SMILES CCCCCCCCC=CCCCCCCCC(=O)[O-]
REMARK SMILES IDX 10 1 9 2 11 3 12 4 13 5 14 6 15 7 16 8 17 9 18 10 19 11
REMARK SMILES IDX 20 12 8 13 7 14 6 15 5 16 4 17 3 18 2 19 1 20
REMARK H PARENT
REMARK Flexibility Score: inf
ROOT
ATOM      1  C   UNL     1     -29.099  39.259  18.480  1.00  0.00    -0.031 C 
ATOM      2  C   UNL     1     -29.106  38.034  19.038  1.00  0.00    -0.031 C 
ENDROOT
BRANCH   1   3
ATOM      3  C   UNL     1     -29.515  40.527  19.184  1.00  0.00     0.027 C 
BRANCH   3   4
ATOM      4  C   UNL     1     -28.411  41.064  20.112  1.00  0.00     0.004 C 
BRANCH   4   5
ATOM      5  C   UNL     1     -28.892  41.398  21.538  1.00  0.00     0.000 C 
BRANCH   5   6
ATOM      6  C   UNL     1     -27.889  40.961  22.619  1.00  0.00     0.000 C 
BRANCH   6   7
ATOM      7  C   UNL     1     -27.017  42.122  23.131  1.00  0.00     0.000 C 
BRANCH   7   8
ATOM      8  C   UNL     1     -27.699  43.506  23.132  1.00  0.00     0.006 C 
BRANCH   8   9
ATOM      9  C   UNL     1     -28.424  43.860  24.441  1.00  0.00     0.053 C 
BRANCH   9  10
ATOM     10  C   UNL     1     -29.912  43.866  24.275  1.00  0.00     0.041 C 
ATOM     11  O   UNL     1     -30.530  44.954  24.148  1.00  0.00    -0.550 OA
ATOM     12  O   UNL     1     -30.613  42.667  24.228  1.00  0.00    -0.550 OA
ENDBRANCH   9  10
ENDBRANCH   8   9
ENDBRANCH   7   8
ENDBRANCH   6   7
ENDBRANCH   5   6
ENDBRANCH   4   5
ENDBRANCH   3   4
ENDBRANCH   1   3
BRANCH   2  13
ATOM     13  C   UNL     1     -29.622  37.721  20.421  1.00  0.00     0.027 C 
BRANCH  13  14
ATOM     14  C   UNL     1     -28.481  37.431  21.407  1.00  0.00     0.004 C 
BRANCH  14  15
ATOM     15  C   UNL     1     -27.160  37.117  20.682  1.00  0.00     0.000 C 
BRANCH  15  16
ATOM     16  C   UNL     1     -26.081  38.184  20.925  1.00  0.00     0.000 C 
BRANCH  16  17
ATOM     17  C   UNL     1     -25.358  38.599  19.632  1.00  0.00    -0.000 C 
BRANCH  17  18
ATOM     18  C   UNL     1     -25.273  37.458  18.602  1.00  0.00    -0.000 C 
BRANCH  18  19
ATOM     19  C   UNL     1     -25.025  37.909  17.151  1.00  0.00    -0.003 C 
ATOM     20  C   UNL     1     -26.309  38.284  16.412  1.00  0.00     0.004 C 
ENDBRANCH  18  19
ENDBRANCH  17  18
ENDBRANCH  16  17
ENDBRANCH  15  16
ENDBRANCH  14  15
ENDBRANCH  13  14
ENDBRANCH   2  13
TORSDOF 15
ENDMDL
MODEL 9
REMARK VINA RESULT:    -4.402      2.193      4.354
REMARK INTER + INTRA:         -10.802
REMARK INTER:                  -7.873
REMARK INTRA:                  -2.928
REMARK UNBOUND:                -2.539
REMARK SMILES CCCCCCCCC=CCCCCCCCC(=O)[O-]
REMARK SMILES IDX 10 1 9 2 11 3 12 4 13 5 14 6 15 7 16 8 17 9 18 10 19 11
REMARK SMILES IDX 20 12 8 13 7 14 6 15 5 16 4 17 3 18 2 19 1 20
REMARK H PARENT
REMARK Flexibility Score: inf
ROOT
ATOM      1  C   UNL     1     -30.471  40.024  20.431  1.00  0.00    -0.031 C 
ATOM      2  C   UNL     1     -31.132  40.041  21.604  1.00  0.00    -0.031 C 
ENDROOT
BRANCH   1   3
ATOM      3  C   UNL     1     -29.248  40.852  20.120  1.00  0.00     0.027 C 
BRANCH   3   4
ATOM      4  C   UNL     1     -28.012  39.979  19.843  1.00  0.00     0.004 C 
BRANCH   4   5
ATOM      5  C   UNL     1     -27.086  39.792  21.060  1.00  0.00     0.000 C 
BRANCH   5   6
ATOM      6  C   UNL     1     -26.711  38.319  21.298  1.00  0.00     0.000 C 
BRANCH   6   7
ATOM      7  C   UNL     1     -27.861  37.348  20.974  1.00  0.00     0.000 C 
BRANCH   7   8
ATOM      8  C   UNL     1     -28.867  37.114  22.120  1.00  0.00     0.006 C 
BRANCH   8   9
ATOM      9  C   UNL     1     -28.267  36.453  23.372  1.00  0.00     0.053 C 
BRANCH   9  10
ATOM     10  C   UNL     1     -29.128  36.655  24.580  1.00  0.00     0.041 C 
ATOM     11  O   UNL     1     -30.371  36.475  24.510  1.00  0.00    -0.550 OA
ATOM     12  O   UNL     1     -28.553  37.013  25.794  1.00  0.00    -0.550 OA
ENDBRANCH   9  10
ENDBRANCH   8   9
ENDBRANCH   7   8
ENDBRANCH   6   7
ENDBRANCH   5   6
ENDBRANCH   4   5
ENDBRANCH   3   4
ENDBRANCH   1   3
BRANCH   2  13
ATOM     13  C   UNL     1     -30.812  40.961  22.757  1.00  0.00     0.027 C 
BRANCH  13  14
ATOM     14  C   UNL     1     -30.259  40.193  23.967  1.00  0.00     0.004 C 
BRANCH  14  15
ATOM     15  C   UNL     1     -28.724  40.281  24.052  1.00  0.00     0.000 C 
BRANCH  15  16
ATOM     16  C   UNL     1     -28.241  41.586  24.705  1.00  0.00     0.000 C 
BRANCH  16  17
ATOM     17  C   UNL     1     -27.332  42.410  23.776  1.00  0.00    -0.000 C 
BRANCH  17  18
ATOM     18  C   UNL     1     -28.089  43.523  23.032  1.00  0.00    -0.000 C 
BRANCH  18  19
ATOM     19  C   UNL     1     -28.692  44.615  23.934  1.00  0.00    -0.003 C 
ATOM     20  C   UNL     1     -30.220  44.596  23.959  1.00  0.00     0.004 C 
ENDBRANCH  18  19
ENDBRANCH  17  18
ENDBRANCH  16  17
ENDBRANCH  15  16
ENDBRANCH  14  15
ENDBRANCH  13  14
ENDBRANCH   2  13
TORSDOF 15
ENDMDL
