MODEL 1
REMARK VINA RESULT:    -4.838      0.000      0.000
REMARK INTER + INTRA:          -5.976
REMARK INTER:                  -5.687
REMARK INTRA:                  -0.289
REMARK UNBOUND:                -0.289
REMARK SMILES O=c1c(O)c(-c2ccc(O)cc2)oc2cc(O)cc(O)c12
REMARK SMILES IDX 5 1 3 2 2 3 1 4 21 5 19 6 18 7 16 8 15 9 14 10 13 11 6 12
REMARK SMILES IDX 7 13 8 14 9 15 12 16 11 17 10 18 4 20 20 22 17 24
REMARK H PARENT 10 19 4 21 20 23 17 25
REMARK Flexibility Score: inf
ROOT
ATOM      1  C   UNL     1      29.993  28.264  11.105  1.00  0.00     0.180 A 
ATOM      2  C   UNL     1      30.239  28.928   9.890  1.00  0.00     0.208 A 
ATOM      3  C   UNL     1      31.564  29.086   9.457  1.00  0.00     0.238 A 
ATOM      4  O   UNL     1      31.772  29.616   8.333  1.00  0.00    -0.285 OA
ATOM      5  C   UNL     1      32.632  28.630  10.267  1.00  0.00     0.111 A 
ATOM      6  C   UNL     1      34.016  28.778   9.949  1.00  0.00     0.134 A 
ATOM      7  C   UNL     1      34.981  28.191  10.775  1.00  0.00     0.093 A 
ATOM      8  C   UNL     1      34.617  27.518  11.944  1.00  0.00     0.123 A 
ATOM      9  C   UNL     1      33.273  27.416  12.292  1.00  0.00     0.094 A 
ATOM     10  C   UNL     1      32.283  27.957  11.468  1.00  0.00     0.146 A 
ATOM     11  O   UNL     1      31.014  27.817  11.828  1.00  0.00    -0.452 OA
ENDROOT
BRANCH   1  12
ATOM     12  C   UNL     1      28.624  28.045  11.622  1.00  0.00     0.021 A 
ATOM     13  C   UNL     1      27.986  29.001  12.435  1.00  0.00     0.016 A 
ATOM     14  C   UNL     1      26.682  28.782  12.893  1.00  0.00     0.047 A 
ATOM     15  C   UNL     1      25.996  27.616  12.532  1.00  0.00     0.115 A 
ATOM     16  C   UNL     1      27.920  26.888  11.249  1.00  0.00     0.016 A 
ATOM     17  C   UNL     1      26.617  26.672  11.708  1.00  0.00     0.047 A 
BRANCH  15  18
ATOM     18  O   UNL     1      24.698  27.387  12.982  1.00  0.00    -0.508 OA
ATOM     19  H   UNL     1      24.306  26.453  13.015  1.00  0.00     0.293 HD
ENDBRANCH  15  18
ENDBRANCH   1  12
BRANCH   2  20
ATOM     20  O   UNL     1      29.175  29.439   9.142  1.00  0.00    -0.502 OA
ATOM     21  H   UNL     1      29.105  30.420   8.897  1.00  0.00     0.293 HD
ENDBRANCH   2  20
BRANCH   6  22
ATOM     22  O   UNL     1      34.494  29.506   8.854  1.00  0.00    -0.507 OA
ATOM     23  H   UNL     1      35.447  29.811   8.737  1.00  0.00     0.293 HD
ENDBRANCH   6  22
BRANCH   8  24
ATOM     24  O   UNL     1      35.586  26.952  12.770  1.00  0.00    -0.508 OA
ATOM     25  H   UNL     1      36.566  26.945  12.510  1.00  0.00     0.293 HD
ENDBRANCH   8  24
TORSDOF 5
ENDMDL
MODEL 2
REMARK VINA RESULT:    -4.736      2.064      6.791
REMARK INTER + INTRA:          -5.856
REMARK INTER:                  -5.582
REMARK INTRA:                  -0.274
REMARK UNBOUND:                -0.289
REMARK SMILES O=c1c(O)c(-c2ccc(O)cc2)oc2cc(O)cc(O)c12
REMARK SMILES IDX 5 1 3 2 2 3 1 4 21 5 19 6 18 7 16 8 15 9 14 10 13 11 6 12
REMARK SMILES IDX 7 13 8 14 9 15 12 16 11 17 10 18 4 20 20 22 17 24
REMARK H PARENT 10 19 4 21 20 23 17 25
REMARK Flexibility Score: inf
ROOT
ATOM      1  C   UNL     1      30.049  27.517  11.965  1.00  0.00     0.180 A 
ATOM      2  C   UNL     1      29.080  28.421  11.498  1.00  0.00     0.208 A 
ATOM      3  C   UNL     1      27.755  28.289  11.943  1.00  0.00     0.238 A 
ATOM      4  O   UNL     1      26.908  29.147  11.579  1.00  0.00    -0.285 OA
ATOM      5  C   UNL     1      27.402  27.222  12.804  1.00  0.00     0.111 A 
ATOM      6  C   UNL     1      26.081  26.964  13.281  1.00  0.00     0.134 A 
ATOM      7  C   UNL     1      25.871  25.942  14.214  1.00  0.00     0.093 A 
ATOM      8  C   UNL     1      26.922  25.125  14.637  1.00  0.00     0.123 A 
ATOM      9  C   UNL     1      28.205  25.333  14.136  1.00  0.00     0.094 A 
ATOM     10  C   UNL     1      28.454  26.369  13.233  1.00  0.00     0.146 A 
ATOM     11  O   UNL     1      29.695  26.545  12.798  1.00  0.00    -0.452 OA
ENDROOT
BRANCH   1  12
ATOM     12  C   UNL     1      31.469  27.599  11.553  1.00  0.00     0.021 A 
ATOM     13  C   UNL     1      31.909  27.066  10.328  1.00  0.00     0.016 A 
ATOM     14  C   UNL     1      33.251  27.177   9.951  1.00  0.00     0.047 A 
ATOM     15  C   UNL     1      34.165  27.834  10.784  1.00  0.00     0.115 A 
ATOM     16  C   UNL     1      32.388  28.274  12.373  1.00  0.00     0.016 A 
ATOM     17  C   UNL     1      33.729  28.383  11.994  1.00  0.00     0.047 A 
BRANCH  15  18
ATOM     18  O   UNL     1      35.504  27.950  10.419  1.00  0.00    -0.508 OA
ATOM     19  H   UNL     1      35.791  27.937   9.447  1.00  0.00     0.293 HD
ENDBRANCH  15  18
ENDBRANCH   1  12
BRANCH   2  20
ATOM     20  O   UNL     1      29.433  29.422  10.588  1.00  0.00    -0.502 OA
ATOM     21  H   UNL     1      29.125  30.382  10.690  1.00  0.00     0.293 HD
ENDBRANCH   2  20
BRANCH   6  22
ATOM     22  O   UNL     1      24.945  27.661  12.856  1.00  0.00    -0.507 OA
ATOM     23  H   UNL     1      24.726  28.613  13.105  1.00  0.00     0.293 HD
ENDBRANCH   6  22
BRANCH   8  24
ATOM     24  O   UNL     1      26.700  24.099  15.553  1.00  0.00    -0.508 OA
ATOM     25  H   UNL     1      26.675  23.127  15.264  1.00  0.00     0.293 HD
ENDBRANCH   8  24
TORSDOF 5
ENDMDL
MODEL 3
REMARK VINA RESULT:    -4.664      2.848      7.661
REMARK INTER + INTRA:          -5.771
REMARK INTER:                  -5.472
REMARK INTRA:                  -0.299
REMARK UNBOUND:                -0.289
REMARK SMILES O=c1c(O)c(-c2ccc(O)cc2)oc2cc(O)cc(O)c12
REMARK SMILES IDX 5 1 3 2 2 3 1 4 21 5 19 6 18 7 16 8 15 9 14 10 13 11 6 12
REMARK SMILES IDX 7 13 8 14 9 15 12 16 11 17 10 18 4 20 20 22 17 24
REMARK H PARENT 10 19 4 21 20 23 17 25
REMARK Flexibility Score: inf
ROOT
ATOM      1  C   UNL     1      30.835  26.167  13.075  1.00  0.00     0.180 A 
ATOM      2  C   UNL     1      30.800  25.223  14.115  1.00  0.00     0.208 A 
ATOM      3  C   UNL     1      29.569  24.922  14.720  1.00  0.00     0.238 A 
ATOM      4  O   UNL     1      29.533  24.022  15.600  1.00  0.00    -0.285 OA
ATOM      5  C   UNL     1      28.398  25.608  14.317  1.00  0.00     0.111 A 
ATOM      6  C   UNL     1      27.105  25.417  14.892  1.00  0.00     0.134 A 
ATOM      7  C   UNL     1      25.999  26.075  14.339  1.00  0.00     0.093 A 
ATOM      8  C   UNL     1      26.149  26.967  13.275  1.00  0.00     0.123 A 
ATOM      9  C   UNL     1      27.415  27.203  12.743  1.00  0.00     0.094 A 
ATOM     10  C   UNL     1      28.531  26.533  13.247  1.00  0.00     0.146 A 
ATOM     11  O   UNL     1      29.715  26.771  12.696  1.00  0.00    -0.452 OA
ENDROOT
BRANCH   1  12
ATOM     12  C   UNL     1      32.091  26.527  12.378  1.00  0.00     0.021 A 
ATOM     13  C   UNL     1      32.546  25.799  11.263  1.00  0.00     0.016 A 
ATOM     14  C   UNL     1      33.723  26.173  10.607  1.00  0.00     0.047 A 
ATOM     15  C   UNL     1      34.451  27.286  11.046  1.00  0.00     0.115 A 
ATOM     16  C   UNL     1      32.817  27.654  12.798  1.00  0.00     0.016 A 
ATOM     17  C   UNL     1      33.993  28.026  12.141  1.00  0.00     0.047 A 
BRANCH  15  18
ATOM     18  O   UNL     1      35.625  27.667  10.401  1.00  0.00    -0.508 OA
ATOM     19  H   UNL     1      36.512  27.696  10.890  1.00  0.00     0.293 HD
ENDBRANCH  15  18
ENDBRANCH   1  12
BRANCH   2  20
ATOM     20  O   UNL     1      31.979  24.612  14.551  1.00  0.00    -0.502 OA
ATOM     21  H   UNL     1      31.979  23.783  15.133  1.00  0.00     0.293 HD
ENDBRANCH   2  20
BRANCH   6  22
ATOM     22  O   UNL     1      26.856  24.618  16.012  1.00  0.00    -0.507 OA
ATOM     23  H   UNL     1      26.002  24.110  16.181  1.00  0.00     0.293 HD
ENDBRANCH   6  22
BRANCH   8  24
ATOM     24  O   UNL     1      25.046  27.631  12.743  1.00  0.00    -0.508 OA
ATOM     25  H   UNL     1      24.151  27.639  13.220  1.00  0.00     0.293 HD
ENDBRANCH   8  24
TORSDOF 5
ENDMDL
MODEL 4
REMARK VINA RESULT:    -4.596      2.807      7.565
REMARK INTER + INTRA:          -5.691
REMARK INTER:                  -5.403
REMARK INTRA:                  -0.288
REMARK UNBOUND:                -0.289
REMARK SMILES O=c1c(O)c(-c2ccc(O)cc2)oc2cc(O)cc(O)c12
REMARK SMILES IDX 5 1 3 2 2 3 1 4 21 5 19 6 18 7 16 8 15 9 14 10 13 11 6 12
REMARK SMILES IDX 7 13 8 14 9 15 12 16 11 17 10 18 4 20 20 22 17 24
REMARK H PARENT 10 19 4 21 20 23 17 25
REMARK Flexibility Score: inf
ROOT
ATOM      1  C   UNL     1      30.812  26.249  13.003  1.00  0.00     0.180 A 
ATOM      2  C   UNL     1      30.799  25.283  14.023  1.00  0.00     0.208 A 
ATOM      3  C   UNL     1      29.578  24.948  14.629  1.00  0.00     0.238 A 
ATOM      4  O   UNL     1      29.563  24.030  15.490  1.00  0.00    -0.285 OA
ATOM      5  C   UNL     1      28.392  25.622  14.247  1.00  0.00     0.111 A 
ATOM      6  C   UNL     1      27.106  25.396  14.825  1.00  0.00     0.134 A 
ATOM      7  C   UNL     1      25.986  26.045  14.293  1.00  0.00     0.093 A 
ATOM      8  C   UNL     1      26.114  26.961  13.247  1.00  0.00     0.123 A 
ATOM      9  C   UNL     1      27.371  27.230  12.713  1.00  0.00     0.094 A 
ATOM     10  C   UNL     1      28.503  26.570  13.196  1.00  0.00     0.146 A 
ATOM     11  O   UNL     1      29.678  26.841  12.643  1.00  0.00    -0.452 OA
ENDROOT
BRANCH   1  12
ATOM     12  C   UNL     1      32.057  26.646  12.306  1.00  0.00     0.021 A 
ATOM     13  C   UNL     1      32.852  27.709  12.775  1.00  0.00     0.016 A 
ATOM     14  C   UNL     1      34.036  28.050  12.114  1.00  0.00     0.047 A 
ATOM     15  C   UNL     1      34.447  27.326  10.987  1.00  0.00     0.115 A 
ATOM     16  C   UNL     1      32.488  25.913  11.188  1.00  0.00     0.016 A 
ATOM     17  C   UNL     1      33.672  26.257  10.529  1.00  0.00     0.047 A 
BRANCH  15  18
ATOM     18  O   UNL     1      35.624  27.657  10.320  1.00  0.00    -0.508 OA
ATOM     19  H   UNL     1      36.360  26.975  10.175  1.00  0.00     0.293 HD
ENDBRANCH  15  18
ENDBRANCH   1  12
BRANCH   2  20
ATOM     20  O   UNL     1      31.992  24.685  14.439  1.00  0.00    -0.502 OA
ATOM     21  H   UNL     1      32.687  24.347  13.784  1.00  0.00     0.293 HD
ENDBRANCH   2  20
BRANCH   6  22
ATOM     22  O   UNL     1      26.879  24.569  15.930  1.00  0.00    -0.507 OA
ATOM     23  H   UNL     1      26.433  24.859  16.787  1.00  0.00     0.293 HD
ENDBRANCH   6  22
BRANCH   8  24
ATOM     24  O   UNL     1      24.995  27.616  12.735  1.00  0.00    -0.508 OA
ATOM     25  H   UNL     1      25.077  28.310  12.001  1.00  0.00     0.293 HD
ENDBRANCH   8  24
TORSDOF 5
ENDMDL
MODEL 5
REMARK VINA RESULT:    -4.447     18.973     20.542
REMARK INTER + INTRA:          -5.516
REMARK INTER:                  -5.457
REMARK INTRA:                  -0.059
REMARK UNBOUND:                -0.289
REMARK SMILES O=c1c(O)c(-c2ccc(O)cc2)oc2cc(O)cc(O)c12
REMARK SMILES IDX 5 1 3 2 2 3 1 4 21 5 19 6 18 7 16 8 15 9 14 10 13 11 6 12
REMARK SMILES IDX 7 13 8 14 9 15 12 16 11 17 10 18 4 20 20 22 17 24
REMARK H PARENT 10 19 4 21 20 23 17 25
REMARK Flexibility Score: inf
ROOT
ATOM      1  C   UNL     1      35.600  42.692  23.567  1.00  0.00     0.180 A 
ATOM      2  C   UNL     1      35.207  43.295  22.360  1.00  0.00     0.208 A 
ATOM      3  C   UNL     1      33.843  43.342  22.034  1.00  0.00     0.238 A 
ATOM      4  O   UNL     1      33.492  43.949  20.988  1.00  0.00    -0.285 OA
ATOM      5  C   UNL     1      32.891  42.737  22.891  1.00  0.00     0.111 A 
ATOM      6  C   UNL     1      31.487  42.684  22.638  1.00  0.00     0.134 A 
ATOM      7  C   UNL     1      30.630  42.153  23.609  1.00  0.00     0.093 A 
ATOM      8  C   UNL     1      31.132  41.612  24.795  1.00  0.00     0.123 A 
ATOM      9  C   UNL     1      32.505  41.609  25.027  1.00  0.00     0.094 A 
ATOM     10  C   UNL     1      33.383  42.167  24.095  1.00  0.00     0.146 A 
ATOM     11  O   UNL     1      34.681  42.162  24.366  1.00  0.00    -0.452 OA
ENDROOT
BRANCH   1  12
ATOM     12  C   UNL     1      37.017  42.616  23.987  1.00  0.00     0.021 A 
ATOM     13  C   UNL     1      37.811  43.773  24.103  1.00  0.00     0.016 A 
ATOM     14  C   UNL     1      39.141  43.678  24.525  1.00  0.00     0.047 A 
ATOM     15  C   UNL     1      39.689  42.431  24.849  1.00  0.00     0.115 A 
ATOM     16  C   UNL     1      37.570  41.373  24.335  1.00  0.00     0.016 A 
ATOM     17  C   UNL     1      38.900  41.281  24.756  1.00  0.00     0.047 A 
BRANCH  15  18
ATOM     18  O   UNL     1      41.013  42.325  25.270  1.00  0.00    -0.508 OA
ATOM     19  H   UNL     1      41.748  42.881  24.849  1.00  0.00     0.293 HD
ENDBRANCH  15  18
ENDBRANCH   1  12
BRANCH   2  20
ATOM     20  O   UNL     1      36.168  43.819  21.491  1.00  0.00    -0.502 OA
ATOM     21  H   UNL     1      36.180  44.795  21.219  1.00  0.00     0.293 HD
ENDBRANCH   2  20
BRANCH   6  22
ATOM     22  O   UNL     1      30.888  43.114  21.449  1.00  0.00    -0.507 OA
ATOM     23  H   UNL     1      30.735  42.536  20.638  1.00  0.00     0.293 HD
ENDBRANCH   6  22
BRANCH   8  24
ATOM     24  O   UNL     1      30.273  41.069  25.749  1.00  0.00    -0.508 OA
ATOM     25  H   UNL     1      29.567  40.385  25.498  1.00  0.00     0.293 HD
ENDBRANCH   8  24
TORSDOF 5
ENDMDL
MODEL 6
REMARK VINA RESULT:    -4.401      2.152      6.956
REMARK INTER + INTRA:          -5.462
REMARK INTER:                  -5.175
REMARK INTRA:                  -0.287
REMARK UNBOUND:                -0.289
REMARK SMILES O=c1c(O)c(-c2ccc(O)cc2)oc2cc(O)cc(O)c12
REMARK SMILES IDX 5 1 3 2 2 3 1 4 21 5 19 6 18 7 16 8 15 9 14 10 13 11 6 12
REMARK SMILES IDX 7 13 8 14 9 15 12 16 11 17 10 18 4 20 20 22 17 24
REMARK H PARENT 10 19 4 21 20 23 17 25
REMARK Flexibility Score: inf
ROOT
ATOM      1  C   UNL     1      30.645  27.346  11.613  1.00  0.00     0.180 A 
ATOM      2  C   UNL     1      31.070  26.383  12.544  1.00  0.00     0.208 A 
ATOM      3  C   UNL     1      30.128  25.812  13.412  1.00  0.00     0.238 A 
ATOM      4  O   UNL     1      30.502  24.897  14.193  1.00  0.00    -0.285 OA
ATOM      5  C   UNL     1      28.781  26.250  13.379  1.00  0.00     0.111 A 
ATOM      6  C   UNL     1      27.749  25.773  14.244  1.00  0.00     0.134 A 
ATOM      7  C   UNL     1      26.431  26.202  14.047  1.00  0.00     0.093 A 
ATOM      8  C   UNL     1      26.117  27.138  13.060  1.00  0.00     0.123 A 
ATOM      9  C   UNL     1      27.125  27.651  12.248  1.00  0.00     0.094 A 
ATOM     10  C   UNL     1      28.444  27.214  12.393  1.00  0.00     0.146 A 
ATOM     11  O   UNL     1      29.369  27.713  11.583  1.00  0.00    -0.452 OA
ENDROOT
BRANCH   1  12
ATOM     12  C   UNL     1      31.576  27.983  10.654  1.00  0.00     0.021 A 
ATOM     13  C   UNL     1      32.242  29.183  10.966  1.00  0.00     0.016 A 
ATOM     14  C   UNL     1      33.135  29.754  10.053  1.00  0.00     0.047 A 
ATOM     15  C   UNL     1      33.385  29.126   8.827  1.00  0.00     0.115 A 
ATOM     16  C   UNL     1      31.849  27.350   9.430  1.00  0.00     0.016 A 
ATOM     17  C   UNL     1      32.742  27.923   8.520  1.00  0.00     0.047 A 
BRANCH  15  18
ATOM     18  O   UNL     1      34.272  29.685   7.910  1.00  0.00    -0.508 OA
ATOM     19  H   UNL     1      35.091  30.199   8.212  1.00  0.00     0.293 HD
ENDBRANCH  15  18
ENDBRANCH   1  12
BRANCH   2  20
ATOM     20  O   UNL     1      32.418  26.020  12.613  1.00  0.00    -0.502 OA
ATOM     21  H   UNL     1      32.911  25.925  13.493  1.00  0.00     0.293 HD
ENDBRANCH   2  20
BRANCH   6  22
ATOM     22  O   UNL     1      27.967  24.905  15.319  1.00  0.00    -0.507 OA
ATOM     23  H   UNL     1      28.135  25.194  16.270  1.00  0.00     0.293 HD
ENDBRANCH   6  22
BRANCH   8  24
ATOM     24  O   UNL     1      24.805  27.572  12.883  1.00  0.00    -0.508 OA
ATOM     25  H   UNL     1      24.470  28.432  13.303  1.00  0.00     0.293 HD
ENDBRANCH   8  24
TORSDOF 5
ENDMDL
MODEL 7
REMARK VINA RESULT:    -4.313      1.210      3.099
REMARK INTER + INTRA:          -5.358
REMARK INTER:                  -5.091
REMARK INTRA:                  -0.268
REMARK UNBOUND:                -0.289
REMARK SMILES O=c1c(O)c(-c2ccc(O)cc2)oc2cc(O)cc(O)c12
REMARK SMILES IDX 5 1 3 2 2 3 1 4 21 5 19 6 18 7 16 8 15 9 14 10 13 11 6 12
REMARK SMILES IDX 7 13 8 14 9 15 12 16 11 17 10 18 4 20 20 22 17 24
REMARK H PARENT 10 19 4 21 20 23 17 25
REMARK Flexibility Score: inf
ROOT
ATOM      1  C   UNL     1      30.173  27.529  11.897  1.00  0.00     0.180 A 
ATOM      2  C   UNL     1      30.990  26.668  12.649  1.00  0.00     0.208 A 
ATOM      3  C   UNL     1      32.384  26.753  12.505  1.00  0.00     0.238 A 
ATOM      4  O   UNL     1      33.112  26.030  13.236  1.00  0.00    -0.285 OA
ATOM      5  C   UNL     1      32.943  27.658  11.570  1.00  0.00     0.111 A 
ATOM      6  C   UNL     1      34.340  27.797  11.308  1.00  0.00     0.134 A 
ATOM      7  C   UNL     1      34.783  28.801  10.439  1.00  0.00     0.093 A 
ATOM      8  C   UNL     1      33.876  29.628   9.772  1.00  0.00     0.123 A 
ATOM      9  C   UNL     1      32.509  29.465   9.979  1.00  0.00     0.094 A 
ATOM     10  C   UNL     1      32.037  28.498  10.869  1.00  0.00     0.146 A 
ATOM     11  O   UNL     1      30.728  28.391  11.052  1.00  0.00    -0.452 OA
ENDROOT
BRANCH   1  12
ATOM     12  C   UNL     1      28.696  27.510  12.004  1.00  0.00     0.021 A 
ATOM     13  C   UNL     1      27.925  26.547  11.327  1.00  0.00     0.016 A 
ATOM     14  C   UNL     1      26.533  26.535  11.463  1.00  0.00     0.047 A 
ATOM     15  C   UNL     1      25.897  27.473  12.286  1.00  0.00     0.115 A 
ATOM     16  C   UNL     1      28.052  28.434  12.843  1.00  0.00     0.016 A 
ATOM     17  C   UNL     1      26.660  28.419  12.977  1.00  0.00     0.047 A 
BRANCH  15  18
ATOM     18  O   UNL     1      24.512  27.470  12.428  1.00  0.00    -0.508 OA
ATOM     19  H   UNL     1      23.935  26.768  11.979  1.00  0.00     0.293 HD
ENDBRANCH  15  18
ENDBRANCH   1  12
BRANCH   2  20
ATOM     20  O   UNL     1      30.416  25.728  13.510  1.00  0.00    -0.502 OA
ATOM     21  H   UNL     1      29.526  25.883  13.968  1.00  0.00     0.293 HD
ENDBRANCH   2  20
BRANCH   6  22
ATOM     22  O   UNL     1      35.325  26.966  11.852  1.00  0.00    -0.507 OA
ATOM     23  H   UNL     1      35.190  26.000  12.104  1.00  0.00     0.293 HD
ENDBRANCH   6  22
BRANCH   8  24
ATOM     24  O   UNL     1      34.326  30.614   8.895  1.00  0.00    -0.508 OA
ATOM     25  H   UNL     1      34.314  30.475   7.891  1.00  0.00     0.293 HD
ENDBRANCH   8  24
TORSDOF 5
ENDMDL
MODEL 8
REMARK VINA RESULT:    -4.308      2.951      4.534
REMARK INTER + INTRA:          -5.352
REMARK INTER:                  -5.074
REMARK INTRA:                  -0.278
REMARK UNBOUND:                -0.289
REMARK SMILES O=c1c(O)c(-c2ccc(O)cc2)oc2cc(O)cc(O)c12
REMARK SMILES IDX 5 1 3 2 2 3 1 4 21 5 19 6 18 7 16 8 15 9 14 10 13 11 6 12
REMARK SMILES IDX 7 13 8 14 9 15 12 16 11 17 10 18 4 20 20 22 17 24
REMARK H PARENT 10 19 4 21 20 23 17 25
REMARK Flexibility Score: inf
ROOT
ATOM      1  C   UNL     1      31.324  25.593  13.692  1.00  0.00     0.180 A 
ATOM      2  C   UNL     1      32.505  25.043  14.217  1.00  0.00     0.208 A 
ATOM      3  C   UNL     1      33.742  25.511  13.747  1.00  0.00     0.238 A 
ATOM      4  O   UNL     1      34.796  25.066  14.274  1.00  0.00    -0.285 OA
ATOM      5  C   UNL     1      33.785  26.483  12.718  1.00  0.00     0.111 A 
ATOM      6  C   UNL     1      34.982  26.997  12.134  1.00  0.00     0.134 A 
ATOM      7  C   UNL     1      34.903  28.035  11.197  1.00  0.00     0.093 A 
ATOM      8  C   UNL     1      33.668  28.532  10.775  1.00  0.00     0.123 A 
ATOM      9  C   UNL     1      32.492  28.000  11.299  1.00  0.00     0.094 A 
ATOM     10  C   UNL     1      32.539  26.991  12.263  1.00  0.00     0.146 A 
ATOM     11  O   UNL     1      31.395  26.528  12.751  1.00  0.00    -0.452 OA
ENDROOT
BRANCH   1  12
ATOM     12  C   UNL     1      29.982  25.163  14.146  1.00  0.00     0.021 A 
ATOM     13  C   UNL     1      29.413  25.664  15.332  1.00  0.00     0.016 A 
ATOM     14  C   UNL     1      28.134  25.260  15.728  1.00  0.00     0.047 A 
ATOM     15  C   UNL     1      27.403  24.364  14.939  1.00  0.00     0.115 A 
ATOM     16  C   UNL     1      29.233  24.280  13.351  1.00  0.00     0.016 A 
ATOM     17  C   UNL     1      27.954  23.878  13.749  1.00  0.00     0.047 A 
BRANCH  15  18
ATOM     18  O   UNL     1      26.129  23.954  15.324  1.00  0.00    -0.508 OA
ATOM     19  H   UNL     1      25.767  23.042  15.071  1.00  0.00     0.293 HD
ENDBRANCH  15  18
ENDBRANCH   1  12
BRANCH   2  20
ATOM     20  O   UNL     1      32.442  24.029  15.177  1.00  0.00    -0.502 OA
ATOM     21  H   UNL     1      32.368  24.224  16.169  1.00  0.00     0.293 HD
ENDBRANCH   2  20
BRANCH   6  22
ATOM     22  O   UNL     1      36.263  26.511  12.417  1.00  0.00    -0.507 OA
ATOM     23  H   UNL     1      37.028  27.069  12.763  1.00  0.00     0.293 HD
ENDBRANCH   6  22
BRANCH   8  24
ATOM     24  O   UNL     1      33.598  29.553   9.830  1.00  0.00    -0.508 OA
ATOM     25  H   UNL     1      33.615  29.357   8.835  1.00  0.00     0.293 HD
ENDBRANCH   8  24
TORSDOF 5
ENDMDL
MODEL 9
REMARK VINA RESULT:    -4.282     18.856     20.539
REMARK INTER + INTRA:          -5.323
REMARK INTER:                  -5.043
REMARK INTRA:                  -0.279
REMARK UNBOUND:                -0.289
REMARK SMILES O=c1c(O)c(-c2ccc(O)cc2)oc2cc(O)cc(O)c12
REMARK SMILES IDX 5 1 3 2 2 3 1 4 21 5 19 6 18 7 16 8 15 9 14 10 13 11 6 12
REMARK SMILES IDX 7 13 8 14 9 15 12 16 11 17 10 18 4 20 20 22 17 24
REMARK H PARENT 10 19 4 21 20 23 17 25
REMARK Flexibility Score: inf
ROOT
ATOM      1  C   UNL     1      35.025  41.582  24.857  1.00  0.00     0.180 A 
ATOM      2  C   UNL     1      33.939  41.016  25.546  1.00  0.00     0.208 A 
ATOM      3  C   UNL     1      32.644  41.185  25.032  1.00  0.00     0.238 A 
ATOM      4  O   UNL     1      31.684  40.613  25.613  1.00  0.00    -0.285 OA
ATOM      5  C   UNL     1      32.443  41.964  23.866  1.00  0.00     0.111 A 
ATOM      6  C   UNL     1      31.170  42.239  23.282  1.00  0.00     0.134 A 
ATOM      7  C   UNL     1      31.103  42.934  22.068  1.00  0.00     0.093 A 
ATOM      8  C   UNL     1      32.258  43.420  21.451  1.00  0.00     0.123 A 
ATOM      9  C   UNL     1      33.500  43.204  22.042  1.00  0.00     0.094 A 
ATOM     10  C   UNL     1      33.604  42.481  23.232  1.00  0.00     0.146 A 
ATOM     11  O   UNL     1      34.809  42.280  23.748  1.00  0.00    -0.452 OA
ENDROOT
BRANCH   1  12
ATOM     12  C   UNL     1      36.421  41.436  25.328  1.00  0.00     0.021 A 
ATOM     13  C   UNL     1      37.165  40.270  25.067  1.00  0.00     0.016 A 
ATOM     14  C   UNL     1      38.490  40.165  25.502  1.00  0.00     0.047 A 
ATOM     15  C   UNL     1      39.092  41.227  26.188  1.00  0.00     0.115 A 
ATOM     16  C   UNL     1      37.041  42.504  25.998  1.00  0.00     0.016 A 
ATOM     17  C   UNL     1      38.365  42.396  26.432  1.00  0.00     0.047 A 
BRANCH  15  18
ATOM     18  O   UNL     1      40.411  41.134  26.626  1.00  0.00    -0.508 OA
ATOM     19  H   UNL     1      40.740  40.330  27.148  1.00  0.00     0.293 HD
ENDBRANCH  15  18
ENDBRANCH   1  12
BRANCH   2  20
ATOM     20  O   UNL     1      34.150  40.315  26.736  1.00  0.00    -0.502 OA
ATOM     21  H   UNL     1      33.897  40.693  27.642  1.00  0.00     0.293 HD
ENDBRANCH   2  20
BRANCH   6  22
ATOM     22  O   UNL     1      29.948  41.878  23.859  1.00  0.00    -0.507 OA
ATOM     23  H   UNL     1      29.798  41.726  24.845  1.00  0.00     0.293 HD
ENDBRANCH   6  22
BRANCH   8  24
ATOM     24  O   UNL     1      32.180  44.125  20.252  1.00  0.00    -0.508 OA
ATOM     25  H   UNL     1      32.752  43.876  19.452  1.00  0.00     0.293 HD
ENDBRANCH   8  24
TORSDOF 5
ENDMDL
