MODEL 1
REMARK VINA RESULT:    -4.059      0.000      0.000
REMARK INTER + INTRA:         -12.821
REMARK INTER:                  -8.804
REMARK INTRA:                  -4.017
REMARK UNBOUND:                -4.017
REMARK SMILES CCCCCCCCCCCCCCCCCCCCCC(=O)[O-]
REMARK SMILES IDX 12 1 11 2 10 3 9 4 8 5 7 6 6 7 5 8 4 9 3 10 2 11 1 12 13 13
REMARK SMILES IDX 14 14 15 15 16 16 17 17 18 18 19 19 20 20 21 21 22 22 23 23
REMARK SMILES IDX 24 24
REMARK H PARENT
REMARK Flexibility Score: inf
ROOT
ATOM      1  C   UNL     1      18.248  38.191  35.382  1.00  0.00     0.000 C 
ENDROOT
BRANCH   1   2
ATOM      2  C   UNL     1      16.848  37.981  34.779  1.00  0.00     0.000 C 
BRANCH   2   3
ATOM      3  C   UNL     1      16.872  37.128  33.500  1.00  0.00     0.000 C 
BRANCH   3   4
ATOM      4  C   UNL     1      18.268  36.565  33.192  1.00  0.00    -0.000 C 
BRANCH   4   5
ATOM      5  C   UNL     1      18.816  37.053  31.842  1.00  0.00    -0.000 C 
BRANCH   5   6
ATOM      6  C   UNL     1      17.974  38.210  31.294  1.00  0.00    -0.000 C 
BRANCH   6   7
ATOM      7  C   UNL     1      18.658  39.560  31.555  1.00  0.00    -0.000 C 
BRANCH   7   8
ATOM      8  C   UNL     1      17.660  40.725  31.668  1.00  0.00    -0.000 C 
BRANCH   8   9
ATOM      9  C   UNL     1      16.173  40.318  31.642  1.00  0.00    -0.000 C 
BRANCH   9  10
ATOM     10  C   UNL     1      15.383  40.644  32.923  1.00  0.00    -0.000 C 
BRANCH  10  11
ATOM     11  C   UNL     1      13.877  40.390  32.776  1.00  0.00    -0.003 C 
ATOM     12  C   UNL     1      13.388  39.375  33.804  1.00  0.00     0.004 C 
ENDBRANCH  10  11
ENDBRANCH   9  10
ENDBRANCH   8   9
ENDBRANCH   7   8
ENDBRANCH   6   7
ENDBRANCH   5   6
ENDBRANCH   4   5
ENDBRANCH   3   4
ENDBRANCH   2   3
ENDBRANCH   1   2
BRANCH   1  13
ATOM     13  C   UNL     1      18.657  39.675  35.492  1.00  0.00     0.000 C 
BRANCH  13  14
ATOM     14  C   UNL     1      20.184  39.862  35.461  1.00  0.00     0.000 C 
BRANCH  14  15
ATOM     15  C   UNL     1      20.836  39.255  34.206  1.00  0.00     0.000 C 
BRANCH  15  16
ATOM     16  C   UNL     1      22.018  38.307  34.480  1.00  0.00     0.000 C 
BRANCH  16  17
ATOM     17  C   UNL     1      21.570  36.866  34.779  1.00  0.00     0.000 C 
BRANCH  17  18
ATOM     18  C   UNL     1      22.005  36.392  36.176  1.00  0.00     0.000 C 
BRANCH  18  19
ATOM     19  C   UNL     1      22.664  37.514  36.997  1.00  0.00     0.000 C 
BRANCH  19  20
ATOM     20  C   UNL     1      21.936  37.789  38.327  1.00  0.00     0.006 C 
BRANCH  20  21
ATOM     21  C   UNL     1      20.494  37.255  38.371  1.00  0.00     0.053 C 
BRANCH  21  22
ATOM     22  C   UNL     1      19.529  38.245  38.945  1.00  0.00     0.041 C 
ATOM     23  O   UNL     1      18.393  37.870  39.337  1.00  0.00    -0.550 OA
ATOM     24  O   UNL     1      19.880  39.586  39.039  1.00  0.00    -0.550 OA
ENDBRANCH  21  22
ENDBRANCH  20  21
ENDBRANCH  19  20
ENDBRANCH  18  19
ENDBRANCH  17  18
ENDBRANCH  16  17
ENDBRANCH  15  16
ENDBRANCH  14  15
ENDBRANCH  13  14
ENDBRANCH   1  13
TORSDOF 20
ENDMDL
MODEL 2
REMARK VINA RESULT:    -3.842      2.836      4.328
REMARK INTER + INTRA:         -12.351
REMARK INTER:                  -9.313
REMARK INTRA:                  -3.038
REMARK UNBOUND:                -4.017
REMARK SMILES CCCCCCCCCCCCCCCCCCCCCC(=O)[O-]
REMARK SMILES IDX 12 1 11 2 10 3 9 4 8 5 7 6 6 7 5 8 4 9 3 10 2 11 1 12 13 13
REMARK SMILES IDX 14 14 15 15 16 16 17 17 18 18 19 19 20 20 21 21 22 22 23 23
REMARK SMILES IDX 24 24
REMARK H PARENT
REMARK Flexibility Score: inf
ROOT
ATOM      1  C   UNL     1      18.052  37.375  34.115  1.00  0.00     0.000 C 
ENDROOT
BRANCH   1   2
ATOM      2  C   UNL     1      16.598  37.866  34.008  1.00  0.00     0.000 C 
BRANCH   2   3
ATOM      3  C   UNL     1      16.497  39.377  33.743  1.00  0.00     0.000 C 
BRANCH   3   4
ATOM      4  C   UNL     1      17.813  39.974  33.221  1.00  0.00    -0.000 C 
BRANCH   4   5
ATOM      5  C   UNL     1      17.690  40.512  31.788  1.00  0.00    -0.000 C 
BRANCH   5   6
ATOM      6  C   UNL     1      16.287  40.258  31.225  1.00  0.00    -0.000 C 
BRANCH   6   7
ATOM      7  C   UNL     1      16.280  40.371  29.694  1.00  0.00    -0.000 C 
BRANCH   7   8
ATOM      8  C   UNL     1      14.869  40.582  29.115  1.00  0.00    -0.000 C 
BRANCH   8   9
ATOM      9  C   UNL     1      14.825  40.986  27.627  1.00  0.00    -0.000 C 
BRANCH   9  10
ATOM     10  C   UNL     1      15.210  39.872  26.637  1.00  0.00    -0.000 C 
BRANCH  10  11
ATOM     11  C   UNL     1      14.420  38.575  26.861  1.00  0.00    -0.003 C 
ATOM     12  C   UNL     1      14.226  37.817  25.551  1.00  0.00     0.004 C 
ENDBRANCH  10  11
ENDBRANCH   9  10
ENDBRANCH   8   9
ENDBRANCH   7   8
ENDBRANCH   6   7
ENDBRANCH   5   6
ENDBRANCH   4   5
ENDBRANCH   3   4
ENDBRANCH   2   3
ENDBRANCH   1   2
BRANCH   1  13
ATOM     13  C   UNL     1      18.424  36.311  33.062  1.00  0.00     0.000 C 
BRANCH  13  14
ATOM     14  C   UNL     1      17.680  36.523  31.732  1.00  0.00     0.000 C 
BRANCH  14  15
ATOM     15  C   UNL     1      18.588  37.078  30.619  1.00  0.00     0.000 C 
BRANCH  15  16
ATOM     16  C   UNL     1      20.096  37.037  30.929  1.00  0.00     0.000 C 
BRANCH  16  17
ATOM     17  C   UNL     1      20.719  38.439  31.048  1.00  0.00     0.000 C 
BRANCH  17  18
ATOM     18  C   UNL     1      21.859  38.490  32.079  1.00  0.00     0.000 C 
BRANCH  18  19
ATOM     19  C   UNL     1      21.359  38.851  33.489  1.00  0.00     0.000 C 
BRANCH  19  20
ATOM     20  C   UNL     1      22.162  38.153  34.605  1.00  0.00     0.006 C 
BRANCH  20  21
ATOM     21  C   UNL     1      21.592  36.787  35.021  1.00  0.00     0.053 C 
BRANCH  21  22
ATOM     22  C   UNL     1      21.552  36.607  36.507  1.00  0.00     0.041 C 
ATOM     23  O   UNL     1      22.383  35.852  37.077  1.00  0.00    -0.550 OA
ATOM     24  O   UNL     1      20.591  37.265  37.262  1.00  0.00    -0.550 OA
ENDBRANCH  21  22
ENDBRANCH  20  21
ENDBRANCH  19  20
ENDBRANCH  18  19
ENDBRANCH  17  18
ENDBRANCH  16  17
ENDBRANCH  15  16
ENDBRANCH  14  15
ENDBRANCH  13  14
ENDBRANCH   1  13
TORSDOF 20
ENDMDL
MODEL 3
REMARK VINA RESULT:    -3.840      4.315      7.903
REMARK INTER + INTRA:         -12.346
REMARK INTER:                  -9.015
REMARK INTRA:                  -3.331
REMARK UNBOUND:                -4.017
REMARK SMILES CCCCCCCCCCCCCCCCCCCCCC(=O)[O-]
REMARK SMILES IDX 12 1 11 2 10 3 9 4 8 5 7 6 6 7 5 8 4 9 3 10 2 11 1 12 13 13
REMARK SMILES IDX 14 14 15 15 16 16 17 17 18 18 19 19 20 20 21 21 22 22 23 23
REMARK SMILES IDX 24 24
REMARK H PARENT
REMARK Flexibility Score: inf
ROOT
ATOM      1  C   UNL     1      16.845  37.532  33.588  1.00  0.00     0.000 C 
ENDROOT
BRANCH   1   2
ATOM      2  C   UNL     1      17.837  36.608  32.861  1.00  0.00     0.000 C 
BRANCH   2   3
ATOM      3  C   UNL     1      17.844  36.821  31.339  1.00  0.00     0.000 C 
BRANCH   3   4
ATOM      4  C   UNL     1      19.176  37.392  30.828  1.00  0.00    -0.000 C 
BRANCH   4   5
ATOM      5  C   UNL     1      20.374  36.945  31.678  1.00  0.00    -0.000 C 
BRANCH   5   6
ATOM      6  C   UNL     1      21.295  38.129  31.996  1.00  0.00    -0.000 C 
BRANCH   6   7
ATOM      7  C   UNL     1      21.645  38.168  33.490  1.00  0.00    -0.000 C 
BRANCH   7   8
ATOM      8  C   UNL     1      21.028  37.001  34.280  1.00  0.00    -0.000 C 
BRANCH   8   9
ATOM      9  C   UNL     1      21.078  37.150  35.815  1.00  0.00    -0.000 C 
BRANCH   9  10
ATOM     10  C   UNL     1      22.087  36.233  36.528  1.00  0.00    -0.000 C 
BRANCH  10  11
ATOM     11  C   UNL     1      21.797  36.079  38.028  1.00  0.00    -0.003 C 
ATOM     12  C   UNL     1      20.604  36.931  38.447  1.00  0.00     0.004 C 
ENDBRANCH  10  11
ENDBRANCH   9  10
ENDBRANCH   8   9
ENDBRANCH   7   8
ENDBRANCH   6   7
ENDBRANCH   5   6
ENDBRANCH   4   5
ENDBRANCH   3   4
ENDBRANCH   2   3
ENDBRANCH   1   2
BRANCH   1  13
ATOM     13  C   UNL     1      17.385  38.089  34.922  1.00  0.00     0.000 C 
BRANCH  13  14
ATOM     14  C   UNL     1      18.176  39.395  34.730  1.00  0.00     0.000 C 
BRANCH  14  15
ATOM     15  C   UNL     1      17.675  40.230  33.537  1.00  0.00     0.000 C 
BRANCH  15  16
ATOM     16  C   UNL     1      18.780  40.802  32.632  1.00  0.00     0.000 C 
BRANCH  16  17
ATOM     17  C   UNL     1      18.342  40.933  31.163  1.00  0.00     0.000 C 
BRANCH  17  18
ATOM     18  C   UNL     1      16.926  40.385  30.921  1.00  0.00     0.000 C 
BRANCH  18  19
ATOM     19  C   UNL     1      16.564  40.334  29.426  1.00  0.00     0.000 C 
BRANCH  19  20
ATOM     20  C   UNL     1      15.054  40.510  29.169  1.00  0.00     0.006 C 
BRANCH  20  21
ATOM     21  C   UNL     1      14.706  40.856  27.712  1.00  0.00     0.053 C 
BRANCH  21  22
ATOM     22  C   UNL     1      14.879  39.694  26.785  1.00  0.00     0.041 C 
ATOM     23  O   UNL     1      15.717  39.749  25.848  1.00  0.00    -0.550 OA
ATOM     24  O   UNL     1      14.106  38.552  26.950  1.00  0.00    -0.550 OA
ENDBRANCH  21  22
ENDBRANCH  20  21
ENDBRANCH  19  20
ENDBRANCH  18  19
ENDBRANCH  17  18
ENDBRANCH  16  17
ENDBRANCH  15  16
ENDBRANCH  14  15
ENDBRANCH  13  14
ENDBRANCH   1  13
TORSDOF 20
ENDMDL
MODEL 4
REMARK VINA RESULT:    -3.742      2.173      3.469
REMARK INTER + INTRA:         -12.134
REMARK INTER:                  -8.842
REMARK INTRA:                  -3.292
REMARK UNBOUND:                -4.017
REMARK SMILES CCCCCCCCCCCCCCCCCCCCCC(=O)[O-]
REMARK SMILES IDX 12 1 11 2 10 3 9 4 8 5 7 6 6 7 5 8 4 9 3 10 2 11 1 12 13 13
REMARK SMILES IDX 14 14 15 15 16 16 17 17 18 18 19 19 20 20 21 21 22 22 23 23
REMARK SMILES IDX 24 24
REMARK H PARENT
REMARK Flexibility Score: inf
ROOT
ATOM      1  C   UNL     1      16.808  37.452  33.609  1.00  0.00     0.000 C 
ENDROOT
BRANCH   1   2
ATOM      2  C   UNL     1      17.194  38.154  34.922  1.00  0.00     0.000 C 
BRANCH   2   3
ATOM      3  C   UNL     1      17.789  39.554  34.697  1.00  0.00     0.000 C 
BRANCH   3   4
ATOM      4  C   UNL     1      17.392  40.152  33.338  1.00  0.00    -0.000 C 
BRANCH   4   5
ATOM      5  C   UNL     1      18.609  40.514  32.474  1.00  0.00    -0.000 C 
BRANCH   5   6
ATOM      6  C   UNL     1      18.199  40.733  31.013  1.00  0.00    -0.000 C 
BRANCH   6   7
ATOM      7  C   UNL     1      16.784  40.198  30.753  1.00  0.00    -0.000 C 
BRANCH   7   8
ATOM      8  C   UNL     1      16.622  39.593  29.347  1.00  0.00    -0.000 C 
BRANCH   8   9
ATOM      9  C   UNL     1      16.364  40.614  28.220  1.00  0.00    -0.000 C 
BRANCH   9  10
ATOM     10  C   UNL     1      14.880  40.905  27.930  1.00  0.00    -0.000 C 
BRANCH  10  11
ATOM     11  C   UNL     1      14.031  39.630  27.825  1.00  0.00    -0.003 C 
ATOM     12  C   UNL     1      14.387  38.835  26.573  1.00  0.00     0.004 C 
ENDBRANCH  10  11
ENDBRANCH   9  10
ENDBRANCH   8   9
ENDBRANCH   7   8
ENDBRANCH   6   7
ENDBRANCH   5   6
ENDBRANCH   4   5
ENDBRANCH   3   4
ENDBRANCH   2   3
ENDBRANCH   1   2
BRANCH   1  13
ATOM     13  C   UNL     1      17.933  36.571  33.026  1.00  0.00     0.000 C 
BRANCH  13  14
ATOM     14  C   UNL     1      18.137  36.808  31.519  1.00  0.00     0.000 C 
BRANCH  14  15
ATOM     15  C   UNL     1      19.600  37.109  31.153  1.00  0.00     0.000 C 
BRANCH  15  16
ATOM     16  C   UNL     1      20.605  36.962  32.310  1.00  0.00     0.000 C 
BRANCH  16  17
ATOM     17  C   UNL     1      21.461  38.223  32.523  1.00  0.00     0.000 C 
BRANCH  17  18
ATOM     18  C   UNL     1      21.735  38.504  34.009  1.00  0.00     0.000 C 
BRANCH  18  19
ATOM     19  C   UNL     1      21.250  37.364  34.921  1.00  0.00     0.000 C 
BRANCH  19  20
ATOM     20  C   UNL     1      20.648  37.873  36.247  1.00  0.00     0.006 C 
BRANCH  20  21
ATOM     21  C   UNL     1      20.966  36.981  37.459  1.00  0.00     0.053 C 
BRANCH  21  22
ATOM     22  C   UNL     1      20.511  37.582  38.752  1.00  0.00     0.041 C 
ATOM     23  O   UNL     1      21.329  38.188  39.492  1.00  0.00    -0.550 OA
ATOM     24  O   UNL     1      19.185  37.464  39.146  1.00  0.00    -0.550 OA
ENDBRANCH  21  22
ENDBRANCH  20  21
ENDBRANCH  19  20
ENDBRANCH  18  19
ENDBRANCH  17  18
ENDBRANCH  16  17
ENDBRANCH  15  16
ENDBRANCH  14  15
ENDBRANCH  13  14
ENDBRANCH   1  13
TORSDOF 20
ENDMDL
MODEL 5
REMARK VINA RESULT:    -3.736      1.876      3.731
REMARK INTER + INTRA:         -12.120
REMARK INTER:                  -8.492
REMARK INTRA:                  -3.628
REMARK UNBOUND:                -4.017
REMARK SMILES CCCCCCCCCCCCCCCCCCCCCC(=O)[O-]
REMARK SMILES IDX 12 1 11 2 10 3 9 4 8 5 7 6 6 7 5 8 4 9 3 10 2 11 1 12 13 13
REMARK SMILES IDX 14 14 15 15 16 16 17 17 18 18 19 19 20 20 21 21 22 22 23 23
REMARK SMILES IDX 24 24
REMARK H PARENT
REMARK Flexibility Score: inf
ROOT
ATOM      1  C   UNL     1      17.092  38.134  34.744  1.00  0.00     0.000 C 
ENDROOT
BRANCH   1   2
ATOM      2  C   UNL     1      17.072  39.644  34.447  1.00  0.00     0.000 C 
BRANCH   2   3
ATOM      3  C   UNL     1      18.453  40.301  34.609  1.00  0.00     0.000 C 
BRANCH   3   4
ATOM      4  C   UNL     1      19.145  40.559  33.261  1.00  0.00    -0.000 C 
BRANCH   4   5
ATOM      5  C   UNL     1      18.150  40.667  32.097  1.00  0.00    -0.000 C 
BRANCH   5   6
ATOM      6  C   UNL     1      18.533  39.717  30.956  1.00  0.00    -0.000 C 
BRANCH   6   7
ATOM      7  C   UNL     1      17.486  39.756  29.834  1.00  0.00    -0.000 C 
BRANCH   7   8
ATOM      8  C   UNL     1      17.440  38.455  29.013  1.00  0.00    -0.000 C 
BRANCH   8   9
ATOM      9  C   UNL     1      18.737  37.621  29.034  1.00  0.00    -0.000 C 
BRANCH   9  10
ATOM     10  C   UNL     1      18.552  36.118  28.757  1.00  0.00    -0.000 C 
BRANCH  10  11
ATOM     11  C   UNL     1      17.186  35.591  29.217  1.00  0.00    -0.003 C 
ATOM     12  C   UNL     1      16.379  35.055  28.039  1.00  0.00     0.004 C 
ENDBRANCH  10  11
ENDBRANCH   9  10
ENDBRANCH   8   9
ENDBRANCH   7   8
ENDBRANCH   6   7
ENDBRANCH   5   6
ENDBRANCH   4   5
ENDBRANCH   3   4
ENDBRANCH   2   3
ENDBRANCH   1   2
BRANCH   1  13
ATOM     13  C   UNL     1      16.392  37.283  33.664  1.00  0.00     0.000 C 
BRANCH  13  14
ATOM     14  C   UNL     1      17.391  36.669  32.669  1.00  0.00     0.000 C 
BRANCH  14  15
ATOM     15  C   UNL     1      18.768  36.387  33.298  1.00  0.00     0.000 C 
BRANCH  15  16
ATOM     16  C   UNL     1      19.974  36.764  32.419  1.00  0.00     0.000 C 
BRANCH  16  17
ATOM     17  C   UNL     1      21.153  37.328  33.232  1.00  0.00     0.000 C 
BRANCH  17  18
ATOM     18  C   UNL     1      20.801  37.530  34.715  1.00  0.00     0.000 C 
BRANCH  18  19
ATOM     19  C   UNL     1      21.678  36.677  35.648  1.00  0.00     0.000 C 
BRANCH  19  20
ATOM     20  C   UNL     1      21.414  36.959  37.141  1.00  0.00     0.006 C 
BRANCH  20  21
ATOM     21  C   UNL     1      20.030  37.567  37.425  1.00  0.00     0.053 C 
BRANCH  21  22
ATOM     22  C   UNL     1      19.815  37.858  38.878  1.00  0.00     0.041 C 
ATOM     23  O   UNL     1      20.796  38.107  39.627  1.00  0.00    -0.550 OA
ATOM     24  O   UNL     1      18.532  37.844  39.408  1.00  0.00    -0.550 OA
ENDBRANCH  21  22
ENDBRANCH  20  21
ENDBRANCH  19  20
ENDBRANCH  18  19
ENDBRANCH  17  18
ENDBRANCH  16  17
ENDBRANCH  15  16
ENDBRANCH  14  15
ENDBRANCH  13  14
ENDBRANCH   1  13
TORSDOF 20
ENDMDL
MODEL 6
REMARK VINA RESULT:    -3.707      3.936      6.513
REMARK INTER + INTRA:         -12.058
REMARK INTER:                  -8.391
REMARK INTRA:                  -3.667
REMARK UNBOUND:                -4.017
REMARK SMILES CCCCCCCCCCCCCCCCCCCCCC(=O)[O-]
REMARK SMILES IDX 12 1 11 2 10 3 9 4 8 5 7 6 6 7 5 8 4 9 3 10 2 11 1 12 13 13
REMARK SMILES IDX 14 14 15 15 16 16 17 17 18 18 19 19 20 20 21 21 22 22 23 23
REMARK SMILES IDX 24 24
REMARK H PARENT
REMARK Flexibility Score: inf
ROOT
ATOM      1  C   UNL     1      16.237  40.914  27.534  1.00  0.00     0.000 C 
ENDROOT
BRANCH   1   2
ATOM      2  C   UNL     1      14.752  40.779  27.913  1.00  0.00     0.000 C 
BRANCH   2   3
ATOM      3  C   UNL     1      14.114  39.489  27.375  1.00  0.00     0.000 C 
BRANCH   3   4
ATOM      4  C   UNL     1      14.844  38.941  26.138  1.00  0.00    -0.000 C 
BRANCH   4   5
ATOM      5  C   UNL     1      15.000  37.413  26.173  1.00  0.00    -0.000 C 
BRANCH   5   6
ATOM      6  C   UNL     1      16.260  36.973  25.419  1.00  0.00    -0.000 C 
BRANCH   6   7
ATOM      7  C   UNL     1      17.387  38.002  25.582  1.00  0.00    -0.000 C 
BRANCH   7   8
ATOM      8  C   UNL     1      18.292  37.711  26.792  1.00  0.00    -0.000 C 
BRANCH   8   9
ATOM      9  C   UNL     1      18.802  36.259  26.894  1.00  0.00    -0.000 C 
BRANCH   9  10
ATOM     10  C   UNL     1      18.820  35.671  28.317  1.00  0.00    -0.000 C 
BRANCH  10  11
ATOM     11  C   UNL     1      17.540  35.979  29.106  1.00  0.00    -0.003 C 
ATOM     12  C   UNL     1      16.398  35.061  28.679  1.00  0.00     0.004 C 
ENDBRANCH  10  11
ENDBRANCH   9  10
ENDBRANCH   8   9
ENDBRANCH   7   8
ENDBRANCH   6   7
ENDBRANCH   5   6
ENDBRANCH   4   5
ENDBRANCH   3   4
ENDBRANCH   2   3
ENDBRANCH   1   2
BRANCH   1  13
ATOM     13  C   UNL     1      17.198  40.719  28.726  1.00  0.00     0.000 C 
BRANCH  13  14
ATOM     14  C   UNL     1      16.500  40.077  29.938  1.00  0.00     0.000 C 
BRANCH  14  15
ATOM     15  C   UNL     1      17.477  39.345  30.874  1.00  0.00     0.000 C 
BRANCH  15  16
ATOM     16  C   UNL     1      18.575  40.231  31.492  1.00  0.00     0.000 C 
BRANCH  16  17
ATOM     17  C   UNL     1      19.959  39.560  31.483  1.00  0.00     0.000 C 
BRANCH  17  18
ATOM     18  C   UNL     1      20.013  38.333  30.558  1.00  0.00     0.000 C 
BRANCH  18  19
ATOM     19  C   UNL     1      20.486  37.065  31.290  1.00  0.00     0.000 C 
BRANCH  19  20
ATOM     20  C   UNL     1      20.055  37.033  32.770  1.00  0.00     0.006 C 
BRANCH  20  21
ATOM     21  C   UNL     1      18.669  36.410  33.002  1.00  0.00     0.053 C 
BRANCH  21  22
ATOM     22  C   UNL     1      17.767  37.291  33.810  1.00  0.00     0.041 C 
ATOM     23  O   UNL     1      18.254  38.163  34.577  1.00  0.00    -0.550 OA
ATOM     24  O   UNL     1      16.389  37.145  33.723  1.00  0.00    -0.550 OA
ENDBRANCH  21  22
ENDBRANCH  20  21
ENDBRANCH  19  20
ENDBRANCH  18  19
ENDBRANCH  17  18
ENDBRANCH  16  17
ENDBRANCH  15  16
ENDBRANCH  14  15
ENDBRANCH  13  14
ENDBRANCH   1  13
TORSDOF 20
ENDMDL
MODEL 7
REMARK VINA RESULT:    -3.689      5.171      8.822
REMARK INTER + INTRA:         -12.018
REMARK INTER:                  -9.561
REMARK INTRA:                  -2.457
REMARK UNBOUND:                -4.017
REMARK SMILES CCCCCCCCCCCCCCCCCCCCCC(=O)[O-]
REMARK SMILES IDX 12 1 11 2 10 3 9 4 8 5 7 6 6 7 5 8 4 9 3 10 2 11 1 12 13 13
REMARK SMILES IDX 14 14 15 15 16 16 17 17 18 18 19 19 20 20 21 21 22 22 23 23
REMARK SMILES IDX 24 24
REMARK H PARENT
REMARK Flexibility Score: inf
ROOT
ATOM      1  C   UNL     1      15.444  38.587  33.965  1.00  0.00     0.000 C 
ENDROOT
BRANCH   1   2
ATOM      2  C   UNL     1      16.767  37.968  34.450  1.00  0.00     0.000 C 
BRANCH   2   3
ATOM      3  C   UNL     1      17.759  39.019  34.976  1.00  0.00     0.000 C 
BRANCH   3   4
ATOM      4  C   UNL     1      18.640  38.480  36.114  1.00  0.00    -0.000 C 
BRANCH   4   5
ATOM      5  C   UNL     1      20.119  38.372  35.715  1.00  0.00    -0.000 C 
BRANCH   5   6
ATOM      6  C   UNL     1      20.429  36.990  35.129  1.00  0.00    -0.000 C 
BRANCH   6   7
ATOM      7  C   UNL     1      21.093  37.113  33.750  1.00  0.00    -0.000 C 
BRANCH   7   8
ATOM      8  C   UNL     1      20.162  36.693  32.598  1.00  0.00    -0.000 C 
BRANCH   8   9
ATOM      9  C   UNL     1      20.101  37.680  31.414  1.00  0.00    -0.000 C 
BRANCH   9  10
ATOM     10  C   UNL     1      18.955  38.707  31.478  1.00  0.00    -0.000 C 
BRANCH  10  11
ATOM     11  C   UNL     1      17.772  38.337  30.574  1.00  0.00    -0.003 C 
ATOM     12  C   UNL     1      17.867  39.045  29.226  1.00  0.00     0.004 C 
ENDBRANCH  10  11
ENDBRANCH   9  10
ENDBRANCH   8   9
ENDBRANCH   7   8
ENDBRANCH   6   7
ENDBRANCH   5   6
ENDBRANCH   4   5
ENDBRANCH   3   4
ENDBRANCH   2   3
ENDBRANCH   1   2
BRANCH   1  13
ATOM     13  C   UNL     1      15.549  40.091  33.638  1.00  0.00     0.000 C 
BRANCH  13  14
ATOM     14  C   UNL     1      15.241  40.388  32.160  1.00  0.00     0.000 C 
BRANCH  14  15
ATOM     15  C   UNL     1      13.765  40.752  31.917  1.00  0.00     0.000 C 
BRANCH  15  16
ATOM     16  C   UNL     1      13.360  40.877  30.437  1.00  0.00     0.000 C 
BRANCH  16  17
ATOM     17  C   UNL     1      14.560  40.771  29.479  1.00  0.00     0.000 C 
BRANCH  17  18
ATOM     18  C   UNL     1      14.154  40.950  28.007  1.00  0.00     0.000 C 
BRANCH  18  19
ATOM     19  C   UNL     1      15.370  41.095  27.076  1.00  0.00     0.000 C 
BRANCH  19  20
ATOM     20  C   UNL     1      15.639  39.828  26.240  1.00  0.00     0.006 C 
BRANCH  20  21
ATOM     21  C   UNL     1      14.636  38.690  26.494  1.00  0.00     0.053 C 
BRANCH  21  22
ATOM     22  C   UNL     1      14.503  37.766  25.323  1.00  0.00     0.041 C 
ATOM     23  O   UNL     1      13.365  37.490  24.860  1.00  0.00    -0.550 OA
ATOM     24  O   UNL     1      15.634  37.202  24.748  1.00  0.00    -0.550 OA
ENDBRANCH  21  22
ENDBRANCH  20  21
ENDBRANCH  19  20
ENDBRANCH  18  19
ENDBRANCH  17  18
ENDBRANCH  16  17
ENDBRANCH  15  16
ENDBRANCH  14  15
ENDBRANCH  13  14
ENDBRANCH   1  13
TORSDOF 20
ENDMDL
MODEL 8
REMARK VINA RESULT:    -3.657      2.683      6.639
REMARK INTER + INTRA:         -11.949
REMARK INTER:                  -7.964
REMARK INTRA:                  -3.985
REMARK UNBOUND:                -4.017
REMARK SMILES CCCCCCCCCCCCCCCCCCCCCC(=O)[O-]
REMARK SMILES IDX 12 1 11 2 10 3 9 4 8 5 7 6 6 7 5 8 4 9 3 10 2 11 1 12 13 13
REMARK SMILES IDX 14 14 15 15 16 16 17 17 18 18 19 19 20 20 21 21 22 22 23 23
REMARK SMILES IDX 24 24
REMARK H PARENT
REMARK Flexibility Score: inf
ROOT
ATOM      1  C   UNL     1      17.863  37.669  34.319  1.00  0.00     0.000 C 
ENDROOT
BRANCH   1   2
ATOM      2  C   UNL     1      18.235  38.606  35.481  1.00  0.00     0.000 C 
BRANCH   2   3
ATOM      3  C   UNL     1      18.418  40.066  35.035  1.00  0.00     0.000 C 
BRANCH   3   4
ATOM      4  C   UNL     1      19.795  40.632  35.417  1.00  0.00    -0.000 C 
BRANCH   4   5
ATOM      5  C   UNL     1      20.949  39.709  34.998  1.00  0.00    -0.000 C 
BRANCH   5   6
ATOM      6  C   UNL     1      22.113  39.801  35.991  1.00  0.00    -0.000 C 
BRANCH   6   7
ATOM      7  C   UNL     1      22.904  38.486  36.033  1.00  0.00    -0.000 C 
BRANCH   7   8
ATOM      8  C   UNL     1      22.035  37.253  35.729  1.00  0.00    -0.000 C 
BRANCH   8   9
ATOM      9  C   UNL     1      22.006  36.182  36.837  1.00  0.00    -0.000 C 
BRANCH   9  10
ATOM     10  C   UNL     1      21.547  36.683  38.219  1.00  0.00    -0.000 C 
BRANCH  10  11
ATOM     11  C   UNL     1      20.108  37.215  38.212  1.00  0.00    -0.003 C 
ATOM     12  C   UNL     1      20.030  38.596  38.856  1.00  0.00     0.004 C 
ENDBRANCH  10  11
ENDBRANCH   9  10
ENDBRANCH   8   9
ENDBRANCH   7   8
ENDBRANCH   6   7
ENDBRANCH   5   6
ENDBRANCH   4   5
ENDBRANCH   3   4
ENDBRANCH   2   3
ENDBRANCH   1   2
BRANCH   1  13
ATOM     13  C   UNL     1      18.979  36.667  33.954  1.00  0.00     0.000 C 
BRANCH  13  14
ATOM     14  C   UNL     1      19.342  36.719  32.460  1.00  0.00     0.000 C 
BRANCH  14  15
ATOM     15  C   UNL     1      20.746  37.296  32.204  1.00  0.00     0.000 C 
BRANCH  15  16
ATOM     16  C   UNL     1      20.779  38.566  31.335  1.00  0.00     0.000 C 
BRANCH  16  17
ATOM     17  C   UNL     1      19.374  39.094  30.995  1.00  0.00     0.000 C 
BRANCH  17  18
ATOM     18  C   UNL     1      19.158  40.540  31.471  1.00  0.00     0.000 C 
BRANCH  18  19
ATOM     19  C   UNL     1      17.773  41.085  31.084  1.00  0.00     0.000 C 
BRANCH  19  20
ATOM     20  C   UNL     1      16.619  40.182  31.563  1.00  0.00     0.006 C 
BRANCH  20  21
ATOM     21  C   UNL     1      15.856  40.737  32.778  1.00  0.00     0.053 C 
BRANCH  21  22
ATOM     22  C   UNL     1      14.402  40.380  32.758  1.00  0.00     0.041 C 
ATOM     23  O   UNL     1      13.908  39.684  33.684  1.00  0.00    -0.550 OA
ATOM     24  O   UNL     1      13.594  40.809  31.714  1.00  0.00    -0.550 OA
ENDBRANCH  21  22
ENDBRANCH  20  21
ENDBRANCH  19  20
ENDBRANCH  18  19
ENDBRANCH  17  18
ENDBRANCH  16  17
ENDBRANCH  15  16
ENDBRANCH  14  15
ENDBRANCH  13  14
ENDBRANCH   1  13
TORSDOF 20
ENDMDL
MODEL 9
REMARK VINA RESULT:    -3.571      1.823      3.220
REMARK INTER + INTRA:         -11.764
REMARK INTER:                  -8.516
REMARK INTRA:                  -3.248
REMARK UNBOUND:                -4.017
REMARK SMILES CCCCCCCCCCCCCCCCCCCCCC(=O)[O-]
REMARK SMILES IDX 12 1 11 2 10 3 9 4 8 5 7 6 6 7 5 8 4 9 3 10 2 11 1 12 13 13
REMARK SMILES IDX 14 14 15 15 16 16 17 17 18 18 19 19 20 20 21 21 22 22 23 23
REMARK SMILES IDX 24 24
REMARK H PARENT
REMARK Flexibility Score: inf
ROOT
ATOM      1  C   UNL     1      18.642  36.598  33.186  1.00  0.00     0.000 C 
ENDROOT
BRANCH   1   2
ATOM      2  C   UNL     1      17.567  37.358  33.982  1.00  0.00     0.000 C 
BRANCH   2   3
ATOM      3  C   UNL     1      18.158  38.222  35.108  1.00  0.00     0.000 C 
BRANCH   3   4
ATOM      4  C   UNL     1      17.993  39.727  34.845  1.00  0.00    -0.000 C 
BRANCH   4   5
ATOM      5  C   UNL     1      16.679  40.060  34.121  1.00  0.00    -0.000 C 
BRANCH   5   6
ATOM      6  C   UNL     1      16.907  41.103  33.022  1.00  0.00    -0.000 C 
BRANCH   6   7
ATOM      7  C   UNL     1      18.204  40.817  32.252  1.00  0.00    -0.000 C 
BRANCH   7   8
ATOM      8  C   UNL     1      18.018  40.866  30.726  1.00  0.00    -0.000 C 
BRANCH   8   9
ATOM      9  C   UNL     1      17.073  39.793  30.146  1.00  0.00    -0.000 C 
BRANCH   9  10
ATOM     10  C   UNL     1      15.729  40.324  29.616  1.00  0.00    -0.000 C 
BRANCH  10  11
ATOM     11  C   UNL     1      15.474  39.944  28.151  1.00  0.00    -0.003 C 
ATOM     12  C   UNL     1      14.102  40.425  27.689  1.00  0.00     0.004 C 
ENDBRANCH  10  11
ENDBRANCH   9  10
ENDBRANCH   8   9
ENDBRANCH   7   8
ENDBRANCH   6   7
ENDBRANCH   5   6
ENDBRANCH   4   5
ENDBRANCH   3   4
ENDBRANCH   2   3
ENDBRANCH   1   2
BRANCH   1  13
ATOM     13  C   UNL     1      18.744  37.038  31.711  1.00  0.00     0.000 C 
BRANCH  13  14
ATOM     14  C   UNL     1      20.191  36.993  31.189  1.00  0.00     0.000 C 
BRANCH  14  15
ATOM     15  C   UNL     1      20.881  38.369  31.215  1.00  0.00     0.000 C 
BRANCH  15  16
ATOM     16  C   UNL     1      22.007  38.514  32.255  1.00  0.00     0.000 C 
BRANCH  16  17
ATOM     17  C   UNL     1      21.500  39.020  33.617  1.00  0.00     0.000 C 
BRANCH  17  18
ATOM     18  C   UNL     1      22.235  38.365  34.798  1.00  0.00     0.000 C 
BRANCH  18  19
ATOM     19  C   UNL     1      21.705  36.954  35.109  1.00  0.00     0.000 C 
BRANCH  19  20
ATOM     20  C   UNL     1      22.111  36.458  36.511  1.00  0.00     0.006 C 
BRANCH  20  21
ATOM     21  C   UNL     1      21.059  36.733  37.598  1.00  0.00     0.053 C 
BRANCH  21  22
ATOM     22  C   UNL     1      21.502  37.771  38.582  1.00  0.00     0.041 C 
ATOM     23  O   UNL     1      20.929  38.891  38.624  1.00  0.00    -0.550 OA
ATOM     24  O   UNL     1      22.555  37.505  39.447  1.00  0.00    -0.550 OA
ENDBRANCH  21  22
ENDBRANCH  20  21
ENDBRANCH  19  20
ENDBRANCH  18  19
ENDBRANCH  17  18
ENDBRANCH  16  17
ENDBRANCH  15  16
ENDBRANCH  14  15
ENDBRANCH  13  14
ENDBRANCH   1  13
TORSDOF 20
ENDMDL
