MODEL 1
REMARK VINA RESULT:     9.574      0.000      0.000
REMARK INTER + INTRA:          13.562
REMARK INTER:                  13.772
REMARK INTRA:                  -0.210
REMARK UNBOUND:                -0.210
REMARK SMILES O=c1c(O[C@@H]2O[C@@H](CO)[C@H](O)[C@@H](O)[C@H]2O)c(-c2ccc(O)cc2)oc2cc(O)cc(O)c12
REMARK SMILES IDX 4 1 3 2 16 3 24 4 2 5 25 6 1 7 32 8 26 9 30 10 27 11 29 12
REMARK SMILES IDX 17 13 18 14 19 15 20 16 23 17 22 18 21 19 31 21 28 23 5 25
REMARK SMILES IDX 14 26 6 27 12 28 7 29 10 30 15 31 13 33 8 35 9 36 11 38
REMARK H PARENT 21 20 31 22 28 24 15 32 13 34 9 37 11 39
REMARK Flexibility Score: inf
ROOT
ATOM      1  O   UNL     1      16.229  -2.124  28.392  1.00  0.00    -0.454 OA
ENDROOT
BRANCH   1   2
ATOM      2  C   UNL     1      16.214  -3.282  27.595  1.00  0.00     0.214 A 
ATOM      3  C   UNL     1      17.392  -3.932  27.163  1.00  0.00     0.180 A 
ATOM      4  O   UNL     1      17.308  -5.076  26.493  1.00  0.00    -0.452 OA
ATOM      5  C   UNL     1      14.974  -3.808  27.205  1.00  0.00     0.239 A 
ATOM      6  C   UNL     1      16.155  -5.621  26.123  1.00  0.00     0.146 A 
ATOM      7  O   UNL     1      13.914  -3.224  27.567  1.00  0.00    -0.285 OA
ATOM      8  C   UNL     1      14.927  -4.991  26.437  1.00  0.00     0.111 A 
ATOM      9  C   UNL     1      16.168  -6.815  25.396  1.00  0.00     0.094 A 
ATOM     10  C   UNL     1      13.717  -5.564  25.974  1.00  0.00     0.134 A 
ATOM     11  C   UNL     1      14.970  -7.382  24.950  1.00  0.00     0.123 A 
ATOM     12  C   UNL     1      13.755  -6.747  25.224  1.00  0.00     0.093 A 
BRANCH   3  13
ATOM     13  C   UNL     1      18.734  -3.355  27.360  1.00  0.00     0.021 A 
ATOM     14  C   UNL     1      19.370  -3.460  28.606  1.00  0.00     0.016 A 
ATOM     15  C   UNL     1      20.695  -3.041  28.760  1.00  0.00     0.047 A 
ATOM     16  C   UNL     1      21.412  -2.551  27.659  1.00  0.00     0.115 A 
ATOM     17  C   UNL     1      19.456  -2.853  26.260  1.00  0.00     0.016 A 
ATOM     18  C   UNL     1      20.785  -2.453  26.409  1.00  0.00     0.047 A 
BRANCH  16  19
ATOM     19  O   UNL     1      22.744  -2.182  27.808  1.00  0.00    -0.508 OA
ATOM     20  H   UNL     1      23.391  -2.737  28.353  1.00  0.00     0.293 HD
ENDBRANCH  16  19
ENDBRANCH   3  13
BRANCH  10  21
ATOM     21  O   UNL     1      12.488  -4.964  26.244  1.00  0.00    -0.507 OA
ATOM     22  H   UNL     1      12.420  -3.997  26.525  1.00  0.00     0.293 HD
ENDBRANCH  10  21
BRANCH  11  23
ATOM     23  O   UNL     1      14.974  -8.574  24.229  1.00  0.00    -0.508 OA
ATOM     24  H   UNL     1      14.681  -9.449  24.645  1.00  0.00     0.293 HD
ENDBRANCH  11  23
ENDBRANCH   1   2
BRANCH   1  25
ATOM     25  C   UNL     1      16.336  -0.786  27.893  1.00  0.00     0.339 C 
ATOM     26  C   UNL     1      16.984  -0.869  26.481  1.00  0.00     0.214 C 
ATOM     27  O   UNL     1      15.042  -0.186  27.883  1.00  0.00    -0.332 OA
ATOM     28  C   UNL     1      15.931  -0.600  25.398  1.00  0.00     0.180 C 
ATOM     29  C   UNL     1      14.975   1.015  27.125  1.00  0.00     0.179 C 
ATOM     30  C   UNL     1      15.299   0.786  25.621  1.00  0.00     0.177 C 
BRANCH  26  31
ATOM     31  O   UNL     1      18.031   0.061  26.356  1.00  0.00    -0.384 OA
ATOM     32  H   UNL     1      18.875  -0.428  26.532  1.00  0.00     0.211 HD
ENDBRANCH  26  31
BRANCH  28  33
ATOM     33  O   UNL     1      16.512  -0.658  24.122  1.00  0.00    -0.387 OA
ATOM     34  H   UNL     1      17.383  -0.185  24.190  1.00  0.00     0.211 HD
ENDBRANCH  28  33
BRANCH  29  35
ATOM     35  C   UNL     1      15.810   2.156  27.742  1.00  0.00     0.191 C 
BRANCH  35  36
ATOM     36  O   UNL     1      15.508   2.294  29.106  1.00  0.00    -0.394 OA
ATOM     37  H   UNL     1      15.060   3.173  29.220  1.00  0.00     0.210 HD
ENDBRANCH  35  36
ENDBRANCH  29  35
BRANCH  30  38
ATOM     38  O   UNL     1      14.122   0.899  24.866  1.00  0.00    -0.387 OA
ATOM     39  H   UNL     1      14.351   0.637  23.935  1.00  0.00     0.211 HD
ENDBRANCH  30  38
ENDBRANCH   1  25
TORSDOF 11
ENDMDL
MODEL 2
REMARK VINA RESULT:     9.683      6.982     10.766
REMARK INTER + INTRA:          13.719
REMARK INTER:                  13.224
REMARK INTRA:                   0.494
REMARK UNBOUND:                -0.210
REMARK SMILES O=c1c(O[C@@H]2O[C@@H](CO)[C@H](O)[C@@H](O)[C@H]2O)c(-c2ccc(O)cc2)oc2cc(O)cc(O)c12
REMARK SMILES IDX 4 1 3 2 16 3 24 4 2 5 25 6 1 7 32 8 26 9 30 10 27 11 29 12
REMARK SMILES IDX 17 13 18 14 19 15 20 16 23 17 22 18 21 19 31 21 28 23 5 25
REMARK SMILES IDX 14 26 6 27 12 28 7 29 10 30 15 31 13 33 8 35 9 36 11 38
REMARK H PARENT 21 20 31 22 28 24 15 32 13 34 9 37 11 39
REMARK Flexibility Score: inf
ROOT
ATOM      1  O   UNL     1      14.725 -11.336  30.176  1.00  0.00    -0.454 OA
ENDROOT
BRANCH   1   2
ATOM      2  C   UNL     1      14.963 -12.238  29.125  1.00  0.00     0.214 A 
ATOM      3  C   UNL     1      15.077 -11.833  27.776  1.00  0.00     0.180 A 
ATOM      4  O   UNL     1      15.399 -12.721  26.843  1.00  0.00    -0.452 OA
ATOM      5  C   UNL     1      15.085 -13.602  29.429  1.00  0.00     0.239 A 
ATOM      6  C   UNL     1      15.546 -14.018  27.091  1.00  0.00     0.146 A 
ATOM      7  O   UNL     1      14.964 -13.980  30.628  1.00  0.00    -0.285 OA
ATOM      8  C   UNL     1      15.363 -14.526  28.399  1.00  0.00     0.111 A 
ATOM      9  C   UNL     1      15.859 -14.881  26.037  1.00  0.00     0.094 A 
ATOM     10  C   UNL     1      15.464 -15.921  28.620  1.00  0.00     0.134 A 
ATOM     11  C   UNL     1      15.967 -16.258  26.263  1.00  0.00     0.123 A 
ATOM     12  C   UNL     1      15.753 -16.772  27.545  1.00  0.00     0.093 A 
BRANCH   3  13
ATOM     13  C   UNL     1      14.779 -10.458  27.333  1.00  0.00     0.021 A 
ATOM     14  C   UNL     1      15.711  -9.750  26.561  1.00  0.00     0.016 A 
ATOM     15  C   UNL     1      15.380  -8.504  26.020  1.00  0.00     0.047 A 
ATOM     16  C   UNL     1      14.096  -7.972  26.212  1.00  0.00     0.115 A 
ATOM     17  C   UNL     1      13.496  -9.915  27.530  1.00  0.00     0.016 A 
ATOM     18  C   UNL     1      13.157  -8.679  26.974  1.00  0.00     0.047 A 
BRANCH  16  19
ATOM     19  O   UNL     1      13.757  -6.755  25.631  1.00  0.00    -0.508 OA
ATOM     20  H   UNL     1      13.636  -5.918  26.184  1.00  0.00     0.293 HD
ENDBRANCH  16  19
ENDBRANCH   3  13
BRANCH  10  21
ATOM     21  O   UNL     1      15.271 -16.464  29.890  1.00  0.00    -0.507 OA
ATOM     22  H   UNL     1      15.471 -17.433  30.089  1.00  0.00     0.293 HD
ENDBRANCH  10  21
BRANCH  11  23
ATOM     23  O   UNL     1      16.284 -17.125  25.219  1.00  0.00    -0.508 OA
ATOM     24  H   UNL     1      17.124 -17.689  25.231  1.00  0.00     0.293 HD
ENDBRANCH  11  23
ENDBRANCH   1   2
BRANCH   1  25
ATOM     25  C   UNL     1      13.531 -11.295  30.966  1.00  0.00     0.339 C 
ATOM     26  C   UNL     1      13.050  -9.816  31.002  1.00  0.00     0.214 C 
ATOM     27  O   UNL     1      12.569 -12.186  30.406  1.00  0.00    -0.332 OA
ATOM     28  C   UNL     1      11.810  -9.641  30.116  1.00  0.00     0.180 C 
ATOM     29  C   UNL     1      11.254 -11.999  30.914  1.00  0.00     0.179 C 
ATOM     30  C   UNL     1      10.692 -10.583  30.597  1.00  0.00     0.177 C 
BRANCH  26  31
ATOM     31  O   UNL     1      12.746  -9.420  32.316  1.00  0.00    -0.384 OA
ATOM     32  H   UNL     1      12.846 -10.222  32.890  1.00  0.00     0.211 HD
ENDBRANCH  26  31
BRANCH  28  33
ATOM     33  O   UNL     1      11.362  -8.311  30.155  1.00  0.00    -0.387 OA
ATOM     34  H   UNL     1      10.838  -8.168  29.323  1.00  0.00     0.211 HD
ENDBRANCH  28  33
BRANCH  29  35
ATOM     35  C   UNL     1      11.136 -12.359  32.409  1.00  0.00     0.191 C 
BRANCH  35  36
ATOM     36  O   UNL     1      12.413 -12.500  32.975  1.00  0.00    -0.394 OA
ATOM     37  H   UNL     1      12.954 -11.724  32.675  1.00  0.00     0.210 HD
ENDBRANCH  35  36
ENDBRANCH  29  35
BRANCH  30  38
ATOM     38  O   UNL     1       9.699 -10.684  29.611  1.00  0.00    -0.387 OA
ATOM     39  H   UNL     1       9.682  -9.814  29.130  1.00  0.00     0.211 HD
ENDBRANCH  30  38
ENDBRANCH   1  25
TORSDOF 11
ENDMDL
MODEL 3
REMARK VINA RESULT:    11.468      2.542      6.753
REMARK INTER + INTRA:          16.286
REMARK INTER:                  14.999
REMARK INTRA:                   1.287
REMARK UNBOUND:                -0.210
REMARK SMILES O=c1c(O[C@@H]2O[C@@H](CO)[C@H](O)[C@@H](O)[C@H]2O)c(-c2ccc(O)cc2)oc2cc(O)cc(O)c12
REMARK SMILES IDX 4 1 3 2 16 3 24 4 2 5 25 6 1 7 32 8 26 9 30 10 27 11 29 12
REMARK SMILES IDX 17 13 18 14 19 15 20 16 23 17 22 18 21 19 31 21 28 23 5 25
REMARK SMILES IDX 14 26 6 27 12 28 7 29 10 30 15 31 13 33 8 35 9 36 11 38
REMARK H PARENT 21 20 31 22 28 24 15 32 13 34 9 37 11 39
REMARK Flexibility Score: inf
ROOT
ATOM      1  O   UNL     1      16.335  -4.288  26.945  1.00  0.00    -0.454 OA
ENDROOT
BRANCH   1   2
ATOM      2  C   UNL     1      15.970  -2.931  26.922  1.00  0.00     0.214 A 
ATOM      3  C   UNL     1      15.955  -2.120  28.079  1.00  0.00     0.180 A 
ATOM      4  O   UNL     1      15.693  -0.822  27.974  1.00  0.00    -0.452 OA
ATOM      5  C   UNL     1      15.595  -2.360  25.697  1.00  0.00     0.239 A 
ATOM      6  C   UNL     1      15.356  -0.237  26.830  1.00  0.00     0.146 A 
ATOM      7  O   UNL     1      15.584  -3.081  24.659  1.00  0.00    -0.285 OA
ATOM      8  C   UNL     1      15.259  -0.991  25.636  1.00  0.00     0.111 A 
ATOM      9  C   UNL     1      15.072   1.132  26.823  1.00  0.00     0.094 A 
ATOM     10  C   UNL     1      14.836  -0.351  24.446  1.00  0.00     0.134 A 
ATOM     11  C   UNL     1      14.663   1.760  25.642  1.00  0.00     0.123 A 
ATOM     12  C   UNL     1      14.531   1.016  24.466  1.00  0.00     0.093 A 
BRANCH   3  13
ATOM     13  C   UNL     1      16.148  -2.667  29.434  1.00  0.00     0.021 A 
ATOM     14  C   UNL     1      15.135  -2.538  30.396  1.00  0.00     0.016 A 
ATOM     15  C   UNL     1      15.251  -3.175  31.635  1.00  0.00     0.047 A 
ATOM     16  C   UNL     1      16.365  -3.982  31.910  1.00  0.00     0.115 A 
ATOM     17  C   UNL     1      17.267  -3.471  29.719  1.00  0.00     0.016 A 
ATOM     18  C   UNL     1      17.376  -4.124  30.949  1.00  0.00     0.047 A 
BRANCH  16  19
ATOM     19  O   UNL     1      16.451  -4.653  33.125  1.00  0.00    -0.508 OA
ATOM     20  H   UNL     1      16.563  -5.656  33.171  1.00  0.00     0.293 HD
ENDBRANCH  16  19
ENDBRANCH   3  13
BRANCH  10  21
ATOM     21  O   UNL     1      14.709  -1.063  23.253  1.00  0.00    -0.507 OA
ATOM     22  H   UNL     1      14.117  -0.739  22.503  1.00  0.00     0.293 HD
ENDBRANCH  10  21
BRANCH  11  23
ATOM     23  O   UNL     1      14.382   3.125  25.625  1.00  0.00    -0.508 OA
ATOM     24  H   UNL     1      15.044   3.801  25.263  1.00  0.00     0.293 HD
ENDBRANCH  11  23
ENDBRANCH   1   2
BRANCH   1  25
ATOM     25  C   UNL     1      16.216  -5.188  25.838  1.00  0.00     0.339 C 
ATOM     26  C   UNL     1      16.712  -6.583  26.320  1.00  0.00     0.214 C 
ATOM     27  O   UNL     1      14.864  -5.197  25.386  1.00  0.00    -0.332 OA
ATOM     28  C   UNL     1      15.520  -7.531  26.508  1.00  0.00     0.180 C 
ATOM     29  C   UNL     1      14.563  -6.273  24.507  1.00  0.00     0.179 C 
ATOM     30  C   UNL     1      14.747  -7.661  25.183  1.00  0.00     0.177 C 
BRANCH  26  31
ATOM     31  O   UNL     1      17.612  -7.140  25.396  1.00  0.00    -0.384 OA
ATOM     32  H   UNL     1      17.107  -7.807  24.866  1.00  0.00     0.211 HD
ENDBRANCH  26  31
BRANCH  28  33
ATOM     33  O   UNL     1      15.961  -8.796  26.929  1.00  0.00    -0.387 OA
ATOM     34  H   UNL     1      16.322  -9.248  26.121  1.00  0.00     0.211 HD
ENDBRANCH  28  33
BRANCH  29  35
ATOM     35  C   UNL     1      15.310  -6.169  23.161  1.00  0.00     0.191 C 
BRANCH  35  36
ATOM     36  O   UNL     1      15.799  -7.429  22.780  1.00  0.00    -0.394 OA
ATOM     37  H   UNL     1      16.489  -7.279  22.083  1.00  0.00     0.210 HD
ENDBRANCH  35  36
ENDBRANCH  29  35
BRANCH  30  38
ATOM     38  O   UNL     1      13.489  -8.236  25.422  1.00  0.00    -0.387 OA
ATOM     39  H   UNL     1      12.846  -7.485  25.530  1.00  0.00     0.211 HD
ENDBRANCH  30  38
ENDBRANCH   1  25
TORSDOF 11
ENDMDL
MODEL 4
REMARK VINA RESULT:    11.998      2.425      6.711
REMARK INTER + INTRA:          17.049
REMARK INTER:                  17.539
REMARK INTRA:                  -0.490
REMARK UNBOUND:                -0.210
REMARK SMILES O=c1c(O[C@@H]2O[C@@H](CO)[C@H](O)[C@@H](O)[C@H]2O)c(-c2ccc(O)cc2)oc2cc(O)cc(O)c12
REMARK SMILES IDX 4 1 3 2 16 3 24 4 2 5 25 6 1 7 32 8 26 9 30 10 27 11 29 12
REMARK SMILES IDX 17 13 18 14 19 15 20 16 23 17 22 18 21 19 31 21 28 23 5 25
REMARK SMILES IDX 14 26 6 27 12 28 7 29 10 30 15 31 13 33 8 35 9 36 11 38
REMARK H PARENT 21 20 31 22 28 24 15 32 13 34 9 37 11 39
REMARK Flexibility Score: inf
ROOT
ATOM      1  O   UNL     1      15.119  -1.865  29.105  1.00  0.00    -0.454 OA
ENDROOT
BRANCH   1   2
ATOM      2  C   UNL     1      15.060  -1.176  27.881  1.00  0.00     0.214 A 
ATOM      3  C   UNL     1      15.095  -1.829  26.629  1.00  0.00     0.180 A 
ATOM      4  O   UNL     1      14.939  -1.128  25.512  1.00  0.00    -0.452 OA
ATOM      5  C   UNL     1      14.970   0.223  27.906  1.00  0.00     0.239 A 
ATOM      6  C   UNL     1      14.827   0.195  25.492  1.00  0.00     0.146 A 
ATOM      7  O   UNL     1      14.959   0.821  29.020  1.00  0.00    -0.285 OA
ATOM      8  C   UNL     1      14.871   0.940  26.695  1.00  0.00     0.111 A 
ATOM      9  C   UNL     1      14.692   0.849  24.264  1.00  0.00     0.094 A 
ATOM     10  C   UNL     1      14.813   2.354  26.635  1.00  0.00     0.134 A 
ATOM     11  C   UNL     1      14.626   2.245  24.212  1.00  0.00     0.123 A 
ATOM     12  C   UNL     1      14.704   2.990  25.392  1.00  0.00     0.093 A 
BRANCH   3  13
ATOM     13  C   UNL     1      15.377  -3.271  26.494  1.00  0.00     0.021 A 
ATOM     14  C   UNL     1      14.326  -4.177  26.288  1.00  0.00     0.016 A 
ATOM     15  C   UNL     1      14.596  -5.522  26.019  1.00  0.00     0.047 A 
ATOM     16  C   UNL     1      15.922  -5.967  25.913  1.00  0.00     0.115 A 
ATOM     17  C   UNL     1      16.706  -3.725  26.395  1.00  0.00     0.016 A 
ATOM     18  C   UNL     1      16.976  -5.064  26.108  1.00  0.00     0.047 A 
BRANCH  16  19
ATOM     19  O   UNL     1      16.183  -7.296  25.597  1.00  0.00    -0.508 OA
ATOM     20  H   UNL     1      15.496  -8.022  25.747  1.00  0.00     0.293 HD
ENDBRANCH  16  19
ENDBRANCH   3  13
BRANCH  10  21
ATOM     21  O   UNL     1      14.873   3.125  27.796  1.00  0.00    -0.507 OA
ATOM     22  H   UNL     1      15.223   4.071  27.787  1.00  0.00     0.293 HD
ENDBRANCH  10  21
BRANCH  11  23
ATOM     23  O   UNL     1      14.487   2.904  22.992  1.00  0.00    -0.508 OA
ATOM     24  H   UNL     1      14.697   3.889  22.892  1.00  0.00     0.293 HD
ENDBRANCH  11  23
ENDBRANCH   1   2
BRANCH   1  25
ATOM     25  C   UNL     1      16.326  -2.282  29.754  1.00  0.00     0.339 C 
ATOM     26  C   UNL     1      16.033  -2.341  31.281  1.00  0.00     0.214 C 
ATOM     27  O   UNL     1      16.741  -3.533  29.212  1.00  0.00    -0.332 OA
ATOM     28  C   UNL     1      15.933  -3.801  31.744  1.00  0.00     0.180 C 
ATOM     29  C   UNL     1      17.738  -4.188  29.984  1.00  0.00     0.179 C 
ATOM     30  C   UNL     1      17.243  -4.539  31.417  1.00  0.00     0.177 C 
BRANCH  26  31
ATOM     31  O   UNL     1      17.042  -1.687  32.010  1.00  0.00    -0.384 OA
ATOM     32  H   UNL     1      17.193  -0.811  31.572  1.00  0.00     0.211 HD
ENDBRANCH  26  31
BRANCH  28  33
ATOM     33  O   UNL     1      15.684  -3.862  33.124  1.00  0.00    -0.387 OA
ATOM     34  H   UNL     1      16.363  -4.481  33.503  1.00  0.00     0.211 HD
ENDBRANCH  28  33
BRANCH  29  35
ATOM     35  C   UNL     1      19.080  -3.426  29.994  1.00  0.00     0.191 C 
BRANCH  35  36
ATOM     36  O   UNL     1      19.543  -3.245  28.682  1.00  0.00    -0.394 OA
ATOM     37  H   UNL     1      20.424  -3.698  28.616  1.00  0.00     0.210 HD
ENDBRANCH  35  36
ENDBRANCH  29  35
BRANCH  30  38
ATOM     38  O   UNL     1      17.045  -5.925  31.516  1.00  0.00    -0.387 OA
ATOM     39  H   UNL     1      17.902  -6.358  31.257  1.00  0.00     0.211 HD
ENDBRANCH  30  38
ENDBRANCH   1  25
TORSDOF 11
ENDMDL
MODEL 5
REMARK VINA RESULT:    11.998      5.968     10.131
REMARK INTER + INTRA:          17.049
REMARK INTER:                  16.489
REMARK INTRA:                   0.560
REMARK UNBOUND:                -0.210
REMARK SMILES O=c1c(O[C@@H]2O[C@@H](CO)[C@H](O)[C@@H](O)[C@H]2O)c(-c2ccc(O)cc2)oc2cc(O)cc(O)c12
REMARK SMILES IDX 4 1 3 2 16 3 24 4 2 5 25 6 1 7 32 8 26 9 30 10 27 11 29 12
REMARK SMILES IDX 17 13 18 14 19 15 20 16 23 17 22 18 21 19 31 21 28 23 5 25
REMARK SMILES IDX 14 26 6 27 12 28 7 29 10 30 15 31 13 33 8 35 9 36 11 38
REMARK H PARENT 21 20 31 22 28 24 15 32 13 34 9 37 11 39
REMARK Flexibility Score: inf
ROOT
ATOM      1  O   UNL     1      13.808  -9.738  28.951  1.00  0.00    -0.454 OA
ENDROOT
BRANCH   1   2
ATOM      2  C   UNL     1      14.243  -9.610  27.620  1.00  0.00     0.214 A 
ATOM      3  C   UNL     1      14.724 -10.700  26.861  1.00  0.00     0.180 A 
ATOM      4  O   UNL     1      15.030 -10.531  25.580  1.00  0.00    -0.452 OA
ATOM      5  C   UNL     1      14.206  -8.341  27.025  1.00  0.00     0.239 A 
ATOM      6  C   UNL     1      14.987  -9.352  24.970  1.00  0.00     0.146 A 
ATOM      7  O   UNL     1      13.799  -7.354  27.700  1.00  0.00    -0.285 OA
ATOM      8  C   UNL     1      14.602  -8.188  25.678  1.00  0.00     0.111 A 
ATOM      9  C   UNL     1      15.353  -9.267  23.624  1.00  0.00     0.094 A 
ATOM     10  C   UNL     1      14.628  -6.936  25.018  1.00  0.00     0.134 A 
ATOM     11  C   UNL     1      15.368  -8.029  22.974  1.00  0.00     0.123 A 
ATOM     12  C   UNL     1      15.023  -6.870  23.675  1.00  0.00     0.093 A 
BRANCH   3  13
ATOM     13  C   UNL     1      14.978 -12.028  27.452  1.00  0.00     0.021 A 
ATOM     14  C   UNL     1      15.246 -12.147  28.824  1.00  0.00     0.016 A 
ATOM     15  C   UNL     1      15.348 -13.410  29.416  1.00  0.00     0.047 A 
ATOM     16  C   UNL     1      15.142 -14.566  28.649  1.00  0.00     0.115 A 
ATOM     17  C   UNL     1      14.782 -13.192  26.686  1.00  0.00     0.016 A 
ATOM     18  C   UNL     1      14.864 -14.453  27.280  1.00  0.00     0.047 A 
BRANCH  16  19
ATOM     19  O   UNL     1      15.197 -15.817  29.254  1.00  0.00    -0.508 OA
ATOM     20  H   UNL     1      14.648 -16.595  28.914  1.00  0.00     0.293 HD
ENDBRANCH  16  19
ENDBRANCH   3  13
BRANCH  10  21
ATOM     21  O   UNL     1      14.274  -5.764  25.686  1.00  0.00    -0.507 OA
ATOM     22  H   UNL     1      14.055  -5.760  26.671  1.00  0.00     0.293 HD
ENDBRANCH  10  21
BRANCH  11  23
ATOM     23  O   UNL     1      15.727  -7.937  21.631  1.00  0.00    -0.508 OA
ATOM     24  H   UNL     1      16.216  -7.129  21.264  1.00  0.00     0.293 HD
ENDBRANCH  11  23
ENDBRANCH   1   2
BRANCH   1  25
ATOM     25  C   UNL     1      12.531 -10.250  29.350  1.00  0.00     0.339 C 
ATOM     26  C   UNL     1      11.655 -10.361  28.069  1.00  0.00     0.214 C 
ATOM     27  O   UNL     1      12.716 -11.498  30.015  1.00  0.00    -0.332 OA
ATOM     28  C   UNL     1      11.501 -11.832  27.659  1.00  0.00     0.180 C 
ATOM     29  C   UNL     1      11.515 -12.242  30.177  1.00  0.00     0.179 C 
ATOM     30  C   UNL     1      10.869 -12.628  28.816  1.00  0.00     0.177 C 
BRANCH  26  31
ATOM     31  O   UNL     1      10.385  -9.798  28.281  1.00  0.00    -0.384 OA
ATOM     32  H   UNL     1       9.921 -10.373  28.941  1.00  0.00     0.211 HD
ENDBRANCH  26  31
BRANCH  28  33
ATOM     33  O   UNL     1      10.699 -11.941  26.512  1.00  0.00    -0.387 OA
ATOM     34  H   UNL     1      11.321 -12.046  25.745  1.00  0.00     0.211 HD
ENDBRANCH  28  33
BRANCH  29  35
ATOM     35  C   UNL     1      10.515 -11.558  31.132  1.00  0.00     0.191 C 
BRANCH  35  36
ATOM     36  O   UNL     1       9.570 -10.824  30.397  1.00  0.00    -0.394 OA
ATOM     37  H   UNL     1       9.497  -9.930  30.823  1.00  0.00     0.210 HD
ENDBRANCH  35  36
ENDBRANCH  29  35
BRANCH  30  38
ATOM     38  O   UNL     1      11.036 -14.004  28.592  1.00  0.00    -0.387 OA
ATOM     39  H   UNL     1      11.927 -14.248  28.958  1.00  0.00     0.211 HD
ENDBRANCH  30  38
ENDBRANCH   1  25
TORSDOF 11
ENDMDL
