MODEL 1
REMARK VINA RESULT:    -3.423      0.000      0.000
REMARK INTER + INTRA:          -3.423
REMARK INTER:                  -3.423
REMARK INTRA:                   0.000
REMARK UNBOUND:                 0.000
REMARK SMILES CC1(C)C(=O)[C@]2(C)CC[C@H]1C2
REMARK SMILES IDX 1 1 2 2 10 3 9 4 8 5 6 6 11 7 4 8 5 9 7 10 3 11
REMARK H PARENT
REMARK Flexibility Score: inf
ROOT
ATOM      1  C   UNL     1     135.780 137.517 143.701  1.00  0.00     0.020 C 
ATOM      2  C   UNL     1     134.865 137.010 144.836  1.00  0.00     0.027 C 
ATOM      3  C   UNL     1     134.149 138.150 145.647  1.00  0.00     0.003 C 
ATOM      4  C   UNL     1     133.492 139.183 144.698  1.00  0.00     0.005 C 
ATOM      5  C   UNL     1     132.338 138.381 144.054  1.00  0.00     0.015 C 
ATOM      6  C   UNL     1     132.419 137.028 144.787  1.00  0.00     0.027 C 
ATOM      7  C   UNL     1     132.890 137.455 146.163  1.00  0.00     0.019 C 
ATOM      8  C   UNL     1     133.648 136.315 144.294  1.00  0.00     0.144 C 
ATOM      9  O   UNL     1     133.660 135.372 143.516  1.00  0.00    -0.298 OA
ATOM     10  C   UNL     1     131.133 136.199 144.778  1.00  0.00     0.020 C 
ATOM     11  C   UNL     1     135.675 136.076 145.760  1.00  0.00     0.020 C 
ENDROOT
TORSDOF 0
ENDMDL
MODEL 2
REMARK VINA RESULT:    -3.418     10.083     11.645
REMARK INTER + INTRA:          -3.418
REMARK INTER:                  -3.418
REMARK INTRA:                   0.000
REMARK UNBOUND:                 0.000
REMARK SMILES CC1(C)C(=O)[C@]2(C)CC[C@H]1C2
REMARK SMILES IDX 1 1 2 2 10 3 9 4 8 5 6 6 11 7 4 8 5 9 7 10 3 11
REMARK H PARENT
REMARK Flexibility Score: inf
ROOT
ATOM      1  C   UNL     1     137.497 145.857 143.741  1.00  0.00     0.020 C 
ATOM      2  C   UNL     1     136.975 146.765 144.875  1.00  0.00     0.027 C 
ATOM      3  C   UNL     1     138.105 147.474 145.706  1.00  0.00     0.003 C 
ATOM      4  C   UNL     1     139.152 148.136 144.775  1.00  0.00     0.005 C 
ATOM      5  C   UNL     1     138.360 149.295 144.128  1.00  0.00     0.015 C 
ATOM      6  C   UNL     1     136.997 149.212 144.842  1.00  0.00     0.027 C 
ATOM      7  C   UNL     1     137.404 148.731 146.220  1.00  0.00     0.019 C 
ATOM      8  C   UNL     1     136.290 147.986 144.332  1.00  0.00     0.144 C 
ATOM      9  O   UNL     1     135.357 147.981 143.541  1.00  0.00    -0.298 OA
ATOM     10  C   UNL     1     136.169 150.499 144.830  1.00  0.00     0.020 C 
ATOM     11  C   UNL     1     136.028 145.951 145.781  1.00  0.00     0.020 C 
ENDROOT
TORSDOF 0
ENDMDL
MODEL 3
REMARK VINA RESULT:    -3.406     10.115     11.667
REMARK INTER + INTRA:          -3.406
REMARK INTER:                  -3.406
REMARK INTRA:                   0.000
REMARK UNBOUND:                 0.000
REMARK SMILES CC1(C)C(=O)[C@]2(C)CC[C@H]1C2
REMARK SMILES IDX 1 1 2 2 10 3 9 4 8 5 6 6 11 7 4 8 5 9 7 10 3 11
REMARK H PARENT
REMARK Flexibility Score: inf
ROOT
ATOM      1  C   UNL     1     144.090 135.742 143.843  1.00  0.00     0.020 C 
ATOM      2  C   UNL     1     144.597 134.811 144.966  1.00  0.00     0.027 C 
ATOM      3  C   UNL     1     143.457 134.068 145.752  1.00  0.00     0.003 C 
ATOM      4  C   UNL     1     142.442 133.416 144.780  1.00  0.00     0.005 C 
ATOM      5  C   UNL     1     143.264 132.284 144.123  1.00  0.00     0.015 C 
ATOM      6  C   UNL     1     144.608 132.367 144.871  1.00  0.00     0.027 C 
ATOM      7  C   UNL     1     144.162 132.808 146.251  1.00  0.00     0.019 C 
ATOM      8  C   UNL     1     145.311 133.613 144.409  1.00  0.00     0.144 C 
ATOM      9  O   UNL     1     146.262 133.650 143.641  1.00  0.00    -0.298 OA
ATOM     10  C   UNL     1     145.453 131.091 144.847  1.00  0.00     0.020 C 
ATOM     11  C   UNL     1     145.512 135.615 145.914  1.00  0.00     0.020 C 
ENDROOT
TORSDOF 0
ENDMDL
MODEL 4
REMARK VINA RESULT:    -3.402     14.508     16.450
REMARK INTER + INTRA:          -3.402
REMARK INTER:                  -3.402
REMARK INTRA:                   0.000
REMARK UNBOUND:                 0.000
REMARK SMILES CC1(C)C(=O)[C@]2(C)CC[C@H]1C2
REMARK SMILES IDX 1 1 2 2 10 3 9 4 8 5 6 6 11 7 4 8 5 9 7 10 3 11
REMARK H PARENT
REMARK Flexibility Score: inf
ROOT
ATOM      1  C   UNL     1     145.836 144.028 143.805  1.00  0.00     0.020 C 
ATOM      2  C   UNL     1     146.739 144.584 144.927  1.00  0.00     0.027 C 
ATOM      3  C   UNL     1     147.466 143.480 145.777  1.00  0.00     0.003 C 
ATOM      4  C   UNL     1     148.142 142.427 144.864  1.00  0.00     0.005 C 
ATOM      5  C   UNL     1     149.288 143.224 144.201  1.00  0.00     0.015 C 
ATOM      6  C   UNL     1     149.185 144.598 144.890  1.00  0.00     0.027 C 
ATOM      7  C   UNL     1     148.713 144.208 146.276  1.00  0.00     0.019 C 
ATOM      8  C   UNL     1     147.948 145.278 144.370  1.00  0.00     0.144 C 
ATOM      9  O   UNL     1     147.928 146.195 143.562  1.00  0.00    -0.298 OA
ATOM     10  C   UNL     1     150.459 145.444 144.861  1.00  0.00     0.020 C 
ATOM     11  C   UNL     1     145.911 145.535 145.818  1.00  0.00     0.020 C 
ENDROOT
TORSDOF 0
ENDMDL
MODEL 5
REMARK VINA RESULT:    -3.363     14.021     15.695
REMARK INTER + INTRA:          -3.363
REMARK INTER:                  -3.363
REMARK INTRA:                   0.000
REMARK UNBOUND:                 0.000
REMARK SMILES CC1(C)C(=O)[C@]2(C)CC[C@H]1C2
REMARK SMILES IDX 1 1 2 2 10 3 9 4 8 5 6 6 11 7 4 8 5 9 7 10 3 11
REMARK H PARENT
REMARK Flexibility Score: inf
ROOT
ATOM      1  C   UNL     1     149.011 143.970 146.958  1.00  0.00     0.020 C 
ATOM      2  C   UNL     1     148.725 144.062 145.443  1.00  0.00     0.027 C 
ATOM      3  C   UNL     1     148.463 142.676 144.751  1.00  0.00     0.003 C 
ATOM      4  C   UNL     1     147.439 141.834 145.554  1.00  0.00     0.005 C 
ATOM      5  C   UNL     1     146.120 142.618 145.368  1.00  0.00     0.015 C 
ATOM      6  C   UNL     1     146.533 143.747 144.404  1.00  0.00     0.027 C 
ATOM      7  C   UNL     1     147.586 143.057 143.560  1.00  0.00     0.019 C 
ATOM      8  C   UNL     1     147.397 144.709 145.172  1.00  0.00     0.144 C 
ATOM      9  O   UNL     1     147.050 145.808 145.579  1.00  0.00    -0.298 OA
ATOM     10  C   UNL     1     145.390 144.384 143.610  1.00  0.00     0.020 C 
ATOM     11  C   UNL     1     149.872 144.833 144.757  1.00  0.00     0.020 C 
ENDROOT
TORSDOF 0
ENDMDL
MODEL 6
REMARK VINA RESULT:    -3.356      1.201      3.164
REMARK INTER + INTRA:          -3.356
REMARK INTER:                  -3.356
REMARK INTRA:                   0.000
REMARK UNBOUND:                 0.000
REMARK SMILES CC1(C)C(=O)[C@]2(C)CC[C@H]1C2
REMARK SMILES IDX 1 1 2 2 10 3 9 4 8 5 6 6 11 7 4 8 5 9 7 10 3 11
REMARK H PARENT
REMARK Flexibility Score: inf
ROOT
ATOM      1  C   UNL     1     132.550 137.668 146.892  1.00  0.00     0.020 C 
ATOM      2  C   UNL     1     132.857 137.541 145.384  1.00  0.00     0.027 C 
ATOM      3  C   UNL     1     133.144 138.910 144.667  1.00  0.00     0.003 C 
ATOM      4  C   UNL     1     134.165 139.757 145.468  1.00  0.00     0.005 C 
ATOM      5  C   UNL     1     135.478 138.955 145.317  1.00  0.00     0.015 C 
ATOM      6  C   UNL     1     135.067 137.811 144.371  1.00  0.00     0.027 C 
ATOM      7  C   UNL     1     134.034 138.494 143.497  1.00  0.00     0.019 C 
ATOM      8  C   UNL     1     134.181 136.875 145.146  1.00  0.00     0.144 C 
ATOM      9  O   UNL     1     134.510 135.780 145.580  1.00  0.00    -0.298 OA
ATOM     10  C   UNL     1     136.214 137.145 143.607  1.00  0.00     0.020 C 
ATOM     11  C   UNL     1     131.711 136.768 144.698  1.00  0.00     0.020 C 
ENDROOT
TORSDOF 0
ENDMDL
MODEL 7
REMARK VINA RESULT:    -3.343      9.810     11.394
REMARK INTER + INTRA:          -3.343
REMARK INTER:                  -3.343
REMARK INTRA:                   0.000
REMARK UNBOUND:                 0.000
REMARK SMILES CC1(C)C(=O)[C@]2(C)CC[C@H]1C2
REMARK SMILES IDX 1 1 2 2 10 3 9 4 8 5 6 6 11 7 4 8 5 9 7 10 3 11
REMARK H PARENT
REMARK Flexibility Score: inf
ROOT
ATOM      1  C   UNL     1     135.980 146.811 143.923  1.00  0.00     0.020 C 
ATOM      2  C   UNL     1     137.490 146.657 144.212  1.00  0.00     0.027 C 
ATOM      3  C   UNL     1     138.340 147.943 143.904  1.00  0.00     0.003 C 
ATOM      4  C   UNL     1     137.687 149.206 144.521  1.00  0.00     0.005 C 
ATOM      5  C   UNL     1     137.858 148.981 146.040  1.00  0.00     0.015 C 
ATOM      6  C   UNL     1     138.672 147.674 146.097  1.00  0.00     0.027 C 
ATOM      7  C   UNL     1     139.528 147.793 144.853  1.00  0.00     0.019 C 
ATOM      8  C   UNL     1     137.760 146.551 145.685  1.00  0.00     0.144 C 
ATOM      9  O   UNL     1     137.257 145.730 146.439  1.00  0.00    -0.298 OA
ATOM     10  C   UNL     1     139.452 147.442 147.393  1.00  0.00     0.020 C 
ATOM     11  C   UNL     1     138.027 145.424 143.456  1.00  0.00     0.020 C 
ENDROOT
TORSDOF 0
ENDMDL
MODEL 8
REMARK VINA RESULT:    -3.335     10.039     11.674
REMARK INTER + INTRA:          -3.335
REMARK INTER:                  -3.335
REMARK INTRA:                   0.000
REMARK UNBOUND:                 0.000
REMARK SMILES CC1(C)C(=O)[C@]2(C)CC[C@H]1C2
REMARK SMILES IDX 1 1 2 2 10 3 9 4 8 5 6 6 11 7 4 8 5 9 7 10 3 11
REMARK H PARENT
REMARK Flexibility Score: inf
ROOT
ATOM      1  C   UNL     1     137.533 149.106 146.957  1.00  0.00     0.020 C 
ATOM      2  C   UNL     1     137.455 148.804 145.445  1.00  0.00     0.027 C 
ATOM      3  C   UNL     1     138.846 148.519 144.771  1.00  0.00     0.003 C 
ATOM      4  C   UNL     1     139.667 147.495 145.595  1.00  0.00     0.005 C 
ATOM      5  C   UNL     1     138.871 146.183 145.414  1.00  0.00     0.015 C 
ATOM      6  C   UNL     1     137.757 146.597 144.434  1.00  0.00     0.027 C 
ATOM      7  C   UNL     1     138.468 147.632 143.586  1.00  0.00     0.019 C 
ATOM      8  C   UNL     1     136.796 147.480 145.181  1.00  0.00     0.144 C 
ATOM      9  O   UNL     1     135.689 147.149 145.579  1.00  0.00    -0.298 OA
ATOM     10  C   UNL     1     137.117 145.452 143.646  1.00  0.00     0.020 C 
ATOM     11  C   UNL     1     136.704 149.951 144.738  1.00  0.00     0.020 C 
ENDROOT
TORSDOF 0
ENDMDL
MODEL 9
REMARK VINA RESULT:    -3.327      9.404     11.020
REMARK INTER + INTRA:          -3.327
REMARK INTER:                  -3.327
REMARK INTRA:                   0.000
REMARK UNBOUND:                 0.000
REMARK SMILES CC1(C)C(=O)[C@]2(C)CC[C@H]1C2
REMARK SMILES IDX 1 1 2 2 10 3 9 4 8 5 6 6 11 7 4 8 5 9 7 10 3 11
REMARK H PARENT
REMARK Flexibility Score: inf
ROOT
ATOM      1  C   UNL     1     143.991 132.524 146.971  1.00  0.00     0.020 C 
ATOM      2  C   UNL     1     144.051 132.849 145.462  1.00  0.00     0.027 C 
ATOM      3  C   UNL     1     142.658 133.191 144.820  1.00  0.00     0.003 C 
ATOM      4  C   UNL     1     141.887 134.227 145.677  1.00  0.00     0.005 C 
ATOM      5  C   UNL     1     142.723 135.515 145.502  1.00  0.00     0.015 C 
ATOM      6  C   UNL     1     143.803 135.081 144.493  1.00  0.00     0.027 C 
ATOM      7  C   UNL     1     143.043 134.084 143.642  1.00  0.00     0.019 C 
ATOM      8  C   UNL     1     144.748 134.154 145.207  1.00  0.00     0.144 C 
ATOM      9  O   UNL     1     145.873 134.442 145.589  1.00  0.00    -0.298 OA
ATOM     10  C   UNL     1     144.467 136.217 143.711  1.00  0.00     0.020 C 
ATOM     11  C   UNL     1     144.750 131.689 144.722  1.00  0.00     0.020 C 
ENDROOT
TORSDOF 0
ENDMDL
