MODEL 1
REMARK VINA RESULT:    -5.640      0.000      0.000
REMARK INTER + INTRA:         -12.495
REMARK INTER:                 -10.916
REMARK INTRA:                  -1.579
REMARK UNBOUND:                -1.579
REMARK SMILES CCCCCCCCCCCCCCCCCC(=O)[O-]
REMARK SMILES IDX 10 1 11 2 12 3 13 4 14 5 15 6 16 7 17 8 18 9 19 10 20 11
REMARK SMILES IDX 9 12 8 13 7 14 6 15 5 16 4 17 3 18 2 19 1 20
REMARK H PARENT
REMARK Flexibility Score: inf
ROOT
ATOM      1  C   UNL     1      -8.203 -15.240  26.662  1.00  0.00     0.000 C 
ENDROOT
BRANCH   1   2
ATOM      2  C   UNL     1      -9.344 -14.491  25.955  1.00  0.00     0.000 C 
BRANCH   2   3
ATOM      3  C   UNL     1     -10.722 -15.112  26.231  1.00  0.00     0.000 C 
BRANCH   3   4
ATOM      4  C   UNL     1     -10.702 -15.934  27.528  1.00  0.00     0.000 C 
BRANCH   4   5
ATOM      5  C   UNL     1     -11.978 -16.769  27.728  1.00  0.00     0.000 C 
BRANCH   5   6
ATOM      6  C   UNL     1     -12.741 -16.495  29.040  1.00  0.00     0.000 C 
BRANCH   6   7
ATOM      7  C   UNL     1     -12.889 -17.709  29.974  1.00  0.00     0.006 C 
BRANCH   7   8
ATOM      8  C   UNL     1     -11.903 -17.679  31.151  1.00  0.00     0.053 C 
BRANCH   8   9
ATOM      9  C   UNL     1     -10.505 -17.900  30.667  1.00  0.00     0.041 C 
ATOM     10  O   UNL     1     -10.201 -18.968  30.073  1.00  0.00    -0.550 OA
ATOM     11  O   UNL     1      -9.546 -16.909  30.838  1.00  0.00    -0.550 OA
ENDBRANCH   8   9
ENDBRANCH   7   8
ENDBRANCH   6   7
ENDBRANCH   5   6
ENDBRANCH   4   5
ENDBRANCH   3   4
ENDBRANCH   2   3
ENDBRANCH   1   2
BRANCH   1  12
ATOM     12  C   UNL     1      -6.905 -14.417  26.730  1.00  0.00     0.000 C 
BRANCH  12  13
ATOM     13  C   UNL     1      -6.312 -14.386  28.155  1.00  0.00    -0.000 C 
BRANCH  13  14
ATOM     14  C   UNL     1      -7.370 -14.513  29.265  1.00  0.00    -0.000 C 
BRANCH  14  15
ATOM     15  C   UNL     1      -6.751 -14.641  30.667  1.00  0.00    -0.000 C 
BRANCH  15  16
ATOM     16  C   UNL     1      -5.225 -14.812  30.624  1.00  0.00    -0.000 C 
BRANCH  16  17
ATOM     17  C   UNL     1      -4.486 -13.791  31.507  1.00  0.00    -0.000 C 
BRANCH  17  18
ATOM     18  C   UNL     1      -5.437 -12.985  32.410  1.00  0.00    -0.000 C 
BRANCH  18  19
ATOM     19  C   UNL     1      -5.385 -11.461  32.200  1.00  0.00    -0.003 C 
ATOM     20  C   UNL     1      -5.939 -11.026  30.844  1.00  0.00     0.004 C 
ENDBRANCH  18  19
ENDBRANCH  17  18
ENDBRANCH  16  17
ENDBRANCH  15  16
ENDBRANCH  14  15
ENDBRANCH  13  14
ENDBRANCH  12  13
ENDBRANCH   1  12
TORSDOF 16
ENDMDL
MODEL 2
REMARK VINA RESULT:    -5.635      2.770      6.652
REMARK INTER + INTRA:         -12.485
REMARK INTER:                 -10.985
REMARK INTRA:                  -1.500
REMARK UNBOUND:                -1.579
REMARK SMILES CCCCCCCCCCCCCCCCCC(=O)[O-]
REMARK SMILES IDX 10 1 11 2 12 3 13 4 14 5 15 6 16 7 17 8 18 9 19 10 20 11
REMARK SMILES IDX 9 12 8 13 7 14 6 15 5 16 4 17 3 18 2 19 1 20
REMARK H PARENT
REMARK Flexibility Score: inf
ROOT
ATOM      1  C   UNL     1      -9.333 -14.578  25.957  1.00  0.00     0.000 C 
ENDROOT
BRANCH   1   2
ATOM      2  C   UNL     1      -8.151 -15.189  26.728  1.00  0.00     0.000 C 
BRANCH   2   3
ATOM      3  C   UNL     1      -7.196 -14.125  27.289  1.00  0.00     0.000 C 
BRANCH   3   4
ATOM      4  C   UNL     1      -5.925 -14.776  27.856  1.00  0.00     0.000 C 
BRANCH   4   5
ATOM      5  C   UNL     1      -5.665 -14.402  29.326  1.00  0.00     0.000 C 
BRANCH   5   6
ATOM      6  C   UNL     1      -6.491 -13.212  29.854  1.00  0.00     0.000 C 
BRANCH   6   7
ATOM      7  C   UNL     1      -7.050 -13.387  31.277  1.00  0.00     0.006 C 
BRANCH   7   8
ATOM      8  C   UNL     1      -5.985 -13.845  32.283  1.00  0.00     0.053 C 
BRANCH   8   9
ATOM      9  C   UNL     1      -5.017 -12.739  32.559  1.00  0.00     0.041 C 
ATOM     10  O   UNL     1      -5.412 -11.544  32.596  1.00  0.00    -0.550 OA
ATOM     11  O   UNL     1      -3.682 -13.032  32.815  1.00  0.00    -0.550 OA
ENDBRANCH   8   9
ENDBRANCH   7   8
ENDBRANCH   6   7
ENDBRANCH   5   6
ENDBRANCH   4   5
ENDBRANCH   3   4
ENDBRANCH   2   3
ENDBRANCH   1   2
BRANCH   1  12
ATOM     12  C   UNL     1     -10.672 -15.261  26.284  1.00  0.00     0.000 C 
BRANCH  12  13
ATOM     13  C   UNL     1     -10.631 -16.002  27.638  1.00  0.00    -0.000 C 
BRANCH  13  14
ATOM     14  C   UNL     1     -11.781 -17.007  27.824  1.00  0.00    -0.000 C 
BRANCH  14  15
ATOM     15  C   UNL     1     -12.940 -16.438  28.660  1.00  0.00    -0.000 C 
BRANCH  15  16
ATOM     16  C   UNL     1     -13.275 -17.314  29.876  1.00  0.00    -0.000 C 
BRANCH  16  17
ATOM     17  C   UNL     1     -12.221 -17.210  30.993  1.00  0.00    -0.000 C 
BRANCH  17  18
ATOM     18  C   UNL     1     -11.415 -18.509  31.176  1.00  0.00    -0.000 C 
BRANCH  18  19
ATOM     19  C   UNL     1      -9.932 -18.405  30.780  1.00  0.00    -0.003 C 
ATOM     20  C   UNL     1      -9.360 -17.000  30.968  1.00  0.00     0.004 C 
ENDBRANCH  18  19
ENDBRANCH  17  18
ENDBRANCH  16  17
ENDBRANCH  15  16
ENDBRANCH  14  15
ENDBRANCH  13  14
ENDBRANCH  12  13
ENDBRANCH   1  12
TORSDOF 16
ENDMDL
MODEL 3
REMARK VINA RESULT:    -5.631      1.233      2.382
REMARK INTER + INTRA:         -12.476
REMARK INTER:                 -10.369
REMARK INTRA:                  -2.107
REMARK UNBOUND:                -1.579
REMARK SMILES CCCCCCCCCCCCCCCCCC(=O)[O-]
REMARK SMILES IDX 10 1 11 2 12 3 13 4 14 5 15 6 16 7 17 8 18 9 19 10 20 11
REMARK SMILES IDX 9 12 8 13 7 14 6 15 5 16 4 17 3 18 2 19 1 20
REMARK H PARENT
REMARK Flexibility Score: inf
ROOT
ATOM      1  C   UNL     1      -6.420 -14.432  27.876  1.00  0.00     0.000 C 
ENDROOT
BRANCH   1   2
ATOM      2  C   UNL     1      -7.263 -14.147  26.623  1.00  0.00     0.000 C 
BRANCH   2   3
ATOM      3  C   UNL     1      -8.285 -15.256  26.331  1.00  0.00     0.000 C 
BRANCH   3   4
ATOM      4  C   UNL     1      -9.678 -14.662  26.073  1.00  0.00     0.000 C 
BRANCH   4   5
ATOM      5  C   UNL     1     -10.805 -15.463  26.747  1.00  0.00     0.000 C 
BRANCH   5   6
ATOM      6  C   UNL     1     -10.384 -16.261  27.997  1.00  0.00     0.000 C 
BRANCH   6   7
ATOM      7  C   UNL     1     -11.491 -17.127  28.623  1.00  0.00     0.006 C 
BRANCH   7   8
ATOM      8  C   UNL     1     -10.969 -18.466  29.161  1.00  0.00     0.053 C 
BRANCH   8   9
ATOM      9  C   UNL     1     -10.682 -18.364  30.626  1.00  0.00     0.041 C 
ATOM     10  O   UNL     1     -11.581 -18.623  31.468  1.00  0.00    -0.550 OA
ATOM     11  O   UNL     1      -9.407 -18.021  31.061  1.00  0.00    -0.550 OA
ENDBRANCH   8   9
ENDBRANCH   7   8
ENDBRANCH   6   7
ENDBRANCH   5   6
ENDBRANCH   4   5
ENDBRANCH   3   4
ENDBRANCH   2   3
ENDBRANCH   1   2
BRANCH   1  12
ATOM     12  C   UNL     1      -7.061 -13.882  29.161  1.00  0.00     0.000 C 
BRANCH  12  13
ATOM     13  C   UNL     1      -7.488 -15.010  30.126  1.00  0.00    -0.000 C 
BRANCH  13  14
ATOM     14  C   UNL     1      -7.047 -14.774  31.581  1.00  0.00    -0.000 C 
BRANCH  14  15
ATOM     15  C   UNL     1      -6.618 -13.321  31.846  1.00  0.00    -0.000 C 
BRANCH  15  16
ATOM     16  C   UNL     1      -5.527 -13.216  32.923  1.00  0.00    -0.000 C 
BRANCH  16  17
ATOM     17  C   UNL     1      -4.131 -12.953  32.332  1.00  0.00    -0.000 C 
BRANCH  17  18
ATOM     18  C   UNL     1      -4.185 -12.363  30.911  1.00  0.00    -0.000 C 
BRANCH  18  19
ATOM     19  C   UNL     1      -3.436 -13.183  29.846  1.00  0.00    -0.003 C 
ATOM     20  C   UNL     1      -3.409 -14.680  30.155  1.00  0.00     0.004 C 
ENDBRANCH  18  19
ENDBRANCH  17  18
ENDBRANCH  16  17
ENDBRANCH  15  16
ENDBRANCH  14  15
ENDBRANCH  13  14
ENDBRANCH  12  13
ENDBRANCH   1  12
TORSDOF 16
ENDMDL
MODEL 4
REMARK VINA RESULT:    -5.606      1.047      1.588
REMARK INTER + INTRA:         -12.428
REMARK INTER:                 -11.169
REMARK INTRA:                  -1.259
REMARK UNBOUND:                -1.579
REMARK SMILES CCCCCCCCCCCCCCCCCC(=O)[O-]
REMARK SMILES IDX 10 1 11 2 12 3 13 4 14 5 15 6 16 7 17 8 18 9 19 10 20 11
REMARK SMILES IDX 9 12 8 13 7 14 6 15 5 16 4 17 3 18 2 19 1 20
REMARK H PARENT
REMARK Flexibility Score: inf
ROOT
ATOM      1  C   UNL     1      -9.038 -14.319  26.321  1.00  0.00     0.000 C 
ENDROOT
BRANCH   1   2
ATOM      2  C   UNL     1     -10.277 -15.223  26.218  1.00  0.00     0.000 C 
BRANCH   2   3
ATOM      3  C   UNL     1     -10.643 -15.883  27.557  1.00  0.00     0.000 C 
BRANCH   3   4
ATOM      4  C   UNL     1     -11.926 -16.716  27.423  1.00  0.00     0.000 C 
BRANCH   4   5
ATOM      5  C   UNL     1     -13.066 -16.208  28.323  1.00  0.00     0.000 C 
BRANCH   5   6
ATOM      6  C   UNL     1     -12.978 -16.643  29.799  1.00  0.00     0.000 C 
BRANCH   6   7
ATOM      7  C   UNL     1     -12.719 -18.143  30.023  1.00  0.00     0.006 C 
BRANCH   7   8
ATOM      8  C   UNL     1     -11.735 -18.414  31.169  1.00  0.00     0.053 C 
BRANCH   8   9
ATOM      9  C   UNL     1     -10.385 -18.762  30.627  1.00  0.00     0.041 C 
ATOM     10  O   UNL     1      -9.379 -18.765  31.384  1.00  0.00    -0.550 OA
ATOM     11  O   UNL     1     -10.244 -19.120  29.291  1.00  0.00    -0.550 OA
ENDBRANCH   8   9
ENDBRANCH   7   8
ENDBRANCH   6   7
ENDBRANCH   5   6
ENDBRANCH   4   5
ENDBRANCH   3   4
ENDBRANCH   2   3
ENDBRANCH   1   2
BRANCH   1  12
ATOM     12  C   UNL     1      -7.840 -15.025  26.980  1.00  0.00     0.000 C 
BRANCH  12  13
ATOM     13  C   UNL     1      -6.570 -14.148  26.964  1.00  0.00    -0.000 C 
BRANCH  13  14
ATOM     14  C   UNL     1      -5.910 -13.997  28.346  1.00  0.00    -0.000 C 
BRANCH  14  15
ATOM     15  C   UNL     1      -6.933 -13.780  29.474  1.00  0.00    -0.000 C 
BRANCH  15  16
ATOM     16  C   UNL     1      -6.956 -14.941  30.480  1.00  0.00    -0.000 C 
BRANCH  16  17
ATOM     17  C   UNL     1      -6.953 -14.461  31.942  1.00  0.00    -0.000 C 
BRANCH  17  18
ATOM     18  C   UNL     1      -6.325 -13.066  32.111  1.00  0.00    -0.000 C 
BRANCH  18  19
ATOM     19  C   UNL     1      -4.893 -13.070  32.675  1.00  0.00    -0.003 C 
ATOM     20  C   UNL     1      -4.232 -11.692  32.636  1.00  0.00     0.004 C 
ENDBRANCH  18  19
ENDBRANCH  17  18
ENDBRANCH  16  17
ENDBRANCH  15  16
ENDBRANCH  14  15
ENDBRANCH  13  14
ENDBRANCH  12  13
ENDBRANCH   1  12
TORSDOF 16
ENDMDL
MODEL 5
REMARK VINA RESULT:    -5.450      1.521      3.426
REMARK INTER + INTRA:         -12.127
REMARK INTER:                 -10.373
REMARK INTRA:                  -1.754
REMARK UNBOUND:                -1.579
REMARK SMILES CCCCCCCCCCCCCCCCCC(=O)[O-]
REMARK SMILES IDX 10 1 11 2 12 3 13 4 14 5 15 6 16 7 17 8 18 9 19 10 20 11
REMARK SMILES IDX 9 12 8 13 7 14 6 15 5 16 4 17 3 18 2 19 1 20
REMARK H PARENT
REMARK Flexibility Score: inf
ROOT
ATOM      1  C   UNL     1      -7.318 -14.449  29.466  1.00  0.00     0.000 C 
ENDROOT
BRANCH   1   2
ATOM      2  C   UNL     1      -6.347 -14.551  28.279  1.00  0.00     0.000 C 
BRANCH   2   3
ATOM      3  C   UNL     1      -7.016 -14.224  26.936  1.00  0.00     0.000 C 
BRANCH   3   4
ATOM      4  C   UNL     1      -8.103 -15.256  26.600  1.00  0.00     0.000 C 
BRANCH   4   5
ATOM      5  C   UNL     1      -9.465 -14.613  26.289  1.00  0.00     0.000 C 
BRANCH   5   6
ATOM      6  C   UNL     1     -10.693 -15.475  26.645  1.00  0.00     0.000 C 
BRANCH   6   7
ATOM      7  C   UNL     1     -10.620 -16.180  28.011  1.00  0.00     0.006 C 
BRANCH   7   8
ATOM      8  C   UNL     1     -11.991 -16.311  28.687  1.00  0.00     0.053 C 
BRANCH   8   9
ATOM      9  C   UNL     1     -12.212 -17.716  29.153  1.00  0.00     0.041 C 
ATOM     10  O   UNL     1     -13.260 -18.020  29.780  1.00  0.00    -0.550 OA
ATOM     11  O   UNL     1     -11.275 -18.700  28.859  1.00  0.00    -0.550 OA
ENDBRANCH   8   9
ENDBRANCH   7   8
ENDBRANCH   6   7
ENDBRANCH   5   6
ENDBRANCH   4   5
ENDBRANCH   3   4
ENDBRANCH   2   3
ENDBRANCH   1   2
BRANCH   1  12
ATOM     12  C   UNL     1      -6.713 -14.982  30.776  1.00  0.00     0.000 C 
BRANCH  12  13
ATOM     13  C   UNL     1      -6.761 -13.933  31.908  1.00  0.00    -0.000 C 
BRANCH  13  14
ATOM     14  C   UNL     1      -5.384 -13.621  32.517  1.00  0.00    -0.000 C 
BRANCH  14  15
ATOM     15  C   UNL     1      -4.962 -12.155  32.318  1.00  0.00    -0.000 C 
BRANCH  15  16
ATOM     16  C   UNL     1      -6.022 -11.334  31.568  1.00  0.00    -0.000 C 
BRANCH  16  17
ATOM     17  C   UNL     1      -5.544 -10.873  30.180  1.00  0.00    -0.000 C 
BRANCH  17  18
ATOM     18  C   UNL     1      -4.396 -11.737  29.626  1.00  0.00    -0.000 C 
BRANCH  18  19
ATOM     19  C   UNL     1      -3.104 -10.962  29.312  1.00  0.00    -0.003 C 
ATOM     20  C   UNL     1      -2.984  -9.657  30.098  1.00  0.00     0.004 C 
ENDBRANCH  18  19
ENDBRANCH  17  18
ENDBRANCH  16  17
ENDBRANCH  15  16
ENDBRANCH  14  15
ENDBRANCH  13  14
ENDBRANCH  12  13
ENDBRANCH   1  12
TORSDOF 16
ENDMDL
MODEL 6
REMARK VINA RESULT:    -5.384      2.708      5.003
REMARK INTER + INTRA:         -11.999
REMARK INTER:                 -10.684
REMARK INTRA:                  -1.315
REMARK UNBOUND:                -1.579
REMARK SMILES CCCCCCCCCCCCCCCCCC(=O)[O-]
REMARK SMILES IDX 10 1 11 2 12 3 13 4 14 5 15 6 16 7 17 8 18 9 19 10 20 11
REMARK SMILES IDX 9 12 8 13 7 14 6 15 5 16 4 17 3 18 2 19 1 20
REMARK H PARENT
REMARK Flexibility Score: inf
ROOT
ATOM      1  C   UNL     1      -9.075 -17.131  31.239  1.00  0.00     0.000 C 
ENDROOT
BRANCH   1   2
ATOM      2  C   UNL     1     -10.065 -16.806  30.109  1.00  0.00     0.000 C 
BRANCH   2   3
ATOM      3  C   UNL     1     -10.750 -18.059  29.543  1.00  0.00     0.000 C 
BRANCH   3   4
ATOM      4  C   UNL     1     -12.258 -17.825  29.368  1.00  0.00     0.000 C 
BRANCH   4   5
ATOM      5  C   UNL     1     -13.107 -18.603  30.387  1.00  0.00     0.000 C 
BRANCH   5   6
ATOM      6  C   UNL     1     -12.883 -18.209  31.861  1.00  0.00     0.000 C 
BRANCH   6   7
ATOM      7  C   UNL     1     -12.563 -19.379  32.808  1.00  0.00     0.006 C 
BRANCH   7   8
ATOM      8  C   UNL     1     -13.677 -20.435  32.848  1.00  0.00     0.053 C 
BRANCH   8   9
ATOM      9  C   UNL     1     -13.747 -21.068  34.202  1.00  0.00     0.041 C 
ATOM     10  O   UNL     1     -13.322 -22.240  34.377  1.00  0.00    -0.550 OA
ATOM     11  O   UNL     1     -14.248 -20.348  35.280  1.00  0.00    -0.550 OA
ENDBRANCH   8   9
ENDBRANCH   7   8
ENDBRANCH   6   7
ENDBRANCH   5   6
ENDBRANCH   4   5
ENDBRANCH   3   4
ENDBRANCH   2   3
ENDBRANCH   1   2
BRANCH   1  12
ATOM     12  C   UNL     1      -8.017 -16.032  31.437  1.00  0.00     0.000 C 
BRANCH  12  13
ATOM     13  C   UNL     1      -7.869 -15.137  30.188  1.00  0.00    -0.000 C 
BRANCH  13  14
ATOM     14  C   UNL     1      -7.000 -13.890  30.425  1.00  0.00    -0.000 C 
BRANCH  14  15
ATOM     15  C   UNL     1      -6.195 -13.479  29.180  1.00  0.00    -0.000 C 
BRANCH  15  16
ATOM     16  C   UNL     1      -6.268 -14.526  28.059  1.00  0.00    -0.000 C 
BRANCH  16  17
ATOM     17  C   UNL     1      -7.248 -14.133  26.940  1.00  0.00    -0.000 C 
BRANCH  17  18
ATOM     18  C   UNL     1      -8.233 -15.261  26.584  1.00  0.00    -0.000 C 
BRANCH  18  19
ATOM     19  C   UNL     1      -9.554 -14.786  25.954  1.00  0.00    -0.003 C 
ATOM     20  C   UNL     1     -10.786 -15.408  26.609  1.00  0.00     0.004 C 
ENDBRANCH  18  19
ENDBRANCH  17  18
ENDBRANCH  16  17
ENDBRANCH  15  16
ENDBRANCH  14  15
ENDBRANCH  13  14
ENDBRANCH  12  13
ENDBRANCH   1  12
TORSDOF 16
ENDMDL
MODEL 7
REMARK VINA RESULT:    -5.342      2.812      7.263
REMARK INTER + INTRA:         -11.918
REMARK INTER:                 -10.276
REMARK INTRA:                  -1.642
REMARK UNBOUND:                -1.579
REMARK SMILES CCCCCCCCCCCCCCCCCC(=O)[O-]
REMARK SMILES IDX 10 1 11 2 12 3 13 4 14 5 15 6 16 7 17 8 18 9 19 10 20 11
REMARK SMILES IDX 9 12 8 13 7 14 6 15 5 16 4 17 3 18 2 19 1 20
REMARK H PARENT
REMARK Flexibility Score: inf
ROOT
ATOM      1  C   UNL     1      -6.391 -14.581  28.090  1.00  0.00     0.000 C 
ENDROOT
BRANCH   1   2
ATOM      2  C   UNL     1      -7.169 -13.998  29.280  1.00  0.00     0.000 C 
BRANCH   2   3
ATOM      3  C   UNL     1      -7.668 -15.079  30.250  1.00  0.00     0.000 C 
BRANCH   3   4
ATOM      4  C   UNL     1      -7.077 -14.869  31.653  1.00  0.00     0.000 C 
BRANCH   4   5
ATOM      5  C   UNL     1      -6.630 -13.419  31.904  1.00  0.00     0.000 C 
BRANCH   5   6
ATOM      6  C   UNL     1      -5.296 -13.267  32.662  1.00  0.00     0.000 C 
BRANCH   6   7
ATOM      7  C   UNL     1      -4.691 -11.853  32.642  1.00  0.00     0.006 C 
BRANCH   7   8
ATOM      8  C   UNL     1      -4.723 -11.210  31.249  1.00  0.00     0.053 C 
BRANCH   8   9
ATOM      9  C   UNL     1      -3.630 -11.765  30.392  1.00  0.00     0.041 C 
ATOM     10  O   UNL     1      -2.437 -11.748  30.796  1.00  0.00    -0.550 OA
ATOM     11  O   UNL     1      -3.933 -12.337  29.162  1.00  0.00    -0.550 OA
ENDBRANCH   8   9
ENDBRANCH   7   8
ENDBRANCH   6   7
ENDBRANCH   5   6
ENDBRANCH   4   5
ENDBRANCH   3   4
ENDBRANCH   2   3
ENDBRANCH   1   2
BRANCH   1  12
ATOM     12  C   UNL     1      -7.023 -14.222  26.734  1.00  0.00     0.000 C 
BRANCH  12  13
ATOM     13  C   UNL     1      -8.007 -15.306  26.246  1.00  0.00    -0.000 C 
BRANCH  13  14
ATOM     14  C   UNL     1      -9.484 -14.954  26.494  1.00  0.00    -0.000 C 
BRANCH  14  15
ATOM     15  C   UNL     1     -10.135 -15.840  27.570  1.00  0.00    -0.000 C 
BRANCH  15  16
ATOM     16  C   UNL     1     -11.636 -16.056  27.326  1.00  0.00    -0.000 C 
BRANCH  16  17
ATOM     17  C   UNL     1     -12.402 -16.416  28.611  1.00  0.00    -0.000 C 
BRANCH  17  18
ATOM     18  C   UNL     1     -11.514 -16.371  29.868  1.00  0.00    -0.000 C 
BRANCH  18  19
ATOM     19  C   UNL     1     -11.361 -17.719  30.595  1.00  0.00    -0.003 C 
ATOM     20  C   UNL     1     -10.387 -18.667  29.896  1.00  0.00     0.004 C 
ENDBRANCH  18  19
ENDBRANCH  17  18
ENDBRANCH  16  17
ENDBRANCH  15  16
ENDBRANCH  14  15
ENDBRANCH  13  14
ENDBRANCH  12  13
ENDBRANCH   1  12
TORSDOF 16
ENDMDL
MODEL 8
REMARK VINA RESULT:    -5.320      2.453      7.371
REMARK INTER + INTRA:         -11.875
REMARK INTER:                 -10.906
REMARK INTRA:                  -0.969
REMARK UNBOUND:                -1.579
REMARK SMILES CCCCCCCCCCCCCCCCCC(=O)[O-]
REMARK SMILES IDX 10 1 11 2 12 3 13 4 14 5 15 6 16 7 17 8 18 9 19 10 20 11
REMARK SMILES IDX 9 12 8 13 7 14 6 15 5 16 4 17 3 18 2 19 1 20
REMARK H PARENT
REMARK Flexibility Score: inf
ROOT
ATOM      1  C   UNL     1     -12.005 -16.722  27.604  1.00  0.00     0.000 C 
ENDROOT
BRANCH   1   2
ATOM      2  C   UNL     1     -10.702 -15.907  27.581  1.00  0.00     0.000 C 
BRANCH   2   3
ATOM      3  C   UNL     1     -10.447 -15.233  26.225  1.00  0.00     0.000 C 
BRANCH   3   4
ATOM      4  C   UNL     1      -9.128 -14.447  26.244  1.00  0.00     0.000 C 
BRANCH   4   5
ATOM      5  C   UNL     1      -7.917 -15.318  26.624  1.00  0.00     0.000 C 
BRANCH   5   6
ATOM      6  C   UNL     1      -6.764 -14.566  27.318  1.00  0.00     0.000 C 
BRANCH   6   7
ATOM      7  C   UNL     1      -7.139 -13.873  28.639  1.00  0.00     0.006 C 
BRANCH   7   8
ATOM      8  C   UNL     1      -6.450 -14.501  29.859  1.00  0.00     0.053 C 
BRANCH   8   9
ATOM      9  C   UNL     1      -7.451 -15.206  30.719  1.00  0.00     0.041 C 
ATOM     10  O   UNL     1      -7.198 -15.431  31.931  1.00  0.00    -0.550 OA
ATOM     11  O   UNL     1      -8.680 -15.579  30.190  1.00  0.00    -0.550 OA
ENDBRANCH   8   9
ENDBRANCH   7   8
ENDBRANCH   6   7
ENDBRANCH   5   6
ENDBRANCH   4   5
ENDBRANCH   3   4
ENDBRANCH   2   3
ENDBRANCH   1   2
BRANCH   1  12
ATOM     12  C   UNL     1     -12.961 -16.282  28.726  1.00  0.00     0.000 C 
BRANCH  12  13
ATOM     13  C   UNL     1     -13.152 -17.384  29.791  1.00  0.00    -0.000 C 
BRANCH  13  14
ATOM     14  C   UNL     1     -12.338 -17.147  31.075  1.00  0.00    -0.000 C 
BRANCH  14  15
ATOM     15  C   UNL     1     -12.906 -17.901  32.289  1.00  0.00    -0.000 C 
BRANCH  15  16
ATOM     16  C   UNL     1     -12.459 -19.370  32.331  1.00  0.00    -0.000 C 
BRANCH  16  17
ATOM     17  C   UNL     1     -13.520 -20.297  32.950  1.00  0.00    -0.000 C 
BRANCH  17  18
ATOM     18  C   UNL     1     -13.373 -20.438  34.476  1.00  0.00    -0.000 C 
BRANCH  18  19
ATOM     19  C   UNL     1     -14.697 -20.371  35.257  1.00  0.00    -0.003 C 
ATOM     20  C   UNL     1     -15.071 -18.949  35.677  1.00  0.00     0.004 C 
ENDBRANCH  18  19
ENDBRANCH  17  18
ENDBRANCH  16  17
ENDBRANCH  15  16
ENDBRANCH  14  15
ENDBRANCH  13  14
ENDBRANCH  12  13
ENDBRANCH   1  12
TORSDOF 16
ENDMDL
MODEL 9
REMARK VINA RESULT:    -5.260      2.756      7.645
REMARK INTER + INTRA:         -11.759
REMARK INTER:                 -10.011
REMARK INTRA:                  -1.748
REMARK UNBOUND:                -1.579
REMARK SMILES CCCCCCCCCCCCCCCCCC(=O)[O-]
REMARK SMILES IDX 10 1 11 2 12 3 13 4 14 5 15 6 16 7 17 8 18 9 19 10 20 11
REMARK SMILES IDX 9 12 8 13 7 14 6 15 5 16 4 17 3 18 2 19 1 20
REMARK H PARENT
REMARK Flexibility Score: inf
ROOT
ATOM      1  C   UNL     1      -7.176 -14.130  29.420  1.00  0.00     0.000 C 
ENDROOT
BRANCH   1   2
ATOM      2  C   UNL     1      -6.620 -14.936  30.605  1.00  0.00     0.000 C 
BRANCH   2   3
ATOM      3  C   UNL     1      -5.973 -14.046  31.676  1.00  0.00     0.000 C 
BRANCH   3   4
ATOM      4  C   UNL     1      -6.796 -12.768  31.896  1.00  0.00     0.000 C 
BRANCH   4   5
ATOM      5  C   UNL     1      -5.930 -11.497  31.940  1.00  0.00     0.000 C 
BRANCH   5   6
ATOM      6  C   UNL     1      -5.690 -10.821  30.575  1.00  0.00     0.000 C 
BRANCH   6   7
ATOM      7  C   UNL     1      -4.215 -10.564  30.225  1.00  0.00     0.006 C 
BRANCH   7   8
ATOM      8  C   UNL     1      -3.622 -11.647  29.312  1.00  0.00     0.053 C 
BRANCH   8   9
ATOM      9  C   UNL     1      -2.979 -12.723  30.127  1.00  0.00     0.041 C 
ATOM     10  O   UNL     1      -2.908 -13.899  29.683  1.00  0.00    -0.550 OA
ATOM     11  O   UNL     1      -2.423 -12.419  31.364  1.00  0.00    -0.550 OA
ENDBRANCH   8   9
ENDBRANCH   7   8
ENDBRANCH   6   7
ENDBRANCH   5   6
ENDBRANCH   4   5
ENDBRANCH   3   4
ENDBRANCH   2   3
ENDBRANCH   1   2
BRANCH   1  12
ATOM     12  C   UNL     1      -6.189 -14.044  28.244  1.00  0.00     0.000 C 
BRANCH  12  13
ATOM     13  C   UNL     1      -6.862 -14.376  26.895  1.00  0.00    -0.000 C 
BRANCH  13  14
ATOM     14  C   UNL     1      -8.185 -15.147  27.041  1.00  0.00    -0.000 C 
BRANCH  14  15
ATOM     15  C   UNL     1      -9.280 -14.638  26.088  1.00  0.00    -0.000 C 
BRANCH  15  16
ATOM     16  C   UNL     1     -10.643 -15.294  26.352  1.00  0.00    -0.000 C 
BRANCH  16  17
ATOM     17  C   UNL     1     -10.686 -16.062  27.685  1.00  0.00    -0.000 C 
BRANCH  17  18
ATOM     18  C   UNL     1     -12.056 -16.708  27.958  1.00  0.00    -0.000 C 
BRANCH  18  19
ATOM     19  C   UNL     1     -12.082 -17.679  29.152  1.00  0.00    -0.003 C 
ATOM     20  C   UNL     1     -10.816 -18.529  29.258  1.00  0.00     0.004 C 
ENDBRANCH  18  19
ENDBRANCH  17  18
ENDBRANCH  16  17
ENDBRANCH  15  16
ENDBRANCH  14  15
ENDBRANCH  13  14
ENDBRANCH  12  13
ENDBRANCH   1  12
TORSDOF 16
ENDMDL
