MODEL 1
REMARK VINA RESULT:    -4.847      0.000      0.000
REMARK INTER + INTRA:          -6.141
REMARK INTER:                  -5.839
REMARK INTRA:                  -0.302
REMARK UNBOUND:                -0.302
REMARK SMILES O=c1c(O)c(-c2ccc(O)c(O)c2)oc2cc(O)cc(O)c12
REMARK SMILES IDX 5 1 3 2 2 3 1 4 22 5 20 6 19 7 17 8 16 9 15 10 14 11 6 12
REMARK SMILES IDX 7 13 8 14 9 15 13 16 11 17 10 18 12 20 4 22 21 24 18 26
REMARK H PARENT 10 19 12 21 4 23 21 25 18 27
REMARK Flexibility Score: inf
ROOT
ATOM      1  C   UNL     1     -39.413   4.230  30.166  1.00  0.00     0.180 A 
ATOM      2  C   UNL     1     -38.639   4.932  29.227  1.00  0.00     0.208 A 
ATOM      3  C   UNL     1     -38.687   4.543  27.878  1.00  0.00     0.238 A 
ATOM      4  O   UNL     1     -37.950   5.140  27.050  1.00  0.00    -0.285 OA
ATOM      5  C   UNL     1     -39.521   3.469  27.484  1.00  0.00     0.111 A 
ATOM      6  C   UNL     1     -39.678   3.017  26.139  1.00  0.00     0.134 A 
ATOM      7  C   UNL     1     -40.429   1.863  25.882  1.00  0.00     0.093 A 
ATOM      8  C   UNL     1     -41.080   1.183  26.914  1.00  0.00     0.123 A 
ATOM      9  C   UNL     1     -40.981   1.651  28.221  1.00  0.00     0.094 A 
ATOM     10  C   UNL     1     -40.211   2.779  28.515  1.00  0.00     0.146 A 
ATOM     11  O   UNL     1     -40.135   3.185  29.776  1.00  0.00    -0.452 OA
ENDROOT
BRANCH   1  12
ATOM     12  C   UNL     1     -39.434   4.595  31.602  1.00  0.00     0.025 A 
ATOM     13  C   UNL     1     -40.484   5.356  32.147  1.00  0.00     0.016 A 
ATOM     14  C   UNL     1     -40.495   5.668  33.509  1.00  0.00     0.051 A 
ATOM     15  C   UNL     1     -39.467   5.216  34.346  1.00  0.00     0.157 A 
ATOM     16  C   UNL     1     -38.416   4.128  32.450  1.00  0.00     0.062 A 
ATOM     17  C   UNL     1     -38.427   4.442  33.816  1.00  0.00     0.158 A 
BRANCH  15  18
ATOM     18  O   UNL     1     -39.473   5.529  35.705  1.00  0.00    -0.504 OA
ATOM     19  H   UNL     1     -39.412   4.808  36.414  1.00  0.00     0.293 HD
ENDBRANCH  15  18
BRANCH  17  20
ATOM     20  O   UNL     1     -37.408   3.988  34.653  1.00  0.00    -0.504 OA
ATOM     21  H   UNL     1     -36.597   4.560  34.857  1.00  0.00     0.293 HD
ENDBRANCH  17  20
ENDBRANCH   1  12
BRANCH   2  22
ATOM     22  O   UNL     1     -37.805   5.974  29.641  1.00  0.00    -0.502 OA
ATOM     23  H   UNL     1     -36.934   5.812  30.130  1.00  0.00     0.293 HD
ENDBRANCH   2  22
BRANCH   6  24
ATOM     24  O   UNL     1     -39.145   3.676  25.027  1.00  0.00    -0.507 OA
ATOM     25  H   UNL     1     -39.288   3.393  24.069  1.00  0.00     0.293 HD
ENDBRANCH   6  24
BRANCH   8  26
ATOM     26  O   UNL     1     -41.838   0.044  26.647  1.00  0.00    -0.508 OA
ATOM     27  H   UNL     1     -41.412  -0.805  26.293  1.00  0.00     0.293 HD
ENDBRANCH   8  26
TORSDOF 6
ENDMDL
MODEL 2
REMARK VINA RESULT:    -4.815      0.647      1.425
REMARK INTER + INTRA:          -6.102
REMARK INTER:                  -5.792
REMARK INTRA:                  -0.310
REMARK UNBOUND:                -0.302
REMARK SMILES O=c1c(O)c(-c2ccc(O)c(O)c2)oc2cc(O)cc(O)c12
REMARK SMILES IDX 5 1 3 2 2 3 1 4 22 5 20 6 19 7 17 8 16 9 15 10 14 11 6 12
REMARK SMILES IDX 7 13 8 14 9 15 13 16 11 17 10 18 12 20 4 22 21 24 18 26
REMARK H PARENT 10 19 12 21 4 23 21 25 18 27
REMARK Flexibility Score: inf
ROOT
ATOM      1  C   UNL     1     -39.132   4.093  30.376  1.00  0.00     0.180 A 
ATOM      2  C   UNL     1     -38.477   4.915  29.443  1.00  0.00     0.208 A 
ATOM      3  C   UNL     1     -38.641   4.655  28.072  1.00  0.00     0.238 A 
ATOM      4  O   UNL     1     -38.009   5.361  27.243  1.00  0.00    -0.285 OA
ATOM      5  C   UNL     1     -39.471   3.588  27.653  1.00  0.00     0.111 A 
ATOM      6  C   UNL     1     -39.741   3.259  26.290  1.00  0.00     0.134 A 
ATOM      7  C   UNL     1     -40.473   2.102  25.991  1.00  0.00     0.093 A 
ATOM      8  C   UNL     1     -40.997   1.300  27.006  1.00  0.00     0.123 A 
ATOM      9  C   UNL     1     -40.789   1.644  28.339  1.00  0.00     0.094 A 
ATOM     10  C   UNL     1     -40.034   2.773  28.670  1.00  0.00     0.146 A 
ATOM     11  O   UNL     1     -39.850   3.060  29.953  1.00  0.00    -0.452 OA
ENDROOT
BRANCH   1  12
ATOM     12  C   UNL     1     -39.027   4.319  31.836  1.00  0.00     0.025 A 
ATOM     13  C   UNL     1     -37.941   3.820  32.577  1.00  0.00     0.016 A 
ATOM     14  C   UNL     1     -37.851   4.067  33.950  1.00  0.00     0.051 A 
ATOM     15  C   UNL     1     -38.835   4.824  34.598  1.00  0.00     0.157 A 
ATOM     16  C   UNL     1     -40.001   5.096  32.487  1.00  0.00     0.062 A 
ATOM     17  C   UNL     1     -39.911   5.342  33.864  1.00  0.00     0.158 A 
BRANCH  15  18
ATOM     18  O   UNL     1     -38.750   5.070  35.967  1.00  0.00    -0.504 OA
ATOM     19  H   UNL     1     -39.280   4.525  36.637  1.00  0.00     0.293 HD
ENDBRANCH  15  18
BRANCH  17  20
ATOM     20  O   UNL     1     -40.885   6.101  34.511  1.00  0.00    -0.504 OA
ATOM     21  H   UNL     1     -41.873   5.954  34.337  1.00  0.00     0.293 HD
ENDBRANCH  17  20
ENDBRANCH   1  12
BRANCH   2  22
ATOM     22  O   UNL     1     -37.644   5.950  29.879  1.00  0.00    -0.502 OA
ATOM     23  H   UNL     1     -36.648   5.826  30.013  1.00  0.00     0.293 HD
ENDBRANCH   2  22
BRANCH   6  24
ATOM     24  O   UNL     1     -39.342   4.044  25.204  1.00  0.00    -0.507 OA
ATOM     25  H   UNL     1     -39.881   4.177  24.362  1.00  0.00     0.293 HD
ENDBRANCH   6  24
BRANCH   8  26
ATOM     26  O   UNL     1     -41.737   0.158  26.699  1.00  0.00    -0.508 OA
ATOM     27  H   UNL     1     -41.967  -0.082  25.742  1.00  0.00     0.293 HD
ENDBRANCH   8  26
TORSDOF 6
ENDMDL
MODEL 3
REMARK VINA RESULT:    -4.626      1.676      6.955
REMARK INTER + INTRA:          -5.875
REMARK INTER:                  -5.540
REMARK INTRA:                  -0.335
REMARK UNBOUND:                -0.302
REMARK SMILES O=c1c(O)c(-c2ccc(O)c(O)c2)oc2cc(O)cc(O)c12
REMARK SMILES IDX 5 1 3 2 2 3 1 4 22 5 20 6 19 7 17 8 16 9 15 10 14 11 6 12
REMARK SMILES IDX 7 13 8 14 9 15 13 16 11 17 10 18 12 20 4 22 21 24 18 26
REMARK H PARENT 10 19 12 21 4 23 21 25 18 27
REMARK Flexibility Score: inf
ROOT
ATOM      1  C   UNL     1     -39.760   4.218  30.471  1.00  0.00     0.180 A 
ATOM      2  C   UNL     1     -38.409   4.546  30.676  1.00  0.00     0.208 A 
ATOM      3  C   UNL     1     -38.024   5.105  31.906  1.00  0.00     0.238 A 
ATOM      4  O   UNL     1     -36.822   5.447  32.065  1.00  0.00    -0.285 OA
ATOM      5  C   UNL     1     -38.991   5.313  32.919  1.00  0.00     0.111 A 
ATOM      6  C   UNL     1     -38.705   5.835  34.216  1.00  0.00     0.134 A 
ATOM      7  C   UNL     1     -39.760   6.121  35.093  1.00  0.00     0.093 A 
ATOM      8  C   UNL     1     -41.083   5.842  34.743  1.00  0.00     0.123 A 
ATOM      9  C   UNL     1     -41.366   5.278  33.502  1.00  0.00     0.094 A 
ATOM     10  C   UNL     1     -40.339   5.014  32.591  1.00  0.00     0.146 A 
ATOM     11  O   UNL     1     -40.654   4.486  31.415  1.00  0.00    -0.452 OA
ENDROOT
BRANCH   1  12
ATOM     12  C   UNL     1     -40.238   3.603  29.211  1.00  0.00     0.025 A 
ATOM     13  C   UNL     1     -40.246   2.208  29.035  1.00  0.00     0.016 A 
ATOM     14  C   UNL     1     -40.725   1.648  27.847  1.00  0.00     0.051 A 
ATOM     15  C   UNL     1     -41.213   2.473  26.825  1.00  0.00     0.157 A 
ATOM     16  C   UNL     1     -40.748   4.424  28.190  1.00  0.00     0.062 A 
ATOM     17  C   UNL     1     -41.227   3.863  26.998  1.00  0.00     0.158 A 
BRANCH  15  18
ATOM     18  O   UNL     1     -41.688   1.919  25.638  1.00  0.00    -0.504 OA
ATOM     19  H   UNL     1     -42.397   2.384  25.083  1.00  0.00     0.293 HD
ENDBRANCH  15  18
BRANCH  17  20
ATOM     20  O   UNL     1     -41.719   4.680  25.981  1.00  0.00    -0.504 OA
ATOM     21  H   UNL     1     -42.383   4.334  25.298  1.00  0.00     0.293 HD
ENDBRANCH  17  20
ENDBRANCH   1  12
BRANCH   2  22
ATOM     22  O   UNL     1     -37.475   4.353  29.655  1.00  0.00    -0.502 OA
ATOM     23  H   UNL     1     -37.741   4.285  28.681  1.00  0.00     0.293 HD
ENDBRANCH   2  22
BRANCH   6  24
ATOM     24  O   UNL     1     -37.413   6.062  34.699  1.00  0.00    -0.507 OA
ATOM     25  H   UNL     1     -36.649   6.425  34.149  1.00  0.00     0.293 HD
ENDBRANCH   6  24
BRANCH   8  26
ATOM     26  O   UNL     1     -42.125   6.115  35.627  1.00  0.00    -0.508 OA
ATOM     27  H   UNL     1     -43.004   5.613  35.583  1.00  0.00     0.293 HD
ENDBRANCH   8  26
TORSDOF 6
ENDMDL
MODEL 4
REMARK VINA RESULT:    -4.448      1.553      6.834
REMARK INTER + INTRA:          -5.660
REMARK INTER:                  -5.337
REMARK INTRA:                  -0.323
REMARK UNBOUND:                -0.302
REMARK SMILES O=c1c(O)c(-c2ccc(O)c(O)c2)oc2cc(O)cc(O)c12
REMARK SMILES IDX 5 1 3 2 2 3 1 4 22 5 20 6 19 7 17 8 16 9 15 10 14 11 6 12
REMARK SMILES IDX 7 13 8 14 9 15 13 16 11 17 10 18 12 20 4 22 21 24 18 26
REMARK H PARENT 10 19 12 21 4 23 21 25 18 27
REMARK Flexibility Score: inf
ROOT
ATOM      1  C   UNL     1     -39.775   4.327  30.186  1.00  0.00     0.180 A 
ATOM      2  C   UNL     1     -38.398   4.494  30.412  1.00  0.00     0.208 A 
ATOM      3  C   UNL     1     -37.964   4.927  31.676  1.00  0.00     0.238 A 
ATOM      4  O   UNL     1     -36.733   5.127  31.857  1.00  0.00    -0.285 OA
ATOM      5  C   UNL     1     -38.909   5.170  32.701  1.00  0.00     0.111 A 
ATOM      6  C   UNL     1     -38.578   5.572  34.030  1.00  0.00     0.134 A 
ATOM      7  C   UNL     1     -39.602   5.911  34.924  1.00  0.00     0.093 A 
ATOM      8  C   UNL     1     -40.945   5.800  34.557  1.00  0.00     0.123 A 
ATOM      9  C   UNL     1     -41.279   5.352  33.281  1.00  0.00     0.094 A 
ATOM     10  C   UNL     1     -40.280   5.040  32.355  1.00  0.00     0.146 A 
ATOM     11  O   UNL     1     -40.641   4.627  31.147  1.00  0.00    -0.452 OA
ENDROOT
BRANCH   1  12
ATOM     12  C   UNL     1     -40.308   3.851  28.889  1.00  0.00     0.025 A 
ATOM     13  C   UNL     1     -40.614   4.748  27.850  1.00  0.00     0.016 A 
ATOM     14  C   UNL     1     -41.093   4.274  26.625  1.00  0.00     0.051 A 
ATOM     15  C   UNL     1     -41.262   2.899  26.418  1.00  0.00     0.157 A 
ATOM     16  C   UNL     1     -40.460   2.472  28.668  1.00  0.00     0.062 A 
ATOM     17  C   UNL     1     -40.942   1.996  27.440  1.00  0.00     0.158 A 
BRANCH  15  18
ATOM     18  O   UNL     1     -41.742   2.423  25.199  1.00  0.00    -0.504 OA
ATOM     19  H   UNL     1     -41.648   2.961  24.346  1.00  0.00     0.293 HD
ENDBRANCH  15  18
BRANCH  17  20
ATOM     20  O   UNL     1     -41.105   0.628  27.228  1.00  0.00    -0.504 OA
ATOM     21  H   UNL     1     -40.421  -0.044  27.557  1.00  0.00     0.293 HD
ENDBRANCH  17  20
ENDBRANCH   1  12
BRANCH   2  22
ATOM     22  O   UNL     1     -37.483   4.270  29.380  1.00  0.00    -0.502 OA
ATOM     23  H   UNL     1     -37.006   5.024  28.903  1.00  0.00     0.293 HD
ENDBRANCH   2  22
BRANCH   6  24
ATOM     24  O   UNL     1     -37.272   5.628  34.526  1.00  0.00    -0.507 OA
ATOM     25  H   UNL     1     -36.645   6.408  34.408  1.00  0.00     0.293 HD
ENDBRANCH   6  24
BRANCH   8  26
ATOM     26  O   UNL     1     -41.957   6.125  35.458  1.00  0.00    -0.508 OA
ATOM     27  H   UNL     1     -42.686   5.463  35.698  1.00  0.00     0.293 HD
ENDBRANCH   8  26
TORSDOF 6
ENDMDL
MODEL 5
REMARK VINA RESULT:    -4.107      1.735      6.977
REMARK INTER + INTRA:          -5.250
REMARK INTER:                  -5.083
REMARK INTRA:                  -0.167
REMARK UNBOUND:                -0.302
REMARK SMILES O=c1c(O)c(-c2ccc(O)c(O)c2)oc2cc(O)cc(O)c12
REMARK SMILES IDX 5 1 3 2 2 3 1 4 22 5 20 6 19 7 17 8 16 9 15 10 14 11 6 12
REMARK SMILES IDX 7 13 8 14 9 15 13 16 11 17 10 18 12 20 4 22 21 24 18 26
REMARK H PARENT 10 19 12 21 4 23 21 25 18 27
REMARK Flexibility Score: inf
ROOT
ATOM      1  C   UNL     1     -39.284   4.464  29.012  1.00  0.00     0.180 A 
ATOM      2  C   UNL     1     -40.546   5.055  29.196  1.00  0.00     0.208 A 
ATOM      3  C   UNL     1     -40.972   5.357  30.500  1.00  0.00     0.238 A 
ATOM      4  O   UNL     1     -42.125   5.836  30.664  1.00  0.00    -0.285 OA
ATOM      5  C   UNL     1     -40.125   5.080  31.600  1.00  0.00     0.111 A 
ATOM      6  C   UNL     1     -40.439   5.381  32.960  1.00  0.00     0.134 A 
ATOM      7  C   UNL     1     -39.583   4.944  33.979  1.00  0.00     0.093 A 
ATOM      8  C   UNL     1     -38.394   4.274  33.682  1.00  0.00     0.123 A 
ATOM      9  C   UNL     1     -38.050   4.027  32.356  1.00  0.00     0.094 A 
ATOM     10  C   UNL     1     -38.901   4.420  31.318  1.00  0.00     0.146 A 
ATOM     11  O   UNL     1     -38.541   4.156  30.068  1.00  0.00    -0.452 OA
ENDROOT
BRANCH   1  12
ATOM     12  C   UNL     1     -38.755   4.139  27.667  1.00  0.00     0.025 A 
ATOM     13  C   UNL     1     -37.611   4.777  27.158  1.00  0.00     0.016 A 
ATOM     14  C   UNL     1     -37.115   4.437  25.896  1.00  0.00     0.051 A 
ATOM     15  C   UNL     1     -37.747   3.447  25.132  1.00  0.00     0.157 A 
ATOM     16  C   UNL     1     -39.373   3.132  26.906  1.00  0.00     0.062 A 
ATOM     17  C   UNL     1     -38.877   2.791  25.640  1.00  0.00     0.158 A 
BRANCH  15  18
ATOM     18  O   UNL     1     -37.257   3.107  23.872  1.00  0.00    -0.504 OA
ATOM     19  H   UNL     1     -37.878   2.846  23.116  1.00  0.00     0.293 HD
ENDBRANCH  15  18
BRANCH  17  20
ATOM     20  O   UNL     1     -39.499   1.802  24.880  1.00  0.00    -0.504 OA
ATOM     21  H   UNL     1     -39.367   1.743  23.877  1.00  0.00     0.293 HD
ENDBRANCH  17  20
ENDBRANCH   1  12
BRANCH   2  22
ATOM     22  O   UNL     1     -41.375   5.300  28.098  1.00  0.00    -0.502 OA
ATOM     23  H   UNL     1     -41.726   4.557  27.506  1.00  0.00     0.293 HD
ENDBRANCH   2  22
BRANCH   6  24
ATOM     24  O   UNL     1     -41.554   6.125  33.357  1.00  0.00    -0.507 OA
ATOM     25  H   UNL     1     -41.781   6.353  34.313  1.00  0.00     0.293 HD
ENDBRANCH   6  24
BRANCH   8  26
ATOM     26  O   UNL     1     -37.540   3.856  34.702  1.00  0.00    -0.508 OA
ATOM     27  H   UNL     1     -36.953   3.036  34.599  1.00  0.00     0.293 HD
ENDBRANCH   8  26
TORSDOF 6
ENDMDL
MODEL 6
REMARK VINA RESULT:    -3.951      3.088      7.415
REMARK INTER + INTRA:          -5.062
REMARK INTER:                  -5.236
REMARK INTRA:                   0.174
REMARK UNBOUND:                -0.302
REMARK SMILES O=c1c(O)c(-c2ccc(O)c(O)c2)oc2cc(O)cc(O)c12
REMARK SMILES IDX 5 1 3 2 2 3 1 4 22 5 20 6 19 7 17 8 16 9 15 10 14 11 6 12
REMARK SMILES IDX 7 13 8 14 9 15 13 16 11 17 10 18 12 20 4 22 21 24 18 26
REMARK H PARENT 10 19 12 21 4 23 21 25 18 27
REMARK Flexibility Score: inf
ROOT
ATOM      1  C   UNL     1     -36.445   5.148  30.993  1.00  0.00     0.180 A 
ATOM      2  C   UNL     1     -35.410   5.598  31.830  1.00  0.00     0.208 A 
ATOM      3  C   UNL     1     -35.636   5.668  33.215  1.00  0.00     0.238 A 
ATOM      4  O   UNL     1     -34.724   6.123  33.954  1.00  0.00    -0.285 OA
ATOM      5  C   UNL     1     -36.887   5.271  33.745  1.00  0.00     0.111 A 
ATOM      6  C   UNL     1     -37.211   5.263  35.135  1.00  0.00     0.134 A 
ATOM      7  C   UNL     1     -38.522   4.975  35.537  1.00  0.00     0.093 A 
ATOM      8  C   UNL     1     -39.502   4.633  34.603  1.00  0.00     0.123 A 
ATOM      9  C   UNL     1     -39.181   4.581  33.249  1.00  0.00     0.094 A 
ATOM     10  C   UNL     1     -37.891   4.897  32.814  1.00  0.00     0.146 A 
ATOM     11  O   UNL     1     -37.629   4.846  31.514  1.00  0.00    -0.452 OA
ENDROOT
BRANCH   1  12
ATOM     12  C   UNL     1     -36.276   5.024  29.527  1.00  0.00     0.025 A 
ATOM     13  C   UNL     1     -35.051   4.625  28.964  1.00  0.00     0.016 A 
ATOM     14  C   UNL     1     -34.920   4.491  27.579  1.00  0.00     0.051 A 
ATOM     15  C   UNL     1     -36.014   4.740  26.739  1.00  0.00     0.157 A 
ATOM     16  C   UNL     1     -37.375   5.253  28.682  1.00  0.00     0.062 A 
ATOM     17  C   UNL     1     -37.244   5.119  27.292  1.00  0.00     0.158 A 
BRANCH  15  18
ATOM     18  O   UNL     1     -35.887   4.610  25.357  1.00  0.00    -0.504 OA
ATOM     19  H   UNL     1     -36.480   3.982  24.828  1.00  0.00     0.293 HD
ENDBRANCH  15  18
BRANCH  17  20
ATOM     20  O   UNL     1     -38.332   5.360  26.454  1.00  0.00    -0.504 OA
ATOM     21  H   UNL     1     -39.284   5.192  26.760  1.00  0.00     0.293 HD
ENDBRANCH  17  20
ENDBRANCH   1  12
BRANCH   2  22
ATOM     22  O   UNL     1     -34.190   6.006  31.283  1.00  0.00    -0.502 OA
ATOM     23  H   UNL     1     -33.321   5.524  31.475  1.00  0.00     0.293 HD
ENDBRANCH   2  22
BRANCH   6  24
ATOM     24  O   UNL     1     -36.284   5.500  36.155  1.00  0.00    -0.507 OA
ATOM     25  H   UNL     1     -35.704   6.322  36.225  1.00  0.00     0.293 HD
ENDBRANCH   6  24
BRANCH   8  26
ATOM     26  O   UNL     1     -40.800   4.334  35.013  1.00  0.00    -0.508 OA
ATOM     27  H   UNL     1     -41.315   3.555  34.617  1.00  0.00     0.293 HD
ENDBRANCH   8  26
TORSDOF 6
ENDMDL
MODEL 7
REMARK VINA RESULT:    -3.903      1.630      3.294
REMARK INTER + INTRA:          -5.004
REMARK INTER:                  -4.821
REMARK INTRA:                  -0.183
REMARK UNBOUND:                -0.302
REMARK SMILES O=c1c(O)c(-c2ccc(O)c(O)c2)oc2cc(O)cc(O)c12
REMARK SMILES IDX 5 1 3 2 2 3 1 4 22 5 20 6 19 7 17 8 16 9 15 10 14 11 6 12
REMARK SMILES IDX 7 13 8 14 9 15 13 16 11 17 10 18 12 20 4 22 21 24 18 26
REMARK H PARENT 10 19 12 21 4 23 21 25 18 27
REMARK Flexibility Score: inf
ROOT
ATOM      1  C   UNL     1     -39.112   4.241  29.410  1.00  0.00     0.180 A 
ATOM      2  C   UNL     1     -39.965   3.361  28.722  1.00  0.00     0.208 A 
ATOM      3  C   UNL     1     -39.721   3.100  27.364  1.00  0.00     0.238 A 
ATOM      4  O   UNL     1     -40.520   2.353  26.739  1.00  0.00    -0.285 OA
ATOM      5  C   UNL     1     -38.620   3.710  26.716  1.00  0.00     0.111 A 
ATOM      6  C   UNL     1     -38.257   3.485  25.354  1.00  0.00     0.134 A 
ATOM      7  C   UNL     1     -37.226   4.242  24.781  1.00  0.00     0.093 A 
ATOM      8  C   UNL     1     -36.505   5.167  25.540  1.00  0.00     0.123 A 
ATOM      9  C   UNL     1     -36.813   5.350  26.885  1.00  0.00     0.094 A 
ATOM     10  C   UNL     1     -37.859   4.636  27.476  1.00  0.00     0.146 A 
ATOM     11  O   UNL     1     -38.127   4.848  28.758  1.00  0.00    -0.452 OA
ENDROOT
BRANCH   1  12
ATOM     12  C   UNL     1     -39.289   4.546  30.849  1.00  0.00     0.025 A 
ATOM     13  C   UNL     1     -40.410   5.257  31.313  1.00  0.00     0.016 A 
ATOM     14  C   UNL     1     -40.568   5.513  32.678  1.00  0.00     0.051 A 
ATOM     15  C   UNL     1     -39.617   5.052  33.598  1.00  0.00     0.157 A 
ATOM     16  C   UNL     1     -38.349   4.069  31.778  1.00  0.00     0.062 A 
ATOM     17  C   UNL     1     -38.507   4.326  33.147  1.00  0.00     0.158 A 
BRANCH  15  18
ATOM     18  O   UNL     1     -39.770   5.307  34.960  1.00  0.00    -0.504 OA
ATOM     19  H   UNL     1     -38.975   5.507  35.554  1.00  0.00     0.293 HD
ENDBRANCH  15  18
BRANCH  17  20
ATOM     20  O   UNL     1     -37.566   3.863  34.066  1.00  0.00    -0.504 OA
ATOM     21  H   UNL     1     -37.495   4.259  34.996  1.00  0.00     0.293 HD
ENDBRANCH  17  20
ENDBRANCH   1  12
BRANCH   2  22
ATOM     22  O   UNL     1     -41.059   2.787  29.376  1.00  0.00    -0.502 OA
ATOM     23  H   UNL     1     -41.942   2.617  28.910  1.00  0.00     0.293 HD
ENDBRANCH   2  22
BRANCH   6  24
ATOM     24  O   UNL     1     -38.852   2.521  24.535  1.00  0.00    -0.507 OA
ATOM     25  H   UNL     1     -38.829   2.530  23.527  1.00  0.00     0.293 HD
ENDBRANCH   6  24
BRANCH   8  26
ATOM     26  O   UNL     1     -35.470   5.904  24.965  1.00  0.00    -0.508 OA
ATOM     27  H   UNL     1     -35.589   6.384  24.081  1.00  0.00     0.293 HD
ENDBRANCH   8  26
TORSDOF 6
ENDMDL
MODEL 8
REMARK VINA RESULT:    -3.771      1.895      7.438
REMARK INTER + INTRA:          -4.844
REMARK INTER:                  -4.512
REMARK INTRA:                  -0.332
REMARK UNBOUND:                -0.302
REMARK SMILES O=c1c(O)c(-c2ccc(O)c(O)c2)oc2cc(O)cc(O)c12
REMARK SMILES IDX 5 1 3 2 2 3 1 4 22 5 20 6 19 7 17 8 16 9 15 10 14 11 6 12
REMARK SMILES IDX 7 13 8 14 9 15 13 16 11 17 10 18 12 20 4 22 21 24 18 26
REMARK H PARENT 10 19 12 21 4 23 21 25 18 27
REMARK Flexibility Score: inf
ROOT
ATOM      1  C   UNL     1     -39.570   5.014  31.412  1.00  0.00     0.180 A 
ATOM      2  C   UNL     1     -40.585   5.003  32.384  1.00  0.00     0.208 A 
ATOM      3  C   UNL     1     -40.250   5.276  33.720  1.00  0.00     0.238 A 
ATOM      4  O   UNL     1     -41.154   5.212  34.595  1.00  0.00    -0.285 OA
ATOM      5  C   UNL     1     -38.910   5.573  34.064  1.00  0.00     0.111 A 
ATOM      6  C   UNL     1     -38.465   5.904  35.380  1.00  0.00     0.134 A 
ATOM      7  C   UNL     1     -37.094   6.051  35.629  1.00  0.00     0.093 A 
ATOM      8  C   UNL     1     -36.160   5.943  34.596  1.00  0.00     0.123 A 
ATOM      9  C   UNL     1     -36.589   5.678  33.299  1.00  0.00     0.094 A 
ATOM     10  C   UNL     1     -37.946   5.491  33.025  1.00  0.00     0.146 A 
ATOM     11  O   UNL     1     -38.312   5.231  31.776  1.00  0.00    -0.452 OA
ENDROOT
BRANCH   1  12
ATOM     12  C   UNL     1     -39.849   4.760  29.979  1.00  0.00     0.025 A 
ATOM     13  C   UNL     1     -40.235   5.799  29.114  1.00  0.00     0.016 A 
ATOM     14  C   UNL     1     -40.469   5.541  27.760  1.00  0.00     0.051 A 
ATOM     15  C   UNL     1     -40.308   4.246  27.251  1.00  0.00     0.157 A 
ATOM     16  C   UNL     1     -39.670   3.467  29.458  1.00  0.00     0.062 A 
ATOM     17  C   UNL     1     -39.905   3.208  28.101  1.00  0.00     0.158 A 
BRANCH  15  18
ATOM     18  O   UNL     1     -40.544   3.984  25.902  1.00  0.00    -0.504 OA
ATOM     19  H   UNL     1     -39.783   3.898  25.239  1.00  0.00     0.293 HD
ENDBRANCH  15  18
BRANCH  17  20
ATOM     20  O   UNL     1     -39.740   1.922  27.589  1.00  0.00    -0.504 OA
ATOM     21  H   UNL     1     -38.821   1.548  27.382  1.00  0.00     0.293 HD
ENDBRANCH  17  20
ENDBRANCH   1  12
BRANCH   2  22
ATOM     22  O   UNL     1     -41.898   4.686  32.026  1.00  0.00    -0.502 OA
ATOM     23  H   UNL     1     -42.648   4.629  32.705  1.00  0.00     0.293 HD
ENDBRANCH   2  22
BRANCH   6  24
ATOM     24  O   UNL     1     -39.323   6.125  36.461  1.00  0.00    -0.507 OA
ATOM     25  H   UNL     1     -40.206   6.608  36.404  1.00  0.00     0.293 HD
ENDBRANCH   6  24
BRANCH   8  26
ATOM     26  O   UNL     1     -34.799   6.106  34.850  1.00  0.00    -0.508 OA
ATOM     27  H   UNL     1     -34.371   7.024  34.878  1.00  0.00     0.293 HD
ENDBRANCH   8  26
TORSDOF 6
ENDMDL
MODEL 9
REMARK VINA RESULT:    -3.743      1.857      7.088
REMARK INTER + INTRA:          -4.811
REMARK INTER:                  -4.539
REMARK INTRA:                  -0.272
REMARK UNBOUND:                -0.302
REMARK SMILES O=c1c(O)c(-c2ccc(O)c(O)c2)oc2cc(O)cc(O)c12
REMARK SMILES IDX 5 1 3 2 2 3 1 4 22 5 20 6 19 7 17 8 16 9 15 10 14 11 6 12
REMARK SMILES IDX 7 13 8 14 9 15 13 16 11 17 10 18 12 20 4 22 21 24 18 26
REMARK H PARENT 10 19 12 21 4 23 21 25 18 27
REMARK Flexibility Score: inf
ROOT
ATOM      1  C   UNL     1     -39.629   4.400  29.518  1.00  0.00     0.180 A 
ATOM      2  C   UNL     1     -40.594   4.618  30.516  1.00  0.00     0.208 A 
ATOM      3  C   UNL     1     -40.172   5.027  31.792  1.00  0.00     0.238 A 
ATOM      4  O   UNL     1     -41.036   5.168  32.698  1.00  0.00    -0.285 OA
ATOM      5  C   UNL     1     -38.795   5.228  32.048  1.00  0.00     0.111 A 
ATOM      6  C   UNL     1     -38.259   5.680  33.292  1.00  0.00     0.134 A 
ATOM      7  C   UNL     1     -36.870   5.719  33.473  1.00  0.00     0.093 A 
ATOM      8  C   UNL     1     -36.000   5.384  32.433  1.00  0.00     0.123 A 
ATOM      9  C   UNL     1     -36.512   4.998  31.197  1.00  0.00     0.094 A 
ATOM     10  C   UNL     1     -37.893   4.916  30.997  1.00  0.00     0.146 A 
ATOM     11  O   UNL     1     -38.340   4.534  29.807  1.00  0.00    -0.452 OA
ENDROOT
BRANCH   1  12
ATOM     12  C   UNL     1     -39.997   3.993  28.142  1.00  0.00     0.025 A 
ATOM     13  C   UNL     1     -39.962   4.907  27.074  1.00  0.00     0.016 A 
ATOM     14  C   UNL     1     -40.290   4.494  25.780  1.00  0.00     0.051 A 
ATOM     15  C   UNL     1     -40.646   3.162  25.533  1.00  0.00     0.157 A 
ATOM     16  C   UNL     1     -40.335   2.653  27.884  1.00  0.00     0.062 A 
ATOM     17  C   UNL     1     -40.665   2.239  26.587  1.00  0.00     0.158 A 
BRANCH  15  18
ATOM     18  O   UNL     1     -40.976   2.747  24.243  1.00  0.00    -0.504 OA
ATOM     19  H   UNL     1     -40.770   1.809  23.920  1.00  0.00     0.293 HD
ENDBRANCH  15  18
BRANCH  17  20
ATOM     20  O   UNL     1     -41.013   0.913  26.336  1.00  0.00    -0.504 OA
ATOM     21  H   UNL     1     -41.364   0.619  25.431  1.00  0.00     0.293 HD
ENDBRANCH  17  20
ENDBRANCH   1  12
BRANCH   2  22
ATOM     22  O   UNL     1     -41.947   4.392  30.249  1.00  0.00    -0.502 OA
ATOM     23  H   UNL     1     -42.586   4.032  30.946  1.00  0.00     0.293 HD
ENDBRANCH   2  22
BRANCH   6  24
ATOM     24  O   UNL     1     -39.040   6.125  34.362  1.00  0.00    -0.507 OA
ATOM     25  H   UNL     1     -39.497   5.523  35.030  1.00  0.00     0.293 HD
ENDBRANCH   6  24
BRANCH   8  26
ATOM     26  O   UNL     1     -34.619   5.440  32.617  1.00  0.00    -0.508 OA
ATOM     27  H   UNL     1     -34.090   4.627  32.911  1.00  0.00     0.293 HD
ENDBRANCH   8  26
TORSDOF 6
ENDMDL
