MODEL 1
REMARK VINA RESULT:    -2.605      0.000      0.000
REMARK INTER + INTRA:         -12.347
REMARK INTER:                  -6.868
REMARK INTRA:                  -5.479
REMARK UNBOUND:                -5.479
REMARK SMILES CCCCCCCCCCCCCCCCCCCCCCCCCCCCCC(=O)[O-]
REMARK SMILES IDX 16 1 17 2 18 3 19 4 20 5 21 6 22 7 23 8 24 9 25 10 26 11
REMARK SMILES IDX 27 12 28 13 29 14 30 15 31 16 32 17 15 18 14 19 13 20 12 21
REMARK SMILES IDX 11 22 10 23 9 24 8 25 7 26 6 27 5 28 4 29 3 30 2 31 1 32
REMARK H PARENT
REMARK Flexibility Score: inf
ROOT
ATOM      1  C   UNL     1      57.854 -35.981  22.604  1.00  0.00     0.000 C 
ENDROOT
BRANCH   1   2
ATOM      2  C   UNL     1      58.380 -35.391  23.924  1.00  0.00     0.000 C 
BRANCH   2   3
ATOM      3  C   UNL     1      57.464 -35.600  25.148  1.00  0.00     0.000 C 
BRANCH   3   4
ATOM      4  C   UNL     1      56.822 -34.318  25.707  1.00  0.00     0.000 C 
BRANCH   4   5
ATOM      5  C   UNL     1      57.516 -33.042  25.211  1.00  0.00     0.000 C 
BRANCH   5   6
ATOM      6  C   UNL     1      56.562 -32.181  24.376  1.00  0.00     0.000 C 
BRANCH   6   7
ATOM      7  C   UNL     1      57.327 -31.071  23.640  1.00  0.00     0.000 C 
BRANCH   7   8
ATOM      8  C   UNL     1      57.059 -29.667  24.214  1.00  0.00     0.000 C 
BRANCH   8   9
ATOM      9  C   UNL     1      55.708 -29.503  24.936  1.00  0.00     0.000 C 
BRANCH   9  10
ATOM     10  C   UNL     1      54.942 -28.244  24.496  1.00  0.00     0.000 C 
BRANCH  10  11
ATOM     11  C   UNL     1      53.463 -28.279  24.918  1.00  0.00     0.000 C 
BRANCH  11  12
ATOM     12  C   UNL     1      52.516 -27.888  23.770  1.00  0.00     0.000 C 
BRANCH  12  13
ATOM     13  C   UNL     1      51.082 -27.601  24.252  1.00  0.00     0.006 C 
BRANCH  13  14
ATOM     14  C   UNL     1      50.881 -26.197  24.845  1.00  0.00     0.053 C 
BRANCH  14  15
ATOM     15  C   UNL     1      50.875 -25.135  23.789  1.00  0.00     0.041 C 
ATOM     16  O   UNL     1      49.881 -25.008  23.024  1.00  0.00    -0.550 OA
ATOM     17  O   UNL     1      51.954 -24.270  23.665  1.00  0.00    -0.550 OA
ENDBRANCH  14  15
ENDBRANCH  13  14
ENDBRANCH  12  13
ENDBRANCH  11  12
ENDBRANCH  10  11
ENDBRANCH   9  10
ENDBRANCH   8   9
ENDBRANCH   7   8
ENDBRANCH   6   7
ENDBRANCH   5   6
ENDBRANCH   4   5
ENDBRANCH   3   4
ENDBRANCH   2   3
ENDBRANCH   1   2
BRANCH   1  18
ATOM     18  C   UNL     1      56.498 -36.684  22.765  1.00  0.00     0.000 C 
BRANCH  18  19
ATOM     19  C   UNL     1      55.409 -35.983  21.937  1.00  0.00     0.000 C 
BRANCH  19  20
ATOM     20  C   UNL     1      54.787 -34.789  22.682  1.00  0.00     0.000 C 
BRANCH  20  21
ATOM     21  C   UNL     1      53.770 -35.228  23.752  1.00  0.00     0.000 C 
BRANCH  21  22
ATOM     22  C   UNL     1      52.314 -35.197  23.239  1.00  0.00     0.000 C 
BRANCH  22  23
ATOM     23  C   UNL     1      51.254 -35.320  24.351  1.00  0.00     0.000 C 
BRANCH  23  24
ATOM     24  C   UNL     1      50.027 -34.404  24.188  1.00  0.00    -0.000 C 
BRANCH  24  25
ATOM     25  C   UNL     1      50.087 -33.424  22.996  1.00  0.00    -0.000 C 
BRANCH  25  26
ATOM     26  C   UNL     1      50.363 -31.955  23.365  1.00  0.00    -0.000 C 
BRANCH  26  27
ATOM     27  C   UNL     1      51.767 -31.487  22.948  1.00  0.00    -0.000 C 
BRANCH  27  28
ATOM     28  C   UNL     1      52.811 -31.646  24.070  1.00  0.00    -0.000 C 
BRANCH  28  29
ATOM     29  C   UNL     1      52.247 -31.642  25.504  1.00  0.00    -0.000 C 
BRANCH  29  30
ATOM     30  C   UNL     1      52.914 -32.687  26.414  1.00  0.00    -0.000 C 
BRANCH  30  31
ATOM     31  C   UNL     1      54.191 -32.153  27.084  1.00  0.00    -0.003 C 
ATOM     32  C   UNL     1      53.906 -31.364  28.361  1.00  0.00     0.004 C 
ENDBRANCH  30  31
ENDBRANCH  29  30
ENDBRANCH  28  29
ENDBRANCH  27  28
ENDBRANCH  26  27
ENDBRANCH  25  26
ENDBRANCH  24  25
ENDBRANCH  23  24
ENDBRANCH  22  23
ENDBRANCH  21  22
ENDBRANCH  20  21
ENDBRANCH  19  20
ENDBRANCH  18  19
ENDBRANCH   1  18
TORSDOF 28
ENDMDL
MODEL 2
REMARK VINA RESULT:    -2.528      4.175      8.415
REMARK INTER + INTRA:         -12.144
REMARK INTER:                  -5.831
REMARK INTRA:                  -6.313
REMARK UNBOUND:                -5.479
REMARK SMILES CCCCCCCCCCCCCCCCCCCCCCCCCCCCCC(=O)[O-]
REMARK SMILES IDX 16 1 17 2 18 3 19 4 20 5 21 6 22 7 23 8 24 9 25 10 26 11
REMARK SMILES IDX 27 12 28 13 29 14 30 15 31 16 32 17 15 18 14 19 13 20 12 21
REMARK SMILES IDX 11 22 10 23 9 24 8 25 7 26 6 27 5 28 4 29 3 30 2 31 1 32
REMARK H PARENT
REMARK Flexibility Score: inf
ROOT
ATOM      1  C   UNL     1      52.581 -30.840  25.528  1.00  0.00     0.000 C 
ENDROOT
BRANCH   1   2
ATOM      2  C   UNL     1      52.824 -31.695  24.272  1.00  0.00     0.000 C 
BRANCH   2   3
ATOM      3  C   UNL     1      51.847 -31.440  23.106  1.00  0.00     0.000 C 
BRANCH   3   4
ATOM      4  C   UNL     1      50.606 -32.351  23.084  1.00  0.00     0.000 C 
BRANCH   4   5
ATOM      5  C   UNL     1      50.792 -33.624  23.922  1.00  0.00     0.000 C 
BRANCH   5   6
ATOM      6  C   UNL     1      51.203 -34.810  23.042  1.00  0.00     0.000 C 
BRANCH   6   7
ATOM      7  C   UNL     1      52.351 -35.600  23.689  1.00  0.00     0.000 C 
BRANCH   7   8
ATOM      8  C   UNL     1      53.743 -35.054  23.322  1.00  0.00     0.000 C 
BRANCH   8   9
ATOM      9  C   UNL     1      54.292 -35.526  21.962  1.00  0.00     0.000 C 
BRANCH   9  10
ATOM     10  C   UNL     1      55.766 -35.964  22.030  1.00  0.00     0.000 C 
BRANCH  10  11
ATOM     11  C   UNL     1      56.176 -36.427  23.439  1.00  0.00     0.000 C 
BRANCH  11  12
ATOM     12  C   UNL     1      57.644 -36.883  23.502  1.00  0.00     0.000 C 
BRANCH  12  13
ATOM     13  C   UNL     1      58.587 -35.970  22.696  1.00  0.00     0.006 C 
BRANCH  13  14
ATOM     14  C   UNL     1      59.580 -35.169  23.553  1.00  0.00     0.053 C 
BRANCH  14  15
ATOM     15  C   UNL     1      60.458 -36.059  24.378  1.00  0.00     0.041 C 
ATOM     16  O   UNL     1      60.258 -36.173  25.617  1.00  0.00    -0.550 OA
ATOM     17  O   UNL     1      61.480 -36.782  23.776  1.00  0.00    -0.550 OA
ENDBRANCH  14  15
ENDBRANCH  13  14
ENDBRANCH  12  13
ENDBRANCH  11  12
ENDBRANCH  10  11
ENDBRANCH   9  10
ENDBRANCH   8   9
ENDBRANCH   7   8
ENDBRANCH   6   7
ENDBRANCH   5   6
ENDBRANCH   4   5
ENDBRANCH   3   4
ENDBRANCH   2   3
ENDBRANCH   1   2
BRANCH   1  18
ATOM     18  C   UNL     1      53.875 -30.243  26.102  1.00  0.00     0.000 C 
BRANCH  18  19
ATOM     19  C   UNL     1      54.283 -28.972  25.341  1.00  0.00     0.000 C 
BRANCH  19  20
ATOM     20  C   UNL     1      55.631 -29.131  24.617  1.00  0.00     0.000 C 
BRANCH  20  21
ATOM     21  C   UNL     1      56.376 -30.412  25.035  1.00  0.00     0.000 C 
BRANCH  21  22
ATOM     22  C   UNL     1      56.804 -31.274  23.827  1.00  0.00     0.000 C 
BRANCH  22  23
ATOM     23  C   UNL     1      56.427 -32.763  23.953  1.00  0.00     0.000 C 
BRANCH  23  24
ATOM     24  C   UNL     1      56.184 -33.257  25.390  1.00  0.00    -0.000 C 
BRANCH  24  25
ATOM     25  C   UNL     1      57.392 -33.942  26.066  1.00  0.00    -0.000 C 
BRANCH  25  26
ATOM     26  C   UNL     1      57.059 -34.785  27.311  1.00  0.00    -0.000 C 
BRANCH  26  27
ATOM     27  C   UNL     1      56.980 -36.291  27.010  1.00  0.00    -0.000 C 
BRANCH  27  28
ATOM     28  C   UNL     1      55.658 -36.928  27.479  1.00  0.00    -0.000 C 
BRANCH  28  29
ATOM     29  C   UNL     1      54.410 -36.540  26.664  1.00  0.00    -0.000 C 
BRANCH  29  30
ATOM     30  C   UNL     1      53.335 -35.838  27.510  1.00  0.00    -0.000 C 
BRANCH  30  31
ATOM     31  C   UNL     1      53.124 -34.372  27.092  1.00  0.00    -0.003 C 
ATOM     32  C   UNL     1      51.758 -33.827  27.507  1.00  0.00     0.004 C 
ENDBRANCH  30  31
ENDBRANCH  29  30
ENDBRANCH  28  29
ENDBRANCH  27  28
ENDBRANCH  26  27
ENDBRANCH  25  26
ENDBRANCH  24  25
ENDBRANCH  23  24
ENDBRANCH  22  23
ENDBRANCH  21  22
ENDBRANCH  20  21
ENDBRANCH  19  20
ENDBRANCH  18  19
ENDBRANCH   1  18
TORSDOF 28
ENDMDL
MODEL 3
REMARK VINA RESULT:    -2.523      2.655      5.827
REMARK INTER + INTRA:         -12.132
REMARK INTER:                  -6.132
REMARK INTRA:                  -6.000
REMARK UNBOUND:                -5.479
REMARK SMILES CCCCCCCCCCCCCCCCCCCCCCCCCCCCCC(=O)[O-]
REMARK SMILES IDX 16 1 17 2 18 3 19 4 20 5 21 6 22 7 23 8 24 9 25 10 26 11
REMARK SMILES IDX 27 12 28 13 29 14 30 15 31 16 32 17 15 18 14 19 13 20 12 21
REMARK SMILES IDX 11 22 10 23 9 24 8 25 7 26 6 27 5 28 4 29 3 30 2 31 1 32
REMARK H PARENT
REMARK Flexibility Score: inf
ROOT
ATOM      1  C   UNL     1      54.936 -33.413  23.127  1.00  0.00     0.000 C 
ENDROOT
BRANCH   1   2
ATOM      2  C   UNL     1      53.793 -32.622  23.785  1.00  0.00     0.000 C 
BRANCH   2   3
ATOM      3  C   UNL     1      52.455 -33.381  23.906  1.00  0.00     0.000 C 
BRANCH   3   4
ATOM      4  C   UNL     1      51.203 -32.555  23.557  1.00  0.00     0.000 C 
BRANCH   4   5
ATOM      5  C   UNL     1      51.546 -31.163  23.009  1.00  0.00     0.000 C 
BRANCH   5   6
ATOM      6  C   UNL     1      50.282 -30.315  22.823  1.00  0.00     0.000 C 
BRANCH   6   7
ATOM      7  C   UNL     1      50.557 -28.842  23.164  1.00  0.00     0.000 C 
BRANCH   7   8
ATOM      8  C   UNL     1      51.988 -28.595  23.675  1.00  0.00     0.000 C 
BRANCH   8   9
ATOM      9  C   UNL     1      52.108 -27.555  24.805  1.00  0.00     0.000 C 
BRANCH   9  10
ATOM     10  C   UNL     1      52.934 -28.062  26.000  1.00  0.00     0.000 C 
BRANCH  10  11
ATOM     11  C   UNL     1      53.220 -29.571  25.918  1.00  0.00     0.000 C 
BRANCH  11  12
ATOM     12  C   UNL     1      54.726 -29.886  25.961  1.00  0.00     0.000 C 
BRANCH  12  13
ATOM     13  C   UNL     1      55.494 -29.284  24.769  1.00  0.00     0.006 C 
BRANCH  13  14
ATOM     14  C   UNL     1      56.622 -30.176  24.226  1.00  0.00     0.053 C 
BRANCH  14  15
ATOM     15  C   UNL     1      57.978 -29.632  24.554  1.00  0.00     0.041 C 
ATOM     16  O   UNL     1      58.644 -29.018  23.677  1.00  0.00    -0.550 OA
ATOM     17  O   UNL     1      58.497 -29.780  25.834  1.00  0.00    -0.550 OA
ENDBRANCH  14  15
ENDBRANCH  13  14
ENDBRANCH  12  13
ENDBRANCH  11  12
ENDBRANCH  10  11
ENDBRANCH   9  10
ENDBRANCH   8   9
ENDBRANCH   7   8
ENDBRANCH   6   7
ENDBRANCH   5   6
ENDBRANCH   4   5
ENDBRANCH   3   4
ENDBRANCH   2   3
ENDBRANCH   1   2
BRANCH   1  18
ATOM     18  C   UNL     1      54.730 -34.933  23.202  1.00  0.00     0.000 C 
BRANCH  18  19
ATOM     19  C   UNL     1      55.355 -35.638  21.988  1.00  0.00     0.000 C 
BRANCH  19  20
ATOM     20  C   UNL     1      56.550 -36.525  22.379  1.00  0.00     0.000 C 
BRANCH  20  21
ATOM     21  C   UNL     1      56.750 -36.605  23.904  1.00  0.00     0.000 C 
BRANCH  21  22
ATOM     22  C   UNL     1      58.239 -36.553  24.312  1.00  0.00     0.000 C 
BRANCH  22  23
ATOM     23  C   UNL     1      59.094 -35.605  23.450  1.00  0.00     0.000 C 
BRANCH  23  24
ATOM     24  C   UNL     1      59.529 -34.302  24.146  1.00  0.00    -0.000 C 
BRANCH  24  25
ATOM     25  C   UNL     1      58.381 -33.345  24.534  1.00  0.00    -0.000 C 
BRANCH  25  26
ATOM     26  C   UNL     1      58.038 -33.302  26.034  1.00  0.00    -0.000 C 
BRANCH  26  27
ATOM     27  C   UNL     1      56.524 -33.274  26.301  1.00  0.00    -0.000 C 
BRANCH  27  28
ATOM     28  C   UNL     1      55.991 -34.598  26.882  1.00  0.00    -0.000 C 
BRANCH  28  29
ATOM     29  C   UNL     1      54.465 -34.786  26.809  1.00  0.00    -0.000 C 
BRANCH  29  30
ATOM     30  C   UNL     1      53.718 -34.088  27.958  1.00  0.00    -0.000 C 
BRANCH  30  31
ATOM     31  C   UNL     1      52.972 -32.826  27.492  1.00  0.00    -0.003 C 
ATOM     32  C   UNL     1      51.455 -33.004  27.476  1.00  0.00     0.004 C 
ENDBRANCH  30  31
ENDBRANCH  29  30
ENDBRANCH  28  29
ENDBRANCH  27  28
ENDBRANCH  26  27
ENDBRANCH  25  26
ENDBRANCH  24  25
ENDBRANCH  23  24
ENDBRANCH  22  23
ENDBRANCH  21  22
ENDBRANCH  20  21
ENDBRANCH  19  20
ENDBRANCH  18  19
ENDBRANCH   1  18
TORSDOF 28
ENDMDL
MODEL 4
REMARK VINA RESULT:    -2.471      1.838      5.593
REMARK INTER + INTRA:         -11.994
REMARK INTER:                  -5.537
REMARK INTRA:                  -6.457
REMARK UNBOUND:                -5.479
REMARK SMILES CCCCCCCCCCCCCCCCCCCCCCCCCCCCCC(=O)[O-]
REMARK SMILES IDX 16 1 17 2 18 3 19 4 20 5 21 6 22 7 23 8 24 9 25 10 26 11
REMARK SMILES IDX 27 12 28 13 29 14 30 15 31 16 32 17 15 18 14 19 13 20 12 21
REMARK SMILES IDX 11 22 10 23 9 24 8 25 7 26 6 27 5 28 4 29 3 30 2 31 1 32
REMARK H PARENT
REMARK Flexibility Score: inf
ROOT
ATOM      1  C   UNL     1      53.793 -32.597  24.102  1.00  0.00     0.000 C 
ENDROOT
BRANCH   1   2
ATOM      2  C   UNL     1      52.482 -32.298  23.353  1.00  0.00     0.000 C 
BRANCH   2   3
ATOM      3  C   UNL     1      51.327 -33.281  23.633  1.00  0.00     0.000 C 
BRANCH   3   4
ATOM      4  C   UNL     1      51.543 -34.709  23.101  1.00  0.00     0.000 C 
BRANCH   4   5
ATOM      5  C   UNL     1      51.266 -35.785  24.161  1.00  0.00     0.000 C 
BRANCH   5   6
ATOM      6  C   UNL     1      52.493 -36.015  25.051  1.00  0.00     0.000 C 
BRANCH   6   7
ATOM      7  C   UNL     1      52.234 -35.519  26.481  1.00  0.00     0.000 C 
BRANCH   7   8
ATOM      8  C   UNL     1      53.385 -34.667  27.045  1.00  0.00     0.000 C 
BRANCH   8   9
ATOM      9  C   UNL     1      52.972 -33.283  27.582  1.00  0.00     0.000 C 
BRANCH   9  10
ATOM     10  C   UNL     1      51.470 -32.997  27.410  1.00  0.00     0.000 C 
BRANCH  10  11
ATOM     11  C   UNL     1      51.200 -31.583  26.866  1.00  0.00     0.000 C 
BRANCH  11  12
ATOM     12  C   UNL     1      52.450 -30.687  26.916  1.00  0.00     0.000 C 
BRANCH  12  13
ATOM     13  C   UNL     1      52.301 -29.410  26.069  1.00  0.00     0.006 C 
BRANCH  13  14
ATOM     14  C   UNL     1      51.056 -29.387  25.168  1.00  0.00     0.053 C 
BRANCH  14  15
ATOM     15  C   UNL     1      51.342 -28.788  23.826  1.00  0.00     0.041 C 
ATOM     16  O   UNL     1      50.472 -28.829  22.915  1.00  0.00    -0.550 OA
ATOM     17  O   UNL     1      52.560 -28.163  23.587  1.00  0.00    -0.550 OA
ENDBRANCH  14  15
ENDBRANCH  13  14
ENDBRANCH  12  13
ENDBRANCH  11  12
ENDBRANCH  10  11
ENDBRANCH   9  10
ENDBRANCH   8   9
ENDBRANCH   7   8
ENDBRANCH   6   7
ENDBRANCH   5   6
ENDBRANCH   4   5
ENDBRANCH   3   4
ENDBRANCH   2   3
ENDBRANCH   1   2
BRANCH   1  18
ATOM     18  C   UNL     1      54.927 -33.040  23.165  1.00  0.00     0.000 C 
BRANCH  18  19
ATOM     19  C   UNL     1      55.382 -34.472  23.488  1.00  0.00     0.000 C 
BRANCH  19  20
ATOM     20  C   UNL     1      55.095 -35.451  22.336  1.00  0.00     0.000 C 
BRANCH  20  21
ATOM     21  C   UNL     1      56.075 -36.639  22.314  1.00  0.00     0.000 C 
BRANCH  21  22
ATOM     22  C   UNL     1      57.549 -36.196  22.445  1.00  0.00     0.000 C 
BRANCH  22  23
ATOM     23  C   UNL     1      58.315 -36.891  23.588  1.00  0.00     0.000 C 
BRANCH  23  24
ATOM     24  C   UNL     1      58.399 -36.089  24.900  1.00  0.00    -0.000 C 
BRANCH  24  25
ATOM     25  C   UNL     1      59.078 -34.707  24.787  1.00  0.00    -0.000 C 
BRANCH  25  26
ATOM     26  C   UNL     1      58.301 -33.537  25.419  1.00  0.00    -0.000 C 
BRANCH  26  27
ATOM     27  C   UNL     1      57.624 -33.917  26.746  1.00  0.00    -0.000 C 
BRANCH  27  28
ATOM     28  C   UNL     1      56.642 -32.841  27.249  1.00  0.00    -0.000 C 
BRANCH  28  29
ATOM     29  C   UNL     1      56.395 -31.668  26.282  1.00  0.00    -0.000 C 
BRANCH  29  30
ATOM     30  C   UNL     1      56.680 -30.296  26.918  1.00  0.00    -0.000 C 
BRANCH  30  31
ATOM     31  C   UNL     1      56.029 -29.142  26.137  1.00  0.00    -0.003 C 
ATOM     32  C   UNL     1      55.795 -29.478  24.665  1.00  0.00     0.004 C 
ENDBRANCH  30  31
ENDBRANCH  29  30
ENDBRANCH  28  29
ENDBRANCH  27  28
ENDBRANCH  26  27
ENDBRANCH  25  26
ENDBRANCH  24  25
ENDBRANCH  23  24
ENDBRANCH  22  23
ENDBRANCH  21  22
ENDBRANCH  20  21
ENDBRANCH  19  20
ENDBRANCH  18  19
ENDBRANCH   1  18
TORSDOF 28
ENDMDL
MODEL 5
REMARK VINA RESULT:    -2.451      2.497      5.091
REMARK INTER + INTRA:         -11.942
REMARK INTER:                  -5.552
REMARK INTRA:                  -6.390
REMARK UNBOUND:                -5.479
REMARK SMILES CCCCCCCCCCCCCCCCCCCCCCCCCCCCCC(=O)[O-]
REMARK SMILES IDX 16 1 17 2 18 3 19 4 20 5 21 6 22 7 23 8 24 9 25 10 26 11
REMARK SMILES IDX 27 12 28 13 29 14 30 15 31 16 32 17 15 18 14 19 13 20 12 21
REMARK SMILES IDX 11 22 10 23 9 24 8 25 7 26 6 27 5 28 4 29 3 30 2 31 1 32
REMARK H PARENT
REMARK Flexibility Score: inf
ROOT
ATOM      1  C   UNL     1      53.646 -36.069  26.380  1.00  0.00     0.000 C 
ENDROOT
BRANCH   1   2
ATOM      2  C   UNL     1      54.398 -35.215  25.344  1.00  0.00     0.000 C 
BRANCH   2   3
ATOM      3  C   UNL     1      54.153 -35.604  23.871  1.00  0.00     0.000 C 
BRANCH   3   4
ATOM      4  C   UNL     1      54.830 -34.688  22.834  1.00  0.00     0.000 C 
BRANCH   4   5
ATOM      5  C   UNL     1      55.689 -35.467  21.828  1.00  0.00     0.000 C 
BRANCH   5   6
ATOM      6  C   UNL     1      56.066 -36.849  22.374  1.00  0.00     0.000 C 
BRANCH   6   7
ATOM      7  C   UNL     1      57.506 -36.852  22.910  1.00  0.00     0.000 C 
BRANCH   7   8
ATOM      8  C   UNL     1      57.580 -36.854  24.448  1.00  0.00     0.000 C 
BRANCH   8   9
ATOM      9  C   UNL     1      58.657 -35.934  25.052  1.00  0.00     0.000 C 
BRANCH   9  10
ATOM     10  C   UNL     1      58.073 -34.646  25.659  1.00  0.00     0.000 C 
BRANCH  10  11
ATOM     11  C   UNL     1      57.739 -33.592  24.590  1.00  0.00     0.000 C 
BRANCH  11  12
ATOM     12  C   UNL     1      56.860 -32.455  25.142  1.00  0.00     0.000 C 
BRANCH  12  13
ATOM     13  C   UNL     1      56.387 -31.482  24.046  1.00  0.00     0.006 C 
BRANCH  13  14
ATOM     14  C   UNL     1      56.883 -30.038  24.223  1.00  0.00     0.053 C 
BRANCH  14  15
ATOM     15  C   UNL     1      55.882 -29.182  24.935  1.00  0.00     0.041 C 
ATOM     16  O   UNL     1      55.018 -28.540  24.280  1.00  0.00    -0.550 OA
ATOM     17  O   UNL     1      55.887 -29.112  26.323  1.00  0.00    -0.550 OA
ENDBRANCH  14  15
ENDBRANCH  13  14
ENDBRANCH  12  13
ENDBRANCH  11  12
ENDBRANCH  10  11
ENDBRANCH   9  10
ENDBRANCH   8   9
ENDBRANCH   7   8
ENDBRANCH   6   7
ENDBRANCH   5   6
ENDBRANCH   4   5
ENDBRANCH   3   4
ENDBRANCH   2   3
ENDBRANCH   1   2
BRANCH   1  18
ATOM     18  C   UNL     1      52.221 -36.428  25.934  1.00  0.00     0.000 C 
BRANCH  18  19
ATOM     19  C   UNL     1      51.219 -35.341  26.352  1.00  0.00     0.000 C 
BRANCH  19  20
ATOM     20  C   UNL     1      50.100 -35.145  25.314  1.00  0.00     0.000 C 
BRANCH  20  21
ATOM     21  C   UNL     1      50.492 -35.671  23.920  1.00  0.00     0.000 C 
BRANCH  21  22
ATOM     22  C   UNL     1      50.894 -34.539  22.949  1.00  0.00     0.000 C 
BRANCH  22  23
ATOM     23  C   UNL     1      50.217 -33.187  23.246  1.00  0.00     0.000 C 
BRANCH  23  24
ATOM     24  C   UNL     1      51.122 -31.953  23.076  1.00  0.00    -0.000 C 
BRANCH  24  25
ATOM     25  C   UNL     1      52.549 -32.096  23.650  1.00  0.00    -0.000 C 
BRANCH  25  26
ATOM     26  C   UNL     1      52.826 -31.294  24.935  1.00  0.00    -0.000 C 
BRANCH  26  27
ATOM     27  C   UNL     1      52.734 -32.153  26.207  1.00  0.00    -0.000 C 
BRANCH  27  28
ATOM     28  C   UNL     1      53.795 -31.782  27.261  1.00  0.00    -0.000 C 
BRANCH  28  29
ATOM     29  C   UNL     1      54.026 -32.830  28.365  1.00  0.00    -0.000 C 
BRANCH  29  30
ATOM     30  C   UNL     1      55.419 -33.478  28.296  1.00  0.00    -0.000 C 
BRANCH  30  31
ATOM     31  C   UNL     1      56.406 -32.854  29.297  1.00  0.00    -0.003 C 
ATOM     32  C   UNL     1      57.062 -31.579  28.768  1.00  0.00     0.004 C 
ENDBRANCH  30  31
ENDBRANCH  29  30
ENDBRANCH  28  29
ENDBRANCH  27  28
ENDBRANCH  26  27
ENDBRANCH  25  26
ENDBRANCH  24  25
ENDBRANCH  23  24
ENDBRANCH  22  23
ENDBRANCH  21  22
ENDBRANCH  20  21
ENDBRANCH  19  20
ENDBRANCH  18  19
ENDBRANCH   1  18
TORSDOF 28
ENDMDL
MODEL 6
REMARK VINA RESULT:    -2.411      1.771      5.562
REMARK INTER + INTRA:         -11.836
REMARK INTER:                  -6.471
REMARK INTRA:                  -5.365
REMARK UNBOUND:                -5.479
REMARK SMILES CCCCCCCCCCCCCCCCCCCCCCCCCCCCCC(=O)[O-]
REMARK SMILES IDX 16 1 17 2 18 3 19 4 20 5 21 6 22 7 23 8 24 9 25 10 26 11
REMARK SMILES IDX 27 12 28 13 29 14 30 15 31 16 32 17 15 18 14 19 13 20 12 21
REMARK SMILES IDX 11 22 10 23 9 24 8 25 7 26 6 27 5 28 4 29 3 30 2 31 1 32
REMARK H PARENT
REMARK Flexibility Score: inf
ROOT
ATOM      1  C   UNL     1      54.895 -32.902  23.484  1.00  0.00     0.000 C 
ENDROOT
BRANCH   1   2
ATOM      2  C   UNL     1      54.610 -32.476  24.934  1.00  0.00     0.000 C 
BRANCH   2   3
ATOM      3  C   UNL     1      55.280 -33.348  26.018  1.00  0.00     0.000 C 
BRANCH   3   4
ATOM      4  C   UNL     1      54.383 -33.696  27.220  1.00  0.00     0.000 C 
BRANCH   4   5
ATOM      5  C   UNL     1      53.135 -34.494  26.817  1.00  0.00     0.000 C 
BRANCH   5   6
ATOM      6  C   UNL     1      53.518 -35.817  26.145  1.00  0.00     0.000 C 
BRANCH   6   7
ATOM      7  C   UNL     1      52.649 -36.072  24.903  1.00  0.00     0.000 C 
BRANCH   7   8
ATOM      8  C   UNL     1      51.533 -35.027  24.721  1.00  0.00     0.000 C 
BRANCH   8   9
ATOM      9  C   UNL     1      51.476 -34.367  23.329  1.00  0.00     0.000 C 
BRANCH   9  10
ATOM     10  C   UNL     1      50.098 -33.764  23.008  1.00  0.00     0.000 C 
BRANCH  10  11
ATOM     11  C   UNL     1      50.187 -32.285  22.592  1.00  0.00     0.000 C 
BRANCH  11  12
ATOM     12  C   UNL     1      51.461 -31.603  23.120  1.00  0.00     0.000 C 
BRANCH  12  13
ATOM     13  C   UNL     1      51.371 -30.066  23.089  1.00  0.00     0.006 C 
BRANCH  13  14
ATOM     14  C   UNL     1      50.710 -29.444  24.329  1.00  0.00     0.053 C 
BRANCH  14  15
ATOM     15  C   UNL     1      51.165 -28.036  24.563  1.00  0.00     0.041 C 
ATOM     16  O   UNL     1      51.850 -27.438  23.691  1.00  0.00    -0.550 OA
ATOM     17  O   UNL     1      50.815 -27.377  25.735  1.00  0.00    -0.550 OA
ENDBRANCH  14  15
ENDBRANCH  13  14
ENDBRANCH  12  13
ENDBRANCH  11  12
ENDBRANCH  10  11
ENDBRANCH   9  10
ENDBRANCH   8   9
ENDBRANCH   7   8
ENDBRANCH   6   7
ENDBRANCH   5   6
ENDBRANCH   4   5
ENDBRANCH   3   4
ENDBRANCH   2   3
ENDBRANCH   1   2
BRANCH   1  18
ATOM     18  C   UNL     1      55.563 -34.282  23.388  1.00  0.00     0.000 C 
BRANCH  18  19
ATOM     19  C   UNL     1      54.915 -35.136  22.287  1.00  0.00     0.000 C 
BRANCH  19  20
ATOM     20  C   UNL     1      55.755 -36.377  21.938  1.00  0.00     0.000 C 
BRANCH  20  21
ATOM     21  C   UNL     1      56.672 -36.812  23.096  1.00  0.00     0.000 C 
BRANCH  21  22
ATOM     22  C   UNL     1      58.154 -36.916  22.676  1.00  0.00     0.000 C 
BRANCH  22  23
ATOM     23  C   UNL     1      59.023 -35.730  23.136  1.00  0.00     0.000 C 
BRANCH  23  24
ATOM     24  C   UNL     1      59.104 -35.532  24.661  1.00  0.00    -0.000 C 
BRANCH  24  25
ATOM     25  C   UNL     1      59.254 -34.069  25.131  1.00  0.00    -0.000 C 
BRANCH  25  26
ATOM     26  C   UNL     1      58.604 -33.014  24.217  1.00  0.00    -0.000 C 
BRANCH  26  27
ATOM     27  C   UNL     1      59.633 -32.092  23.542  1.00  0.00    -0.000 C 
BRANCH  27  28
ATOM     28  C   UNL     1      59.024 -30.758  23.067  1.00  0.00    -0.000 C 
BRANCH  28  29
ATOM     29  C   UNL     1      57.651 -30.406  23.669  1.00  0.00    -0.000 C 
BRANCH  29  30
ATOM     30  C   UNL     1      57.749 -29.454  24.873  1.00  0.00    -0.000 C 
BRANCH  30  31
ATOM     31  C   UNL     1      56.966 -29.967  26.093  1.00  0.00    -0.003 C 
ATOM     32  C   UNL     1      57.852 -30.698  27.102  1.00  0.00     0.004 C 
ENDBRANCH  30  31
ENDBRANCH  29  30
ENDBRANCH  28  29
ENDBRANCH  27  28
ENDBRANCH  26  27
ENDBRANCH  25  26
ENDBRANCH  24  25
ENDBRANCH  23  24
ENDBRANCH  22  23
ENDBRANCH  21  22
ENDBRANCH  20  21
ENDBRANCH  19  20
ENDBRANCH  18  19
ENDBRANCH   1  18
TORSDOF 28
ENDMDL
MODEL 7
REMARK VINA RESULT:    -2.398      2.986      7.296
REMARK INTER + INTRA:         -11.802
REMARK INTER:                  -5.351
REMARK INTRA:                  -6.451
REMARK UNBOUND:                -5.479
REMARK SMILES CCCCCCCCCCCCCCCCCCCCCCCCCCCCCC(=O)[O-]
REMARK SMILES IDX 16 1 17 2 18 3 19 4 20 5 21 6 22 7 23 8 24 9 25 10 26 11
REMARK SMILES IDX 27 12 28 13 29 14 30 15 31 16 32 17 15 18 14 19 13 20 12 21
REMARK SMILES IDX 11 22 10 23 9 24 8 25 7 26 6 27 5 28 4 29 3 30 2 31 1 32
REMARK H PARENT
REMARK Flexibility Score: inf
ROOT
ATOM      1  C   UNL     1      50.842 -29.615  23.188  1.00  0.00     0.000 C 
ENDROOT
BRANCH   1   2
ATOM      2  C   UNL     1      51.590 -30.958  23.122  1.00  0.00     0.000 C 
BRANCH   2   3
ATOM      3  C   UNL     1      51.587 -31.775  24.431  1.00  0.00     0.000 C 
BRANCH   3   4
ATOM      4  C   UNL     1      50.613 -32.967  24.452  1.00  0.00     0.000 C 
BRANCH   4   5
ATOM      5  C   UNL     1      50.509 -33.671  23.091  1.00  0.00     0.000 C 
BRANCH   5   6
ATOM      6  C   UNL     1      50.719 -35.183  23.232  1.00  0.00     0.000 C 
BRANCH   6   7
ATOM      7  C   UNL     1      52.028 -35.486  23.977  1.00  0.00     0.000 C 
BRANCH   7   8
ATOM      8  C   UNL     1      53.284 -35.209  23.131  1.00  0.00     0.000 C 
BRANCH   8   9
ATOM      9  C   UNL     1      54.625 -35.458  23.849  1.00  0.00     0.000 C 
BRANCH   9  10
ATOM     10  C   UNL     1      55.593 -34.267  23.742  1.00  0.00     0.000 C 
BRANCH  10  11
ATOM     11  C   UNL     1      54.868 -32.949  23.417  1.00  0.00     0.000 C 
BRANCH  11  12
ATOM     12  C   UNL     1      55.418 -31.762  24.228  1.00  0.00     0.000 C 
BRANCH  12  13
ATOM     13  C   UNL     1      56.572 -32.165  25.164  1.00  0.00     0.006 C 
BRANCH  13  14
ATOM     14  C   UNL     1      56.750 -31.246  26.384  1.00  0.00     0.053 C 
BRANCH  14  15
ATOM     15  C   UNL     1      58.132 -30.674  26.462  1.00  0.00     0.041 C 
ATOM     16  O   UNL     1      59.000 -30.996  25.606  1.00  0.00    -0.550 OA
ATOM     17  O   UNL     1      58.456 -29.768  27.464  1.00  0.00    -0.550 OA
ENDBRANCH  14  15
ENDBRANCH  13  14
ENDBRANCH  12  13
ENDBRANCH  11  12
ENDBRANCH  10  11
ENDBRANCH   9  10
ENDBRANCH   8   9
ENDBRANCH   7   8
ENDBRANCH   6   7
ENDBRANCH   5   6
ENDBRANCH   4   5
ENDBRANCH   3   4
ENDBRANCH   2   3
ENDBRANCH   1   2
BRANCH   1  18
ATOM     18  C   UNL     1      50.170 -29.373  24.548  1.00  0.00     0.000 C 
BRANCH  18  19
ATOM     19  C   UNL     1      50.366 -27.921  25.011  1.00  0.00     0.000 C 
BRANCH  19  20
ATOM     20  C   UNL     1      50.761 -26.986  23.854  1.00  0.00     0.000 C 
BRANCH  20  21
ATOM     21  C   UNL     1      52.028 -26.167  24.166  1.00  0.00     0.000 C 
BRANCH  21  22
ATOM     22  C   UNL     1      53.244 -26.608  23.322  1.00  0.00     0.000 C 
BRANCH  22  23
ATOM     23  C   UNL     1      54.394 -27.218  24.147  1.00  0.00     0.000 C 
BRANCH  23  24
ATOM     24  C   UNL     1      54.091 -28.593  24.771  1.00  0.00    -0.000 C 
BRANCH  24  25
ATOM     25  C   UNL     1      53.920 -28.598  26.306  1.00  0.00    -0.000 C 
BRANCH  25  26
ATOM     26  C   UNL     1      53.156 -29.807  26.880  1.00  0.00    -0.000 C 
BRANCH  26  27
ATOM     27  C   UNL     1      53.599 -30.172  28.306  1.00  0.00    -0.000 C 
BRANCH  27  28
ATOM     28  C   UNL     1      53.866 -31.679  28.485  1.00  0.00    -0.000 C 
BRANCH  28  29
ATOM     29  C   UNL     1      52.861 -32.616  27.789  1.00  0.00    -0.000 C 
BRANCH  29  30
ATOM     30  C   UNL     1      53.538 -33.641  26.863  1.00  0.00    -0.000 C 
BRANCH  30  31
ATOM     31  C   UNL     1      54.170 -34.807  27.642  1.00  0.00    -0.003 C 
ATOM     32  C   UNL     1      55.685 -34.893  27.456  1.00  0.00     0.004 C 
ENDBRANCH  30  31
ENDBRANCH  29  30
ENDBRANCH  28  29
ENDBRANCH  27  28
ENDBRANCH  26  27
ENDBRANCH  25  26
ENDBRANCH  24  25
ENDBRANCH  23  24
ENDBRANCH  22  23
ENDBRANCH  21  22
ENDBRANCH  20  21
ENDBRANCH  19  20
ENDBRANCH  18  19
ENDBRANCH   1  18
TORSDOF 28
ENDMDL
MODEL 8
REMARK VINA RESULT:    -2.396      3.167      5.400
REMARK INTER + INTRA:         -11.797
REMARK INTER:                  -5.483
REMARK INTRA:                  -6.314
REMARK UNBOUND:                -5.479
REMARK SMILES CCCCCCCCCCCCCCCCCCCCCCCCCCCCCC(=O)[O-]
REMARK SMILES IDX 16 1 17 2 18 3 19 4 20 5 21 6 22 7 23 8 24 9 25 10 26 11
REMARK SMILES IDX 27 12 28 13 29 14 30 15 31 16 32 17 15 18 14 19 13 20 12 21
REMARK SMILES IDX 11 22 10 23 9 24 8 25 7 26 6 27 5 28 4 29 3 30 2 31 1 32
REMARK H PARENT
REMARK Flexibility Score: inf
ROOT
ATOM      1  C   UNL     1      54.517 -34.328  23.392  1.00  0.00     0.000 C 
ENDROOT
BRANCH   1   2
ATOM      2  C   UNL     1      55.867 -34.757  22.792  1.00  0.00     0.000 C 
BRANCH   2   3
ATOM      3  C   UNL     1      55.939 -36.224  22.318  1.00  0.00     0.000 C 
BRANCH   3   4
ATOM      4  C   UNL     1      57.009 -37.082  23.016  1.00  0.00     0.000 C 
BRANCH   4   5
ATOM      5  C   UNL     1      57.464 -36.489  24.356  1.00  0.00     0.000 C 
BRANCH   5   6
ATOM      6  C   UNL     1      56.691 -37.108  25.527  1.00  0.00     0.000 C 
BRANCH   6   7
ATOM      7  C   UNL     1      56.577 -36.116  26.694  1.00  0.00     0.000 C 
BRANCH   7   8
ATOM      8  C   UNL     1      57.051 -34.697  26.331  1.00  0.00     0.000 C 
BRANCH   8   9
ATOM      9  C   UNL     1      56.042 -33.573  26.635  1.00  0.00     0.000 C 
BRANCH   9  10
ATOM     10  C   UNL     1      56.589 -32.172  26.310  1.00  0.00     0.000 C 
BRANCH  10  11
ATOM     11  C   UNL     1      57.483 -32.168  25.057  1.00  0.00     0.000 C 
BRANCH  11  12
ATOM     12  C   UNL     1      56.818 -31.459  23.865  1.00  0.00     0.000 C 
BRANCH  12  13
ATOM     13  C   UNL     1      57.776 -30.502  23.130  1.00  0.00     0.006 C 
BRANCH  13  14
ATOM     14  C   UNL     1      59.068 -30.183  23.900  1.00  0.00     0.053 C 
BRANCH  14  15
ATOM     15  C   UNL     1      60.193 -29.815  22.983  1.00  0.00     0.041 C 
ATOM     16  O   UNL     1      60.572 -28.617  22.894  1.00  0.00    -0.550 OA
ATOM     17  O   UNL     1      60.840 -30.798  22.244  1.00  0.00    -0.550 OA
ENDBRANCH  14  15
ENDBRANCH  13  14
ENDBRANCH  12  13
ENDBRANCH  11  12
ENDBRANCH  10  11
ENDBRANCH   9  10
ENDBRANCH   8   9
ENDBRANCH   7   8
ENDBRANCH   6   7
ENDBRANCH   5   6
ENDBRANCH   4   5
ENDBRANCH   3   4
ENDBRANCH   2   3
ENDBRANCH   1   2
BRANCH   1  18
ATOM     18  C   UNL     1      53.650 -35.521  23.821  1.00  0.00     0.000 C 
BRANCH  18  19
ATOM     19  C   UNL     1      53.192 -35.375  25.281  1.00  0.00     0.000 C 
BRANCH  19  20
ATOM     20  C   UNL     1      51.746 -35.858  25.492  1.00  0.00     0.000 C 
BRANCH  20  21
ATOM     21  C   UNL     1      50.972 -35.993  24.167  1.00  0.00     0.000 C 
BRANCH  21  22
ATOM     22  C   UNL     1      50.002 -34.816  23.921  1.00  0.00     0.000 C 
BRANCH  22  23
ATOM     23  C   UNL     1      50.608 -33.665  23.095  1.00  0.00     0.000 C 
BRANCH  23  24
ATOM     24  C   UNL     1      50.927 -32.387  23.892  1.00  0.00    -0.000 C 
BRANCH  24  25
ATOM     25  C   UNL     1      52.069 -31.519  23.320  1.00  0.00    -0.000 C 
BRANCH  25  26
ATOM     26  C   UNL     1      53.155 -31.109  24.331  1.00  0.00    -0.000 C 
BRANCH  26  27
ATOM     27  C   UNL     1      52.924 -31.702  25.731  1.00  0.00    -0.000 C 
BRANCH  27  28
ATOM     28  C   UNL     1      53.217 -30.700  26.864  1.00  0.00    -0.000 C 
BRANCH  28  29
ATOM     29  C   UNL     1      53.535 -29.263  26.410  1.00  0.00    -0.000 C 
BRANCH  29  30
ATOM     30  C   UNL     1      54.893 -28.756  26.926  1.00  0.00    -0.000 C 
BRANCH  30  31
ATOM     31  C   UNL     1      55.912 -28.552  25.792  1.00  0.00    -0.003 C 
ATOM     32  C   UNL     1      55.366 -27.694  24.651  1.00  0.00     0.004 C 
ENDBRANCH  30  31
ENDBRANCH  29  30
ENDBRANCH  28  29
ENDBRANCH  27  28
ENDBRANCH  26  27
ENDBRANCH  25  26
ENDBRANCH  24  25
ENDBRANCH  23  24
ENDBRANCH  22  23
ENDBRANCH  21  22
ENDBRANCH  20  21
ENDBRANCH  19  20
ENDBRANCH  18  19
ENDBRANCH   1  18
TORSDOF 28
ENDMDL
