MODEL 1
REMARK VINA RESULT:    -2.965      0.000      0.000
REMARK INTER + INTRA:         -11.185
REMARK INTER:                  -6.779
REMARK INTRA:                  -4.406
REMARK UNBOUND:                -4.406
REMARK SMILES CCCCCCCCCCCCCCCCCCCCCCCC(=O)[O-]
REMARK SMILES IDX 13 1 14 2 15 3 16 4 17 5 18 6 19 7 20 8 21 9 22 10 23 11
REMARK SMILES IDX 24 12 25 13 26 14 12 15 11 16 10 17 9 18 8 19 7 20 6 21 5 22
REMARK SMILES IDX 4 23 3 24 2 25 1 26
REMARK H PARENT
REMARK Flexibility Score: inf
ROOT
ATOM      1  C   UNL     1       6.244   2.326   5.017  1.00  0.00     0.000 C 
ENDROOT
BRANCH   1   2
ATOM      2  C   UNL     1       6.792   3.565   4.284  1.00  0.00     0.000 C 
BRANCH   2   3
ATOM      3  C   UNL     1       6.342   4.887   4.942  1.00  0.00     0.000 C 
BRANCH   3   4
ATOM      4  C   UNL     1       7.503   5.834   5.288  1.00  0.00     0.000 C 
BRANCH   4   5
ATOM      5  C   UNL     1       7.570   6.181   6.785  1.00  0.00     0.000 C 
BRANCH   5   6
ATOM      6  C   UNL     1       6.288   5.794   7.538  1.00  0.00     0.000 C 
BRANCH   6   7
ATOM      7  C   UNL     1       6.556   5.400   9.002  1.00  0.00     0.000 C 
BRANCH   7   8
ATOM      8  C   UNL     1       5.294   4.846   9.698  1.00  0.00     0.000 C 
BRANCH   8   9
ATOM      9  C   UNL     1       4.328   4.118   8.744  1.00  0.00     0.000 C 
BRANCH   9  10
ATOM     10  C   UNL     1       3.663   2.858   9.331  1.00  0.00     0.006 C 
BRANCH  10  11
ATOM     11  C   UNL     1       3.465   1.713   8.323  1.00  0.00     0.053 C 
BRANCH  11  12
ATOM     12  C   UNL     1       2.017   1.411   8.088  1.00  0.00     0.041 C 
ATOM     13  O   UNL     1       1.190   1.487   9.035  1.00  0.00    -0.550 OA
ATOM     14  O   UNL     1       1.585   1.015   6.827  1.00  0.00    -0.550 OA
ENDBRANCH  11  12
ENDBRANCH  10  11
ENDBRANCH   9  10
ENDBRANCH   8   9
ENDBRANCH   7   8
ENDBRANCH   6   7
ENDBRANCH   5   6
ENDBRANCH   4   5
ENDBRANCH   3   4
ENDBRANCH   2   3
ENDBRANCH   1   2
BRANCH   1  15
ATOM     15  C   UNL     1       6.632   2.302   6.504  1.00  0.00     0.000 C 
BRANCH  15  16
ATOM     16  C   UNL     1       8.150   2.427   6.724  1.00  0.00     0.000 C 
BRANCH  16  17
ATOM     17  C   UNL     1       8.570   2.043   8.153  1.00  0.00     0.000 C 
BRANCH  17  18
ATOM     18  C   UNL     1       7.369   1.930   9.108  1.00  0.00    -0.000 C 
BRANCH  18  19
ATOM     19  C   UNL     1       7.288   0.560   9.800  1.00  0.00    -0.000 C 
BRANCH  19  20
ATOM     20  C   UNL     1       6.511  -0.476   8.968  1.00  0.00    -0.000 C 
BRANCH  20  21
ATOM     21  C   UNL     1       7.313  -1.765   8.727  1.00  0.00    -0.000 C 
BRANCH  21  22
ATOM     22  C   UNL     1       8.807  -1.497   8.479  1.00  0.00    -0.000 C 
BRANCH  22  23
ATOM     23  C   UNL     1       9.234  -1.844   7.042  1.00  0.00    -0.000 C 
BRANCH  23  24
ATOM     24  C   UNL     1       8.373  -1.136   5.981  1.00  0.00    -0.000 C 
BRANCH  24  25
ATOM     25  C   UNL     1       8.997  -1.202   4.579  1.00  0.00    -0.003 C 
ATOM     26  C   UNL     1       9.172   0.176   3.941  1.00  0.00     0.004 C 
ENDBRANCH  24  25
ENDBRANCH  23  24
ENDBRANCH  22  23
ENDBRANCH  21  22
ENDBRANCH  20  21
ENDBRANCH  19  20
ENDBRANCH  18  19
ENDBRANCH  17  18
ENDBRANCH  16  17
ENDBRANCH  15  16
ENDBRANCH   1  15
TORSDOF 22
ENDMDL
MODEL 2
REMARK VINA RESULT:    -2.705      1.353      5.267
REMARK INTER + INTRA:         -10.591
REMARK INTER:                  -6.498
REMARK INTRA:                  -4.093
REMARK UNBOUND:                -4.406
REMARK SMILES CCCCCCCCCCCCCCCCCCCCCCCC(=O)[O-]
REMARK SMILES IDX 13 1 14 2 15 3 16 4 17 5 18 6 19 7 20 8 21 9 22 10 23 11
REMARK SMILES IDX 24 12 25 13 26 14 12 15 11 16 10 17 9 18 8 19 7 20 6 21 5 22
REMARK SMILES IDX 4 23 3 24 2 25 1 26
REMARK H PARENT
REMARK Flexibility Score: inf
ROOT
ATOM      1  C   UNL     1       8.124   1.716   4.180  1.00  0.00     0.000 C 
ENDROOT
BRANCH   1   2
ATOM      2  C   UNL     1       9.018   0.468   4.299  1.00  0.00     0.000 C 
BRANCH   2   3
ATOM      3  C   UNL     1       8.249  -0.762   4.828  1.00  0.00     0.000 C 
BRANCH   3   4
ATOM      4  C   UNL     1       8.957  -1.486   5.986  1.00  0.00     0.000 C 
BRANCH   4   5
ATOM      5  C   UNL     1       8.266  -1.265   7.343  1.00  0.00     0.000 C 
BRANCH   5   6
ATOM      6  C   UNL     1       8.620   0.091   7.972  1.00  0.00     0.000 C 
BRANCH   6   7
ATOM      7  C   UNL     1       7.467   0.676   8.807  1.00  0.00     0.000 C 
BRANCH   7   8
ATOM      8  C   UNL     1       6.305  -0.327   8.982  1.00  0.00     0.000 C 
BRANCH   8   9
ATOM      9  C   UNL     1       4.957   0.338   9.317  1.00  0.00     0.000 C 
BRANCH   9  10
ATOM     10  C   UNL     1       4.435   1.321   8.249  1.00  0.00     0.006 C 
BRANCH  10  11
ATOM     11  C   UNL     1       3.229   2.163   8.695  1.00  0.00     0.053 C 
BRANCH  11  12
ATOM     12  C   UNL     1       1.927   1.549   8.281  1.00  0.00     0.041 C 
ATOM     13  O   UNL     1       0.972   1.473   9.099  1.00  0.00    -0.550 OA
ATOM     14  O   UNL     1       1.778   1.032   6.999  1.00  0.00    -0.550 OA
ENDBRANCH  11  12
ENDBRANCH  10  11
ENDBRANCH   9  10
ENDBRANCH   8   9
ENDBRANCH   7   8
ENDBRANCH   6   7
ENDBRANCH   5   6
ENDBRANCH   4   5
ENDBRANCH   3   4
ENDBRANCH   2   3
ENDBRANCH   1   2
BRANCH   1  15
ATOM     15  C   UNL     1       7.018   1.752   5.245  1.00  0.00     0.000 C 
BRANCH  15  16
ATOM     16  C   UNL     1       6.342   3.130   5.354  1.00  0.00     0.000 C 
BRANCH  16  17
ATOM     17  C   UNL     1       7.071   4.209   4.535  1.00  0.00     0.000 C 
BRANCH  17  18
ATOM     18  C   UNL     1       7.235   5.526   5.313  1.00  0.00    -0.000 C 
BRANCH  18  19
ATOM     19  C   UNL     1       8.691   5.793   5.727  1.00  0.00    -0.000 C 
BRANCH  19  20
ATOM     20  C   UNL     1       9.529   4.504   5.799  1.00  0.00    -0.000 C 
BRANCH  20  21
ATOM     21  C   UNL     1       9.562   3.896   7.211  1.00  0.00    -0.000 C 
BRANCH  21  22
ATOM     22  C   UNL     1       9.541   4.965   8.317  1.00  0.00    -0.000 C 
BRANCH  22  23
ATOM     23  C   UNL     1       8.731   4.520   9.547  1.00  0.00    -0.000 C 
BRANCH  23  24
ATOM     24  C   UNL     1       7.331   5.159   9.596  1.00  0.00    -0.000 C 
BRANCH  24  25
ATOM     25  C   UNL     1       6.316   4.416   8.714  1.00  0.00    -0.003 C 
ATOM     26  C   UNL     1       5.138   5.295   8.294  1.00  0.00     0.004 C 
ENDBRANCH  24  25
ENDBRANCH  23  24
ENDBRANCH  22  23
ENDBRANCH  21  22
ENDBRANCH  20  21
ENDBRANCH  19  20
ENDBRANCH  18  19
ENDBRANCH  17  18
ENDBRANCH  16  17
ENDBRANCH  15  16
ENDBRANCH   1  15
TORSDOF 22
ENDMDL
MODEL 3
REMARK VINA RESULT:    -2.666      3.330      6.619
REMARK INTER + INTRA:         -10.501
REMARK INTER:                  -7.223
REMARK INTRA:                  -3.279
REMARK UNBOUND:                -4.406
REMARK SMILES CCCCCCCCCCCCCCCCCCCCCCCC(=O)[O-]
REMARK SMILES IDX 13 1 14 2 15 3 16 4 17 5 18 6 19 7 20 8 21 9 22 10 23 11
REMARK SMILES IDX 24 12 25 13 26 14 12 15 11 16 10 17 9 18 8 19 7 20 6 21 5 22
REMARK SMILES IDX 4 23 3 24 2 25 1 26
REMARK H PARENT
REMARK Flexibility Score: inf
ROOT
ATOM      1  C   UNL     1       6.353   4.176   4.221  1.00  0.00     0.000 C 
ENDROOT
BRANCH   1   2
ATOM      2  C   UNL     1       6.403   2.839   4.983  1.00  0.00     0.000 C 
BRANCH   2   3
ATOM      3  C   UNL     1       7.163   1.744   4.205  1.00  0.00     0.000 C 
BRANCH   3   4
ATOM      4  C   UNL     1       8.476   1.303   4.876  1.00  0.00     0.000 C 
BRANCH   4   5
ATOM      5  C   UNL     1       9.238   0.242   4.064  1.00  0.00     0.000 C 
BRANCH   5   6
ATOM      6  C   UNL     1       9.351  -1.100   4.805  1.00  0.00     0.000 C 
BRANCH   6   7
ATOM      7  C   UNL     1       8.273  -1.272   5.888  1.00  0.00     0.000 C 
BRANCH   7   8
ATOM      8  C   UNL     1       8.762  -2.141   7.067  1.00  0.00     0.000 C 
BRANCH   8   9
ATOM      9  C   UNL     1       9.630  -3.339   6.636  1.00  0.00     0.000 C 
BRANCH   9  10
ATOM     10  C   UNL     1       8.925  -4.708   6.703  1.00  0.00     0.006 C 
BRANCH  10  11
ATOM     11  C   UNL     1       9.015  -5.534   5.409  1.00  0.00     0.053 C 
BRANCH  11  12
ATOM     12  C   UNL     1       8.012  -6.646   5.379  1.00  0.00     0.041 C 
ATOM     13  O   UNL     1       8.307  -7.754   4.856  1.00  0.00    -0.550 OA
ATOM     14  O   UNL     1       6.738  -6.450   5.900  1.00  0.00    -0.550 OA
ENDBRANCH  11  12
ENDBRANCH  10  11
ENDBRANCH   9  10
ENDBRANCH   8   9
ENDBRANCH   7   8
ENDBRANCH   6   7
ENDBRANCH   5   6
ENDBRANCH   4   5
ENDBRANCH   3   4
ENDBRANCH   2   3
ENDBRANCH   1   2
BRANCH   1  15
ATOM     15  C   UNL     1       6.976   5.332   5.018  1.00  0.00     0.000 C 
BRANCH  15  16
ATOM     16  C   UNL     1       8.484   5.144   5.258  1.00  0.00     0.000 C 
BRANCH  16  17
ATOM     17  C   UNL     1       8.836   5.064   6.752  1.00  0.00     0.000 C 
BRANCH  17  18
ATOM     18  C   UNL     1       7.592   5.145   7.654  1.00  0.00    -0.000 C 
BRANCH  18  19
ATOM     19  C   UNL     1       7.345   3.848   8.442  1.00  0.00    -0.000 C 
BRANCH  19  20
ATOM     20  C   UNL     1       8.498   2.839   8.292  1.00  0.00    -0.000 C 
BRANCH  20  21
ATOM     21  C   UNL     1       8.088   1.409   8.680  1.00  0.00    -0.000 C 
BRANCH  21  22
ATOM     22  C   UNL     1       6.705   1.018   8.129  1.00  0.00    -0.000 C 
BRANCH  22  23
ATOM     23  C   UNL     1       5.970   0.024   9.045  1.00  0.00    -0.000 C 
BRANCH  23  24
ATOM     24  C   UNL     1       4.499   0.413   9.278  1.00  0.00    -0.000 C 
BRANCH  24  25
ATOM     25  C   UNL     1       4.006   1.469   8.278  1.00  0.00    -0.003 C 
ATOM     26  C   UNL     1       2.496   1.408   8.044  1.00  0.00     0.004 C 
ENDBRANCH  24  25
ENDBRANCH  23  24
ENDBRANCH  22  23
ENDBRANCH  21  22
ENDBRANCH  20  21
ENDBRANCH  19  20
ENDBRANCH  18  19
ENDBRANCH  17  18
ENDBRANCH  16  17
ENDBRANCH  15  16
ENDBRANCH   1  15
TORSDOF 22
ENDMDL
MODEL 4
REMARK VINA RESULT:    -2.666      1.038      2.501
REMARK INTER + INTRA:         -10.500
REMARK INTER:                  -6.437
REMARK INTRA:                  -4.063
REMARK UNBOUND:                -4.406
REMARK SMILES CCCCCCCCCCCCCCCCCCCCCCCC(=O)[O-]
REMARK SMILES IDX 13 1 14 2 15 3 16 4 17 5 18 6 19 7 20 8 21 9 22 10 23 11
REMARK SMILES IDX 24 12 25 13 26 14 12 15 11 16 10 17 9 18 8 19 7 20 6 21 5 22
REMARK SMILES IDX 4 23 3 24 2 25 1 26
REMARK H PARENT
REMARK Flexibility Score: inf
ROOT
ATOM      1  C   UNL     1       6.107   2.251   3.805  1.00  0.00     0.000 C 
ENDROOT
BRANCH   1   2
ATOM      2  C   UNL     1       6.068   3.787   3.911  1.00  0.00     0.000 C 
BRANCH   2   3
ATOM      3  C   UNL     1       6.280   4.285   5.356  1.00  0.00     0.000 C 
BRANCH   3   4
ATOM      4  C   UNL     1       7.233   5.488   5.465  1.00  0.00     0.000 C 
BRANCH   4   5
ATOM      5  C   UNL     1       7.300   6.074   6.885  1.00  0.00     0.000 C 
BRANCH   5   6
ATOM      6  C   UNL     1       6.057   5.737   7.723  1.00  0.00     0.000 C 
BRANCH   6   7
ATOM      7  C   UNL     1       6.397   4.943   8.996  1.00  0.00     0.000 C 
BRANCH   7   8
ATOM      8  C   UNL     1       5.135   4.549   9.794  1.00  0.00     0.000 C 
BRANCH   8   9
ATOM      9  C   UNL     1       4.078   3.806   8.956  1.00  0.00     0.000 C 
BRANCH   9  10
ATOM     10  C   UNL     1       4.547   2.462   8.364  1.00  0.00     0.006 C 
BRANCH  10  11
ATOM     11  C   UNL     1       3.717   1.246   8.808  1.00  0.00     0.053 C 
BRANCH  11  12
ATOM     12  C   UNL     1       2.302   1.321   8.323  1.00  0.00     0.041 C 
ATOM     13  O   UNL     1       2.042   1.185   7.098  1.00  0.00    -0.550 OA
ATOM     14  O   UNL     1       1.270   1.573   9.221  1.00  0.00    -0.550 OA
ENDBRANCH  11  12
ENDBRANCH  10  11
ENDBRANCH   9  10
ENDBRANCH   8   9
ENDBRANCH   7   8
ENDBRANCH   6   7
ENDBRANCH   5   6
ENDBRANCH   4   5
ENDBRANCH   3   4
ENDBRANCH   2   3
ENDBRANCH   1   2
BRANCH   1  15
ATOM     15  C   UNL     1       7.079   1.616   4.811  1.00  0.00     0.000 C 
BRANCH  15  16
ATOM     16  C   UNL     1       8.202   0.815   4.129  1.00  0.00     0.000 C 
BRANCH  16  17
ATOM     17  C   UNL     1       9.572   1.501   4.256  1.00  0.00     0.000 C 
BRANCH  17  18
ATOM     18  C   UNL     1       9.547   2.690   5.232  1.00  0.00    -0.000 C 
BRANCH  18  19
ATOM     19  C   UNL     1      10.116   2.336   6.614  1.00  0.00    -0.000 C 
BRANCH  19  20
ATOM     20  C   UNL     1       9.244   2.869   7.765  1.00  0.00    -0.000 C 
BRANCH  20  21
ATOM     21  C   UNL     1       8.024   1.976   8.047  1.00  0.00    -0.000 C 
BRANCH  21  22
ATOM     22  C   UNL     1       8.208   1.098   9.297  1.00  0.00    -0.000 C 
BRANCH  22  23
ATOM     23  C   UNL     1       7.633  -0.317   9.109  1.00  0.00    -0.000 C 
BRANCH  23  24
ATOM     24  C   UNL     1       7.565  -0.735   7.630  1.00  0.00    -0.000 C 
BRANCH  24  25
ATOM     25  C   UNL     1       8.228  -2.098   7.375  1.00  0.00    -0.003 C 
ATOM     26  C   UNL     1       9.073  -2.119   6.101  1.00  0.00     0.004 C 
ENDBRANCH  24  25
ENDBRANCH  23  24
ENDBRANCH  22  23
ENDBRANCH  21  22
ENDBRANCH  20  21
ENDBRANCH  19  20
ENDBRANCH  18  19
ENDBRANCH  17  18
ENDBRANCH  16  17
ENDBRANCH  15  16
ENDBRANCH   1  15
TORSDOF 22
ENDMDL
MODEL 5
REMARK VINA RESULT:    -2.614      2.896      6.669
REMARK INTER + INTRA:         -10.382
REMARK INTER:                  -6.311
REMARK INTRA:                  -4.071
REMARK UNBOUND:                -4.406
REMARK SMILES CCCCCCCCCCCCCCCCCCCCCCCC(=O)[O-]
REMARK SMILES IDX 13 1 14 2 15 3 16 4 17 5 18 6 19 7 20 8 21 9 22 10 23 11
REMARK SMILES IDX 24 12 25 13 26 14 12 15 11 16 10 17 9 18 8 19 7 20 6 21 5 22
REMARK SMILES IDX 4 23 3 24 2 25 1 26
REMARK H PARENT
REMARK Flexibility Score: inf
ROOT
ATOM      1  C   UNL     1       7.991   0.398   8.881  1.00  0.00     0.000 C 
ENDROOT
BRANCH   1   2
ATOM      2  C   UNL     1       7.864   1.841   8.359  1.00  0.00     0.000 C 
BRANCH   2   3
ATOM      3  C   UNL     1       8.203   1.958   6.858  1.00  0.00     0.000 C 
BRANCH   3   4
ATOM      4  C   UNL     1       6.967   1.988   5.942  1.00  0.00     0.000 C 
BRANCH   4   5
ATOM      5  C   UNL     1       7.279   1.558   4.499  1.00  0.00     0.000 C 
BRANCH   5   6
ATOM      6  C   UNL     1       8.722   1.058   4.330  1.00  0.00     0.000 C 
BRANCH   6   7
ATOM      7  C   UNL     1       8.798  -0.457   4.073  1.00  0.00     0.000 C 
BRANCH   7   8
ATOM      8  C   UNL     1       8.665  -1.278   5.374  1.00  0.00     0.000 C 
BRANCH   8   9
ATOM      9  C   UNL     1       9.963  -1.347   6.200  1.00  0.00     0.000 C 
BRANCH   9  10
ATOM     10  C   UNL     1       9.961  -2.400   7.326  1.00  0.00     0.006 C 
BRANCH  10  11
ATOM     11  C   UNL     1       8.647  -3.188   7.458  1.00  0.00     0.053 C 
BRANCH  11  12
ATOM     12  C   UNL     1       8.780  -4.594   6.958  1.00  0.00     0.041 C 
ATOM     13  O   UNL     1       8.532  -4.865   5.753  1.00  0.00    -0.550 OA
ATOM     14  O   UNL     1       9.148  -5.612   7.830  1.00  0.00    -0.550 OA
ENDBRANCH  11  12
ENDBRANCH  10  11
ENDBRANCH   9  10
ENDBRANCH   8   9
ENDBRANCH   7   8
ENDBRANCH   6   7
ENDBRANCH   5   6
ENDBRANCH   4   5
ENDBRANCH   3   4
ENDBRANCH   2   3
ENDBRANCH   1   2
BRANCH   1  15
ATOM     15  C   UNL     1       6.704  -0.417   8.680  1.00  0.00     0.000 C 
BRANCH  15  16
ATOM     16  C   UNL     1       5.863  -0.526   9.965  1.00  0.00     0.000 C 
BRANCH  16  17
ATOM     17  C   UNL     1       4.797   0.577  10.065  1.00  0.00     0.000 C 
BRANCH  17  18
ATOM     18  C   UNL     1       4.076   0.821   8.727  1.00  0.00    -0.000 C 
BRANCH  18  19
ATOM     19  C   UNL     1       4.152   2.287   8.272  1.00  0.00    -0.000 C 
BRANCH  19  20
ATOM     20  C   UNL     1       4.672   3.223   9.378  1.00  0.00    -0.000 C 
BRANCH  20  21
ATOM     21  C   UNL     1       4.378   4.704   9.089  1.00  0.00    -0.000 C 
BRANCH  21  22
ATOM     22  C   UNL     1       5.645   5.503   8.740  1.00  0.00    -0.000 C 
BRANCH  22  23
ATOM     23  C   UNL     1       5.951   5.488   7.232  1.00  0.00    -0.000 C 
BRANCH  23  24
ATOM     24  C   UNL     1       7.457   5.585   6.934  1.00  0.00    -0.000 C 
BRANCH  24  25
ATOM     25  C   UNL     1       7.753   5.659   5.428  1.00  0.00    -0.003 C 
ATOM     26  C   UNL     1       6.555   5.257   4.567  1.00  0.00     0.004 C 
ENDBRANCH  24  25
ENDBRANCH  23  24
ENDBRANCH  22  23
ENDBRANCH  21  22
ENDBRANCH  20  21
ENDBRANCH  19  20
ENDBRANCH  18  19
ENDBRANCH  17  18
ENDBRANCH  16  17
ENDBRANCH  15  16
ENDBRANCH   1  15
TORSDOF 22
ENDMDL
MODEL 6
REMARK VINA RESULT:    -2.608      2.043      3.627
REMARK INTER + INTRA:         -10.367
REMARK INTER:                  -7.168
REMARK INTRA:                  -3.199
REMARK UNBOUND:                -4.406
REMARK SMILES CCCCCCCCCCCCCCCCCCCCCCCC(=O)[O-]
REMARK SMILES IDX 13 1 14 2 15 3 16 4 17 5 18 6 19 7 20 8 21 9 22 10 23 11
REMARK SMILES IDX 24 12 25 13 26 14 12 15 11 16 10 17 9 18 8 19 7 20 6 21 5 22
REMARK SMILES IDX 4 23 3 24 2 25 1 26
REMARK H PARENT
REMARK Flexibility Score: inf
ROOT
ATOM      1  C   UNL     1       6.409   2.233   5.135  1.00  0.00     0.000 C 
ENDROOT
BRANCH   1   2
ATOM      2  C   UNL     1       6.562   3.766   5.153  1.00  0.00     0.000 C 
BRANCH   2   3
ATOM      3  C   UNL     1       6.660   4.333   6.585  1.00  0.00     0.000 C 
BRANCH   3   4
ATOM      4  C   UNL     1       8.087   4.329   7.158  1.00  0.00     0.000 C 
BRANCH   4   5
ATOM      5  C   UNL     1       8.219   3.481   8.435  1.00  0.00     0.000 C 
BRANCH   5   6
ATOM      6  C   UNL     1       8.428   1.989   8.133  1.00  0.00     0.000 C 
BRANCH   6   7
ATOM      7  C   UNL     1       8.379   1.116   9.399  1.00  0.00     0.000 C 
BRANCH   7   8
ATOM      8  C   UNL     1       6.931   0.787   9.827  1.00  0.00     0.000 C 
BRANCH   8   9
ATOM      9  C   UNL     1       5.966   0.583   8.644  1.00  0.00     0.000 C 
BRANCH   9  10
ATOM     10  C   UNL     1       4.472   0.725   8.994  1.00  0.00     0.006 C 
BRANCH  10  11
ATOM     11  C   UNL     1       3.698   1.706   8.097  1.00  0.00     0.053 C 
BRANCH  11  12
ATOM     12  C   UNL     1       2.224   1.434   8.104  1.00  0.00     0.041 C 
ATOM     13  O   UNL     1       1.570   1.504   9.178  1.00  0.00    -0.550 OA
ATOM     14  O   UNL     1       1.578   1.073   6.927  1.00  0.00    -0.550 OA
ENDBRANCH  11  12
ENDBRANCH  10  11
ENDBRANCH   9  10
ENDBRANCH   8   9
ENDBRANCH   7   8
ENDBRANCH   6   7
ENDBRANCH   5   6
ENDBRANCH   4   5
ENDBRANCH   3   4
ENDBRANCH   2   3
ENDBRANCH   1   2
BRANCH   1  15
ATOM     15  C   UNL     1       7.398   1.554   4.176  1.00  0.00     0.000 C 
BRANCH  15  16
ATOM     16  C   UNL     1       8.867   1.844   4.531  1.00  0.00     0.000 C 
BRANCH  16  17
ATOM     17  C   UNL     1       9.780   0.630   4.295  1.00  0.00     0.000 C 
BRANCH  17  18
ATOM     18  C   UNL     1       8.985  -0.664   4.047  1.00  0.00    -0.000 C 
BRANCH  18  19
ATOM     19  C   UNL     1       9.105  -1.665   5.207  1.00  0.00    -0.000 C 
BRANCH  19  20
ATOM     20  C   UNL     1       8.187  -1.309   6.391  1.00  0.00    -0.000 C 
BRANCH  20  21
ATOM     21  C   UNL     1       8.344  -2.277   7.575  1.00  0.00    -0.000 C 
BRANCH  21  22
ATOM     22  C   UNL     1       9.312  -3.433   7.271  1.00  0.00    -0.000 C 
BRANCH  22  23
ATOM     23  C   UNL     1       8.626  -4.808   7.356  1.00  0.00    -0.000 C 
BRANCH  23  24
ATOM     24  C   UNL     1       8.552  -5.517   5.992  1.00  0.00    -0.000 C 
BRANCH  24  25
ATOM     25  C   UNL     1       7.270  -6.349   5.833  1.00  0.00    -0.003 C 
ATOM     26  C   UNL     1       6.842  -7.036   7.130  1.00  0.00     0.004 C 
ENDBRANCH  24  25
ENDBRANCH  23  24
ENDBRANCH  22  23
ENDBRANCH  21  22
ENDBRANCH  20  21
ENDBRANCH  19  20
ENDBRANCH  18  19
ENDBRANCH  17  18
ENDBRANCH  16  17
ENDBRANCH  15  16
ENDBRANCH   1  15
TORSDOF 22
ENDMDL
MODEL 7
REMARK VINA RESULT:    -2.601      2.609      4.529
REMARK INTER + INTRA:         -10.352
REMARK INTER:                  -7.427
REMARK INTRA:                  -2.925
REMARK UNBOUND:                -4.406
REMARK SMILES CCCCCCCCCCCCCCCCCCCCCCCC(=O)[O-]
REMARK SMILES IDX 13 1 14 2 15 3 16 4 17 5 18 6 19 7 20 8 21 9 22 10 23 11
REMARK SMILES IDX 24 12 25 13 26 14 12 15 11 16 10 17 9 18 8 19 7 20 6 21 5 22
REMARK SMILES IDX 4 23 3 24 2 25 1 26
REMARK H PARENT
REMARK Flexibility Score: inf
ROOT
ATOM      1  C   UNL     1       3.949   1.838   8.271  1.00  0.00     0.000 C 
ENDROOT
BRANCH   1   2
ATOM      2  C   UNL     1       5.076   2.857   8.018  1.00  0.00     0.000 C 
BRANCH   2   3
ATOM      3  C   UNL     1       4.815   4.210   8.713  1.00  0.00     0.000 C 
BRANCH   3   4
ATOM      4  C   UNL     1       5.318   5.425   7.914  1.00  0.00     0.000 C 
BRANCH   4   5
ATOM      5  C   UNL     1       6.198   5.032   6.715  1.00  0.00     0.000 C 
BRANCH   5   6
ATOM      6  C   UNL     1       7.667   5.441   6.901  1.00  0.00     0.000 C 
BRANCH   6   7
ATOM      7  C   UNL     1       8.502   4.352   7.596  1.00  0.00     0.000 C 
BRANCH   7   8
ATOM      8  C   UNL     1       8.349   2.974   6.914  1.00  0.00     0.000 C 
BRANCH   8   9
ATOM      9  C   UNL     1       9.030   2.885   5.536  1.00  0.00     0.000 C 
BRANCH   9  10
ATOM     10  C   UNL     1       8.256   2.071   4.480  1.00  0.00     0.006 C 
BRANCH  10  11
ATOM     11  C   UNL     1       6.771   1.849   4.811  1.00  0.00     0.053 C 
BRANCH  11  12
ATOM     12  C   UNL     1       5.866   2.527   3.827  1.00  0.00     0.041 C 
ATOM     13  O   UNL     1       6.123   3.694   3.427  1.00  0.00    -0.550 OA
ATOM     14  O   UNL     1       4.720   1.882   3.376  1.00  0.00    -0.550 OA
ENDBRANCH  11  12
ENDBRANCH  10  11
ENDBRANCH   9  10
ENDBRANCH   8   9
ENDBRANCH   7   8
ENDBRANCH   6   7
ENDBRANCH   5   6
ENDBRANCH   4   5
ENDBRANCH   3   4
ENDBRANCH   2   3
ENDBRANCH   1   2
BRANCH   1  15
ATOM     15  C   UNL     1       4.424   0.624   9.083  1.00  0.00     0.000 C 
BRANCH  15  16
ATOM     16  C   UNL     1       5.943   0.396   8.979  1.00  0.00     0.000 C 
BRANCH  16  17
ATOM     17  C   UNL     1       6.358  -1.016   9.424  1.00  0.00     0.000 C 
BRANCH  17  18
ATOM     18  C   UNL     1       7.494  -1.594   8.563  1.00  0.00    -0.000 C 
BRANCH  18  19
ATOM     19  C   UNL     1       7.971  -0.617   7.476  1.00  0.00    -0.000 C 
BRANCH  19  20
ATOM     20  C   UNL     1       8.290  -1.324   6.147  1.00  0.00    -0.000 C 
BRANCH  20  21
ATOM     21  C   UNL     1       9.679  -1.984   6.144  1.00  0.00    -0.000 C 
BRANCH  21  22
ATOM     22  C   UNL     1       9.736  -3.243   5.262  1.00  0.00    -0.000 C 
BRANCH  22  23
ATOM     23  C   UNL     1       9.066  -4.457   5.929  1.00  0.00    -0.000 C 
BRANCH  23  24
ATOM     24  C   UNL     1       9.467  -5.789   5.271  1.00  0.00    -0.000 C 
BRANCH  24  25
ATOM     25  C   UNL     1       8.277  -6.747   5.113  1.00  0.00    -0.003 C 
ATOM     26  C   UNL     1       7.128  -6.430   6.071  1.00  0.00     0.004 C 
ENDBRANCH  24  25
ENDBRANCH  23  24
ENDBRANCH  22  23
ENDBRANCH  21  22
ENDBRANCH  20  21
ENDBRANCH  19  20
ENDBRANCH  18  19
ENDBRANCH  17  18
ENDBRANCH  16  17
ENDBRANCH  15  16
ENDBRANCH   1  15
TORSDOF 22
ENDMDL
MODEL 8
REMARK VINA RESULT:    -2.566      3.755      7.139
REMARK INTER + INTRA:         -10.272
REMARK INTER:                  -6.544
REMARK INTRA:                  -3.727
REMARK UNBOUND:                -4.406
REMARK SMILES CCCCCCCCCCCCCCCCCCCCCCCC(=O)[O-]
REMARK SMILES IDX 13 1 14 2 15 3 16 4 17 5 18 6 19 7 20 8 21 9 22 10 23 11
REMARK SMILES IDX 24 12 25 13 26 14 12 15 11 16 10 17 9 18 8 19 7 20 6 21 5 22
REMARK SMILES IDX 4 23 3 24 2 25 1 26
REMARK H PARENT
REMARK Flexibility Score: inf
ROOT
ATOM      1  C   UNL     1       4.791   1.531   8.118  1.00  0.00     0.000 C 
ENDROOT
BRANCH   1   2
ATOM      2  C   UNL     1       4.921   0.376   9.129  1.00  0.00     0.000 C 
BRANCH   2   3
ATOM      3  C   UNL     1       6.265  -0.371   9.002  1.00  0.00     0.000 C 
BRANCH   3   4
ATOM      4  C   UNL     1       7.430   0.521   8.542  1.00  0.00     0.000 C 
BRANCH   4   5
ATOM      5  C   UNL     1       8.485  -0.244   7.722  1.00  0.00     0.000 C 
BRANCH   5   6
ATOM      6  C   UNL     1       7.897  -1.463   6.995  1.00  0.00     0.000 C 
BRANCH   6   7
ATOM      7  C   UNL     1       8.906  -2.128   6.043  1.00  0.00     0.000 C 
BRANCH   7   8
ATOM      8  C   UNL     1       9.537  -3.398   6.654  1.00  0.00     0.000 C 
BRANCH   8   9
ATOM      9  C   UNL     1       8.652  -4.082   7.713  1.00  0.00     0.000 C 
BRANCH   9  10
ATOM     10  C   UNL     1       8.349  -5.569   7.445  1.00  0.00     0.006 C 
BRANCH  10  11
ATOM     11  C   UNL     1       7.755  -5.858   6.056  1.00  0.00     0.053 C 
BRANCH  11  12
ATOM     12  C   UNL     1       8.588  -6.828   5.276  1.00  0.00     0.041 C 
ATOM     13  O   UNL     1       8.316  -7.073   4.070  1.00  0.00    -0.550 OA
ATOM     14  O   UNL     1       9.646  -7.488   5.890  1.00  0.00    -0.550 OA
ENDBRANCH  11  12
ENDBRANCH  10  11
ENDBRANCH   9  10
ENDBRANCH   8   9
ENDBRANCH   7   8
ENDBRANCH   6   7
ENDBRANCH   5   6
ENDBRANCH   4   5
ENDBRANCH   3   4
ENDBRANCH   2   3
ENDBRANCH   1   2
BRANCH   1  15
ATOM     15  C   UNL     1       4.190   2.798   8.746  1.00  0.00     0.000 C 
BRANCH  15  16
ATOM     16  C   UNL     1       5.238   3.902   8.977  1.00  0.00     0.000 C 
BRANCH  16  17
ATOM     17  C   UNL     1       5.940   4.326   7.676  1.00  0.00     0.000 C 
BRANCH  17  18
ATOM     18  C   UNL     1       7.469   4.180   7.759  1.00  0.00    -0.000 C 
BRANCH  18  19
ATOM     19  C   UNL     1       8.209   5.142   6.817  1.00  0.00    -0.000 C 
BRANCH  19  20
ATOM     20  C   UNL     1       9.390   4.469   6.094  1.00  0.00    -0.000 C 
BRANCH  20  21
ATOM     21  C   UNL     1       9.278   2.936   6.078  1.00  0.00    -0.000 C 
BRANCH  21  22
ATOM     22  C   UNL     1       9.379   2.348   4.660  1.00  0.00    -0.000 C 
BRANCH  22  23
ATOM     23  C   UNL     1       8.236   1.366   4.350  1.00  0.00    -0.000 C 
BRANCH  23  24
ATOM     24  C   UNL     1       6.906   1.781   5.005  1.00  0.00    -0.000 C 
BRANCH  24  25
ATOM     25  C   UNL     1       5.953   2.466   4.014  1.00  0.00    -0.003 C 
ATOM     26  C   UNL     1       6.130   3.985   3.971  1.00  0.00     0.004 C 
ENDBRANCH  24  25
ENDBRANCH  23  24
ENDBRANCH  22  23
ENDBRANCH  21  22
ENDBRANCH  20  21
ENDBRANCH  19  20
ENDBRANCH  18  19
ENDBRANCH  17  18
ENDBRANCH  16  17
ENDBRANCH  15  16
ENDBRANCH   1  15
TORSDOF 22
ENDMDL
MODEL 9
REMARK VINA RESULT:    -2.513     12.700     16.480
REMARK INTER + INTRA:         -10.151
REMARK INTER:                  -7.905
REMARK INTRA:                  -2.246
REMARK UNBOUND:                -4.406
REMARK SMILES CCCCCCCCCCCCCCCCCCCCCCCC(=O)[O-]
REMARK SMILES IDX 13 1 14 2 15 3 16 4 17 5 18 6 19 7 20 8 21 9 22 10 23 11
REMARK SMILES IDX 24 12 25 13 26 14 12 15 11 16 10 17 9 18 8 19 7 20 6 21 5 22
REMARK SMILES IDX 4 23 3 24 2 25 1 26
REMARK H PARENT
REMARK Flexibility Score: inf
ROOT
ATOM      1  C   UNL     1      -4.861  -7.112   7.706  1.00  0.00     0.000 C 
ENDROOT
BRANCH   1   2
ATOM      2  C   UNL     1      -4.596  -8.405   6.913  1.00  0.00     0.000 C 
BRANCH   2   3
ATOM      3  C   UNL     1      -5.790  -9.383   6.961  1.00  0.00     0.000 C 
BRANCH   3   4
ATOM      4  C   UNL     1      -5.420 -10.789   7.462  1.00  0.00     0.000 C 
BRANCH   4   5
ATOM      5  C   UNL     1      -5.751 -11.003   8.950  1.00  0.00     0.000 C 
BRANCH   5   6
ATOM      6  C   UNL     1      -4.502 -10.966   9.844  1.00  0.00     0.000 C 
BRANCH   6   7
ATOM      7  C   UNL     1      -3.197 -11.132   9.046  1.00  0.00     0.000 C 
BRANCH   7   8
ATOM      8  C   UNL     1      -2.000 -10.440   9.734  1.00  0.00     0.000 C 
BRANCH   8   9
ATOM      9  C   UNL     1      -1.672  -9.049   9.157  1.00  0.00     0.000 C 
BRANCH   9  10
ATOM     10  C   UNL     1      -0.171  -8.772   8.945  1.00  0.00     0.006 C 
BRANCH  10  11
ATOM     11  C   UNL     1       0.712 -10.031   8.918  1.00  0.00     0.053 C 
BRANCH  11  12
ATOM     12  C   UNL     1       2.011  -9.794   8.212  1.00  0.00     0.041 C 
ATOM     13  O   UNL     1       2.021  -9.359   7.030  1.00  0.00    -0.550 OA
ATOM     14  O   UNL     1       3.213 -10.085   8.848  1.00  0.00    -0.550 OA
ENDBRANCH  11  12
ENDBRANCH  10  11
ENDBRANCH   9  10
ENDBRANCH   8   9
ENDBRANCH   7   8
ENDBRANCH   6   7
ENDBRANCH   5   6
ENDBRANCH   4   5
ENDBRANCH   3   4
ENDBRANCH   2   3
ENDBRANCH   1   2
BRANCH   1  15
ATOM     15  C   UNL     1      -4.845  -7.338   9.225  1.00  0.00     0.000 C 
BRANCH  15  16
ATOM     16  C   UNL     1      -5.618  -6.253   9.996  1.00  0.00     0.000 C 
BRANCH  16  17
ATOM     17  C   UNL     1      -6.295  -5.238   9.062  1.00  0.00     0.000 C 
BRANCH  17  18
ATOM     18  C   UNL     1      -7.765  -4.981   9.438  1.00  0.00    -0.000 C 
BRANCH  18  19
ATOM     19  C   UNL     1      -8.351  -3.748   8.733  1.00  0.00    -0.000 C 
BRANCH  19  20
ATOM     20  C   UNL     1      -9.427  -3.042   9.578  1.00  0.00    -0.000 C 
BRANCH  20  21
ATOM     21  C   UNL     1      -9.102  -1.562   9.835  1.00  0.00    -0.000 C 
BRANCH  21  22
ATOM     22  C   UNL     1      -7.594  -1.266   9.773  1.00  0.00    -0.000 C 
BRANCH  22  23
ATOM     23  C   UNL     1      -7.265  -0.092   8.834  1.00  0.00    -0.000 C 
BRANCH  23  24
ATOM     24  C   UNL     1      -8.499   0.414   8.066  1.00  0.00    -0.000 C 
BRANCH  24  25
ATOM     25  C   UNL     1      -8.159   1.559   7.100  1.00  0.00    -0.003 C 
ATOM     26  C   UNL     1      -9.001   1.529   5.823  1.00  0.00     0.004 C 
ENDBRANCH  24  25
ENDBRANCH  23  24
ENDBRANCH  22  23
ENDBRANCH  21  22
ENDBRANCH  20  21
ENDBRANCH  19  20
ENDBRANCH  18  19
ENDBRANCH  17  18
ENDBRANCH  16  17
ENDBRANCH  15  16
ENDBRANCH   1  15
TORSDOF 22
ENDMDL
