MODEL 1
REMARK VINA RESULT:    -4.054      0.000      0.000
REMARK INTER + INTRA:         -12.834
REMARK INTER:                  -9.267
REMARK INTRA:                  -3.567
REMARK UNBOUND:                -3.567
REMARK SMILES CCCCCCCCCCCCCCCCCCCCCCCC(=O)[O-]
REMARK SMILES IDX 13 1 14 2 15 3 16 4 17 5 18 6 19 7 20 8 21 9 22 10 23 11
REMARK SMILES IDX 24 12 25 13 26 14 12 15 11 16 10 17 9 18 8 19 7 20 6 21 5 22
REMARK SMILES IDX 4 23 3 24 2 25 1 26
REMARK H PARENT
REMARK Flexibility Score: inf
ROOT
ATOM      1  C   UNL     1      26.483  25.102 -15.591  1.00  0.00     0.000 C 
ENDROOT
BRANCH   1   2
ATOM      2  C   UNL     1      27.461  24.397 -16.548  1.00  0.00     0.000 C 
BRANCH   2   3
ATOM      3  C   UNL     1      27.527  25.072 -17.927  1.00  0.00     0.000 C 
BRANCH   3   4
ATOM      4  C   UNL     1      26.393  24.615 -18.862  1.00  0.00     0.000 C 
BRANCH   4   5
ATOM      5  C   UNL     1      26.922  24.148 -20.228  1.00  0.00     0.000 C 
BRANCH   5   6
ATOM      6  C   UNL     1      28.404  23.737 -20.175  1.00  0.00     0.000 C 
BRANCH   6   7
ATOM      7  C   UNL     1      28.595  22.217 -20.324  1.00  0.00     0.000 C 
BRANCH   7   8
ATOM      8  C   UNL     1      29.592  21.602 -19.321  1.00  0.00     0.000 C 
BRANCH   8   9
ATOM      9  C   UNL     1      30.300  22.624 -18.411  1.00  0.00     0.000 C 
BRANCH   9  10
ATOM     10  C   UNL     1      31.805  22.783 -18.717  1.00  0.00     0.006 C 
BRANCH  10  11
ATOM     11  C   UNL     1      32.216  24.257 -18.839  1.00  0.00     0.053 C 
BRANCH  11  12
ATOM     12  C   UNL     1      32.775  24.533 -20.201  1.00  0.00     0.041 C 
ATOM     13  O   UNL     1      32.254  24.003 -21.218  1.00  0.00    -0.550 OA
ATOM     14  O   UNL     1      33.892  25.348 -20.342  1.00  0.00    -0.550 OA
ENDBRANCH  11  12
ENDBRANCH  10  11
ENDBRANCH   9  10
ENDBRANCH   8   9
ENDBRANCH   7   8
ENDBRANCH   6   7
ENDBRANCH   5   6
ENDBRANCH   4   5
ENDBRANCH   3   4
ENDBRANCH   2   3
ENDBRANCH   1   2
BRANCH   1  15
ATOM     15  C   UNL     1      26.623  24.605 -14.136  1.00  0.00     0.000 C 
BRANCH  15  16
ATOM     16  C   UNL     1      27.996  24.914 -13.507  1.00  0.00     0.000 C 
BRANCH  16  17
ATOM     17  C   UNL     1      28.304  26.410 -13.326  1.00  0.00     0.000 C 
BRANCH  17  18
ATOM     18  C   UNL     1      29.669  26.721 -12.681  1.00  0.00    -0.000 C 
BRANCH  18  19
ATOM     19  C   UNL     1      30.821  25.838 -13.206  1.00  0.00    -0.000 C 
BRANCH  19  20
ATOM     20  C   UNL     1      31.444  26.394 -14.495  1.00  0.00    -0.000 C 
BRANCH  20  21
ATOM     21  C   UNL     1      30.907  25.658 -15.730  1.00  0.00    -0.000 C 
BRANCH  21  22
ATOM     22  C   UNL     1      30.583  26.649 -16.859  1.00  0.00    -0.000 C 
BRANCH  22  23
ATOM     23  C   UNL     1      29.993  27.968 -16.337  1.00  0.00    -0.000 C 
BRANCH  23  24
ATOM     24  C   UNL     1      28.520  28.160 -16.740  1.00  0.00    -0.000 C 
BRANCH  24  25
ATOM     25  C   UNL     1      28.275  29.495 -17.460  1.00  0.00    -0.003 C 
ATOM     26  C   UNL     1      26.828  29.661 -17.919  1.00  0.00     0.004 C 
ENDBRANCH  24  25
ENDBRANCH  23  24
ENDBRANCH  22  23
ENDBRANCH  21  22
ENDBRANCH  20  21
ENDBRANCH  19  20
ENDBRANCH  18  19
ENDBRANCH  17  18
ENDBRANCH  16  17
ENDBRANCH  15  16
ENDBRANCH   1  15
TORSDOF 22
ENDMDL
MODEL 2
REMARK VINA RESULT:    -4.036      3.135      6.580
REMARK INTER + INTRA:         -12.795
REMARK INTER:                 -10.021
REMARK INTRA:                  -2.774
REMARK UNBOUND:                -3.567
REMARK SMILES CCCCCCCCCCCCCCCCCCCCCCCC(=O)[O-]
REMARK SMILES IDX 13 1 14 2 15 3 16 4 17 5 18 6 19 7 20 8 21 9 22 10 23 11
REMARK SMILES IDX 24 12 25 13 26 14 12 15 11 16 10 17 9 18 8 19 7 20 6 21 5 22
REMARK SMILES IDX 4 23 3 24 2 25 1 26
REMARK H PARENT
REMARK Flexibility Score: inf
ROOT
ATOM      1  C   UNL     1      26.047  25.225 -19.679  1.00  0.00     0.000 C 
ENDROOT
BRANCH   1   2
ATOM      2  C   UNL     1      25.845  24.771 -18.222  1.00  0.00     0.000 C 
BRANCH   2   3
ATOM      3  C   UNL     1      26.761  25.516 -17.238  1.00  0.00     0.000 C 
BRANCH   3   4
ATOM      4  C   UNL     1      27.407  24.574 -16.207  1.00  0.00     0.000 C 
BRANCH   4   5
ATOM      5  C   UNL     1      28.931  24.762 -16.128  1.00  0.00     0.000 C 
BRANCH   5   6
ATOM      6  C   UNL     1      29.470  25.669 -17.248  1.00  0.00     0.000 C 
BRANCH   6   7
ATOM      7  C   UNL     1      30.485  26.702 -16.726  1.00  0.00     0.000 C 
BRANCH   7   8
ATOM      8  C   UNL     1      29.884  28.094 -16.443  1.00  0.00     0.000 C 
BRANCH   8   9
ATOM      9  C   UNL     1      28.448  28.293 -16.967  1.00  0.00     0.000 C 
BRANCH   9  10
ATOM     10  C   UNL     1      28.289  29.532 -17.873  1.00  0.00     0.006 C 
BRANCH  10  11
ATOM     11  C   UNL     1      26.820  29.941 -18.038  1.00  0.00     0.053 C 
BRANCH  11  12
ATOM     12  C   UNL     1      26.671  30.912 -19.169  1.00  0.00     0.041 C 
ATOM     13  O   UNL     1      27.391  30.802 -20.196  1.00  0.00    -0.550 OA
ATOM     14  O   UNL     1      25.760  31.957 -19.074  1.00  0.00    -0.550 OA
ENDBRANCH  11  12
ENDBRANCH  10  11
ENDBRANCH   9  10
ENDBRANCH   8   9
ENDBRANCH   7   8
ENDBRANCH   6   7
ENDBRANCH   5   6
ENDBRANCH   4   5
ENDBRANCH   3   4
ENDBRANCH   2   3
ENDBRANCH   1   2
BRANCH   1  15
ATOM     15  C   UNL     1      26.887  24.221 -20.497  1.00  0.00     0.000 C 
BRANCH  15  16
ATOM     16  C   UNL     1      27.822  23.351 -19.635  1.00  0.00     0.000 C 
BRANCH  16  17
ATOM     17  C   UNL     1      28.750  22.415 -20.428  1.00  0.00     0.000 C 
BRANCH  17  18
ATOM     18  C   UNL     1      30.214  22.386 -19.945  1.00  0.00    -0.000 C 
BRANCH  18  19
ATOM     19  C   UNL     1      30.994  23.683 -20.244  1.00  0.00    -0.000 C 
BRANCH  19  20
ATOM     20  C   UNL     1      32.213  23.857 -19.325  1.00  0.00    -0.000 C 
BRANCH  20  21
ATOM     21  C   UNL     1      32.081  22.996 -18.063  1.00  0.00    -0.000 C 
BRANCH  21  22
ATOM     22  C   UNL     1      32.539  23.774 -16.820  1.00  0.00    -0.000 C 
BRANCH  22  23
ATOM     23  C   UNL     1      33.538  24.893 -17.156  1.00  0.00    -0.000 C 
BRANCH  23  24
ATOM     24  C   UNL     1      33.897  25.756 -15.934  1.00  0.00    -0.000 C 
BRANCH  24  25
ATOM     25  C   UNL     1      35.388  26.125 -15.892  1.00  0.00    -0.003 C 
ATOM     26  C   UNL     1      36.084  25.926 -17.238  1.00  0.00     0.004 C 
ENDBRANCH  24  25
ENDBRANCH  23  24
ENDBRANCH  22  23
ENDBRANCH  21  22
ENDBRANCH  20  21
ENDBRANCH  19  20
ENDBRANCH  18  19
ENDBRANCH  17  18
ENDBRANCH  16  17
ENDBRANCH  15  16
ENDBRANCH   1  15
TORSDOF 22
ENDMDL
MODEL 3
REMARK VINA RESULT:    -3.966      2.995      5.432
REMARK INTER + INTRA:         -12.635
REMARK INTER:                  -9.394
REMARK INTRA:                  -3.241
REMARK UNBOUND:                -3.567
REMARK SMILES CCCCCCCCCCCCCCCCCCCCCCCC(=O)[O-]
REMARK SMILES IDX 13 1 14 2 15 3 16 4 17 5 18 6 19 7 20 8 21 9 22 10 23 11
REMARK SMILES IDX 24 12 25 13 26 14 12 15 11 16 10 17 9 18 8 19 7 20 6 21 5 22
REMARK SMILES IDX 4 23 3 24 2 25 1 26
REMARK H PARENT
REMARK Flexibility Score: inf
ROOT
ATOM      1  C   UNL     1      28.353  27.551 -16.627  1.00  0.00     0.000 C 
ENDROOT
BRANCH   1   2
ATOM      2  C   UNL     1      29.843  27.886 -16.435  1.00  0.00     0.000 C 
BRANCH   2   3
ATOM      3  C   UNL     1      30.495  27.061 -15.314  1.00  0.00     0.000 C 
BRANCH   3   4
ATOM      4  C   UNL     1      31.808  26.394 -15.761  1.00  0.00     0.000 C 
BRANCH   4   5
ATOM      5  C   UNL     1      31.829  26.113 -17.273  1.00  0.00     0.000 C 
BRANCH   5   6
ATOM      6  C   UNL     1      33.248  25.836 -17.800  1.00  0.00     0.000 C 
BRANCH   6   7
ATOM      7  C   UNL     1      33.422  26.274 -19.265  1.00  0.00     0.000 C 
BRANCH   7   8
ATOM      8  C   UNL     1      34.853  26.723 -19.626  1.00  0.00     0.000 C 
BRANCH   8   9
ATOM      9  C   UNL     1      35.966  25.774 -19.140  1.00  0.00     0.000 C 
BRANCH   9  10
ATOM     10  C   UNL     1      36.968  26.444 -18.176  1.00  0.00     0.006 C 
BRANCH  10  11
ATOM     11  C   UNL     1      38.350  26.628 -18.817  1.00  0.00     0.053 C 
BRANCH  11  12
ATOM     12  C   UNL     1      38.362  27.840 -19.697  1.00  0.00     0.041 C 
ATOM     13  O   UNL     1      38.095  28.973 -19.217  1.00  0.00    -0.550 OA
ATOM     14  O   UNL     1      38.636  27.712 -21.054  1.00  0.00    -0.550 OA
ENDBRANCH  11  12
ENDBRANCH  10  11
ENDBRANCH   9  10
ENDBRANCH   8   9
ENDBRANCH   7   8
ENDBRANCH   6   7
ENDBRANCH   5   6
ENDBRANCH   4   5
ENDBRANCH   3   4
ENDBRANCH   2   3
ENDBRANCH   1   2
BRANCH   1  15
ATOM     15  C   UNL     1      28.121  26.055 -16.929  1.00  0.00     0.000 C 
BRANCH  15  16
ATOM     16  C   UNL     1      26.946  25.441 -16.143  1.00  0.00     0.000 C 
BRANCH  16  17
ATOM     17  C   UNL     1      27.268  24.122 -15.421  1.00  0.00     0.000 C 
BRANCH  17  18
ATOM     18  C   UNL     1      28.694  24.028 -14.842  1.00  0.00    -0.000 C 
BRANCH  18  19
ATOM     19  C   UNL     1      29.619  23.067 -15.618  1.00  0.00    -0.000 C 
BRANCH  19  20
ATOM     20  C   UNL     1      28.880  21.814 -16.112  1.00  0.00    -0.000 C 
BRANCH  20  21
ATOM     21  C   UNL     1      29.021  21.653 -17.631  1.00  0.00    -0.000 C 
BRANCH  21  22
ATOM     22  C   UNL     1      29.912  22.758 -18.218  1.00  0.00    -0.000 C 
BRANCH  22  23
ATOM     23  C   UNL     1      29.204  23.568 -19.315  1.00  0.00    -0.000 C 
BRANCH  23  24
ATOM     24  C   UNL     1      27.676  23.393 -19.291  1.00  0.00    -0.000 C 
BRANCH  24  25
ATOM     25  C   UNL     1      26.974  24.193 -20.399  1.00  0.00    -0.003 C 
ATOM     26  C   UNL     1      25.902  25.137 -19.857  1.00  0.00     0.004 C 
ENDBRANCH  24  25
ENDBRANCH  23  24
ENDBRANCH  22  23
ENDBRANCH  21  22
ENDBRANCH  20  21
ENDBRANCH  19  20
ENDBRANCH  18  19
ENDBRANCH  17  18
ENDBRANCH  16  17
ENDBRANCH  15  16
ENDBRANCH   1  15
TORSDOF 22
ENDMDL
MODEL 4
REMARK VINA RESULT:    -3.950      2.103      4.471
REMARK INTER + INTRA:         -12.598
REMARK INTER:                  -8.192
REMARK INTRA:                  -4.406
REMARK UNBOUND:                -3.567
REMARK SMILES CCCCCCCCCCCCCCCCCCCCCCCC(=O)[O-]
REMARK SMILES IDX 13 1 14 2 15 3 16 4 17 5 18 6 19 7 20 8 21 9 22 10 23 11
REMARK SMILES IDX 24 12 25 13 26 14 12 15 11 16 10 17 9 18 8 19 7 20 6 21 5 22
REMARK SMILES IDX 4 23 3 24 2 25 1 26
REMARK H PARENT
REMARK Flexibility Score: inf
ROOT
ATOM      1  C   UNL     1      27.726  27.246 -16.671  1.00  0.00     0.000 C 
ENDROOT
BRANCH   1   2
ATOM      2  C   UNL     1      29.124  27.889 -16.733  1.00  0.00     0.000 C 
BRANCH   2   3
ATOM      3  C   UNL     1      30.203  27.021 -16.066  1.00  0.00     0.000 C 
BRANCH   3   4
ATOM      4  C   UNL     1      31.149  26.368 -17.089  1.00  0.00     0.000 C 
BRANCH   4   5
ATOM      5  C   UNL     1      32.415  25.801 -16.425  1.00  0.00     0.000 C 
BRANCH   5   6
ATOM      6  C   UNL     1      33.637  25.843 -17.359  1.00  0.00     0.000 C 
BRANCH   6   7
ATOM      7  C   UNL     1      33.266  26.280 -18.787  1.00  0.00     0.000 C 
BRANCH   7   8
ATOM      8  C   UNL     1      33.776  25.333 -19.892  1.00  0.00     0.000 C 
BRANCH   8   9
ATOM      9  C   UNL     1      33.273  23.881 -19.777  1.00  0.00     0.000 C 
BRANCH   9  10
ATOM     10  C   UNL     1      31.746  23.742 -19.955  1.00  0.00     0.006 C 
BRANCH  10  11
ATOM     11  C   UNL     1      31.381  22.652 -20.972  1.00  0.00     0.053 C 
BRANCH  11  12
ATOM     12  C   UNL     1      30.658  21.527 -20.296  1.00  0.00     0.041 C 
ATOM     13  O   UNL     1      29.479  21.240 -20.633  1.00  0.00    -0.550 OA
ATOM     14  O   UNL     1      31.276  20.818 -19.273  1.00  0.00    -0.550 OA
ENDBRANCH  11  12
ENDBRANCH  10  11
ENDBRANCH   9  10
ENDBRANCH   8   9
ENDBRANCH   7   8
ENDBRANCH   6   7
ENDBRANCH   5   6
ENDBRANCH   4   5
ENDBRANCH   3   4
ENDBRANCH   2   3
ENDBRANCH   1   2
BRANCH   1  15
ATOM     15  C   UNL     1      27.610  26.198 -15.545  1.00  0.00     0.000 C 
BRANCH  15  16
ATOM     16  C   UNL     1      26.394  25.262 -15.696  1.00  0.00     0.000 C 
BRANCH  16  17
ATOM     17  C   UNL     1      26.167  24.299 -14.518  1.00  0.00     0.000 C 
BRANCH  17  18
ATOM     18  C   UNL     1      27.384  24.105 -13.591  1.00  0.00    -0.000 C 
BRANCH  18  19
ATOM     19  C   UNL     1      27.910  22.655 -13.550  1.00  0.00    -0.000 C 
BRANCH  19  20
ATOM     20  C   UNL     1      28.474  22.198 -14.904  1.00  0.00    -0.000 C 
BRANCH  20  21
ATOM     21  C   UNL     1      29.605  23.122 -15.372  1.00  0.00    -0.000 C 
BRANCH  21  22
ATOM     22  C   UNL     1      29.812  23.007 -16.890  1.00  0.00    -0.000 C 
BRANCH  22  23
ATOM     23  C   UNL     1      28.487  22.957 -17.666  1.00  0.00    -0.000 C 
BRANCH  23  24
ATOM     24  C   UNL     1      28.330  24.130 -18.649  1.00  0.00    -0.000 C 
BRANCH  24  25
ATOM     25  C   UNL     1      27.154  23.932 -19.619  1.00  0.00    -0.003 C 
ATOM     26  C   UNL     1      26.073  25.000 -19.462  1.00  0.00     0.004 C 
ENDBRANCH  24  25
ENDBRANCH  23  24
ENDBRANCH  22  23
ENDBRANCH  21  22
ENDBRANCH  20  21
ENDBRANCH  19  20
ENDBRANCH  18  19
ENDBRANCH  17  18
ENDBRANCH  16  17
ENDBRANCH  15  16
ENDBRANCH   1  15
TORSDOF 22
ENDMDL
MODEL 5
REMARK VINA RESULT:    -3.948      2.191      5.606
REMARK INTER + INTRA:         -12.593
REMARK INTER:                  -8.301
REMARK INTRA:                  -4.293
REMARK UNBOUND:                -3.567
REMARK SMILES CCCCCCCCCCCCCCCCCCCCCCCC(=O)[O-]
REMARK SMILES IDX 13 1 14 2 15 3 16 4 17 5 18 6 19 7 20 8 21 9 22 10 23 11
REMARK SMILES IDX 24 12 25 13 26 14 12 15 11 16 10 17 9 18 8 19 7 20 6 21 5 22
REMARK SMILES IDX 4 23 3 24 2 25 1 26
REMARK H PARENT
REMARK Flexibility Score: inf
ROOT
ATOM      1  C   UNL     1      28.030  27.548 -16.815  1.00  0.00     0.000 C 
ENDROOT
BRANCH   1   2
ATOM      2  C   UNL     1      29.502  27.995 -16.757  1.00  0.00     0.000 C 
BRANCH   2   3
ATOM      3  C   UNL     1      30.227  27.475 -15.506  1.00  0.00     0.000 C 
BRANCH   3   4
ATOM      4  C   UNL     1      31.484  26.656 -15.852  1.00  0.00     0.000 C 
BRANCH   4   5
ATOM      5  C   UNL     1      31.303  25.161 -15.542  1.00  0.00     0.000 C 
BRANCH   5   6
ATOM      6  C   UNL     1      31.748  24.262 -16.709  1.00  0.00     0.000 C 
BRANCH   6   7
ATOM      7  C   UNL     1      31.391  24.864 -18.080  1.00  0.00     0.000 C 
BRANCH   7   8
ATOM      8  C   UNL     1      32.574  24.937 -19.066  1.00  0.00     0.000 C 
BRANCH   8   9
ATOM      9  C   UNL     1      33.277  26.308 -19.126  1.00  0.00     0.000 C 
BRANCH   9  10
ATOM     10  C   UNL     1      34.765  26.255 -18.719  1.00  0.00     0.006 C 
BRANCH  10  11
ATOM     11  C   UNL     1      35.119  24.951 -17.993  1.00  0.00     0.053 C 
BRANCH  11  12
ATOM     12  C   UNL     1      35.329  25.205 -16.531  1.00  0.00     0.041 C 
ATOM     13  O   UNL     1      35.040  26.327 -16.037  1.00  0.00    -0.550 OA
ATOM     14  O   UNL     1      35.875  24.215 -15.724  1.00  0.00    -0.550 OA
ENDBRANCH  11  12
ENDBRANCH  10  11
ENDBRANCH   9  10
ENDBRANCH   8   9
ENDBRANCH   7   8
ENDBRANCH   6   7
ENDBRANCH   5   6
ENDBRANCH   4   5
ENDBRANCH   3   4
ENDBRANCH   2   3
ENDBRANCH   1   2
BRANCH   1  15
ATOM     15  C   UNL     1      27.686  26.509 -15.726  1.00  0.00     0.000 C 
BRANCH  15  16
ATOM     16  C   UNL     1      27.221  25.153 -16.291  1.00  0.00     0.000 C 
BRANCH  16  17
ATOM     17  C   UNL     1      27.698  24.849 -17.722  1.00  0.00     0.000 C 
BRANCH  17  18
ATOM     18  C   UNL     1      26.572  24.671 -18.760  1.00  0.00    -0.000 C 
BRANCH  18  19
ATOM     19  C   UNL     1      27.050  24.079 -20.102  1.00  0.00    -0.000 C 
BRANCH  19  20
ATOM     20  C   UNL     1      28.545  23.725 -20.086  1.00  0.00    -0.000 C 
BRANCH  20  21
ATOM     21  C   UNL     1      28.755  22.207 -20.171  1.00  0.00    -0.000 C 
BRANCH  21  22
ATOM     22  C   UNL     1      29.640  21.712 -19.017  1.00  0.00    -0.000 C 
BRANCH  22  23
ATOM     23  C   UNL     1      28.828  21.326 -17.772  1.00  0.00    -0.000 C 
BRANCH  23  24
ATOM     24  C   UNL     1      29.354  21.993 -16.489  1.00  0.00    -0.000 C 
BRANCH  24  25
ATOM     25  C   UNL     1      28.444  21.738 -15.277  1.00  0.00    -0.003 C 
ATOM     26  C   UNL     1      28.800  22.614 -14.077  1.00  0.00     0.004 C 
ENDBRANCH  24  25
ENDBRANCH  23  24
ENDBRANCH  22  23
ENDBRANCH  21  22
ENDBRANCH  20  21
ENDBRANCH  19  20
ENDBRANCH  18  19
ENDBRANCH  17  18
ENDBRANCH  16  17
ENDBRANCH  15  16
ENDBRANCH   1  15
TORSDOF 22
ENDMDL
MODEL 6
REMARK VINA RESULT:    -3.929      3.215      6.750
REMARK INTER + INTRA:         -12.549
REMARK INTER:                  -9.061
REMARK INTRA:                  -3.488
REMARK UNBOUND:                -3.567
REMARK SMILES CCCCCCCCCCCCCCCCCCCCCCCC(=O)[O-]
REMARK SMILES IDX 13 1 14 2 15 3 16 4 17 5 18 6 19 7 20 8 21 9 22 10 23 11
REMARK SMILES IDX 24 12 25 13 26 14 12 15 11 16 10 17 9 18 8 19 7 20 6 21 5 22
REMARK SMILES IDX 4 23 3 24 2 25 1 26
REMARK H PARENT
REMARK Flexibility Score: inf
ROOT
ATOM      1  C   UNL     1      28.551  24.059 -19.141  1.00  0.00     0.000 C 
ENDROOT
BRANCH   1   2
ATOM      2  C   UNL     1      29.085  22.845 -18.360  1.00  0.00     0.000 C 
BRANCH   2   3
ATOM      3  C   UNL     1      29.493  23.199 -16.922  1.00  0.00     0.000 C 
BRANCH   3   4
ATOM      4  C   UNL     1      30.517  24.347 -16.866  1.00  0.00     0.000 C 
BRANCH   4   5
ATOM      5  C   UNL     1      30.643  24.940 -15.453  1.00  0.00     0.000 C 
BRANCH   5   6
ATOM      6  C   UNL     1      30.928  26.452 -15.474  1.00  0.00     0.000 C 
BRANCH   6   7
ATOM      7  C   UNL     1      30.330  27.142 -16.713  1.00  0.00     0.000 C 
BRANCH   7   8
ATOM      8  C   UNL     1      29.218  28.162 -16.396  1.00  0.00     0.000 C 
BRANCH   8   9
ATOM      9  C   UNL     1      28.742  28.991 -17.604  1.00  0.00     0.000 C 
BRANCH   9  10
ATOM     10  C   UNL     1      27.433  29.766 -17.344  1.00  0.00     0.006 C 
BRANCH  10  11
ATOM     11  C   UNL     1      26.485  29.719 -18.549  1.00  0.00     0.053 C 
BRANCH  11  12
ATOM     12  C   UNL     1      26.648  30.946 -19.392  1.00  0.00     0.041 C 
ATOM     13  O   UNL     1      25.927  31.957 -19.183  1.00  0.00    -0.550 OA
ATOM     14  O   UNL     1      27.573  30.960 -20.429  1.00  0.00    -0.550 OA
ENDBRANCH  11  12
ENDBRANCH  10  11
ENDBRANCH   9  10
ENDBRANCH   8   9
ENDBRANCH   7   8
ENDBRANCH   6   7
ENDBRANCH   5   6
ENDBRANCH   4   5
ENDBRANCH   3   4
ENDBRANCH   2   3
ENDBRANCH   1   2
BRANCH   1  15
ATOM     15  C   UNL     1      27.036  23.961 -19.418  1.00  0.00     0.000 C 
BRANCH  15  16
ATOM     16  C   UNL     1      26.222  25.127 -18.823  1.00  0.00     0.000 C 
BRANCH  16  17
ATOM     17  C   UNL     1      26.785  25.708 -17.514  1.00  0.00     0.000 C 
BRANCH  17  18
ATOM     18  C   UNL     1      26.390  24.939 -16.237  1.00  0.00    -0.000 C 
BRANCH  18  19
ATOM     19  C   UNL     1      27.006  25.518 -14.946  1.00  0.00    -0.000 C 
BRANCH  19  20
ATOM     20  C   UNL     1      26.266  25.049 -13.684  1.00  0.00    -0.000 C 
BRANCH  20  21
ATOM     21  C   UNL     1      27.244  24.811 -12.527  1.00  0.00    -0.000 C 
BRANCH  21  22
ATOM     22  C   UNL     1      27.281  23.325 -12.139  1.00  0.00    -0.000 C 
BRANCH  22  23
ATOM     23  C   UNL     1      27.953  22.451 -13.208  1.00  0.00    -0.000 C 
BRANCH  23  24
ATOM     24  C   UNL     1      29.480  22.370 -13.035  1.00  0.00    -0.000 C 
BRANCH  24  25
ATOM     25  C   UNL     1      30.103  21.218 -13.839  1.00  0.00    -0.003 C 
ATOM     26  C   UNL     1      30.102  19.896 -13.073  1.00  0.00     0.004 C 
ENDBRANCH  24  25
ENDBRANCH  23  24
ENDBRANCH  22  23
ENDBRANCH  21  22
ENDBRANCH  20  21
ENDBRANCH  19  20
ENDBRANCH  18  19
ENDBRANCH  17  18
ENDBRANCH  16  17
ENDBRANCH  15  16
ENDBRANCH   1  15
TORSDOF 22
ENDMDL
MODEL 7
REMARK VINA RESULT:    -3.880      1.675      5.581
REMARK INTER + INTRA:         -12.438
REMARK INTER:                  -8.331
REMARK INTRA:                  -4.107
REMARK UNBOUND:                -3.567
REMARK SMILES CCCCCCCCCCCCCCCCCCCCCCCC(=O)[O-]
REMARK SMILES IDX 13 1 14 2 15 3 16 4 17 5 18 6 19 7 20 8 21 9 22 10 23 11
REMARK SMILES IDX 24 12 25 13 26 14 12 15 11 16 10 17 9 18 8 19 7 20 6 21 5 22
REMARK SMILES IDX 4 23 3 24 2 25 1 26
REMARK H PARENT
REMARK Flexibility Score: inf
ROOT
ATOM      1  C   UNL     1      30.044  22.271 -16.810  1.00  0.00     0.000 C 
ENDROOT
BRANCH   1   2
ATOM      2  C   UNL     1      29.476  22.836 -15.496  1.00  0.00     0.000 C 
BRANCH   2   3
ATOM      3  C   UNL     1      30.571  23.369 -14.560  1.00  0.00     0.000 C 
BRANCH   3   4
ATOM      4  C   UNL     1      30.000  23.935 -13.247  1.00  0.00     0.000 C 
BRANCH   4   5
ATOM      5  C   UNL     1      29.886  25.468 -13.280  1.00  0.00     0.000 C 
BRANCH   5   6
ATOM      6  C   UNL     1      30.955  26.118 -14.178  1.00  0.00     0.000 C 
BRANCH   6   7
ATOM      7  C   UNL     1      30.343  27.082 -15.210  1.00  0.00     0.000 C 
BRANCH   7   8
ATOM      8  C   UNL     1      31.051  27.075 -16.580  1.00  0.00     0.000 C 
BRANCH   8   9
ATOM      9  C   UNL     1      30.819  25.802 -17.417  1.00  0.00     0.000 C 
BRANCH   9  10
ATOM     10  C   UNL     1      32.109  25.001 -17.692  1.00  0.00     0.006 C 
BRANCH  10  11
ATOM     11  C   UNL     1      33.329  25.915 -17.872  1.00  0.00     0.053 C 
BRANCH  11  12
ATOM     12  C   UNL     1      33.631  26.105 -19.327  1.00  0.00     0.041 C 
ATOM     13  O   UNL     1      33.129  25.330 -20.183  1.00  0.00    -0.550 OA
ATOM     14  O   UNL     1      34.493  27.116 -19.732  1.00  0.00    -0.550 OA
ENDBRANCH  11  12
ENDBRANCH  10  11
ENDBRANCH   9  10
ENDBRANCH   8   9
ENDBRANCH   7   8
ENDBRANCH   6   7
ENDBRANCH   5   6
ENDBRANCH   4   5
ENDBRANCH   3   4
ENDBRANCH   2   3
ENDBRANCH   1   2
BRANCH   1  15
ATOM     15  C   UNL     1      28.940  21.737 -17.747  1.00  0.00     0.000 C 
BRANCH  15  16
ATOM     16  C   UNL     1      29.443  21.401 -19.165  1.00  0.00     0.000 C 
BRANCH  16  17
ATOM     17  C   UNL     1      28.858  22.278 -20.285  1.00  0.00     0.000 C 
BRANCH  17  18
ATOM     18  C   UNL     1      28.469  23.707 -19.857  1.00  0.00    -0.000 C 
BRANCH  18  19
ATOM     19  C   UNL     1      27.027  24.102 -20.240  1.00  0.00    -0.000 C 
BRANCH  19  20
ATOM     20  C   UNL     1      26.322  24.894 -19.128  1.00  0.00    -0.000 C 
BRANCH  20  21
ATOM     21  C   UNL     1      26.985  24.645 -17.767  1.00  0.00    -0.000 C 
BRANCH  21  22
ATOM     22  C   UNL     1      27.296  25.972 -17.059  1.00  0.00    -0.000 C 
BRANCH  22  23
ATOM     23  C   UNL     1      27.003  25.922 -15.551  1.00  0.00    -0.000 C 
BRANCH  23  24
ATOM     24  C   UNL     1      26.206  24.670 -15.143  1.00  0.00    -0.000 C 
BRANCH  24  25
ATOM     25  C   UNL     1      25.465  24.854 -13.809  1.00  0.00    -0.003 C 
ATOM     26  C   UNL     1      26.396  24.777 -12.601  1.00  0.00     0.004 C 
ENDBRANCH  24  25
ENDBRANCH  23  24
ENDBRANCH  22  23
ENDBRANCH  21  22
ENDBRANCH  20  21
ENDBRANCH  19  20
ENDBRANCH  18  19
ENDBRANCH  17  18
ENDBRANCH  16  17
ENDBRANCH  15  16
ENDBRANCH   1  15
TORSDOF 22
ENDMDL
MODEL 8
REMARK VINA RESULT:    -3.831      2.193      5.448
REMARK INTER + INTRA:         -12.325
REMARK INTER:                  -8.124
REMARK INTRA:                  -4.201
REMARK UNBOUND:                -3.567
REMARK SMILES CCCCCCCCCCCCCCCCCCCCCCCC(=O)[O-]
REMARK SMILES IDX 13 1 14 2 15 3 16 4 17 5 18 6 19 7 20 8 21 9 22 10 23 11
REMARK SMILES IDX 24 12 25 13 26 14 12 15 11 16 10 17 9 18 8 19 7 20 6 21 5 22
REMARK SMILES IDX 4 23 3 24 2 25 1 26
REMARK H PARENT
REMARK Flexibility Score: inf
ROOT
ATOM      1  C   UNL     1      27.806  26.029 -16.968  1.00  0.00     0.000 C 
ENDROOT
BRANCH   1   2
ATOM      2  C   UNL     1      27.510  25.061 -15.808  1.00  0.00     0.000 C 
BRANCH   2   3
ATOM      3  C   UNL     1      27.242  25.792 -14.483  1.00  0.00     0.000 C 
BRANCH   3   4
ATOM      4  C   UNL     1      28.320  25.503 -13.422  1.00  0.00     0.000 C 
BRANCH   4   5
ATOM      5  C   UNL     1      28.704  26.764 -12.631  1.00  0.00     0.000 C 
BRANCH   5   6
ATOM      6  C   UNL     1      30.174  26.746 -12.176  1.00  0.00     0.000 C 
BRANCH   6   7
ATOM      7  C   UNL     1      30.767  25.326 -12.171  1.00  0.00     0.000 C 
BRANCH   7   8
ATOM      8  C   UNL     1      32.278  25.269 -12.476  1.00  0.00     0.000 C 
BRANCH   8   9
ATOM      9  C   UNL     1      32.825  23.856 -12.756  1.00  0.00     0.000 C 
BRANCH   9  10
ATOM     10  C   UNL     1      33.071  23.576 -14.254  1.00  0.00     0.006 C 
BRANCH  10  11
ATOM     11  C   UNL     1      34.564  23.611 -14.609  1.00  0.00     0.053 C 
BRANCH  11  12
ATOM     12  C   UNL     1      34.892  24.862 -15.366  1.00  0.00     0.041 C 
ATOM     13  O   UNL     1      35.289  24.794 -16.559  1.00  0.00    -0.550 OA
ATOM     14  O   UNL     1      34.793  26.100 -14.741  1.00  0.00    -0.550 OA
ENDBRANCH  11  12
ENDBRANCH  10  11
ENDBRANCH   9  10
ENDBRANCH   8   9
ENDBRANCH   7   8
ENDBRANCH   6   7
ENDBRANCH   5   6
ENDBRANCH   4   5
ENDBRANCH   3   4
ENDBRANCH   2   3
ENDBRANCH   1   2
BRANCH   1  15
ATOM     15  C   UNL     1      28.133  27.455 -16.476  1.00  0.00     0.000 C 
BRANCH  15  16
ATOM     16  C   UNL     1      29.574  27.903 -16.790  1.00  0.00     0.000 C 
BRANCH  16  17
ATOM     17  C   UNL     1      30.619  27.513 -15.731  1.00  0.00     0.000 C 
BRANCH  17  18
ATOM     18  C   UNL     1      31.319  26.161 -15.974  1.00  0.00    -0.000 C 
BRANCH  18  19
ATOM     19  C   UNL     1      31.988  26.045 -17.359  1.00  0.00    -0.000 C 
BRANCH  19  20
ATOM     20  C   UNL     1      31.492  24.825 -18.149  1.00  0.00    -0.000 C 
BRANCH  20  21
ATOM     21  C   UNL     1      30.716  23.859 -17.244  1.00  0.00    -0.000 C 
BRANCH  21  22
ATOM     22  C   UNL     1      29.798  22.949 -18.074  1.00  0.00    -0.000 C 
BRANCH  22  23
ATOM     23  C   UNL     1      29.292  23.630 -19.355  1.00  0.00    -0.000 C 
BRANCH  23  24
ATOM     24  C   UNL     1      27.887  23.155 -19.765  1.00  0.00    -0.000 C 
BRANCH  24  25
ATOM     25  C   UNL     1      27.140  24.191 -20.619  1.00  0.00    -0.003 C 
ATOM     26  C   UNL     1      26.051  24.926 -19.839  1.00  0.00     0.004 C 
ENDBRANCH  24  25
ENDBRANCH  23  24
ENDBRANCH  22  23
ENDBRANCH  21  22
ENDBRANCH  20  21
ENDBRANCH  19  20
ENDBRANCH  18  19
ENDBRANCH  17  18
ENDBRANCH  16  17
ENDBRANCH  15  16
ENDBRANCH   1  15
TORSDOF 22
ENDMDL
MODEL 9
REMARK VINA RESULT:    -3.785      2.963      5.458
REMARK INTER + INTRA:         -12.221
REMARK INTER:                  -8.250
REMARK INTRA:                  -3.971
REMARK UNBOUND:                -3.567
REMARK SMILES CCCCCCCCCCCCCCCCCCCCCCCC(=O)[O-]
REMARK SMILES IDX 13 1 14 2 15 3 16 4 17 5 18 6 19 7 20 8 21 9 22 10 23 11
REMARK SMILES IDX 24 12 25 13 26 14 12 15 11 16 10 17 9 18 8 19 7 20 6 21 5 22
REMARK SMILES IDX 4 23 3 24 2 25 1 26
REMARK H PARENT
REMARK Flexibility Score: inf
ROOT
ATOM      1  C   UNL     1      26.125  24.526 -18.771  1.00  0.00     0.000 C 
ENDROOT
BRANCH   1   2
ATOM      2  C   UNL     1      26.575  24.505 -20.243  1.00  0.00     0.000 C 
BRANCH   2   3
ATOM      3  C   UNL     1      27.571  23.373 -20.540  1.00  0.00     0.000 C 
BRANCH   3   4
ATOM      4  C   UNL     1      28.888  23.527 -19.759  1.00  0.00     0.000 C 
BRANCH   4   5
ATOM      5  C   UNL     1      29.207  22.283 -18.912  1.00  0.00     0.000 C 
BRANCH   5   6
ATOM      6  C   UNL     1      28.899  22.494 -17.420  1.00  0.00     0.000 C 
BRANCH   6   7
ATOM      7  C   UNL     1      30.099  22.145 -16.520  1.00  0.00     0.000 C 
BRANCH   7   8
ATOM      8  C   UNL     1      30.156  22.944 -15.202  1.00  0.00     0.000 C 
BRANCH   8   9
ATOM      9  C   UNL     1      28.809  23.057 -14.461  1.00  0.00     0.000 C 
BRANCH   9  10
ATOM     10  C   UNL     1      28.934  23.658 -13.045  1.00  0.00     0.006 C 
BRANCH  10  11
ATOM     11  C   UNL     1      29.980  24.780 -12.984  1.00  0.00     0.053 C 
BRANCH  11  12
ATOM     12  C   UNL     1      29.352  26.055 -12.511  1.00  0.00     0.041 C 
ATOM     13  O   UNL     1      29.961  27.149 -12.650  1.00  0.00    -0.550 OA
ATOM     14  O   UNL     1      28.110  26.031 -11.888  1.00  0.00    -0.550 OA
ENDBRANCH  11  12
ENDBRANCH  10  11
ENDBRANCH   9  10
ENDBRANCH   8   9
ENDBRANCH   7   8
ENDBRANCH   6   7
ENDBRANCH   5   6
ENDBRANCH   4   5
ENDBRANCH   3   4
ENDBRANCH   2   3
ENDBRANCH   1   2
BRANCH   1  15
ATOM     15  C   UNL     1      26.789  25.665 -17.968  1.00  0.00     0.000 C 
BRANCH  15  16
ATOM     16  C   UNL     1      26.907  25.369 -16.460  1.00  0.00     0.000 C 
BRANCH  16  17
ATOM     17  C   UNL     1      27.765  26.371 -15.668  1.00  0.00     0.000 C 
BRANCH  17  18
ATOM     18  C   UNL     1      28.268  27.582 -16.480  1.00  0.00    -0.000 C 
BRANCH  18  19
ATOM     19  C   UNL     1      29.789  27.814 -16.375  1.00  0.00    -0.000 C 
BRANCH  19  20
ATOM     20  C   UNL     1      30.569  26.505 -16.180  1.00  0.00    -0.000 C 
BRANCH  20  21
ATOM     21  C   UNL     1      30.747  25.764 -17.511  1.00  0.00    -0.000 C 
BRANCH  21  22
ATOM     22  C   UNL     1      32.182  25.237 -17.656  1.00  0.00    -0.000 C 
BRANCH  22  23
ATOM     23  C   UNL     1      32.306  24.143 -18.729  1.00  0.00    -0.000 C 
BRANCH  23  24
ATOM     24  C   UNL     1      32.773  24.693 -20.087  1.00  0.00    -0.000 C 
BRANCH  24  25
ATOM     25  C   UNL     1      32.498  23.720 -21.243  1.00  0.00    -0.003 C 
ATOM     26  C   UNL     1      33.670  23.614 -22.218  1.00  0.00     0.004 C 
ENDBRANCH  24  25
ENDBRANCH  23  24
ENDBRANCH  22  23
ENDBRANCH  21  22
ENDBRANCH  20  21
ENDBRANCH  19  20
ENDBRANCH  18  19
ENDBRANCH  17  18
ENDBRANCH  16  17
ENDBRANCH  15  16
ENDBRANCH   1  15
TORSDOF 22
ENDMDL
