MODEL 1
REMARK VINA RESULT:    -5.206      0.000      0.000
REMARK INTER + INTRA:          -7.124
REMARK INTER:                  -6.423
REMARK INTRA:                  -0.701
REMARK UNBOUND:                -0.701
REMARK SMILES C=CC(=C)CCC=C(C)C
REMARK SMILES IDX 5 1 6 2 7 3 9 4 8 5 10 6 3 7 4 8 2 9 1 10
REMARK H PARENT
REMARK Flexibility Score: inf
ROOT
ATOM      1  C   UNL     1     136.685 135.198 124.597  1.00  0.00     0.039 C 
ENDROOT
BRANCH   1   2
ATOM      2  C   UNL     1     136.142 135.954 123.379  1.00  0.00     0.032 C 
BRANCH   2   3
ATOM      3  C   UNL     1     135.587 137.295 123.787  1.00  0.00    -0.028 C 
ATOM      4  C   UNL     1     135.631 139.738 124.189  1.00  0.00     0.039 C 
ATOM      5  C   UNL     1     136.277 138.457 123.726  1.00  0.00    -0.080 C 
ATOM      6  C   UNL     1     137.675 138.530 123.163  1.00  0.00     0.039 C 
ENDBRANCH   2   3
ENDBRANCH   1   2
BRANCH   1   7
ATOM      7  C   UNL     1     138.195 135.109 124.545  1.00  0.00    -0.055 C 
ATOM      8  C   UNL     1     138.888 135.172 125.687  1.00  0.00     0.012 C 
BRANCH   7   9
ATOM      9  C   UNL     1     138.940 135.005 123.263  1.00  0.00    -0.005 C 
ATOM     10  C   UNL     1     140.130 135.567 123.043  1.00  0.00     0.009 C 
ENDBRANCH   7   9
ENDBRANCH   1   7
TORSDOF 4
ENDMDL
MODEL 2
REMARK VINA RESULT:    -5.184     14.333     17.012
REMARK INTER + INTRA:          -7.097
REMARK INTER:                  -6.382
REMARK INTRA:                  -0.715
REMARK UNBOUND:                -0.701
REMARK SMILES C=CC(=C)CCC=C(C)C
REMARK SMILES IDX 5 1 6 2 7 3 9 4 8 5 10 6 3 7 4 8 2 9 1 10
REMARK H PARENT
REMARK Flexibility Score: inf
ROOT
ATOM      1  C   UNL     1     135.064 154.025 124.685  1.00  0.00     0.039 C 
ENDROOT
BRANCH   1   2
ATOM      2  C   UNL     1     135.903 154.697 123.592  1.00  0.00     0.032 C 
BRANCH   2   3
ATOM      3  C   UNL     1     137.248 155.114 124.132  1.00  0.00    -0.028 C 
ATOM      4  C   UNL     1     139.674 154.903 124.580  1.00  0.00     0.039 C 
ATOM      5  C   UNL     1     138.388 154.405 123.971  1.00  0.00    -0.080 C 
ATOM      6  C   UNL     1     138.434 153.135 123.158  1.00  0.00     0.039 C 
ENDBRANCH   2   3
ENDBRANCH   1   2
BRANCH   1   7
ATOM      7  C   UNL     1     135.140 152.517 124.571  1.00  0.00    -0.055 C 
ATOM      8  C   UNL     1     135.396 151.795 125.667  1.00  0.00     0.012 C 
BRANCH   7   9
ATOM      9  C   UNL     1     134.991 151.811 123.271  1.00  0.00    -0.005 C 
ATOM     10  C   UNL     1     135.412 150.566 123.045  1.00  0.00     0.009 C 
ENDBRANCH   7   9
ENDBRANCH   1   7
TORSDOF 4
ENDMDL
MODEL 3
REMARK VINA RESULT:    -4.991      1.024      4.701
REMARK INTER + INTRA:          -6.860
REMARK INTER:                  -6.415
REMARK INTRA:                  -0.445
REMARK UNBOUND:                -0.701
REMARK SMILES C=CC(=C)CCC=C(C)C
REMARK SMILES IDX 5 1 6 2 7 3 9 4 8 5 10 6 3 7 4 8 2 9 1 10
REMARK H PARENT
REMARK Flexibility Score: inf
ROOT
ATOM      1  C   UNL     1     137.553 138.232 123.019  1.00  0.00     0.039 C 
ENDROOT
BRANCH   1   2
ATOM      2  C   UNL     1     137.928 136.756 122.844  1.00  0.00     0.032 C 
BRANCH   2   3
ATOM      3  C   UNL     1     138.921 136.329 123.895  1.00  0.00    -0.028 C 
ATOM      4  C   UNL     1     139.669 135.292 126.015  1.00  0.00     0.039 C 
ATOM      5  C   UNL     1     138.598 135.643 125.015  1.00  0.00    -0.080 C 
ATOM      6  C   UNL     1     137.192 135.169 125.287  1.00  0.00     0.039 C 
ENDBRANCH   2   3
ENDBRANCH   1   2
BRANCH   1   7
ATOM      7  C   UNL     1     136.205 138.367 123.695  1.00  0.00    -0.055 C 
ATOM      8  C   UNL     1     135.283 137.418 123.502  1.00  0.00     0.012 C 
BRANCH   7   9
ATOM      9  C   UNL     1     135.850 139.545 124.530  1.00  0.00    -0.005 C 
ATOM     10  C   UNL     1     134.957 140.470 124.175  1.00  0.00     0.009 C 
ENDBRANCH   7   9
ENDBRANCH   1   7
TORSDOF 4
ENDMDL
MODEL 4
REMARK VINA RESULT:    -4.937      0.727      4.385
REMARK INTER + INTRA:          -6.792
REMARK INTER:                  -6.342
REMARK INTRA:                  -0.451
REMARK UNBOUND:                -0.701
REMARK SMILES C=CC(=C)CCC=C(C)C
REMARK SMILES IDX 5 1 6 2 7 3 9 4 8 5 10 6 3 7 4 8 2 9 1 10
REMARK H PARENT
REMARK Flexibility Score: inf
ROOT
ATOM      1  C   UNL     1     135.666 136.717 123.617  1.00  0.00     0.039 C 
ENDROOT
BRANCH   1   2
ATOM      2  C   UNL     1     136.698 135.601 123.424  1.00  0.00     0.032 C 
BRANCH   2   3
ATOM      3  C   UNL     1     137.508 135.399 124.680  1.00  0.00    -0.028 C 
ATOM      4  C   UNL     1     139.567 135.164 126.035  1.00  0.00     0.039 C 
ATOM      5  C   UNL     1     138.859 135.406 124.726  1.00  0.00    -0.080 C 
ATOM      6  C   UNL     1     139.701 135.693 123.507  1.00  0.00     0.039 C 
ENDBRANCH   2   3
ENDBRANCH   1   2
BRANCH   1   7
ATOM      7  C   UNL     1     136.324 138.078 123.535  1.00  0.00    -0.055 C 
ATOM      8  C   UNL     1     137.314 138.268 122.657  1.00  0.00     0.012 C 
BRANCH   7   9
ATOM      9  C   UNL     1     135.941 139.200 124.432  1.00  0.00    -0.005 C 
ATOM     10  C   UNL     1     135.052 140.141 124.113  1.00  0.00     0.009 C 
ENDBRANCH   7   9
ENDBRANCH   1   7
TORSDOF 4
ENDMDL
MODEL 5
REMARK VINA RESULT:    -4.838      0.940      2.283
REMARK INTER + INTRA:          -6.671
REMARK INTER:                  -6.252
REMARK INTRA:                  -0.418
REMARK UNBOUND:                -0.701
REMARK SMILES C=CC(=C)CCC=C(C)C
REMARK SMILES IDX 5 1 6 2 7 3 9 4 8 5 10 6 3 7 4 8 2 9 1 10
REMARK H PARENT
REMARK Flexibility Score: inf
ROOT
ATOM      1  C   UNL     1     137.826 135.780 122.682  1.00  0.00     0.039 C 
ENDROOT
BRANCH   1   2
ATOM      2  C   UNL     1     137.897 137.170 122.041  1.00  0.00     0.032 C 
BRANCH   2   3
ATOM      3  C   UNL     1     137.531 138.238 123.040  1.00  0.00    -0.028 C 
ATOM      4  C   UNL     1     136.056 139.469 124.602  1.00  0.00     0.039 C 
ATOM      5  C   UNL     1     136.323 138.341 123.639  1.00  0.00    -0.080 C 
ATOM      6  C   UNL     1     135.227 137.330 123.409  1.00  0.00     0.039 C 
ENDBRANCH   2   3
ENDBRANCH   1   2
BRANCH   1   7
ATOM      7  C   UNL     1     138.892 135.623 123.745  1.00  0.00    -0.055 C 
ATOM      8  C   UNL     1     140.178 135.626 123.381  1.00  0.00     0.012 C 
BRANCH   7   9
ATOM      9  C   UNL     1     138.558 135.415 125.179  1.00  0.00    -0.005 C 
ATOM     10  C   UNL     1     137.318 135.241 125.638  1.00  0.00     0.009 C 
ENDBRANCH   7   9
ENDBRANCH   1   7
TORSDOF 4
ENDMDL
MODEL 6
REMARK VINA RESULT:    -4.757      0.713      1.525
REMARK INTER + INTRA:          -6.570
REMARK INTER:                  -5.979
REMARK INTRA:                  -0.591
REMARK UNBOUND:                -0.701
REMARK SMILES C=CC(=C)CCC=C(C)C
REMARK SMILES IDX 5 1 6 2 7 3 9 4 8 5 10 6 3 7 4 8 2 9 1 10
REMARK H PARENT
REMARK Flexibility Score: inf
ROOT
ATOM      1  C   UNL     1     136.818 135.285 124.019  1.00  0.00     0.039 C 
ENDROOT
BRANCH   1   2
ATOM      2  C   UNL     1     135.924 136.108 123.084  1.00  0.00     0.032 C 
BRANCH   2   3
ATOM      3  C   UNL     1     135.485 137.386 123.754  1.00  0.00    -0.028 C 
ATOM      4  C   UNL     1     135.679 139.745 124.480  1.00  0.00     0.039 C 
ATOM      5  C   UNL     1     136.202 138.533 123.753  1.00  0.00    -0.080 C 
ATOM      6  C   UNL     1     137.505 138.663 123.004  1.00  0.00     0.039 C 
ENDBRANCH   2   3
ENDBRANCH   1   2
BRANCH   1   7
ATOM      7  C   UNL     1     138.222 135.179 123.465  1.00  0.00    -0.055 C 
ATOM      8  C   UNL     1     138.389 134.877 122.173  1.00  0.00     0.012 C 
BRANCH   7   9
ATOM      9  C   UNL     1     139.427 135.350 124.319  1.00  0.00    -0.005 C 
ATOM     10  C   UNL     1     139.384 135.621 125.624  1.00  0.00     0.009 C 
ENDBRANCH   7   9
ENDBRANCH   1   7
TORSDOF 4
ENDMDL
MODEL 7
REMARK VINA RESULT:    -4.251     13.957     16.645
REMARK INTER + INTRA:          -5.947
REMARK INTER:                  -5.748
REMARK INTRA:                  -0.199
REMARK UNBOUND:                -0.701
REMARK SMILES C=CC(=C)CCC=C(C)C
REMARK SMILES IDX 5 1 6 2 7 3 9 4 8 5 10 6 3 7 4 8 2 9 1 10
REMARK H PARENT
REMARK Flexibility Score: inf
ROOT
ATOM      1  C   UNL     1     153.274 136.571 125.008  1.00  0.00     0.039 C 
ENDROOT
BRANCH   1   2
ATOM      2  C   UNL     1     154.734 137.039 125.009  1.00  0.00     0.032 C 
BRANCH   2   3
ATOM      3  C   UNL     1     154.822 138.514 124.708  1.00  0.00    -0.028 C 
ATOM      4  C   UNL     1     155.125 140.524 123.293  1.00  0.00     0.039 C 
ATOM      5  C   UNL     1     155.024 139.031 123.475  1.00  0.00    -0.080 C 
ATOM      6  C   UNL     1     155.113 138.160 122.246  1.00  0.00     0.039 C 
ENDBRANCH   2   3
ENDBRANCH   1   2
BRANCH   1   7
ATOM      7  C   UNL     1     153.039 135.545 123.921  1.00  0.00    -0.055 C 
ATOM      8  C   UNL     1     154.036 135.251 123.079  1.00  0.00     0.012 C 
BRANCH   7   9
ATOM      9  C   UNL     1     151.722 134.885 123.724  1.00  0.00    -0.005 C 
ATOM     10  C   UNL     1     150.627 135.181 124.426  1.00  0.00     0.009 C 
ENDBRANCH   7   9
ENDBRANCH   1   7
TORSDOF 4
ENDMDL
MODEL 8
REMARK VINA RESULT:    -4.193     13.879     16.378
REMARK INTER + INTRA:          -5.875
REMARK INTER:                  -5.176
REMARK INTRA:                  -0.699
REMARK UNBOUND:                -0.701
REMARK SMILES C=CC(=C)CCC=C(C)C
REMARK SMILES IDX 5 1 6 2 7 3 9 4 8 5 10 6 3 7 4 8 2 9 1 10
REMARK H PARENT
REMARK Flexibility Score: inf
ROOT
ATOM      1  C   UNL     1     135.779 151.397 122.185  1.00  0.00     0.039 C 
ENDROOT
BRANCH   1   2
ATOM      2  C   UNL     1     136.223 152.826 121.852  1.00  0.00     0.032 C 
BRANCH   2   3
ATOM      3  C   UNL     1     137.513 153.162 122.557  1.00  0.00    -0.028 C 
ATOM      4  C   UNL     1     139.018 154.472 124.024  1.00  0.00     0.039 C 
ATOM      5  C   UNL     1     137.673 154.212 123.395  1.00  0.00    -0.080 C 
ATOM      6  C   UNL     1     136.529 155.124 123.765  1.00  0.00     0.039 C 
ENDBRANCH   2   3
ENDBRANCH   1   2
BRANCH   1   7
ATOM      7  C   UNL     1     135.794 151.164 123.681  1.00  0.00    -0.055 C 
ATOM      8  C   UNL     1     136.631 150.252 124.187  1.00  0.00     0.012 C 
BRANCH   7   9
ATOM      9  C   UNL     1     134.875 151.879 124.604  1.00  0.00    -0.005 C 
ATOM     10  C   UNL     1     135.213 152.281 125.831  1.00  0.00     0.009 C 
ENDBRANCH   7   9
ENDBRANCH   1   7
TORSDOF 4
ENDMDL
MODEL 9
REMARK VINA RESULT:    -3.950     14.697     17.013
REMARK INTER + INTRA:          -5.574
REMARK INTER:                  -5.022
REMARK INTRA:                  -0.552
REMARK UNBOUND:                -0.701
REMARK SMILES C=CC(=C)CCC=C(C)C
REMARK SMILES IDX 5 1 6 2 7 3 9 4 8 5 10 6 3 7 4 8 2 9 1 10
REMARK H PARENT
REMARK Flexibility Score: inf
ROOT
ATOM      1  C   UNL     1     136.387 154.880 123.769  1.00  0.00     0.039 C 
ENDROOT
BRANCH   1   2
ATOM      2  C   UNL     1     135.156 153.966 123.794  1.00  0.00     0.032 C 
BRANCH   2   3
ATOM      3  C   UNL     1     135.152 153.109 125.035  1.00  0.00    -0.028 C 
ATOM      4  C   UNL     1     135.222 151.002 126.333  1.00  0.00     0.039 C 
ATOM      5  C   UNL     1     135.268 151.762 125.032  1.00  0.00    -0.080 C 
ATOM      6  C   UNL     1     135.489 150.979 123.761  1.00  0.00     0.039 C 
ENDBRANCH   2   3
ENDBRANCH   1   2
BRANCH   1   7
ATOM      7  C   UNL     1     137.618 154.111 123.338  1.00  0.00    -0.055 C 
ATOM      8  C   UNL     1     137.563 153.367 122.229  1.00  0.00     0.012 C 
BRANCH   7   9
ATOM      9  C   UNL     1     138.874 154.115 124.133  1.00  0.00    -0.005 C 
ATOM     10  C   UNL     1     139.745 155.125 124.147  1.00  0.00     0.009 C 
ENDBRANCH   7   9
ENDBRANCH   1   7
TORSDOF 4
ENDMDL
