MODEL 1
REMARK VINA RESULT:    -4.284      0.000      0.000
REMARK INTER + INTRA:         -11.849
REMARK INTER:                  -9.293
REMARK INTRA:                  -2.556
REMARK UNBOUND:                -2.556
REMARK SMILES CCCCCCCCCCCCCCCCCCCCCC(=O)[O-]
REMARK SMILES IDX 12 1 11 2 10 3 9 4 8 5 7 6 6 7 5 8 4 9 3 10 2 11 1 12 13 13
REMARK SMILES IDX 14 14 15 15 16 16 17 17 18 18 19 19 20 20 21 21 22 22 23 23
REMARK SMILES IDX 24 24
REMARK H PARENT
REMARK Flexibility Score: inf
ROOT
ATOM      1  C   UNL     1     -11.897   6.915  28.749  1.00  0.00     0.000 C 
ENDROOT
BRANCH   1   2
ATOM      2  C   UNL     1     -10.773   6.872  29.798  1.00  0.00     0.000 C 
BRANCH   2   3
ATOM      3  C   UNL     1     -11.054   5.866  30.926  1.00  0.00     0.000 C 
BRANCH   3   4
ATOM      4  C   UNL     1     -12.297   5.005  30.656  1.00  0.00    -0.000 C 
BRANCH   4   5
ATOM      5  C   UNL     1     -12.039   3.538  31.022  1.00  0.00    -0.000 C 
BRANCH   5   6
ATOM      6  C   UNL     1     -10.703   3.051  30.442  1.00  0.00    -0.000 C 
BRANCH   6   7
ATOM      7  C   UNL     1      -9.768   2.482  31.531  1.00  0.00    -0.000 C 
BRANCH   7   8
ATOM      8  C   UNL     1      -8.275   2.723  31.251  1.00  0.00    -0.000 C 
BRANCH   8   9
ATOM      9  C   UNL     1      -8.025   3.988  30.413  1.00  0.00    -0.000 C 
BRANCH   9  10
ATOM     10  C   UNL     1      -7.333   5.101  31.216  1.00  0.00    -0.000 C 
BRANCH  10  11
ATOM     11  C   UNL     1      -5.983   4.661  31.800  1.00  0.00    -0.003 C 
ATOM     12  C   UNL     1      -5.625   5.483  33.035  1.00  0.00     0.004 C 
ENDBRANCH  10  11
ENDBRANCH   9  10
ENDBRANCH   8   9
ENDBRANCH   7   8
ENDBRANCH   6   7
ENDBRANCH   5   6
ENDBRANCH   4   5
ENDBRANCH   3   4
ENDBRANCH   2   3
ENDBRANCH   1   2
BRANCH   1  13
ATOM     13  C   UNL     1     -12.404   8.343  28.473  1.00  0.00     0.000 C 
BRANCH  13  14
ATOM     14  C   UNL     1     -13.918   8.546  28.665  1.00  0.00     0.000 C 
BRANCH  14  15
ATOM     15  C   UNL     1     -14.666   7.238  28.958  1.00  0.00     0.000 C 
BRANCH  15  16
ATOM     16  C   UNL     1     -15.667   7.426  30.108  1.00  0.00     0.000 C 
BRANCH  16  17
ATOM     17  C   UNL     1     -16.227   6.095  30.641  1.00  0.00     0.000 C 
BRANCH  17  18
ATOM     18  C   UNL     1     -16.056   4.894  29.692  1.00  0.00     0.000 C 
BRANCH  18  19
ATOM     19  C   UNL     1     -16.352   3.547  30.375  1.00  0.00     0.000 C 
BRANCH  19  20
ATOM     20  C   UNL     1     -16.036   3.564  31.879  1.00  0.00     0.006 C 
BRANCH  20  21
ATOM     21  C   UNL     1     -15.306   2.297  32.342  1.00  0.00     0.053 C 
BRANCH  21  22
ATOM     22  C   UNL     1     -15.747   1.914  33.720  1.00  0.00     0.041 C 
ATOM     23  O   UNL     1     -15.671   2.746  34.662  1.00  0.00    -0.550 OA
ATOM     24  O   UNL     1     -16.192   0.623  33.974  1.00  0.00    -0.550 OA
ENDBRANCH  21  22
ENDBRANCH  20  21
ENDBRANCH  19  20
ENDBRANCH  18  19
ENDBRANCH  17  18
ENDBRANCH  16  17
ENDBRANCH  15  16
ENDBRANCH  14  15
ENDBRANCH  13  14
ENDBRANCH   1  13
TORSDOF 20
ENDMDL
MODEL 2
REMARK VINA RESULT:    -4.175      2.270      3.430
REMARK INTER + INTRA:         -11.613
REMARK INTER:                  -8.966
REMARK INTRA:                  -2.647
REMARK UNBOUND:                -2.556
REMARK SMILES CCCCCCCCCCCCCCCCCCCCCC(=O)[O-]
REMARK SMILES IDX 12 1 11 2 10 3 9 4 8 5 7 6 6 7 5 8 4 9 3 10 2 11 1 12 13 13
REMARK SMILES IDX 14 14 15 15 16 16 17 17 18 18 19 19 20 20 21 21 22 22 23 23
REMARK SMILES IDX 24 24
REMARK H PARENT
REMARK Flexibility Score: inf
ROOT
ATOM      1  C   UNL     1     -14.081   6.807  28.956  1.00  0.00     0.000 C 
ENDROOT
BRANCH   1   2
ATOM      2  C   UNL     1     -13.149   7.950  28.519  1.00  0.00     0.000 C 
BRANCH   2   3
ATOM      3  C   UNL     1     -11.698   7.739  28.981  1.00  0.00     0.000 C 
BRANCH   3   4
ATOM      4  C   UNL     1     -11.388   6.271  29.312  1.00  0.00    -0.000 C 
BRANCH   4   5
ATOM      5  C   UNL     1     -10.870   6.131  30.749  1.00  0.00    -0.000 C 
BRANCH   5   6
ATOM      6  C   UNL     1      -9.544   5.357  30.785  1.00  0.00    -0.000 C 
BRANCH   6   7
ATOM      7  C   UNL     1      -9.578   4.191  31.795  1.00  0.00    -0.000 C 
BRANCH   7   8
ATOM      8  C   UNL     1      -8.218   3.908  32.456  1.00  0.00    -0.000 C 
BRANCH   8   9
ATOM      9  C   UNL     1      -7.104   3.640  31.432  1.00  0.00    -0.000 C 
BRANCH   9  10
ATOM     10  C   UNL     1      -5.901   4.580  31.610  1.00  0.00    -0.000 C 
BRANCH  10  11
ATOM     11  C   UNL     1      -5.955   5.373  32.923  1.00  0.00    -0.003 C 
ATOM     12  C   UNL     1      -4.564   5.523  33.531  1.00  0.00     0.004 C 
ENDBRANCH  10  11
ENDBRANCH   9  10
ENDBRANCH   8   9
ENDBRANCH   7   8
ENDBRANCH   6   7
ENDBRANCH   5   6
ENDBRANCH   4   5
ENDBRANCH   3   4
ENDBRANCH   2   3
ENDBRANCH   1   2
BRANCH   1  13
ATOM     13  C   UNL     1     -15.301   7.300  29.756  1.00  0.00     0.000 C 
BRANCH  13  14
ATOM     14  C   UNL     1     -15.934   6.255  30.693  1.00  0.00     0.000 C 
BRANCH  14  15
ATOM     15  C   UNL     1     -16.319   4.957  29.970  1.00  0.00     0.000 C 
BRANCH  15  16
ATOM     16  C   UNL     1     -15.871   3.728  30.774  1.00  0.00     0.000 C 
BRANCH  16  17
ATOM     17  C   UNL     1     -14.841   4.067  31.867  1.00  0.00     0.000 C 
BRANCH  17  18
ATOM     18  C   UNL     1     -13.402   3.603  31.568  1.00  0.00     0.000 C 
BRANCH  18  19
ATOM     19  C   UNL     1     -13.177   3.282  30.079  1.00  0.00     0.000 C 
BRANCH  19  20
ATOM     20  C   UNL     1     -12.209   2.107  29.867  1.00  0.00     0.006 C 
BRANCH  20  21
ATOM     21  C   UNL     1     -12.356   1.021  30.941  1.00  0.00     0.053 C 
BRANCH  21  22
ATOM     22  C   UNL     1     -11.104   0.208  31.036  1.00  0.00     0.041 C 
ATOM     23  O   UNL     1     -10.002   0.769  31.274  1.00  0.00    -0.550 OA
ATOM     24  O   UNL     1     -11.145  -1.161  30.809  1.00  0.00    -0.550 OA
ENDBRANCH  21  22
ENDBRANCH  20  21
ENDBRANCH  19  20
ENDBRANCH  18  19
ENDBRANCH  17  18
ENDBRANCH  16  17
ENDBRANCH  15  16
ENDBRANCH  14  15
ENDBRANCH  13  14
ENDBRANCH   1  13
TORSDOF 20
ENDMDL
MODEL 3
REMARK VINA RESULT:    -4.161      2.590      6.024
REMARK INTER + INTRA:         -11.583
REMARK INTER:                  -8.097
REMARK INTRA:                  -3.485
REMARK UNBOUND:                -2.556
REMARK SMILES CCCCCCCCCCCCCCCCCCCCCC(=O)[O-]
REMARK SMILES IDX 12 1 11 2 10 3 9 4 8 5 7 6 6 7 5 8 4 9 3 10 2 11 1 12 13 13
REMARK SMILES IDX 14 14 15 15 16 16 17 17 18 18 19 19 20 20 21 21 22 22 23 23
REMARK SMILES IDX 24 24
REMARK H PARENT
REMARK Flexibility Score: inf
ROOT
ATOM      1  C   UNL     1     -13.525   6.714  28.090  1.00  0.00     0.000 C 
ENDROOT
BRANCH   1   2
ATOM      2  C   UNL     1     -14.111   6.473  29.491  1.00  0.00     0.000 C 
BRANCH   2   3
ATOM      3  C   UNL     1     -15.330   7.364  29.783  1.00  0.00     0.000 C 
BRANCH   3   4
ATOM      4  C   UNL     1     -16.360   6.679  30.695  1.00  0.00    -0.000 C 
BRANCH   4   5
ATOM      5  C   UNL     1     -16.290   5.154  30.552  1.00  0.00    -0.000 C 
BRANCH   5   6
ATOM      6  C   UNL     1     -16.524   4.461  31.903  1.00  0.00    -0.000 C 
BRANCH   6   7
ATOM      7  C   UNL     1     -15.205   3.993  32.553  1.00  0.00    -0.000 C 
BRANCH   7   8
ATOM      8  C   UNL     1     -14.575   2.773  31.862  1.00  0.00    -0.000 C 
BRANCH   8   9
ATOM      9  C   UNL     1     -13.159   3.055  31.332  1.00  0.00    -0.000 C 
BRANCH   9  10
ATOM     10  C   UNL     1     -13.093   3.057  29.797  1.00  0.00    -0.000 C 
BRANCH  10  11
ATOM     11  C   UNL     1     -14.152   2.149  29.155  1.00  0.00    -0.003 C 
ATOM     12  C   UNL     1     -14.946   2.900  28.090  1.00  0.00     0.004 C 
ENDBRANCH  10  11
ENDBRANCH   9  10
ENDBRANCH   8   9
ENDBRANCH   7   8
ENDBRANCH   6   7
ENDBRANCH   5   6
ENDBRANCH   4   5
ENDBRANCH   3   4
ENDBRANCH   2   3
ENDBRANCH   1   2
BRANCH   1  13
ATOM     13  C   UNL     1     -13.361   8.208  27.757  1.00  0.00     0.000 C 
BRANCH  13  14
ATOM     14  C   UNL     1     -12.383   8.977  28.665  1.00  0.00     0.000 C 
BRANCH  14  15
ATOM     15  C   UNL     1     -10.977   9.102  28.061  1.00  0.00     0.000 C 
BRANCH  15  16
ATOM     16  C   UNL     1     -10.084   7.936  28.506  1.00  0.00     0.000 C 
BRANCH  16  17
ATOM     17  C   UNL     1     -10.123   7.693  30.025  1.00  0.00     0.000 C 
BRANCH  17  18
ATOM     18  C   UNL     1     -10.562   6.277  30.444  1.00  0.00     0.000 C 
BRANCH  18  19
ATOM     19  C   UNL     1     -10.193   5.206  29.402  1.00  0.00     0.000 C 
BRANCH  19  20
ATOM     20  C   UNL     1      -9.140   4.213  29.921  1.00  0.00     0.006 C 
BRANCH  20  21
ATOM     21  C   UNL     1      -9.297   3.918  31.419  1.00  0.00     0.053 C 
BRANCH  21  22
ATOM     22  C   UNL     1      -9.157   2.451  31.679  1.00  0.00     0.041 C 
ATOM     23  O   UNL     1      -8.225   2.024  32.410  1.00  0.00    -0.550 OA
ATOM     24  O   UNL     1     -10.024   1.552  31.072  1.00  0.00    -0.550 OA
ENDBRANCH  21  22
ENDBRANCH  20  21
ENDBRANCH  19  20
ENDBRANCH  18  19
ENDBRANCH  17  18
ENDBRANCH  16  17
ENDBRANCH  15  16
ENDBRANCH  14  15
ENDBRANCH  13  14
ENDBRANCH   1  13
TORSDOF 20
ENDMDL
MODEL 4
REMARK VINA RESULT:    -4.110     17.316     20.526
REMARK INTER + INTRA:         -11.472
REMARK INTER:                  -7.116
REMARK INTRA:                  -4.356
REMARK UNBOUND:                -2.556
REMARK SMILES CCCCCCCCCCCCCCCCCCCCCC(=O)[O-]
REMARK SMILES IDX 12 1 11 2 10 3 9 4 8 5 7 6 6 7 5 8 4 9 3 10 2 11 1 12 13 13
REMARK SMILES IDX 14 14 15 15 16 16 17 17 18 18 19 19 20 20 21 21 22 22 23 23
REMARK SMILES IDX 24 24
REMARK H PARENT
REMARK Flexibility Score: inf
ROOT
ATOM      1  C   UNL     1       2.013  -6.399  21.046  1.00  0.00     0.000 C 
ENDROOT
BRANCH   1   2
ATOM      2  C   UNL     1       1.320  -7.524  21.834  1.00  0.00     0.000 C 
BRANCH   2   3
ATOM      3  C   UNL     1       1.612  -8.918  21.257  1.00  0.00     0.000 C 
BRANCH   3   4
ATOM      4  C   UNL     1       2.933  -8.971  20.475  1.00  0.00    -0.000 C 
BRANCH   4   5
ATOM      5  C   UNL     1       2.751  -9.705  19.140  1.00  0.00    -0.000 C 
BRANCH   5   6
ATOM      6  C   UNL     1       1.265  -9.947  18.841  1.00  0.00    -0.000 C 
BRANCH   6   7
ATOM      7  C   UNL     1       0.831  -9.321  17.498  1.00  0.00    -0.000 C 
BRANCH   7   8
ATOM      8  C   UNL     1       0.984  -7.792  17.452  1.00  0.00    -0.000 C 
BRANCH   8   9
ATOM      9  C   UNL     1      -0.079  -7.063  18.291  1.00  0.00    -0.000 C 
BRANCH   9  10
ATOM     10  C   UNL     1      -1.485  -7.165  17.681  1.00  0.00    -0.000 C 
BRANCH  10  11
ATOM     11  C   UNL     1      -2.537  -7.651  18.688  1.00  0.00    -0.003 C 
ATOM     12  C   UNL     1      -1.877  -8.169  19.963  1.00  0.00     0.004 C 
ENDBRANCH  10  11
ENDBRANCH   9  10
ENDBRANCH   8   9
ENDBRANCH   7   8
ENDBRANCH   6   7
ENDBRANCH   5   6
ENDBRANCH   4   5
ENDBRANCH   3   4
ENDBRANCH   2   3
ENDBRANCH   1   2
BRANCH   1  13
ATOM     13  C   UNL     1       2.662  -5.341  21.957  1.00  0.00     0.000 C 
BRANCH  13  14
ATOM     14  C   UNL     1       2.712  -3.918  21.372  1.00  0.00     0.000 C 
BRANCH  14  15
ATOM     15  C   UNL     1       1.904  -3.775  20.075  1.00  0.00     0.000 C 
BRANCH  15  16
ATOM     16  C   UNL     1       1.317  -2.361  19.948  1.00  0.00     0.000 C 
BRANCH  16  17
ATOM     17  C   UNL     1      -0.139  -2.357  19.447  1.00  0.00     0.000 C 
BRANCH  17  18
ATOM     18  C   UNL     1      -0.730  -3.751  19.163  1.00  0.00     0.000 C 
BRANCH  18  19
ATOM     19  C   UNL     1      -2.212  -3.862  19.563  1.00  0.00     0.000 C 
BRANCH  19  20
ATOM     20  C   UNL     1      -2.409  -3.965  21.084  1.00  0.00     0.006 C 
BRANCH  20  21
ATOM     21  C   UNL     1      -1.440  -4.959  21.738  1.00  0.00     0.053 C 
BRANCH  21  22
ATOM     22  C   UNL     1      -0.742  -4.321  22.898  1.00  0.00     0.041 C 
ATOM     23  O   UNL     1      -0.498  -3.086  22.888  1.00  0.00    -0.550 OA
ATOM     24  O   UNL     1      -0.316  -5.099  23.966  1.00  0.00    -0.550 OA
ENDBRANCH  21  22
ENDBRANCH  20  21
ENDBRANCH  19  20
ENDBRANCH  18  19
ENDBRANCH  17  18
ENDBRANCH  16  17
ENDBRANCH  15  16
ENDBRANCH  14  15
ENDBRANCH  13  14
ENDBRANCH   1  13
TORSDOF 20
ENDMDL
MODEL 5
REMARK VINA RESULT:    -4.097      2.928      6.774
REMARK INTER + INTRA:         -11.444
REMARK INTER:                  -8.195
REMARK INTRA:                  -3.249
REMARK UNBOUND:                -2.556
REMARK SMILES CCCCCCCCCCCCCCCCCCCCCC(=O)[O-]
REMARK SMILES IDX 12 1 11 2 10 3 9 4 8 5 7 6 6 7 5 8 4 9 3 10 2 11 1 12 13 13
REMARK SMILES IDX 14 14 15 15 16 16 17 17 18 18 19 19 20 20 21 21 22 22 23 23
REMARK SMILES IDX 24 24
REMARK H PARENT
REMARK Flexibility Score: inf
ROOT
ATOM      1  C   UNL     1     -16.300   4.678  29.910  1.00  0.00     0.000 C 
ENDROOT
BRANCH   1   2
ATOM      2  C   UNL     1     -16.345   5.732  31.029  1.00  0.00     0.000 C 
BRANCH   2   3
ATOM      3  C   UNL     1     -16.114   7.159  30.507  1.00  0.00     0.000 C 
BRANCH   3   4
ATOM      4  C   UNL     1     -14.948   7.244  29.510  1.00  0.00    -0.000 C 
BRANCH   4   5
ATOM      5  C   UNL     1     -14.796   8.669  28.964  1.00  0.00    -0.000 C 
BRANCH   5   6
ATOM      6  C   UNL     1     -13.322   9.001  28.688  1.00  0.00    -0.000 C 
BRANCH   6   7
ATOM      7  C   UNL     1     -12.740   8.152  27.538  1.00  0.00    -0.000 C 
BRANCH   7   8
ATOM      8  C   UNL     1     -11.524   7.305  27.951  1.00  0.00    -0.000 C 
BRANCH   8   9
ATOM      9  C   UNL     1     -11.613   5.854  27.451  1.00  0.00    -0.000 C 
BRANCH   9  10
ATOM     10  C   UNL     1     -12.942   5.556  26.739  1.00  0.00    -0.000 C 
BRANCH  10  11
ATOM     11  C   UNL     1     -13.776   4.487  27.460  1.00  0.00    -0.003 C 
ATOM     12  C   UNL     1     -14.204   3.383  26.498  1.00  0.00     0.004 C 
ENDBRANCH  10  11
ENDBRANCH   9  10
ENDBRANCH   8   9
ENDBRANCH   7   8
ENDBRANCH   6   7
ENDBRANCH   5   6
ENDBRANCH   4   5
ENDBRANCH   3   4
ENDBRANCH   2   3
ENDBRANCH   1   2
BRANCH   1  13
ATOM     13  C   UNL     1     -17.068   3.392  30.266  1.00  0.00     0.000 C 
BRANCH  13  14
ATOM     14  C   UNL     1     -16.260   2.346  31.057  1.00  0.00     0.000 C 
BRANCH  14  15
ATOM     15  C   UNL     1     -14.877   2.073  30.449  1.00  0.00     0.000 C 
BRANCH  15  16
ATOM     16  C   UNL     1     -13.763   2.405  31.452  1.00  0.00     0.000 C 
BRANCH  16  17
ATOM     17  C   UNL     1     -12.593   3.179  30.818  1.00  0.00     0.000 C 
BRANCH  17  18
ATOM     18  C   UNL     1     -12.671   4.710  30.970  1.00  0.00     0.000 C 
BRANCH  18  19
ATOM     19  C   UNL     1     -11.284   5.371  31.061  1.00  0.00     0.000 C 
BRANCH  19  20
ATOM     20  C   UNL     1     -10.139   4.387  30.775  1.00  0.00     0.006 C 
BRANCH  20  21
ATOM     21  C   UNL     1      -8.774   4.924  31.225  1.00  0.00     0.053 C 
BRANCH  21  22
ATOM     22  C   UNL     1      -7.963   3.832  31.847  1.00  0.00     0.041 C 
ATOM     23  O   UNL     1      -8.462   3.106  32.746  1.00  0.00    -0.550 OA
ATOM     24  O   UNL     1      -6.638   3.649  31.471  1.00  0.00    -0.550 OA
ENDBRANCH  21  22
ENDBRANCH  20  21
ENDBRANCH  19  20
ENDBRANCH  18  19
ENDBRANCH  17  18
ENDBRANCH  16  17
ENDBRANCH  15  16
ENDBRANCH  14  15
ENDBRANCH  13  14
ENDBRANCH   1  13
TORSDOF 20
ENDMDL
MODEL 6
REMARK VINA RESULT:    -4.072     17.752     21.192
REMARK INTER + INTRA:         -11.389
REMARK INTER:                  -7.532
REMARK INTRA:                  -3.856
REMARK UNBOUND:                -2.556
REMARK SMILES CCCCCCCCCCCCCCCCCCCCCC(=O)[O-]
REMARK SMILES IDX 12 1 11 2 10 3 9 4 8 5 7 6 6 7 5 8 4 9 3 10 2 11 1 12 13 13
REMARK SMILES IDX 14 14 15 15 16 16 17 17 18 18 19 19 20 20 21 21 22 22 23 23
REMARK SMILES IDX 24 24
REMARK H PARENT
REMARK Flexibility Score: inf
ROOT
ATOM      1  C   UNL     1       2.422  -9.112  20.914  1.00  0.00     0.000 C 
ENDROOT
BRANCH   1   2
ATOM      2  C   UNL     1       3.037  -7.806  21.446  1.00  0.00     0.000 C 
BRANCH   2   3
ATOM      3  C   UNL     1       2.648  -7.520  22.905  1.00  0.00     0.000 C 
BRANCH   3   4
ATOM      4  C   UNL     1       2.987  -6.086  23.339  1.00  0.00    -0.000 C 
BRANCH   4   5
ATOM      5  C   UNL     1       1.714  -5.300  23.678  1.00  0.00    -0.000 C 
BRANCH   5   6
ATOM      6  C   UNL     1       1.526  -4.114  22.721  1.00  0.00    -0.000 C 
BRANCH   6   7
ATOM      7  C   UNL     1       2.608  -4.075  21.622  1.00  0.00    -0.000 C 
BRANCH   7   8
ATOM      8  C   UNL     1       2.094  -3.560  20.267  1.00  0.00    -0.000 C 
BRANCH   8   9
ATOM      9  C   UNL     1       1.671  -2.083  20.314  1.00  0.00    -0.000 C 
BRANCH   9  10
ATOM     10  C   UNL     1       0.467  -1.784  19.407  1.00  0.00    -0.000 C 
BRANCH  10  11
ATOM     11  C   UNL     1      -0.510  -2.965  19.308  1.00  0.00    -0.003 C 
ATOM     12  C   UNL     1      -1.475  -2.979  20.490  1.00  0.00     0.004 C 
ENDBRANCH  10  11
ENDBRANCH   9  10
ENDBRANCH   8   9
ENDBRANCH   7   8
ENDBRANCH   6   7
ENDBRANCH   5   6
ENDBRANCH   4   5
ENDBRANCH   3   4
ENDBRANCH   2   3
ENDBRANCH   1   2
BRANCH   1  13
ATOM     13  C   UNL     1       3.099  -9.612  19.624  1.00  0.00     0.000 C 
BRANCH  13  14
ATOM     14  C   UNL     1       2.353 -10.743  18.892  1.00  0.00     0.000 C 
BRANCH  14  15
ATOM     15  C   UNL     1       1.498 -10.236  17.722  1.00  0.00     0.000 C 
BRANCH  15  16
ATOM     16  C   UNL     1       0.086  -9.863  18.197  1.00  0.00     0.000 C 
BRANCH  16  17
ATOM     17  C   UNL     1      -0.400  -8.513  17.640  1.00  0.00     0.000 C 
BRANCH  17  18
ATOM     18  C   UNL     1       0.658  -7.393  17.643  1.00  0.00     0.000 C 
BRANCH  18  19
ATOM     19  C   UNL     1       0.634  -6.554  18.933  1.00  0.00     0.000 C 
BRANCH  19  20
ATOM     20  C   UNL     1      -0.727  -6.604  19.646  1.00  0.00     0.006 C 
BRANCH  20  21
ATOM     21  C   UNL     1      -0.590  -6.781  21.164  1.00  0.00     0.053 C 
BRANCH  21  22
ATOM     22  C   UNL     1      -1.091  -8.129  21.579  1.00  0.00     0.041 C 
ATOM     23  O   UNL     1      -1.943  -8.731  20.875  1.00  0.00    -0.550 OA
ATOM     24  O   UNL     1      -0.655  -8.696  22.769  1.00  0.00    -0.550 OA
ENDBRANCH  21  22
ENDBRANCH  20  21
ENDBRANCH  19  20
ENDBRANCH  18  19
ENDBRANCH  17  18
ENDBRANCH  16  17
ENDBRANCH  15  16
ENDBRANCH  14  15
ENDBRANCH  13  14
ENDBRANCH   1  13
TORSDOF 20
ENDMDL
MODEL 7
REMARK VINA RESULT:    -4.062      2.624      6.086
REMARK INTER + INTRA:         -11.368
REMARK INTER:                  -8.789
REMARK INTRA:                  -2.579
REMARK UNBOUND:                -2.556
REMARK SMILES CCCCCCCCCCCCCCCCCCCCCC(=O)[O-]
REMARK SMILES IDX 12 1 11 2 10 3 9 4 8 5 7 6 6 7 5 8 4 9 3 10 2 11 1 12 13 13
REMARK SMILES IDX 14 14 15 15 16 16 17 17 18 18 19 19 20 20 21 21 22 22 23 23
REMARK SMILES IDX 24 24
REMARK H PARENT
REMARK Flexibility Score: inf
ROOT
ATOM      1  C   UNL     1     -12.255   7.974  27.524  1.00  0.00     0.000 C 
ENDROOT
BRANCH   1   2
ATOM      2  C   UNL     1     -13.762   8.258  27.396  1.00  0.00     0.000 C 
BRANCH   2   3
ATOM      3  C   UNL     1     -14.371   8.817  28.692  1.00  0.00     0.000 C 
BRANCH   3   4
ATOM      4  C   UNL     1     -15.218   7.779  29.444  1.00  0.00    -0.000 C 
BRANCH   4   5
ATOM      5  C   UNL     1     -14.390   6.532  29.778  1.00  0.00    -0.000 C 
BRANCH   5   6
ATOM      6  C   UNL     1     -15.140   5.250  29.388  1.00  0.00    -0.000 C 
BRANCH   6   7
ATOM      7  C   UNL     1     -16.449   5.076  30.186  1.00  0.00    -0.000 C 
BRANCH   7   8
ATOM      8  C   UNL     1     -16.244   5.043  31.710  1.00  0.00    -0.000 C 
BRANCH   8   9
ATOM      9  C   UNL     1     -15.321   3.899  32.161  1.00  0.00    -0.000 C 
BRANCH   9  10
ATOM     10  C   UNL     1     -16.091   2.747  32.825  1.00  0.00    -0.000 C 
BRANCH  10  11
ATOM     11  C   UNL     1     -15.859   2.672  34.341  1.00  0.00    -0.003 C 
ATOM     12  C   UNL     1     -16.175   1.279  34.877  1.00  0.00     0.004 C 
ENDBRANCH  10  11
ENDBRANCH   9  10
ENDBRANCH   8   9
ENDBRANCH   7   8
ENDBRANCH   6   7
ENDBRANCH   5   6
ENDBRANCH   4   5
ENDBRANCH   3   4
ENDBRANCH   2   3
ENDBRANCH   1   2
BRANCH   1  13
ATOM     13  C   UNL     1     -11.536   8.965  28.457  1.00  0.00     0.000 C 
BRANCH  13  14
ATOM     14  C   UNL     1     -10.579   8.323  29.479  1.00  0.00     0.000 C 
BRANCH  14  15
ATOM     15  C   UNL     1      -9.919   7.039  28.957  1.00  0.00     0.000 C 
BRANCH  15  16
ATOM     16  C   UNL     1      -9.556   6.099  30.116  1.00  0.00     0.000 C 
BRANCH  16  17
ATOM     17  C   UNL     1     -10.748   5.798  31.042  1.00  0.00     0.000 C 
BRANCH  17  18
ATOM     18  C   UNL     1     -11.248   4.341  31.000  1.00  0.00     0.000 C 
BRANCH  18  19
ATOM     19  C   UNL     1     -11.788   3.935  29.617  1.00  0.00     0.000 C 
BRANCH  19  20
ATOM     20  C   UNL     1     -12.521   2.585  29.641  1.00  0.00     0.006 C 
BRANCH  20  21
ATOM     21  C   UNL     1     -12.454   1.902  31.013  1.00  0.00     0.053 C 
BRANCH  21  22
ATOM     22  C   UNL     1     -11.508   0.742  30.973  1.00  0.00     0.041 C 
ATOM     23  O   UNL     1     -10.299   0.901  31.285  1.00  0.00    -0.550 OA
ATOM     24  O   UNL     1     -11.951  -0.501  30.540  1.00  0.00    -0.550 OA
ENDBRANCH  21  22
ENDBRANCH  20  21
ENDBRANCH  19  20
ENDBRANCH  18  19
ENDBRANCH  17  18
ENDBRANCH  16  17
ENDBRANCH  15  16
ENDBRANCH  14  15
ENDBRANCH  13  14
ENDBRANCH   1  13
TORSDOF 20
ENDMDL
MODEL 8
REMARK VINA RESULT:    -4.027      2.675      6.374
REMARK INTER + INTRA:         -11.291
REMARK INTER:                  -7.996
REMARK INTRA:                  -3.295
REMARK UNBOUND:                -2.556
REMARK SMILES CCCCCCCCCCCCCCCCCCCCCC(=O)[O-]
REMARK SMILES IDX 12 1 11 2 10 3 9 4 8 5 7 6 6 7 5 8 4 9 3 10 2 11 1 12 13 13
REMARK SMILES IDX 14 14 15 15 16 16 17 17 18 18 19 19 20 20 21 21 22 22 23 23
REMARK SMILES IDX 24 24
REMARK H PARENT
REMARK Flexibility Score: inf
ROOT
ATOM      1  C   UNL     1     -16.080   5.353  29.858  1.00  0.00     0.000 C 
ENDROOT
BRANCH   1   2
ATOM      2  C   UNL     1     -16.333   4.246  30.895  1.00  0.00     0.000 C 
BRANCH   2   3
ATOM      3  C   UNL     1     -15.526   4.451  32.188  1.00  0.00     0.000 C 
BRANCH   3   4
ATOM      4  C   UNL     1     -15.274   3.137  32.944  1.00  0.00    -0.000 C 
BRANCH   4   5
ATOM      5  C   UNL     1     -16.465   2.786  33.844  1.00  0.00    -0.000 C 
BRANCH   5   6
ATOM      6  C   UNL     1     -16.513   1.279  34.134  1.00  0.00    -0.000 C 
BRANCH   6   7
ATOM      7  C   UNL     1     -16.857   0.454  32.876  1.00  0.00    -0.000 C 
BRANCH   7   8
ATOM      8  C   UNL     1     -15.707  -0.446  32.395  1.00  0.00    -0.000 C 
BRANCH   8   9
ATOM      9  C   UNL     1     -15.643  -0.561  30.863  1.00  0.00    -0.000 C 
BRANCH   9  10
ATOM     10  C   UNL     1     -15.996   0.758  30.157  1.00  0.00    -0.000 C 
BRANCH  10  11
ATOM     11  C   UNL     1     -14.883   1.246  29.219  1.00  0.00    -0.003 C 
ATOM     12  C   UNL     1     -13.646   1.667  30.009  1.00  0.00     0.004 C 
ENDBRANCH  10  11
ENDBRANCH   9  10
ENDBRANCH   8   9
ENDBRANCH   7   8
ENDBRANCH   6   7
ENDBRANCH   5   6
ENDBRANCH   4   5
ENDBRANCH   3   4
ENDBRANCH   2   3
ENDBRANCH   1   2
BRANCH   1  13
ATOM     13  C   UNL     1     -15.962   6.752  30.490  1.00  0.00     0.000 C 
BRANCH  13  14
ATOM     14  C   UNL     1     -15.269   7.810  29.612  1.00  0.00     0.000 C 
BRANCH  14  15
ATOM     15  C   UNL     1     -14.263   7.202  28.624  1.00  0.00     0.000 C 
BRANCH  15  16
ATOM     16  C   UNL     1     -12.867   7.813  28.818  1.00  0.00     0.000 C 
BRANCH  16  17
ATOM     17  C   UNL     1     -11.779   6.756  29.077  1.00  0.00     0.000 C 
BRANCH  17  18
ATOM     18  C   UNL     1     -12.308   5.343  29.388  1.00  0.00     0.000 C 
BRANCH  18  19
ATOM     19  C   UNL     1     -12.225   4.992  30.885  1.00  0.00     0.000 C 
BRANCH  19  20
ATOM     20  C   UNL     1     -10.868   4.386  31.276  1.00  0.00     0.006 C 
BRANCH  20  21
ATOM     21  C   UNL     1     -10.226   3.592  30.132  1.00  0.00     0.053 C 
BRANCH  21  22
ATOM     22  C   UNL     1      -9.659   2.305  30.644  1.00  0.00     0.041 C 
ATOM     23  O   UNL     1     -10.378   1.521  31.318  1.00  0.00    -0.550 OA
ATOM     24  O   UNL     1      -8.324   1.995  30.421  1.00  0.00    -0.550 OA
ENDBRANCH  21  22
ENDBRANCH  20  21
ENDBRANCH  19  20
ENDBRANCH  18  19
ENDBRANCH  17  18
ENDBRANCH  16  17
ENDBRANCH  15  16
ENDBRANCH  14  15
ENDBRANCH  13  14
ENDBRANCH   1  13
TORSDOF 20
ENDMDL
MODEL 9
REMARK VINA RESULT:    -4.003      2.465      4.338
REMARK INTER + INTRA:         -11.239
REMARK INTER:                  -8.709
REMARK INTRA:                  -2.530
REMARK UNBOUND:                -2.556
REMARK SMILES CCCCCCCCCCCCCCCCCCCCCC(=O)[O-]
REMARK SMILES IDX 12 1 11 2 10 3 9 4 8 5 7 6 6 7 5 8 4 9 3 10 2 11 1 12 13 13
REMARK SMILES IDX 14 14 15 15 16 16 17 17 18 18 19 19 20 20 21 21 22 22 23 23
REMARK SMILES IDX 24 24
REMARK H PARENT
REMARK Flexibility Score: inf
ROOT
ATOM      1  C   UNL     1     -14.715   7.215  29.058  1.00  0.00     0.000 C 
ENDROOT
BRANCH   1   2
ATOM      2  C   UNL     1     -14.059   8.531  28.607  1.00  0.00     0.000 C 
BRANCH   2   3
ATOM      3  C   UNL     1     -12.528   8.507  28.746  1.00  0.00     0.000 C 
BRANCH   3   4
ATOM      4  C   UNL     1     -11.957   7.081  28.771  1.00  0.00    -0.000 C 
BRANCH   4   5
ATOM      5  C   UNL     1     -10.753   6.988  29.716  1.00  0.00    -0.000 C 
BRANCH   5   6
ATOM      6  C   UNL     1      -9.862   8.233  29.599  1.00  0.00    -0.000 C 
BRANCH   6   7
ATOM      7  C   UNL     1      -8.568   7.950  28.807  1.00  0.00    -0.000 C 
BRANCH   7   8
ATOM      8  C   UNL     1      -7.366   7.590  29.696  1.00  0.00    -0.000 C 
BRANCH   8   9
ATOM      9  C   UNL     1      -7.220   6.074  29.911  1.00  0.00    -0.000 C 
BRANCH   9  10
ATOM     10  C   UNL     1      -5.839   5.688  30.464  1.00  0.00    -0.000 C 
BRANCH  10  11
ATOM     11  C   UNL     1      -5.922   4.678  31.618  1.00  0.00    -0.003 C 
ATOM     12  C   UNL     1      -5.829   5.381  32.970  1.00  0.00     0.004 C 
ENDBRANCH  10  11
ENDBRANCH   9  10
ENDBRANCH   8   9
ENDBRANCH   7   8
ENDBRANCH   6   7
ENDBRANCH   5   6
ENDBRANCH   4   5
ENDBRANCH   3   4
ENDBRANCH   2   3
ENDBRANCH   1   2
BRANCH   1  13
ATOM     13  C   UNL     1     -15.801   7.422  30.130  1.00  0.00     0.000 C 
BRANCH  13  14
ATOM     14  C   UNL     1     -16.340   6.131  30.772  1.00  0.00     0.000 C 
BRANCH  14  15
ATOM     15  C   UNL     1     -16.254   4.916  29.838  1.00  0.00     0.000 C 
BRANCH  15  16
ATOM     16  C   UNL     1     -15.528   3.749  30.522  1.00  0.00     0.000 C 
BRANCH  16  17
ATOM     17  C   UNL     1     -14.554   4.208  31.623  1.00  0.00     0.000 C 
BRANCH  17  18
ATOM     18  C   UNL     1     -13.096   4.392  31.161  1.00  0.00     0.000 C 
BRANCH  18  19
ATOM     19  C   UNL     1     -12.795   3.675  29.833  1.00  0.00     0.000 C 
BRANCH  19  20
ATOM     20  C   UNL     1     -11.441   2.948  29.846  1.00  0.00     0.006 C 
BRANCH  20  21
ATOM     21  C   UNL     1     -11.013   2.524  31.256  1.00  0.00     0.053 C 
BRANCH  21  22
ATOM     22  C   UNL     1      -9.653   3.063  31.574  1.00  0.00     0.041 C 
ATOM     23  O   UNL     1      -9.511   4.273  31.892  1.00  0.00    -0.550 OA
ATOM     24  O   UNL     1      -8.538   2.243  31.467  1.00  0.00    -0.550 OA
ENDBRANCH  21  22
ENDBRANCH  20  21
ENDBRANCH  19  20
ENDBRANCH  18  19
ENDBRANCH  17  18
ENDBRANCH  16  17
ENDBRANCH  15  16
ENDBRANCH  14  15
ENDBRANCH  13  14
ENDBRANCH   1  13
TORSDOF 20
ENDMDL
