MODEL 1
REMARK VINA RESULT:    -8.557      0.000      0.000
REMARK INTER + INTRA:         -15.917
REMARK INTER:                 -14.060
REMARK INTRA:                  -1.857
REMARK UNBOUND:                -1.857
REMARK SMILES C[C@@H]1O[C@@H](OC[C@@H]2O[C@H](Oc3c(-c4ccc(O)c(O)c4)oc4cc(O)cc(O)c4c3=O)[C@H](O)[C@@H](O)[C@@H]2O)[C@@H](O)[C@@H](O)[C@@H]1O
REMARK SMILES IDX 7 1 36 2 34 3 32 4 9 5 8 6 6 7 5 8 4 9 1 10 2 11 42 12 3 13
REMARK SMILES IDX 40 14 38 15 43 16 41 18 39 20 37 22 35 24 10 26 11 27 12 28
REMARK SMILES IDX 30 29 21 30 29 31 31 32 22 33 27 34 23 35 26 36 24 37 13 38
REMARK SMILES IDX 20 39 14 40 18 41 15 42 16 43 19 44 17 46 28 48 25 50 33 52
REMARK H PARENT 43 17 41 19 39 21 37 23 35 25 19 45 17 47 28 49 25 51 33 53
REMARK Flexibility Score: inf
ROOT
ATOM      1  C   UNL     1      22.835 -22.753  24.850  1.00  0.00     0.180 C 
ATOM      2  C   UNL     1      23.433 -23.678  23.755  1.00  0.00     0.177 C 
ATOM      3  C   UNL     1      24.252 -24.821  24.372  1.00  0.00     0.180 C 
ATOM      4  C   UNL     1      23.397 -25.533  25.422  1.00  0.00     0.214 C 
ATOM      5  C   UNL     1      22.895 -24.519  26.463  1.00  0.00     0.339 C 
ATOM      6  O   UNL     1      22.142 -23.469  25.867  1.00  0.00    -0.332 OA
ENDROOT
BRANCH   1   7
ATOM      7  C   UNL     1      23.825 -21.729  25.442  1.00  0.00     0.198 C 
BRANCH   7   8
ATOM      8  O   UNL     1      23.111 -20.724  26.130  1.00  0.00    -0.347 OA
BRANCH   8   9
ATOM      9  C   UNL     1      23.970 -19.665  26.540  1.00  0.00     0.281 C 
ATOM     10  C   UNL     1      25.193 -21.166  29.680  1.00  0.00     0.041 C 
ATOM     11  C   UNL     1      24.181 -20.555  28.708  1.00  0.00     0.150 C 
ATOM     12  C   UNL     1      23.408 -19.385  29.370  1.00  0.00     0.174 C 
ATOM     13  O   UNL     1      24.867 -20.122  27.543  1.00  0.00    -0.344 OA
ATOM     14  C   UNL     1      22.430 -18.759  28.361  1.00  0.00     0.179 C 
ATOM     15  C   UNL     1      23.147 -18.452  27.032  1.00  0.00     0.202 C 
BRANCH  12  16
ATOM     16  O   UNL     1      24.267 -18.405  29.902  1.00  0.00    -0.388 OA
ATOM     17  H   UNL     1      24.549 -17.803  29.165  1.00  0.00     0.211 HD
ENDBRANCH  12  16
BRANCH  14  18
ATOM     18  O   UNL     1      21.359 -19.644  28.149  1.00  0.00    -0.387 OA
ATOM     19  H   UNL     1      20.731 -19.526  28.908  1.00  0.00     0.211 HD
ENDBRANCH  14  18
BRANCH  15  20
ATOM     20  O   UNL     1      22.206 -18.067  26.064  1.00  0.00    -0.385 OA
ATOM     21  H   UNL     1      22.126 -17.078  26.119  1.00  0.00     0.211 HD
ENDBRANCH  15  20
ENDBRANCH   8   9
ENDBRANCH   7   8
ENDBRANCH   1   7
BRANCH   2  22
ATOM     22  O   UNL     1      24.226 -22.931  22.868  1.00  0.00    -0.387 OA
ATOM     23  H   UNL     1      25.158 -22.968  23.209  1.00  0.00     0.211 HD
ENDBRANCH   2  22
BRANCH   3  24
ATOM     24  O   UNL     1      24.620 -25.728  23.362  1.00  0.00    -0.387 OA
ATOM     25  H   UNL     1      23.782 -26.028  22.926  1.00  0.00     0.211 HD
ENDBRANCH   3  24
BRANCH   5  26
ATOM     26  O   UNL     1      23.998 -24.023  27.225  1.00  0.00    -0.454 OA
BRANCH  26  27
ATOM     27  C   UNL     1      24.594 -24.658  28.329  1.00  0.00     0.214 A 
ATOM     28  C   UNL     1      25.989 -24.864  28.318  1.00  0.00     0.180 A 
ATOM     29  C   UNL     1      23.857 -25.111  29.441  1.00  0.00     0.239 A 
ATOM     30  O   UNL     1      26.575 -25.511  29.319  1.00  0.00    -0.452 OA
ATOM     31  C   UNL     1      24.520 -25.779  30.493  1.00  0.00     0.111 A 
ATOM     32  O   UNL     1      22.617 -24.903  29.502  1.00  0.00    -0.285 OA
ATOM     33  C   UNL     1      25.917 -25.966  30.379  1.00  0.00     0.146 A 
ATOM     34  C   UNL     1      23.854 -26.265  31.644  1.00  0.00     0.134 A 
ATOM     35  C   UNL     1      26.625 -26.629  31.385  1.00  0.00     0.094 A 
ATOM     36  C   UNL     1      24.583 -26.924  32.646  1.00  0.00     0.093 A 
ATOM     37  C   UNL     1      25.961 -27.110  32.518  1.00  0.00     0.123 A 
BRANCH  28  38
ATOM     38  C   UNL     1      26.834 -24.418  27.186  1.00  0.00     0.025 A 
ATOM     39  C   UNL     1      27.705 -25.303  26.529  1.00  0.00     0.062 A 
ATOM     40  C   UNL     1      26.744 -23.089  26.741  1.00  0.00     0.016 A 
ATOM     41  C   UNL     1      28.506 -24.859  25.468  1.00  0.00     0.158 A 
ATOM     42  C   UNL     1      27.538 -22.645  25.681  1.00  0.00     0.051 A 
ATOM     43  C   UNL     1      28.423 -23.521  25.044  1.00  0.00     0.157 A 
BRANCH  41  44
ATOM     44  O   UNL     1      29.382 -25.738  24.834  1.00  0.00    -0.504 OA
ATOM     45  H   UNL     1      30.119 -26.213  25.341  1.00  0.00     0.293 HD
ENDBRANCH  41  44
BRANCH  43  46
ATOM     46  O   UNL     1      29.206 -23.047  23.993  1.00  0.00    -0.504 OA
ATOM     47  H   UNL     1      30.205 -22.898  24.088  1.00  0.00     0.293 HD
ENDBRANCH  43  46
ENDBRANCH  28  38
BRANCH  34  48
ATOM     48  O   UNL     1      22.477 -26.096  31.804  1.00  0.00    -0.507 OA
ATOM     49  H   UNL     1      22.076 -25.207  32.077  1.00  0.00     0.293 HD
ENDBRANCH  34  48
BRANCH  37  50
ATOM     50  O   UNL     1      26.662 -27.774  33.522  1.00  0.00    -0.508 OA
ATOM     51  H   UNL     1      26.726 -28.785  33.544  1.00  0.00     0.293 HD
ENDBRANCH  37  50
ENDBRANCH  26  27
ENDBRANCH   5  26
BRANCH   4  52
ATOM     52  O   UNL     1      24.158 -26.530  26.053  1.00  0.00    -0.384 OA
ATOM     53  H   UNL     1      25.104 -26.368  25.802  1.00  0.00     0.211 HD
ENDBRANCH   4  52
TORSDOF 16
ENDMDL
MODEL 2
REMARK VINA RESULT:    -8.507      2.135      6.413
REMARK INTER + INTRA:         -15.835
REMARK INTER:                 -13.003
REMARK INTRA:                  -2.832
REMARK UNBOUND:                -1.857
REMARK SMILES C[C@@H]1O[C@@H](OC[C@@H]2O[C@H](Oc3c(-c4ccc(O)c(O)c4)oc4cc(O)cc(O)c4c3=O)[C@H](O)[C@@H](O)[C@@H]2O)[C@@H](O)[C@@H](O)[C@@H]1O
REMARK SMILES IDX 7 1 36 2 34 3 32 4 9 5 8 6 6 7 5 8 4 9 1 10 2 11 42 12 3 13
REMARK SMILES IDX 40 14 38 15 43 16 41 18 39 20 37 22 35 24 10 26 11 27 12 28
REMARK SMILES IDX 30 29 21 30 29 31 31 32 22 33 27 34 23 35 26 36 24 37 13 38
REMARK SMILES IDX 20 39 14 40 18 41 15 42 16 43 19 44 17 46 28 48 25 50 33 52
REMARK H PARENT 43 17 41 19 39 21 37 23 35 25 19 45 17 47 28 49 25 51 33 53
REMARK Flexibility Score: inf
ROOT
ATOM      1  C   UNL     1      24.312 -19.887  25.890  1.00  0.00     0.180 C 
ATOM      2  C   UNL     1      23.698 -18.622  26.549  1.00  0.00     0.177 C 
ATOM      3  C   UNL     1      23.770 -18.698  28.082  1.00  0.00     0.180 C 
ATOM      4  C   UNL     1      25.210 -19.009  28.496  1.00  0.00     0.214 C 
ATOM      5  C   UNL     1      25.687 -20.296  27.804  1.00  0.00     0.339 C 
ATOM      6  O   UNL     1      25.609 -20.202  26.386  1.00  0.00    -0.332 OA
ENDROOT
BRANCH   1   7
ATOM      7  C   UNL     1      23.387 -21.121  25.875  1.00  0.00     0.198 C 
BRANCH   7   8
ATOM      8  O   UNL     1      24.085 -22.229  25.346  1.00  0.00    -0.347 OA
BRANCH   8   9
ATOM      9  C   UNL     1      23.200 -23.139  24.701  1.00  0.00     0.281 C 
ATOM     10  C   UNL     1      23.153 -25.758  27.298  1.00  0.00     0.041 C 
ATOM     11  C   UNL     1      23.742 -24.870  26.199  1.00  0.00     0.150 C 
ATOM     12  C   UNL     1      24.452 -25.720  25.115  1.00  0.00     0.174 C 
ATOM     13  O   UNL     1      22.702 -24.085  25.636  1.00  0.00    -0.344 OA
ATOM     14  C   UNL     1      24.997 -24.810  24.001  1.00  0.00     0.179 C 
ATOM     15  C   UNL     1      23.904 -23.838  23.515  1.00  0.00     0.202 C 
BRANCH  12  16
ATOM     16  O   UNL     1      23.614 -26.716  24.577  1.00  0.00    -0.388 OA
ATOM     17  H   UNL     1      23.655 -26.658  23.588  1.00  0.00     0.211 HD
ENDBRANCH  12  16
BRANCH  14  18
ATOM     18  O   UNL     1      26.105 -24.099  24.489  1.00  0.00    -0.387 OA
ATOM     19  H   UNL     1      25.913 -23.134  24.354  1.00  0.00     0.211 HD
ENDBRANCH  14  18
BRANCH  15  20
ATOM     20  O   UNL     1      24.465 -22.891  22.644  1.00  0.00    -0.385 OA
ATOM     21  H   UNL     1      24.591 -22.057  23.171  1.00  0.00     0.211 HD
ENDBRANCH  15  20
ENDBRANCH   8   9
ENDBRANCH   7   8
ENDBRANCH   1   7
BRANCH   2  22
ATOM     22  O   UNL     1      22.369 -18.452  26.129  1.00  0.00    -0.387 OA
ATOM     23  H   UNL     1      22.325 -18.738  25.180  1.00  0.00     0.211 HD
ENDBRANCH   2  22
BRANCH   3  24
ATOM     24  O   UNL     1      23.373 -17.464  28.627  1.00  0.00    -0.387 OA
ATOM     25  H   UNL     1      22.436 -17.312  28.344  1.00  0.00     0.211 HD
ENDBRANCH   3  24
BRANCH   5  26
ATOM     26  O   UNL     1      24.955 -21.415  28.309  1.00  0.00    -0.454 OA
BRANCH  26  27
ATOM     27  C   UNL     1      25.471 -22.701  28.550  1.00  0.00     0.214 A 
ATOM     28  C   UNL     1      24.965 -23.439  29.640  1.00  0.00     0.180 A 
ATOM     29  C   UNL     1      26.482 -23.281  27.758  1.00  0.00     0.239 A 
ATOM     30  O   UNL     1      25.470 -24.633  29.929  1.00  0.00    -0.452 OA
ATOM     31  C   UNL     1      26.980 -24.560  28.088  1.00  0.00     0.111 A 
ATOM     32  O   UNL     1      26.923 -22.667  26.751  1.00  0.00    -0.285 OA
ATOM     33  C   UNL     1      26.431 -25.210  29.218  1.00  0.00     0.146 A 
ATOM     34  C   UNL     1      27.993 -25.213  27.345  1.00  0.00     0.134 A 
ATOM     35  C   UNL     1      26.892 -26.474  29.598  1.00  0.00     0.094 A 
ATOM     36  C   UNL     1      28.439 -26.483  27.740  1.00  0.00     0.093 A 
ATOM     37  C   UNL     1      27.895 -27.112  28.862  1.00  0.00     0.123 A 
BRANCH  28  38
ATOM     38  C   UNL     1      23.903 -22.899  30.520  1.00  0.00     0.025 A 
ATOM     39  C   UNL     1      24.211 -22.112  31.642  1.00  0.00     0.062 A 
ATOM     40  C   UNL     1      22.557 -23.156  30.214  1.00  0.00     0.016 A 
ATOM     41  C   UNL     1      23.193 -21.621  32.471  1.00  0.00     0.158 A 
ATOM     42  C   UNL     1      21.539 -22.664  31.034  1.00  0.00     0.051 A 
ATOM     43  C   UNL     1      21.849 -21.902  32.165  1.00  0.00     0.157 A 
BRANCH  41  44
ATOM     44  O   UNL     1      23.508 -20.857  33.593  1.00  0.00    -0.504 OA
ATOM     45  H   UNL     1      24.217 -21.150  34.255  1.00  0.00     0.293 HD
ENDBRANCH  41  44
BRANCH  43  46
ATOM     46  O   UNL     1      20.812 -21.430  32.969  1.00  0.00    -0.504 OA
ATOM     47  H   UNL     1      20.649 -20.440  33.113  1.00  0.00     0.293 HD
ENDBRANCH  43  46
ENDBRANCH  28  38
BRANCH  34  48
ATOM     48  O   UNL     1      28.559 -24.613  26.217  1.00  0.00    -0.507 OA
ATOM     49  H   UNL     1      27.999 -24.353  25.414  1.00  0.00     0.293 HD
ENDBRANCH  34  48
BRANCH  37  50
ATOM     50  O   UNL     1      28.361 -28.370  29.239  1.00  0.00    -0.508 OA
ATOM     51  H   UNL     1      28.124 -28.776  30.136  1.00  0.00     0.293 HD
ENDBRANCH  37  50
ENDBRANCH  26  27
ENDBRANCH   5  26
BRANCH   4  52
ATOM     52  O   UNL     1      25.278 -19.161  29.890  1.00  0.00    -0.384 OA
ATOM     53  H   UNL     1      26.135 -19.622  30.085  1.00  0.00     0.211 HD
ENDBRANCH   4  52
TORSDOF 16
ENDMDL
MODEL 3
REMARK VINA RESULT:    -8.465      2.576      4.402
REMARK INTER + INTRA:         -15.765
REMARK INTER:                 -13.904
REMARK INTRA:                  -1.861
REMARK UNBOUND:                -1.857
REMARK SMILES C[C@@H]1O[C@@H](OC[C@@H]2O[C@H](Oc3c(-c4ccc(O)c(O)c4)oc4cc(O)cc(O)c4c3=O)[C@H](O)[C@@H](O)[C@@H]2O)[C@@H](O)[C@@H](O)[C@@H]1O
REMARK SMILES IDX 7 1 36 2 34 3 32 4 9 5 8 6 6 7 5 8 4 9 1 10 2 11 42 12 3 13
REMARK SMILES IDX 40 14 38 15 43 16 41 18 39 20 37 22 35 24 10 26 11 27 12 28
REMARK SMILES IDX 30 29 21 30 29 31 31 32 22 33 27 34 23 35 26 36 24 37 13 38
REMARK SMILES IDX 20 39 14 40 18 41 15 42 16 43 19 44 17 46 28 48 25 50 33 52
REMARK H PARENT 43 17 41 19 39 21 37 23 35 25 19 45 17 47 28 49 25 51 33 53
REMARK Flexibility Score: inf
ROOT
ATOM      1  C   UNL     1      23.691 -20.722  29.831  1.00  0.00     0.180 C 
ATOM      2  C   UNL     1      22.856 -20.230  28.619  1.00  0.00     0.177 C 
ATOM      3  C   UNL     1      22.871 -21.254  27.474  1.00  0.00     0.180 C 
ATOM      4  C   UNL     1      22.463 -22.621  28.027  1.00  0.00     0.214 C 
ATOM      5  C   UNL     1      23.382 -23.008  29.197  1.00  0.00     0.339 C 
ATOM      6  O   UNL     1      23.353 -22.043  30.242  1.00  0.00    -0.332 OA
ENDROOT
BRANCH   1   7
ATOM      7  C   UNL     1      25.215 -20.540  29.683  1.00  0.00     0.198 C 
BRANCH   7   8
ATOM      8  O   UNL     1      25.733 -19.920  30.842  1.00  0.00    -0.347 OA
BRANCH   8   9
ATOM      9  C   UNL     1      25.018 -18.730  31.156  1.00  0.00     0.281 C 
ATOM     10  C   UNL     1      27.185 -16.329  29.383  1.00  0.00     0.041 C 
ATOM     11  C   UNL     1      26.796 -17.365  30.440  1.00  0.00     0.150 C 
ATOM     12  C   UNL     1      27.105 -16.848  31.868  1.00  0.00     0.174 C 
ATOM     13  O   UNL     1      25.418 -17.675  30.294  1.00  0.00    -0.344 OA
ATOM     14  C   UNL     1      26.664 -17.887  32.914  1.00  0.00     0.179 C 
ATOM     15  C   UNL     1      25.220 -18.348  32.642  1.00  0.00     0.202 C 
BRANCH  12  16
ATOM     16  O   UNL     1      26.510 -15.598  32.129  1.00  0.00    -0.388 OA
ATOM     17  H   UNL     1      25.533 -15.733  32.236  1.00  0.00     0.211 HD
ENDBRANCH  12  16
BRANCH  14  18
ATOM     18  O   UNL     1      27.546 -18.980  32.876  1.00  0.00    -0.387 OA
ATOM     19  H   UNL     1      27.276 -19.595  33.606  1.00  0.00     0.211 HD
ENDBRANCH  14  18
BRANCH  15  20
ATOM     20  O   UNL     1      24.903 -19.431  33.478  1.00  0.00    -0.385 OA
ATOM     21  H   UNL     1      25.315 -19.240  34.362  1.00  0.00     0.211 HD
ENDBRANCH  15  20
ENDBRANCH   8   9
ENDBRANCH   7   8
ENDBRANCH   1   7
BRANCH   2  22
ATOM     22  O   UNL     1      23.336 -18.988  28.170  1.00  0.00    -0.387 OA
ATOM     23  H   UNL     1      22.785 -18.729  27.386  1.00  0.00     0.211 HD
ENDBRANCH   2  22
BRANCH   3  24
ATOM     24  O   UNL     1      21.962 -20.851  26.478  1.00  0.00    -0.387 OA
ATOM     25  H   UNL     1      21.215 -21.503  26.490  1.00  0.00     0.211 HD
ENDBRANCH   3  24
BRANCH   5  26
ATOM     26  O   UNL     1      24.708 -23.236  28.713  1.00  0.00    -0.454 OA
BRANCH  26  27
ATOM     27  C   UNL     1      25.449 -24.422  28.858  1.00  0.00     0.214 A 
ATOM     28  C   UNL     1      25.907 -25.079  27.698  1.00  0.00     0.180 A 
ATOM     29  C   UNL     1      25.742 -24.993  30.112  1.00  0.00     0.239 A 
ATOM     30  O   UNL     1      26.561 -26.231  27.797  1.00  0.00    -0.452 OA
ATOM     31  C   UNL     1      26.455 -26.210  30.176  1.00  0.00     0.111 A 
ATOM     32  O   UNL     1      25.386 -24.409  31.169  1.00  0.00    -0.285 OA
ATOM     33  C   UNL     1      26.847 -26.809  28.957  1.00  0.00     0.146 A 
ATOM     34  C   UNL     1      26.790 -26.849  31.394  1.00  0.00     0.134 A 
ATOM     35  C   UNL     1      27.547 -28.019  28.958  1.00  0.00     0.094 A 
ATOM     36  C   UNL     1      27.497 -28.061  31.375  1.00  0.00     0.093 A 
ATOM     37  C   UNL     1      27.872 -28.647  30.164  1.00  0.00     0.123 A 
BRANCH  28  38
ATOM     38  C   UNL     1      25.639 -24.543  26.342  1.00  0.00     0.025 A 
ATOM     39  C   UNL     1      26.024 -23.242  25.980  1.00  0.00     0.062 A 
ATOM     40  C   UNL     1      25.013 -25.362  25.389  1.00  0.00     0.016 A 
ATOM     41  C   UNL     1      25.750 -22.749  24.696  1.00  0.00     0.158 A 
ATOM     42  C   UNL     1      24.743 -24.876  24.108  1.00  0.00     0.051 A 
ATOM     43  C   UNL     1      25.103 -23.571  23.757  1.00  0.00     0.157 A 
BRANCH  41  44
ATOM     44  O   UNL     1      26.117 -21.449  24.351  1.00  0.00    -0.504 OA
ATOM     45  H   UNL     1      25.426 -20.733  24.162  1.00  0.00     0.293 HD
ENDBRANCH  41  44
BRANCH  43  46
ATOM     46  O   UNL     1      24.816 -23.111  22.472  1.00  0.00    -0.504 OA
ATOM     47  H   UNL     1      24.633 -23.744  21.701  1.00  0.00     0.293 HD
ENDBRANCH  43  46
ENDBRANCH  28  38
BRANCH  34  48
ATOM     48  O   UNL     1      26.431 -26.290  32.623  1.00  0.00    -0.507 OA
ATOM     49  H   UNL     1      26.041 -25.358  32.691  1.00  0.00     0.293 HD
ENDBRANCH  34  48
BRANCH  37  50
ATOM     50  O   UNL     1      28.566 -29.856  30.171  1.00  0.00    -0.508 OA
ATOM     51  H   UNL     1      28.571 -30.469  29.364  1.00  0.00     0.293 HD
ENDBRANCH  37  50
ENDBRANCH  26  27
ENDBRANCH   5  26
BRANCH   4  52
ATOM     52  O   UNL     1      22.548 -23.585  27.011  1.00  0.00    -0.384 OA
ATOM     53  H   UNL     1      21.616 -23.816  26.758  1.00  0.00     0.211 HD
ENDBRANCH   4  52
TORSDOF 16
ENDMDL
MODEL 4
REMARK VINA RESULT:    -8.461      2.215      4.529
REMARK INTER + INTRA:         -15.758
REMARK INTER:                 -12.970
REMARK INTRA:                  -2.789
REMARK UNBOUND:                -1.857
REMARK SMILES C[C@@H]1O[C@@H](OC[C@@H]2O[C@H](Oc3c(-c4ccc(O)c(O)c4)oc4cc(O)cc(O)c4c3=O)[C@H](O)[C@@H](O)[C@@H]2O)[C@@H](O)[C@@H](O)[C@@H]1O
REMARK SMILES IDX 7 1 36 2 34 3 32 4 9 5 8 6 6 7 5 8 4 9 1 10 2 11 42 12 3 13
REMARK SMILES IDX 40 14 38 15 43 16 41 18 39 20 37 22 35 24 10 26 11 27 12 28
REMARK SMILES IDX 30 29 21 30 29 31 31 32 22 33 27 34 23 35 26 36 24 37 13 38
REMARK SMILES IDX 20 39 14 40 18 41 15 42 16 43 19 44 17 46 28 48 25 50 33 52
REMARK H PARENT 43 17 41 19 39 21 37 23 35 25 19 45 17 47 28 49 25 51 33 53
REMARK Flexibility Score: inf
ROOT
ATOM      1  C   UNL     1      22.908 -23.085  27.007  1.00  0.00     0.180 C 
ATOM      2  C   UNL     1      23.383 -23.461  25.577  1.00  0.00     0.177 C 
ATOM      3  C   UNL     1      24.333 -24.667  25.600  1.00  0.00     0.180 C 
ATOM      4  C   UNL     1      23.672 -25.804  26.382  1.00  0.00     0.214 C 
ATOM      5  C   UNL     1      23.280 -25.316  27.786  1.00  0.00     0.339 C 
ATOM      6  O   UNL     1      22.402 -24.197  27.738  1.00  0.00    -0.332 OA
ENDROOT
BRANCH   1   7
ATOM      7  C   UNL     1      23.926 -22.272  27.833  1.00  0.00     0.198 C 
BRANCH   7   8
ATOM      8  O   UNL     1      23.278 -21.167  28.429  1.00  0.00    -0.347 OA
BRANCH   8   9
ATOM      9  C   UNL     1      23.569 -19.959  27.734  1.00  0.00     0.281 C 
ATOM     10  C   UNL     1      24.563 -17.910  30.635  1.00  0.00     0.041 C 
ATOM     11  C   UNL     1      23.628 -18.719  29.732  1.00  0.00     0.150 C 
ATOM     12  C   UNL     1      22.351 -17.912  29.386  1.00  0.00     0.174 C 
ATOM     13  O   UNL     1      24.334 -19.091  28.558  1.00  0.00    -0.344 OA
ATOM     14  C   UNL     1      21.450 -18.727  28.443  1.00  0.00     0.179 C 
ATOM     15  C   UNL     1      22.266 -19.276  27.257  1.00  0.00     0.202 C 
BRANCH  12  16
ATOM     16  O   UNL     1      22.645 -16.653  28.827  1.00  0.00    -0.388 OA
ATOM     17  H   UNL     1      21.920 -16.023  29.077  1.00  0.00     0.211 HD
ENDBRANCH  12  16
BRANCH  14  18
ATOM     18  O   UNL     1      20.862 -19.779  29.164  1.00  0.00    -0.387 OA
ATOM     19  H   UNL     1      20.111 -20.124  28.614  1.00  0.00     0.211 HD
ENDBRANCH  14  18
BRANCH  15  20
ATOM     20  O   UNL     1      21.480 -20.174  26.516  1.00  0.00    -0.385 OA
ATOM     21  H   UNL     1      20.881 -19.625  25.943  1.00  0.00     0.211 HD
ENDBRANCH  15  20
ENDBRANCH   8   9
ENDBRANCH   7   8
ENDBRANCH   1   7
BRANCH   2  22
ATOM     22  O   UNL     1      24.005 -22.359  24.967  1.00  0.00    -0.387 OA
ATOM     23  H   UNL     1      23.797 -22.408  23.997  1.00  0.00     0.211 HD
ENDBRANCH   2  22
BRANCH   3  24
ATOM     24  O   UNL     1      24.591 -25.081  24.281  1.00  0.00    -0.387 OA
ATOM     25  H   UNL     1      23.826 -24.777  23.729  1.00  0.00     0.211 HD
ENDBRANCH   3  24
BRANCH   5  26
ATOM     26  O   UNL     1      24.459 -25.042  28.547  1.00  0.00    -0.454 OA
BRANCH  26  27
ATOM     27  C   UNL     1      24.945 -25.806  29.623  1.00  0.00     0.214 A 
ATOM     28  C   UNL     1      24.298 -25.704  30.871  1.00  0.00     0.180 A 
ATOM     29  C   UNL     1      26.061 -26.659  29.513  1.00  0.00     0.239 A 
ATOM     30  O   UNL     1      24.766 -26.368  31.922  1.00  0.00    -0.452 OA
ATOM     31  C   UNL     1      26.518 -27.361  30.650  1.00  0.00     0.111 A 
ATOM     32  O   UNL     1      26.635 -26.807  28.402  1.00  0.00    -0.285 OA
ATOM     33  C   UNL     1      25.822 -27.171  31.866  1.00  0.00     0.146 A 
ATOM     34  C   UNL     1      27.630 -28.237  30.624  1.00  0.00     0.134 A 
ATOM     35  C   UNL     1      26.234 -27.833  33.026  1.00  0.00     0.094 A 
ATOM     36  C   UNL     1      28.026 -28.896  31.798  1.00  0.00     0.093 A 
ATOM     37  C   UNL     1      27.335 -28.694  32.995  1.00  0.00     0.123 A 
BRANCH  28  38
ATOM     38  C   UNL     1      23.119 -24.829  31.068  1.00  0.00     0.025 A 
ATOM     39  C   UNL     1      23.246 -23.431  31.131  1.00  0.00     0.062 A 
ATOM     40  C   UNL     1      21.842 -25.404  31.169  1.00  0.00     0.016 A 
ATOM     41  C   UNL     1      22.120 -22.621  31.331  1.00  0.00     0.158 A 
ATOM     42  C   UNL     1      20.718 -24.599  31.363  1.00  0.00     0.051 A 
ATOM     43  C   UNL     1      20.850 -23.210  31.450  1.00  0.00     0.157 A 
BRANCH  41  44
ATOM     44  O   UNL     1      22.258 -21.236  31.411  1.00  0.00    -0.504 OA
ATOM     45  H   UNL     1      22.458 -20.771  32.288  1.00  0.00     0.293 HD
ENDBRANCH  41  44
BRANCH  43  46
ATOM     46  O   UNL     1      19.709 -22.432  31.651  1.00  0.00    -0.504 OA
ATOM     47  H   UNL     1      19.576 -21.541  31.187  1.00  0.00     0.293 HD
ENDBRANCH  43  46
ENDBRANCH  28  38
BRANCH  34  48
ATOM     48  O   UNL     1      28.343 -28.461  29.444  1.00  0.00    -0.507 OA
ATOM     49  H   UNL     1      28.476 -29.393  29.070  1.00  0.00     0.293 HD
ENDBRANCH  34  48
BRANCH  37  50
ATOM     50  O   UNL     1      27.753 -29.354  34.150  1.00  0.00    -0.508 OA
ATOM     51  H   UNL     1      28.726 -29.361  34.433  1.00  0.00     0.293 HD
ENDBRANCH  37  50
ENDBRANCH  26  27
ENDBRANCH   5  26
BRANCH   4  52
ATOM     52  O   UNL     1      24.560 -26.887  26.481  1.00  0.00    -0.384 OA
ATOM     53  H   UNL     1      24.258 -27.433  27.253  1.00  0.00     0.211 HD
ENDBRANCH   4  52
TORSDOF 16
ENDMDL
MODEL 5
REMARK VINA RESULT:    -8.411      1.674      7.430
REMARK INTER + INTRA:         -15.676
REMARK INTER:                 -13.634
REMARK INTRA:                  -2.043
REMARK UNBOUND:                -1.857
REMARK SMILES C[C@@H]1O[C@@H](OC[C@@H]2O[C@H](Oc3c(-c4ccc(O)c(O)c4)oc4cc(O)cc(O)c4c3=O)[C@H](O)[C@@H](O)[C@@H]2O)[C@@H](O)[C@@H](O)[C@@H]1O
REMARK SMILES IDX 7 1 36 2 34 3 32 4 9 5 8 6 6 7 5 8 4 9 1 10 2 11 42 12 3 13
REMARK SMILES IDX 40 14 38 15 43 16 41 18 39 20 37 22 35 24 10 26 11 27 12 28
REMARK SMILES IDX 30 29 21 30 29 31 31 32 22 33 27 34 23 35 26 36 24 37 13 38
REMARK SMILES IDX 20 39 14 40 18 41 15 42 16 43 19 44 17 46 28 48 25 50 33 52
REMARK H PARENT 43 17 41 19 39 21 37 23 35 25 19 45 17 47 28 49 25 51 33 53
REMARK Flexibility Score: inf
ROOT
ATOM      1  C   UNL     1      27.795 -25.109  29.007  1.00  0.00     0.180 C 
ATOM      2  C   UNL     1      28.472 -25.928  27.875  1.00  0.00     0.177 C 
ATOM      3  C   UNL     1      28.106 -25.377  26.488  1.00  0.00     0.180 C 
ATOM      4  C   UNL     1      28.395 -23.874  26.461  1.00  0.00     0.214 C 
ATOM      5  C   UNL     1      27.644 -23.176  27.606  1.00  0.00     0.339 C 
ATOM      6  O   UNL     1      27.997 -23.706  28.879  1.00  0.00    -0.332 OA
ENDROOT
BRANCH   1   7
ATOM      7  C   UNL     1      26.313 -25.455  29.257  1.00  0.00     0.198 C 
BRANCH   7   8
ATOM      8  O   UNL     1      26.211 -26.347  30.347  1.00  0.00    -0.347 OA
BRANCH   8   9
ATOM      9  C   UNL     1      25.065 -27.183  30.227  1.00  0.00     0.281 C 
ATOM     10  C   UNL     1      23.263 -26.042  33.235  1.00  0.00     0.041 C 
ATOM     11  C   UNL     1      24.377 -26.709  32.426  1.00  0.00     0.150 C 
ATOM     12  C   UNL     1      24.642 -28.152  32.926  1.00  0.00     0.174 C 
ATOM     13  O   UNL     1      24.016 -26.700  31.053  1.00  0.00    -0.344 OA
ATOM     14  C   UNL     1      25.734 -28.817  32.070  1.00  0.00     0.179 C 
ATOM     15  C   UNL     1      25.421 -28.649  30.570  1.00  0.00     0.202 C 
BRANCH  12  16
ATOM     16  O   UNL     1      23.474 -28.940  32.940  1.00  0.00    -0.388 OA
ATOM     17  H   UNL     1      23.742 -29.894  32.979  1.00  0.00     0.211 HD
ENDBRANCH  12  16
BRANCH  14  18
ATOM     18  O   UNL     1      26.976 -28.241  32.381  1.00  0.00    -0.387 OA
ATOM     19  H   UNL     1      27.392 -28.809  33.080  1.00  0.00     0.211 HD
ENDBRANCH  14  18
BRANCH  15  20
ATOM     20  O   UNL     1      26.515 -29.085  29.806  1.00  0.00    -0.385 OA
ATOM     21  H   UNL     1      26.769 -29.981  30.154  1.00  0.00     0.211 HD
ENDBRANCH  15  20
ENDBRANCH   8   9
ENDBRANCH   7   8
ENDBRANCH   1   7
BRANCH   2  22
ATOM     22  O   UNL     1      28.113 -27.282  27.973  1.00  0.00    -0.387 OA
ATOM     23  H   UNL     1      28.954 -27.809  27.951  1.00  0.00     0.211 HD
ENDBRANCH   2  22
BRANCH   3  24
ATOM     24  O   UNL     1      28.879 -26.029  25.510  1.00  0.00    -0.387 OA
ATOM     25  H   UNL     1      28.834 -25.473  24.691  1.00  0.00     0.211 HD
ENDBRANCH   3  24
BRANCH   5  26
ATOM     26  O   UNL     1      26.235 -23.241  27.370  1.00  0.00    -0.454 OA
BRANCH  26  27
ATOM     27  C   UNL     1      25.371 -22.143  27.217  1.00  0.00     0.214 A 
ATOM     28  C   UNL     1      24.562 -22.075  26.064  1.00  0.00     0.180 A 
ATOM     29  C   UNL     1      25.286 -21.098  28.159  1.00  0.00     0.239 A 
ATOM     30  O   UNL     1      23.775 -21.023  25.862  1.00  0.00    -0.452 OA
ATOM     31  C   UNL     1      24.425 -20.006  27.915  1.00  0.00     0.111 A 
ATOM     32  O   UNL     1      25.962 -21.150  29.220  1.00  0.00    -0.285 OA
ATOM     33  C   UNL     1      23.675 -20.012  26.716  1.00  0.00     0.146 A 
ATOM     34  C   UNL     1      24.282 -18.918  28.809  1.00  0.00     0.134 A 
ATOM     35  C   UNL     1      22.814 -18.953  26.417  1.00  0.00     0.094 A 
ATOM     36  C   UNL     1      23.408 -17.866  28.494  1.00  0.00     0.093 A 
ATOM     37  C   UNL     1      22.679 -17.879  27.302  1.00  0.00     0.123 A 
BRANCH  28  38
ATOM     38  C   UNL     1      24.593 -23.132  25.027  1.00  0.00     0.025 A 
ATOM     39  C   UNL     1      24.031 -24.399  25.256  1.00  0.00     0.062 A 
ATOM     40  C   UNL     1      25.171 -22.856  23.778  1.00  0.00     0.016 A 
ATOM     41  C   UNL     1      24.082 -25.391  24.267  1.00  0.00     0.158 A 
ATOM     42  C   UNL     1      25.219 -23.840  22.788  1.00  0.00     0.051 A 
ATOM     43  C   UNL     1      24.682 -25.109  23.027  1.00  0.00     0.157 A 
BRANCH  41  44
ATOM     44  O   UNL     1      23.540 -26.652  24.509  1.00  0.00    -0.504 OA
ATOM     45  H   UNL     1      23.289 -26.953  25.443  1.00  0.00     0.293 HD
ENDBRANCH  41  44
BRANCH  43  46
ATOM     46  O   UNL     1      24.750 -26.073  22.022  1.00  0.00    -0.504 OA
ATOM     47  H   UNL     1      25.074 -27.017  22.200  1.00  0.00     0.293 HD
ENDBRANCH  43  46
ENDBRANCH  28  38
BRANCH  34  48
ATOM     48  O   UNL     1      24.996 -18.873  30.009  1.00  0.00    -0.507 OA
ATOM     49  H   UNL     1      24.768 -18.212  30.742  1.00  0.00     0.293 HD
ENDBRANCH  34  48
BRANCH  37  50
ATOM     50  O   UNL     1      21.824 -16.819  27.008  1.00  0.00    -0.508 OA
ATOM     51  H   UNL     1      21.094 -16.905  26.311  1.00  0.00     0.293 HD
ENDBRANCH  37  50
ENDBRANCH  26  27
ENDBRANCH   5  26
BRANCH   4  52
ATOM     52  O   UNL     1      27.991 -23.340  25.227  1.00  0.00    -0.384 OA
ATOM     53  H   UNL     1      27.597 -22.449  25.418  1.00  0.00     0.211 HD
ENDBRANCH   4  52
TORSDOF 16
ENDMDL
MODEL 6
REMARK VINA RESULT:    -8.396      2.207      6.445
REMARK INTER + INTRA:         -15.652
REMARK INTER:                 -12.839
REMARK INTRA:                  -2.813
REMARK UNBOUND:                -1.857
REMARK SMILES C[C@@H]1O[C@@H](OC[C@@H]2O[C@H](Oc3c(-c4ccc(O)c(O)c4)oc4cc(O)cc(O)c4c3=O)[C@H](O)[C@@H](O)[C@@H]2O)[C@@H](O)[C@@H](O)[C@@H]1O
REMARK SMILES IDX 7 1 36 2 34 3 32 4 9 5 8 6 6 7 5 8 4 9 1 10 2 11 42 12 3 13
REMARK SMILES IDX 40 14 38 15 43 16 41 18 39 20 37 22 35 24 10 26 11 27 12 28
REMARK SMILES IDX 30 29 21 30 29 31 31 32 22 33 27 34 23 35 26 36 24 37 13 38
REMARK SMILES IDX 20 39 14 40 18 41 15 42 16 43 19 44 17 46 28 48 25 50 33 52
REMARK H PARENT 43 17 41 19 39 21 37 23 35 25 19 45 17 47 28 49 25 51 33 53
REMARK Flexibility Score: inf
ROOT
ATOM      1  C   UNL     1      25.078 -20.621  30.817  1.00  0.00     0.180 C 
ATOM      2  C   UNL     1      25.381 -21.205  32.224  1.00  0.00     0.177 C 
ATOM      3  C   UNL     1      25.647 -22.716  32.159  1.00  0.00     0.180 C 
ATOM      4  C   UNL     1      26.720 -22.986  31.102  1.00  0.00     0.214 C 
ATOM      5  C   UNL     1      26.288 -22.390  29.753  1.00  0.00     0.339 C 
ATOM      6  O   UNL     1      26.045 -20.990  29.839  1.00  0.00    -0.332 OA
ENDROOT
BRANCH   1   7
ATOM      7  C   UNL     1      23.638 -20.857  30.316  1.00  0.00     0.198 C 
BRANCH   7   8
ATOM      8  O   UNL     1      23.466 -20.236  29.059  1.00  0.00    -0.347 OA
BRANCH   8   9
ATOM      9  C   UNL     1      23.575 -18.821  29.161  1.00  0.00     0.281 C 
ATOM     10  C   UNL     1      20.030 -17.978  28.591  1.00  0.00     0.041 C 
ATOM     11  C   UNL     1      21.428 -18.500  28.253  1.00  0.00     0.150 C 
ATOM     12  C   UNL     1      21.966 -17.852  26.952  1.00  0.00     0.174 C 
ATOM     13  O   UNL     1      22.291 -18.242  29.350  1.00  0.00    -0.344 OA
ATOM     14  C   UNL     1      23.389 -18.358  26.658  1.00  0.00     0.179 C 
ATOM     15  C   UNL     1      24.276 -18.236  27.913  1.00  0.00     0.202 C 
BRANCH  12  16
ATOM     16  O   UNL     1      21.941 -16.445  27.001  1.00  0.00    -0.388 OA
ATOM     17  H   UNL     1      21.869 -16.101  26.073  1.00  0.00     0.211 HD
ENDBRANCH  12  16
BRANCH  14  18
ATOM     18  O   UNL     1      23.322 -19.695  26.232  1.00  0.00    -0.387 OA
ATOM     19  H   UNL     1      22.669 -20.155  26.820  1.00  0.00     0.211 HD
ENDBRANCH  14  18
BRANCH  15  20
ATOM     20  O   UNL     1      25.504 -18.878  27.689  1.00  0.00    -0.385 OA
ATOM     21  H   UNL     1      26.028 -18.797  28.530  1.00  0.00     0.211 HD
ENDBRANCH  15  20
ENDBRANCH   8   9
ENDBRANCH   7   8
ENDBRANCH   1   7
BRANCH   2  22
ATOM     22  O   UNL     1      24.320 -20.932  33.102  1.00  0.00    -0.387 OA
ATOM     23  H   UNL     1      24.182 -19.948  33.094  1.00  0.00     0.211 HD
ENDBRANCH   2  22
BRANCH   3  24
ATOM     24  O   UNL     1      26.092 -23.164  33.416  1.00  0.00    -0.387 OA
ATOM     25  H   UNL     1      26.999 -23.540  33.283  1.00  0.00     0.211 HD
ENDBRANCH   3  24
BRANCH   5  26
ATOM     26  O   UNL     1      25.154 -23.102  29.252  1.00  0.00    -0.454 OA
BRANCH  26  27
ATOM     27  C   UNL     1      25.016 -23.633  27.959  1.00  0.00     0.214 A 
ATOM     28  C   UNL     1      24.817 -25.022  27.816  1.00  0.00     0.180 A 
ATOM     29  C   UNL     1      25.081 -22.843  26.794  1.00  0.00     0.239 A 
ATOM     30  O   UNL     1      24.739 -25.565  26.606  1.00  0.00    -0.452 OA
ATOM     31  C   UNL     1      24.977 -23.455  25.526  1.00  0.00     0.111 A 
ATOM     32  O   UNL     1      25.213 -21.594  26.888  1.00  0.00    -0.285 OA
ATOM     33  C   UNL     1      24.809 -24.859  25.485  1.00  0.00     0.146 A 
ATOM     34  C   UNL     1      25.032 -22.733  24.310  1.00  0.00     0.134 A 
ATOM     35  C   UNL     1      24.709 -25.521  24.258  1.00  0.00     0.094 A 
ATOM     36  C   UNL     1      24.926 -23.416  23.088  1.00  0.00     0.093 A 
ATOM     37  C   UNL     1      24.769 -24.803  23.059  1.00  0.00     0.123 A 
BRANCH  28  38
ATOM     38  C   UNL     1      24.738 -25.922  28.990  1.00  0.00     0.025 A 
ATOM     39  C   UNL     1      25.480 -27.113  29.053  1.00  0.00     0.062 A 
ATOM     40  C   UNL     1      23.924 -25.566  30.078  1.00  0.00     0.016 A 
ATOM     41  C   UNL     1      25.382 -27.958  30.166  1.00  0.00     0.158 A 
ATOM     42  C   UNL     1      23.827 -26.403  31.192  1.00  0.00     0.051 A 
ATOM     43  C   UNL     1      24.548 -27.601  31.240  1.00  0.00     0.157 A 
BRANCH  41  44
ATOM     44  O   UNL     1      26.107 -29.147  30.212  1.00  0.00    -0.504 OA
ATOM     45  H   UNL     1      27.011 -29.202  30.666  1.00  0.00     0.293 HD
ENDBRANCH  41  44
BRANCH  43  46
ATOM     46  O   UNL     1      24.426 -28.419  32.363  1.00  0.00    -0.504 OA
ATOM     47  H   UNL     1      24.256 -28.043  33.289  1.00  0.00     0.293 HD
ENDBRANCH  43  46
ENDBRANCH  28  38
BRANCH  34  48
ATOM     48  O   UNL     1      25.189 -21.345  24.303  1.00  0.00    -0.507 OA
ATOM     49  H   UNL     1      24.515 -20.730  24.743  1.00  0.00     0.293 HD
ENDBRANCH  34  48
BRANCH  37  50
ATOM     50  O   UNL     1      24.674 -25.459  21.833  1.00  0.00    -0.508 OA
ATOM     51  H   UNL     1      25.223 -25.169  21.033  1.00  0.00     0.293 HD
ENDBRANCH  37  50
ENDBRANCH  26  27
ENDBRANCH   5  26
BRANCH   4  52
ATOM     52  O   UNL     1      26.918 -24.369  30.973  1.00  0.00    -0.384 OA
ATOM     53  H   UNL     1      26.022 -24.792  31.030  1.00  0.00     0.211 HD
ENDBRANCH   4  52
TORSDOF 16
ENDMDL
MODEL 7
REMARK VINA RESULT:    -8.391      1.613      1.877
REMARK INTER + INTRA:         -15.643
REMARK INTER:                 -14.094
REMARK INTRA:                  -1.549
REMARK UNBOUND:                -1.857
REMARK SMILES C[C@@H]1O[C@@H](OC[C@@H]2O[C@H](Oc3c(-c4ccc(O)c(O)c4)oc4cc(O)cc(O)c4c3=O)[C@H](O)[C@@H](O)[C@@H]2O)[C@@H](O)[C@@H](O)[C@@H]1O
REMARK SMILES IDX 7 1 36 2 34 3 32 4 9 5 8 6 6 7 5 8 4 9 1 10 2 11 42 12 3 13
REMARK SMILES IDX 40 14 38 15 43 16 41 18 39 20 37 22 35 24 10 26 11 27 12 28
REMARK SMILES IDX 30 29 21 30 29 31 31 32 22 33 27 34 23 35 26 36 24 37 13 38
REMARK SMILES IDX 20 39 14 40 18 41 15 42 16 43 19 44 17 46 28 48 25 50 33 52
REMARK H PARENT 43 17 41 19 39 21 37 23 35 25 19 45 17 47 28 49 25 51 33 53
REMARK Flexibility Score: inf
ROOT
ATOM      1  C   UNL     1      22.733 -22.607  27.364  1.00  0.00     0.180 C 
ATOM      2  C   UNL     1      22.801 -22.980  25.858  1.00  0.00     0.177 C 
ATOM      3  C   UNL     1      23.642 -24.244  25.630  1.00  0.00     0.180 C 
ATOM      4  C   UNL     1      23.125 -25.355  26.548  1.00  0.00     0.214 C 
ATOM      5  C   UNL     1      23.138 -24.875  28.008  1.00  0.00     0.339 C 
ATOM      6  O   UNL     1      22.355 -23.701  28.193  1.00  0.00    -0.332 OA
ENDROOT
BRANCH   1   7
ATOM      7  C   UNL     1      23.980 -21.880  27.906  1.00  0.00     0.198 C 
BRANCH   7   8
ATOM      8  O   UNL     1      23.721 -20.494  27.993  1.00  0.00    -0.347 OA
BRANCH   8   9
ATOM      9  C   UNL     1      24.661 -19.742  27.233  1.00  0.00     0.281 C 
ATOM     10  C   UNL     1      26.371 -18.054  30.030  1.00  0.00     0.041 C 
ATOM     11  C   UNL     1      25.220 -18.401  29.083  1.00  0.00     0.150 C 
ATOM     12  C   UNL     1      24.598 -17.121  28.469  1.00  0.00     0.174 C 
ATOM     13  O   UNL     1      25.706 -19.271  28.072  1.00  0.00    -0.344 OA
ATOM     14  C   UNL     1      23.475 -17.498  27.487  1.00  0.00     0.179 C 
ATOM     15  C   UNL     1      23.961 -18.575  26.498  1.00  0.00     0.202 C 
BRANCH  12  16
ATOM     16  O   UNL     1      25.557 -16.306  27.837  1.00  0.00    -0.388 OA
ATOM     17  H   UNL     1      26.411 -16.809  27.786  1.00  0.00     0.211 HD
ENDBRANCH  12  16
BRANCH  14  18
ATOM     18  O   UNL     1      22.365 -17.960  28.213  1.00  0.00    -0.387 OA
ATOM     19  H   UNL     1      22.244 -18.917  27.979  1.00  0.00     0.211 HD
ENDBRANCH  14  18
BRANCH  15  20
ATOM     20  O   UNL     1      22.876 -19.047  25.741  1.00  0.00    -0.385 OA
ATOM     21  H   UNL     1      23.149 -19.926  25.366  1.00  0.00     0.211 HD
ENDBRANCH  15  20
ENDBRANCH   8   9
ENDBRANCH   7   8
ENDBRANCH   1   7
BRANCH   2  22
ATOM     22  O   UNL     1      23.320 -21.906  25.115  1.00  0.00    -0.387 OA
ATOM     23  H   UNL     1      24.138 -21.596  25.585  1.00  0.00     0.211 HD
ENDBRANCH   2  22
BRANCH   3  24
ATOM     24  O   UNL     1      23.526 -24.644  24.286  1.00  0.00    -0.387 OA
ATOM     25  H   UNL     1      22.727 -24.188  23.918  1.00  0.00     0.211 HD
ENDBRANCH   3  24
BRANCH   5  26
ATOM     26  O   UNL     1      24.488 -24.694  28.445  1.00  0.00    -0.454 OA
BRANCH  26  27
ATOM     27  C   UNL     1      25.252 -25.621  29.175  1.00  0.00     0.214 A 
ATOM     28  C   UNL     1      26.590 -25.845  28.791  1.00  0.00     0.180 A 
ATOM     29  C   UNL     1      24.737 -26.348  30.267  1.00  0.00     0.239 A 
ATOM     30  O   UNL     1      27.322 -26.755  29.425  1.00  0.00    -0.452 OA
ATOM     31  C   UNL     1      25.552 -27.294  30.924  1.00  0.00     0.111 A 
ATOM     32  O   UNL     1      23.560 -26.139  30.663  1.00  0.00    -0.285 OA
ATOM     33  C   UNL     1      26.872 -27.470  30.448  1.00  0.00     0.146 A 
ATOM     34  C   UNL     1      25.112 -28.064  32.028  1.00  0.00     0.134 A 
ATOM     35  C   UNL     1      27.723 -28.399  31.054  1.00  0.00     0.094 A 
ATOM     36  C   UNL     1      25.982 -28.988  32.625  1.00  0.00     0.093 A 
ATOM     37  C   UNL     1      27.281 -29.159  32.141  1.00  0.00     0.123 A 
BRANCH  28  38
ATOM     38  C   UNL     1      27.206 -25.122  27.655  1.00  0.00     0.025 A 
ATOM     39  C   UNL     1      28.039 -25.779  26.734  1.00  0.00     0.062 A 
ATOM     40  C   UNL     1      26.931 -23.757  27.476  1.00  0.00     0.016 A 
ATOM     41  C   UNL     1      28.623 -25.074  25.672  1.00  0.00     0.158 A 
ATOM     42  C   UNL     1      27.508 -23.053  26.416  1.00  0.00     0.051 A 
ATOM     43  C   UNL     1      28.357 -23.703  25.515  1.00  0.00     0.157 A 
BRANCH  41  44
ATOM     44  O   UNL     1      29.464 -25.729  24.774  1.00  0.00    -0.504 OA
ATOM     45  H   UNL     1      30.452 -25.854  24.963  1.00  0.00     0.293 HD
ENDBRANCH  41  44
BRANCH  43  46
ATOM     46  O   UNL     1      28.923 -22.973  24.470  1.00  0.00    -0.504 OA
ATOM     47  H   UNL     1      28.381 -22.323  23.911  1.00  0.00     0.293 HD
ENDBRANCH  43  46
ENDBRANCH  28  38
BRANCH  34  48
ATOM     48  O   UNL     1      23.819 -27.917  32.538  1.00  0.00    -0.507 OA
ATOM     49  H   UNL     1      23.412 -28.601  33.163  1.00  0.00     0.293 HD
ENDBRANCH  34  48
BRANCH  37  50
ATOM     50  O   UNL     1      28.123 -30.090  32.746  1.00  0.00    -0.508 OA
ATOM     51  H   UNL     1      28.165 -31.051  32.431  1.00  0.00     0.293 HD
ENDBRANCH  37  50
ENDBRANCH  26  27
ENDBRANCH   5  26
BRANCH   4  52
ATOM     52  O   UNL     1      23.933 -26.494  26.411  1.00  0.00    -0.384 OA
ATOM     53  H   UNL     1      23.935 -26.728  25.446  1.00  0.00     0.211 HD
ENDBRANCH   4  52
TORSDOF 16
ENDMDL
MODEL 8
REMARK VINA RESULT:    -8.387      2.593      4.932
REMARK INTER + INTRA:         -15.638
REMARK INTER:                 -13.681
REMARK INTRA:                  -1.957
REMARK UNBOUND:                -1.857
REMARK SMILES C[C@@H]1O[C@@H](OC[C@@H]2O[C@H](Oc3c(-c4ccc(O)c(O)c4)oc4cc(O)cc(O)c4c3=O)[C@H](O)[C@@H](O)[C@@H]2O)[C@@H](O)[C@@H](O)[C@@H]1O
REMARK SMILES IDX 7 1 36 2 34 3 32 4 9 5 8 6 6 7 5 8 4 9 1 10 2 11 42 12 3 13
REMARK SMILES IDX 40 14 38 15 43 16 41 18 39 20 37 22 35 24 10 26 11 27 12 28
REMARK SMILES IDX 30 29 21 30 29 31 31 32 22 33 27 34 23 35 26 36 24 37 13 38
REMARK SMILES IDX 20 39 14 40 18 41 15 42 16 43 19 44 17 46 28 48 25 50 33 52
REMARK H PARENT 43 17 41 19 39 21 37 23 35 25 19 45 17 47 28 49 25 51 33 53
REMARK Flexibility Score: inf
ROOT
ATOM      1  C   UNL     1      22.871 -18.480  29.694  1.00  0.00     0.180 C 
ATOM      2  C   UNL     1      22.698 -17.721  28.351  1.00  0.00     0.177 C 
ATOM      3  C   UNL     1      22.731 -18.684  27.155  1.00  0.00     0.180 C 
ATOM      4  C   UNL     1      21.722 -19.809  27.396  1.00  0.00     0.214 C 
ATOM      5  C   UNL     1      22.019 -20.500  28.737  1.00  0.00     0.339 C 
ATOM      6  O   UNL     1      21.986 -19.587  29.828  1.00  0.00    -0.332 OA
ENDROOT
BRANCH   1   7
ATOM      7  C   UNL     1      24.325 -18.863  30.038  1.00  0.00     0.198 C 
BRANCH   7   8
ATOM      8  O   UNL     1      24.920 -17.832  30.799  1.00  0.00    -0.347 OA
BRANCH   8   9
ATOM      9  C   UNL     1      26.281 -17.636  30.431  1.00  0.00     0.281 C 
ATOM     10  C   UNL     1      27.700 -20.632  32.049  1.00  0.00     0.041 C 
ATOM     11  C   UNL     1      27.022 -19.263  31.961  1.00  0.00     0.150 C 
ATOM     12  C   UNL     1      27.738 -18.228  32.867  1.00  0.00     0.174 C 
ATOM     13  O   UNL     1      27.015 -18.840  30.606  1.00  0.00    -0.344 OA
ATOM     14  C   UNL     1      27.067 -16.850  32.728  1.00  0.00     0.179 C 
ATOM     15  C   UNL     1      26.904 -16.476  31.242  1.00  0.00     0.202 C 
BRANCH  12  16
ATOM     16  O   UNL     1      29.117 -18.138  32.596  1.00  0.00    -0.388 OA
ATOM     17  H   UNL     1      29.534 -17.560  33.286  1.00  0.00     0.211 HD
ENDBRANCH  12  16
BRANCH  14  18
ATOM     18  O   UNL     1      25.817 -16.881  33.368  1.00  0.00    -0.387 OA
ATOM     19  H   UNL     1      25.719 -17.783  33.770  1.00  0.00     0.211 HD
ENDBRANCH  14  18
BRANCH  15  20
ATOM     20  O   UNL     1      26.121 -15.317  31.129  1.00  0.00    -0.385 OA
ATOM     21  H   UNL     1      25.357 -15.424  31.757  1.00  0.00     0.211 HD
ENDBRANCH  15  20
ENDBRANCH   8   9
ENDBRANCH   7   8
ENDBRANCH   1   7
BRANCH   2  22
ATOM     22  O   UNL     1      23.694 -16.739  28.216  1.00  0.00    -0.387 OA
ATOM     23  H   UNL     1      24.549 -17.149  28.512  1.00  0.00     0.211 HD
ENDBRANCH   2  22
BRANCH   3  24
ATOM     24  O   UNL     1      22.392 -17.983  25.983  1.00  0.00    -0.387 OA
ATOM     25  H   UNL     1      23.234 -17.608  25.619  1.00  0.00     0.211 HD
ENDBRANCH   3  24
BRANCH   5  26
ATOM     26  O   UNL     1      23.266 -21.194  28.655  1.00  0.00    -0.454 OA
BRANCH  26  27
ATOM     27  C   UNL     1      23.543 -22.463  29.194  1.00  0.00     0.214 A 
ATOM     28  C   UNL     1      23.907 -23.505  28.317  1.00  0.00     0.180 A 
ATOM     29  C   UNL     1      23.460 -22.744  30.573  1.00  0.00     0.239 A 
ATOM     30  O   UNL     1      24.120 -24.729  28.787  1.00  0.00    -0.452 OA
ATOM     31  C   UNL     1      23.711 -24.054  31.035  1.00  0.00     0.111 A 
ATOM     32  O   UNL     1      23.182 -21.825  31.387  1.00  0.00    -0.285 OA
ATOM     33  C   UNL     1      24.040 -25.040  30.075  1.00  0.00     0.146 A 
ATOM     34  C   UNL     1      23.650 -24.419  32.401  1.00  0.00     0.134 A 
ATOM     35  C   UNL     1      24.290 -26.356  30.473  1.00  0.00     0.094 A 
ATOM     36  C   UNL     1      23.908 -25.745  32.781  1.00  0.00     0.093 A 
ATOM     37  C   UNL     1      24.223 -26.712  31.824  1.00  0.00     0.123 A 
BRANCH  28  38
ATOM     38  C   UNL     1      24.015 -23.291  26.855  1.00  0.00     0.025 A 
ATOM     39  C   UNL     1      25.006 -22.458  26.308  1.00  0.00     0.062 A 
ATOM     40  C   UNL     1      23.128 -23.955  25.993  1.00  0.00     0.016 A 
ATOM     41  C   UNL     1      25.084 -22.257  24.923  1.00  0.00     0.158 A 
ATOM     42  C   UNL     1      23.207 -23.762  24.613  1.00  0.00     0.051 A 
ATOM     43  C   UNL     1      24.177 -22.912  24.072  1.00  0.00     0.157 A 
BRANCH  41  44
ATOM     44  O   UNL     1      26.057 -21.414  24.390  1.00  0.00    -0.504 OA
ATOM     45  H   UNL     1      26.500 -21.608  23.500  1.00  0.00     0.293 HD
ENDBRANCH  41  44
BRANCH  43  46
ATOM     46  O   UNL     1      24.227 -22.734  22.690  1.00  0.00    -0.504 OA
ATOM     47  H   UNL     1      23.566 -23.181  22.064  1.00  0.00     0.293 HD
ENDBRANCH  43  46
ENDBRANCH  28  38
BRANCH  34  48
ATOM     48  O   UNL     1      23.337 -23.477  33.385  1.00  0.00    -0.507 OA
ATOM     49  H   UNL     1      24.037 -23.120  34.023  1.00  0.00     0.293 HD
ENDBRANCH  34  48
BRANCH  37  50
ATOM     50  O   UNL     1      24.468 -28.023  32.226  1.00  0.00    -0.508 OA
ATOM     51  H   UNL     1      25.151 -28.240  32.943  1.00  0.00     0.293 HD
ENDBRANCH  37  50
ENDBRANCH  26  27
ENDBRANCH   5  26
BRANCH   4  52
ATOM     52  O   UNL     1      21.796 -20.741  26.350  1.00  0.00    -0.384 OA
ATOM     53  H   UNL     1      22.594 -21.304  26.525  1.00  0.00     0.211 HD
ENDBRANCH   4  52
TORSDOF 16
ENDMDL
MODEL 9
REMARK VINA RESULT:    -8.387      2.439      7.382
REMARK INTER + INTRA:         -15.637
REMARK INTER:                 -13.679
REMARK INTRA:                  -1.959
REMARK UNBOUND:                -1.857
REMARK SMILES C[C@@H]1O[C@@H](OC[C@@H]2O[C@H](Oc3c(-c4ccc(O)c(O)c4)oc4cc(O)cc(O)c4c3=O)[C@H](O)[C@@H](O)[C@@H]2O)[C@@H](O)[C@@H](O)[C@@H]1O
REMARK SMILES IDX 7 1 36 2 34 3 32 4 9 5 8 6 6 7 5 8 4 9 1 10 2 11 42 12 3 13
REMARK SMILES IDX 40 14 38 15 43 16 41 18 39 20 37 22 35 24 10 26 11 27 12 28
REMARK SMILES IDX 30 29 21 30 29 31 31 32 22 33 27 34 23 35 26 36 24 37 13 38
REMARK SMILES IDX 20 39 14 40 18 41 15 42 16 43 19 44 17 46 28 48 25 50 33 52
REMARK H PARENT 43 17 41 19 39 21 37 23 35 25 19 45 17 47 28 49 25 51 33 53
REMARK Flexibility Score: inf
ROOT
ATOM      1  C   UNL     1      24.227 -23.945  26.875  1.00  0.00     0.180 C 
ATOM      2  C   UNL     1      22.915 -23.724  26.074  1.00  0.00     0.177 C 
ATOM      3  C   UNL     1      22.367 -22.303  26.275  1.00  0.00     0.180 C 
ATOM      4  C   UNL     1      23.482 -21.297  25.980  1.00  0.00     0.214 C 
ATOM      5  C   UNL     1      24.708 -21.602  26.856  1.00  0.00     0.339 C 
ATOM      6  O   UNL     1      25.194 -22.924  26.654  1.00  0.00    -0.332 OA
ENDROOT
BRANCH   1   7
ATOM      7  C   UNL     1      24.027 -24.230  28.378  1.00  0.00     0.198 C 
BRANCH   7   8
ATOM      8  O   UNL     1      25.002 -25.152  28.819  1.00  0.00    -0.347 OA
BRANCH   8   9
ATOM      9  C   UNL     1      24.410 -26.390  29.200  1.00  0.00     0.281 C 
ATOM     10  C   UNL     1      26.173 -26.851  32.407  1.00  0.00     0.041 C 
ATOM     11  C   UNL     1      26.010 -26.737  30.889  1.00  0.00     0.150 C 
ATOM     12  C   UNL     1      26.654 -27.949  30.168  1.00  0.00     0.174 C 
ATOM     13  O   UNL     1      24.628 -26.633  30.582  1.00  0.00    -0.344 OA
ATOM     14  C   UNL     1      26.439 -27.836  28.649  1.00  0.00     0.179 C 
ATOM     15  C   UNL     1      24.959 -27.547  28.332  1.00  0.00     0.202 C 
BRANCH  12  16
ATOM     16  O   UNL     1      26.168 -29.181  30.647  1.00  0.00    -0.388 OA
ATOM     17  H   UNL     1      25.284 -29.026  31.070  1.00  0.00     0.211 HD
ENDBRANCH  12  16
BRANCH  14  18
ATOM     18  O   UNL     1      27.259 -26.813  28.143  1.00  0.00    -0.387 OA
ATOM     19  H   UNL     1      26.855 -25.952  28.426  1.00  0.00     0.211 HD
ENDBRANCH  14  18
BRANCH  15  20
ATOM     20  O   UNL     1      24.814 -27.253  26.967  1.00  0.00    -0.385 OA
ATOM     21  H   UNL     1      24.815 -26.263  26.885  1.00  0.00     0.211 HD
ENDBRANCH  15  20
ENDBRANCH   8   9
ENDBRANCH   7   8
ENDBRANCH   1   7
BRANCH   2  22
ATOM     22  O   UNL     1      21.952 -24.677  26.447  1.00  0.00    -0.387 OA
ATOM     23  H   UNL     1      21.408 -24.272  27.172  1.00  0.00     0.211 HD
ENDBRANCH   2  22
BRANCH   3  24
ATOM     24  O   UNL     1      21.289 -22.092  25.397  1.00  0.00    -0.387 OA
ATOM     25  H   UNL     1      21.278 -21.124  25.183  1.00  0.00     0.211 HD
ENDBRANCH   3  24
BRANCH   5  26
ATOM     26  O   UNL     1      24.396 -21.348  28.228  1.00  0.00    -0.454 OA
BRANCH  26  27
ATOM     27  C   UNL     1      25.237 -20.724  29.166  1.00  0.00     0.214 A 
ATOM     28  C   UNL     1      24.831 -19.496  29.726  1.00  0.00     0.180 A 
ATOM     29  C   UNL     1      26.476 -21.265  29.562  1.00  0.00     0.239 A 
ATOM     30  O   UNL     1      25.627 -18.853  30.573  1.00  0.00    -0.452 OA
ATOM     31  C   UNL     1      27.286 -20.559  30.477  1.00  0.00     0.111 A 
ATOM     32  O   UNL     1      26.848 -22.382  29.115  1.00  0.00    -0.285 OA
ATOM     33  C   UNL     1      26.807 -19.320  30.962  1.00  0.00     0.146 A 
ATOM     34  C   UNL     1      28.543 -21.032  30.926  1.00  0.00     0.134 A 
ATOM     35  C   UNL     1      27.570 -18.572  31.863  1.00  0.00     0.094 A 
ATOM     36  C   UNL     1      29.292 -20.269  31.834  1.00  0.00     0.093 A 
ATOM     37  C   UNL     1      28.812 -19.043  32.299  1.00  0.00     0.123 A 
BRANCH  28  38
ATOM     38  C   UNL     1      23.543 -18.861  29.362  1.00  0.00     0.025 A 
ATOM     39  C   UNL     1      22.315 -19.414  29.760  1.00  0.00     0.062 A 
ATOM     40  C   UNL     1      23.548 -17.665  28.625  1.00  0.00     0.016 A 
ATOM     41  C   UNL     1      21.106 -18.805  29.394  1.00  0.00     0.158 A 
ATOM     42  C   UNL     1      22.346 -17.054  28.263  1.00  0.00     0.051 A 
ATOM     43  C   UNL     1      21.123 -17.620  28.639  1.00  0.00     0.157 A 
BRANCH  41  44
ATOM     44  O   UNL     1      19.891 -19.371  29.777  1.00  0.00    -0.504 OA
ATOM     45  H   UNL     1      19.418 -19.090  30.628  1.00  0.00     0.293 HD
ENDBRANCH  41  44
BRANCH  43  46
ATOM     46  O   UNL     1      19.939 -16.989  28.257  1.00  0.00    -0.504 OA
ATOM     47  H   UNL     1      19.175 -17.495  27.824  1.00  0.00     0.293 HD
ENDBRANCH  43  46
ENDBRANCH  28  38
BRANCH  34  48
ATOM     48  O   UNL     1      29.052 -22.255  30.481  1.00  0.00    -0.507 OA
ATOM     49  H   UNL     1      29.599 -22.857  31.085  1.00  0.00     0.293 HD
ENDBRANCH  34  48
BRANCH  37  50
ATOM     50  O   UNL     1      29.579 -18.300  33.195  1.00  0.00    -0.508 OA
ATOM     51  H   UNL     1      29.440 -17.303  33.311  1.00  0.00     0.293 HD
ENDBRANCH  37  50
ENDBRANCH  26  27
ENDBRANCH   5  26
BRANCH   4  52
ATOM     52  O   UNL     1      23.022 -19.996  26.236  1.00  0.00    -0.384 OA
ATOM     53  H   UNL     1      22.384 -20.063  26.993  1.00  0.00     0.211 HD
ENDBRANCH   4  52
TORSDOF 16
ENDMDL
