MODEL 1
REMARK VINA RESULT:    -7.554      0.000      0.000
REMARK INTER + INTRA:         -10.878
REMARK INTER:                  -9.983
REMARK INTRA:                  -0.895
REMARK UNBOUND:                -0.895
REMARK SMILES CC[C@@H](C=C[C@@H](C)[C@@H]1CC[C@H]2[C@H]3CC=C4C[C@@H](O)CC[C@@]4(C)[C@H]3CC[C@@]21C)C(C)C
REMARK SMILES IDX 6 1 7 2 5 3 4 4 3 5 2 6 1 7 28 8 29 9 30 10 8 11 9 12 26 13
REMARK SMILES IDX 10 14 11 15 25 16 27 17 12 18 24 19 23 20 13 21 21 22 14 23
REMARK SMILES IDX 15 24 20 25 22 26 16 27 19 28 17 29 18 30
REMARK H PARENT 18 31
REMARK Flexibility Score: inf
ROOT
ATOM      1  C   UNL     1     131.834 136.662 153.449  1.00  0.00     0.012 C 
ATOM      2  C   UNL     1     132.727 137.904 153.627  1.00  0.00     0.012 C 
ENDROOT
BRANCH   1   3
ATOM      3  C   UNL     1     131.198 136.280 154.774  1.00  0.00    -0.028 C 
ATOM      4  C   UNL     1     130.083 136.858 155.261  1.00  0.00    -0.027 C 
BRANCH   4   5
ATOM      5  C   UNL     1     129.388 136.438 156.547  1.00  0.00     0.014 C 
BRANCH   5   6
ATOM      6  C   UNL     1     128.859 134.975 156.482  1.00  0.00     0.004 C 
ATOM      7  C   UNL     1     129.795 133.947 157.116  1.00  0.00     0.004 C 
ENDBRANCH   5   6
BRANCH   5   8
ATOM      8  C   UNL     1     128.351 137.538 156.956  1.00  0.00    -0.011 C 
ATOM      9  C   UNL     1     126.895 137.101 156.730  1.00  0.00     0.008 C 
ATOM     10  C   UNL     1     128.623 138.911 156.323  1.00  0.00     0.008 C 
ENDBRANCH   5   8
ENDBRANCH   4   5
ENDBRANCH   1   3
BRANCH   1  11
ATOM     11  C   UNL     1     132.472 135.423 152.714  1.00  0.00     0.002 C 
ATOM     12  C   UNL     1     133.575 135.760 151.662  1.00  0.00     0.005 C 
ATOM     13  C   UNL     1     131.496 134.449 151.957  1.00  0.00    -0.026 C 
ATOM     14  C   UNL     1     133.130 135.182 150.309  1.00  0.00     0.005 C 
ATOM     15  C   UNL     1     131.650 134.924 150.507  1.00  0.00    -0.001 C 
ATOM     16  C   UNL     1     129.992 134.510 152.310  1.00  0.00     0.007 C 
ATOM     17  C   UNL     1     132.013 132.997 152.217  1.00  0.00     0.012 C 
ATOM     18  C   UNL     1     130.863 134.135 149.433  1.00  0.00     0.000 C 
ATOM     19  C   UNL     1     129.134 133.688 151.316  1.00  0.00     0.005 C 
ATOM     20  C   UNL     1     129.346 134.081 149.815  1.00  0.00     0.003 C 
ATOM     21  C   UNL     1     131.483 132.772 149.013  1.00  0.00     0.031 C 
ATOM     22  C   UNL     1     128.545 133.192 148.783  1.00  0.00    -0.008 C 
ATOM     23  C   UNL     1     130.502 131.639 148.840  1.00  0.00    -0.027 C 
ATOM     24  C   UNL     1     129.167 131.796 148.724  1.00  0.00    -0.065 C 
ATOM     25  C   UNL     1     127.025 133.131 149.158  1.00  0.00     0.014 C 
ATOM     26  C   UNL     1     128.648 133.825 147.366  1.00  0.00     0.016 C 
ATOM     27  C   UNL     1     128.344 130.608 148.253  1.00  0.00     0.063 C 
ATOM     28  C   UNL     1     126.261 132.002 148.448  1.00  0.00     0.033 C 
ATOM     29  C   UNL     1     126.902 130.643 148.763  1.00  0.00     0.118 C 
BRANCH  29  30
ATOM     30  O   UNL     1     126.888 130.389 150.144  1.00  0.00    -0.393 OA
ATOM     31  H   UNL     1     126.259 129.635 150.291  1.00  0.00     0.210 HD
ENDBRANCH  29  30
ENDBRANCH   1  11
TORSDOF 6
ENDMDL
MODEL 2
REMARK VINA RESULT:    -7.246      3.577      6.416
REMARK INTER + INTRA:         -10.471
REMARK INTER:                  -9.354
REMARK INTRA:                  -1.117
REMARK UNBOUND:                -0.895
REMARK SMILES CC[C@@H](C=C[C@@H](C)[C@@H]1CC[C@H]2[C@H]3CC=C4C[C@@H](O)CC[C@@]4(C)[C@H]3CC[C@@]21C)C(C)C
REMARK SMILES IDX 6 1 7 2 5 3 4 4 3 5 2 6 1 7 28 8 29 9 30 10 8 11 9 12 26 13
REMARK SMILES IDX 10 14 11 15 25 16 27 17 12 18 24 19 23 20 13 21 21 22 14 23
REMARK SMILES IDX 15 24 20 25 22 26 16 27 19 28 17 29 18 30
REMARK H PARENT 18 31
REMARK Flexibility Score: inf
ROOT
ATOM      1  C   UNL     1     130.292 130.999 150.592  1.00  0.00     0.012 C 
ATOM      2  C   UNL     1     129.793 130.018 151.670  1.00  0.00     0.012 C 
ENDROOT
BRANCH   1   3
ATOM      3  C   UNL     1     131.366 131.906 151.165  1.00  0.00    -0.028 C 
ATOM      4  C   UNL     1     131.110 133.100 151.731  1.00  0.00    -0.027 C 
BRANCH   4   5
ATOM      5  C   UNL     1     132.162 133.988 152.379  1.00  0.00     0.014 C 
BRANCH   5   6
ATOM      6  C   UNL     1     132.031 134.025 153.930  1.00  0.00     0.004 C 
ATOM      7  C   UNL     1     130.946 133.102 154.484  1.00  0.00     0.004 C 
ENDBRANCH   5   6
BRANCH   5   8
ATOM      8  C   UNL     1     132.191 135.372 151.648  1.00  0.00    -0.011 C 
ATOM      9  C   UNL     1     133.062 135.363 150.382  1.00  0.00     0.008 C 
ATOM     10  C   UNL     1     132.556 136.549 152.566  1.00  0.00     0.008 C 
ENDBRANCH   5   8
ENDBRANCH   4   5
ENDBRANCH   1   3
BRANCH   1  11
ATOM     11  C   UNL     1     129.195 131.802 149.795  1.00  0.00     0.002 C 
ATOM     12  C   UNL     1     127.732 131.282 149.955  1.00  0.00     0.005 C 
ATOM     13  C   UNL     1     129.389 131.946 148.241  1.00  0.00    -0.026 C 
ATOM     14  C   UNL     1     127.196 130.939 148.556  1.00  0.00     0.005 C 
ATOM     15  C   UNL     1     128.451 130.855 147.710  1.00  0.00    -0.001 C 
ATOM     16  C   UNL     1     130.795 131.675 147.657  1.00  0.00     0.007 C 
ATOM     17  C   UNL     1     128.963 133.401 147.864  1.00  0.00     0.012 C 
ATOM     18  C   UNL     1     128.328 130.736 146.172  1.00  0.00     0.000 C 
ATOM     19  C   UNL     1     130.773 131.604 146.110  1.00  0.00     0.005 C 
ATOM     20  C   UNL     1     129.747 130.570 145.535  1.00  0.00     0.003 C 
ATOM     21  C   UNL     1     127.421 131.797 145.487  1.00  0.00     0.031 C 
ATOM     22  C   UNL     1     129.648 130.550 143.958  1.00  0.00    -0.008 C 
ATOM     23  C   UNL     1     127.952 132.369 144.197  1.00  0.00    -0.027 C 
ATOM     24  C   UNL     1     128.953 131.823 143.475  1.00  0.00    -0.065 C 
ATOM     25  C   UNL     1     131.066 130.385 143.309  1.00  0.00     0.014 C 
ATOM     26  C   UNL     1     128.789 129.334 143.508  1.00  0.00     0.016 C 
ATOM     27  C   UNL     1     129.174 132.330 142.059  1.00  0.00     0.063 C 
ATOM     28  C   UNL     1     131.102 130.736 141.814  1.00  0.00     0.033 C 
ATOM     29  C   UNL     1     130.623 132.177 141.591  1.00  0.00     0.118 C 
BRANCH  29  30
ATOM     30  O   UNL     1     131.436 133.090 142.282  1.00  0.00    -0.393 OA
ATOM     31  H   UNL     1     132.287 132.622 142.483  1.00  0.00     0.210 HD
ENDBRANCH  29  30
ENDBRANCH   1  11
TORSDOF 6
ENDMDL
MODEL 3
REMARK VINA RESULT:    -7.208      1.533      2.506
REMARK INTER + INTRA:         -10.421
REMARK INTER:                  -9.739
REMARK INTRA:                  -0.682
REMARK UNBOUND:                -0.895
REMARK SMILES CC[C@@H](C=C[C@@H](C)[C@@H]1CC[C@H]2[C@H]3CC=C4C[C@@H](O)CC[C@@]4(C)[C@H]3CC[C@@]21C)C(C)C
REMARK SMILES IDX 6 1 7 2 5 3 4 4 3 5 2 6 1 7 28 8 29 9 30 10 8 11 9 12 26 13
REMARK SMILES IDX 10 14 11 15 25 16 27 17 12 18 24 19 23 20 13 21 21 22 14 23
REMARK SMILES IDX 15 24 20 25 22 26 16 27 19 28 17 29 18 30
REMARK H PARENT 18 31
REMARK Flexibility Score: inf
ROOT
ATOM      1  C   UNL     1     131.121 133.219 155.110  1.00  0.00     0.012 C 
ATOM      2  C   UNL     1     130.482 131.855 155.436  1.00  0.00     0.012 C 
ENDROOT
BRANCH   1   3
ATOM      3  C   UNL     1     130.069 134.313 155.152  1.00  0.00    -0.028 C 
ATOM      4  C   UNL     1     130.225 135.473 155.819  1.00  0.00    -0.027 C 
BRANCH   4   5
ATOM      5  C   UNL     1     129.217 136.612 155.810  1.00  0.00     0.014 C 
BRANCH   5   6
ATOM      6  C   UNL     1     127.812 136.153 155.322  1.00  0.00     0.004 C 
ATOM      7  C   UNL     1     126.652 136.742 156.125  1.00  0.00     0.004 C 
ENDBRANCH   5   6
BRANCH   5   8
ATOM      8  C   UNL     1     129.841 137.848 155.079  1.00  0.00    -0.011 C 
ATOM      9  C   UNL     1     131.373 137.774 154.978  1.00  0.00     0.008 C 
ATOM     10  C   UNL     1     129.387 139.199 155.651  1.00  0.00     0.008 C 
ENDBRANCH   5   8
ENDBRANCH   4   5
ENDBRANCH   1   3
BRANCH   1  11
ATOM     11  C   UNL     1     132.014 133.298 153.814  1.00  0.00     0.002 C 
ATOM     12  C   UNL     1     132.536 134.722 153.444  1.00  0.00     0.005 C 
ATOM     13  C   UNL     1     131.397 132.750 152.476  1.00  0.00    -0.026 C 
ATOM     14  C   UNL     1     132.046 135.051 152.025  1.00  0.00     0.005 C 
ATOM     15  C   UNL     1     130.937 134.044 151.794  1.00  0.00    -0.001 C 
ATOM     16  C   UNL     1     130.170 131.813 152.572  1.00  0.00     0.007 C 
ATOM     17  C   UNL     1     132.543 131.998 151.723  1.00  0.00     0.012 C 
ATOM     18  C   UNL     1     130.318 133.901 150.383  1.00  0.00     0.000 C 
ATOM     19  C   UNL     1     129.525 131.564 151.186  1.00  0.00     0.005 C 
ATOM     20  C   UNL     1     129.138 132.874 150.419  1.00  0.00     0.003 C 
ATOM     21  C   UNL     1     131.333 133.695 149.223  1.00  0.00     0.031 C 
ATOM     22  C   UNL     1     128.562 132.640 148.967  1.00  0.00    -0.008 C 
ATOM     23  C   UNL     1     130.936 132.672 148.188  1.00  0.00    -0.027 C 
ATOM     24  C   UNL     1     129.688 132.180 148.040  1.00  0.00    -0.065 C 
ATOM     25  C   UNL     1     127.380 131.611 148.992  1.00  0.00     0.014 C 
ATOM     26  C   UNL     1     127.998 133.979 148.411  1.00  0.00     0.016 C 
ATOM     27  C   UNL     1     129.372 131.397 146.776  1.00  0.00     0.063 C 
ATOM     28  C   UNL     1     127.026 131.047 147.608  1.00  0.00     0.033 C 
ATOM     29  C   UNL     1     128.251 130.374 146.975  1.00  0.00     0.118 C 
BRANCH  29  30
ATOM     30  O   UNL     1     128.717 129.320 147.778  1.00  0.00    -0.393 OA
ATOM     31  H   UNL     1     127.942 128.724 147.948  1.00  0.00     0.210 HD
ENDBRANCH  29  30
ENDBRANCH   1  11
TORSDOF 6
ENDMDL
MODEL 4
REMARK VINA RESULT:    -7.190      2.834      8.313
REMARK INTER + INTRA:         -10.397
REMARK INTER:                  -9.516
REMARK INTRA:                  -0.881
REMARK UNBOUND:                -0.895
REMARK SMILES CC[C@@H](C=C[C@@H](C)[C@@H]1CC[C@H]2[C@H]3CC=C4C[C@@H](O)CC[C@@]4(C)[C@H]3CC[C@@]21C)C(C)C
REMARK SMILES IDX 6 1 7 2 5 3 4 4 3 5 2 6 1 7 28 8 29 9 30 10 8 11 9 12 26 13
REMARK SMILES IDX 10 14 11 15 25 16 27 17 12 18 24 19 23 20 13 21 21 22 14 23
REMARK SMILES IDX 15 24 20 25 22 26 16 27 19 28 17 29 18 30
REMARK H PARENT 18 31
REMARK Flexibility Score: inf
ROOT
ATOM      1  C   UNL     1     130.316 131.657 152.241  1.00  0.00     0.012 C 
ATOM      2  C   UNL     1     129.674 130.258 152.186  1.00  0.00     0.012 C 
ENDROOT
BRANCH   1   3
ATOM      3  C   UNL     1     131.011 131.966 150.926  1.00  0.00    -0.028 C 
ATOM      4  C   UNL     1     130.369 132.410 149.829  1.00  0.00    -0.027 C 
BRANCH   4   5
ATOM      5  C   UNL     1     131.057 132.798 148.529  1.00  0.00     0.014 C 
BRANCH   5   6
ATOM      6  C   UNL     1     130.721 131.816 147.367  1.00  0.00     0.004 C 
ATOM      7  C   UNL     1     129.599 130.831 147.692  1.00  0.00     0.004 C 
ENDBRANCH   5   6
BRANCH   5   8
ATOM      8  C   UNL     1     132.576 133.057 148.805  1.00  0.00    -0.011 C 
ATOM      9  C   UNL     1     132.822 134.293 149.686  1.00  0.00     0.008 C 
ATOM     10  C   UNL     1     133.437 133.101 147.534  1.00  0.00     0.008 C 
ENDBRANCH   5   8
ENDBRANCH   4   5
ENDBRANCH   1   3
BRANCH   1  11
ATOM     11  C   UNL     1     131.225 131.978 153.487  1.00  0.00     0.002 C 
ATOM     12  C   UNL     1     130.962 131.105 154.754  1.00  0.00     0.005 C 
ATOM     13  C   UNL     1     131.221 133.456 154.024  1.00  0.00    -0.026 C 
ATOM     14  C   UNL     1     130.608 132.049 155.914  1.00  0.00     0.005 C 
ATOM     15  C   UNL     1     130.261 133.349 155.215  1.00  0.00    -0.001 C 
ATOM     16  C   UNL     1     130.684 134.566 153.092  1.00  0.00     0.007 C 
ATOM     17  C   UNL     1     132.695 133.800 154.416  1.00  0.00     0.012 C 
ATOM     18  C   UNL     1     130.050 134.633 156.053  1.00  0.00     0.000 C 
ATOM     19  C   UNL     1     130.505 135.910 153.840  1.00  0.00     0.005 C 
ATOM     20  C   UNL     1     129.610 135.811 155.122  1.00  0.00     0.003 C 
ATOM     21  C   UNL     1     131.191 134.976 157.052  1.00  0.00     0.031 C 
ATOM     22  C   UNL     1     129.491 137.154 155.946  1.00  0.00    -0.008 C 
ATOM     23  C   UNL     1     131.573 136.434 157.125  1.00  0.00    -0.027 C 
ATOM     24  C   UNL     1     130.821 137.445 156.641  1.00  0.00    -0.065 C 
ATOM     25  C   UNL     1     129.052 138.342 155.022  1.00  0.00     0.014 C 
ATOM     26  C   UNL     1     128.400 136.994 157.043  1.00  0.00     0.016 C 
ATOM     27  C   UNL     1     131.180 138.864 157.052  1.00  0.00     0.063 C 
ATOM     28  C   UNL     1     129.282 139.726 155.648  1.00  0.00     0.033 C 
ATOM     29  C   UNL     1     130.761 139.907 156.015  1.00  0.00     0.118 C 
BRANCH  29  30
ATOM     30  O   UNL     1     131.579 139.792 154.879  1.00  0.00    -0.393 OA
ATOM     31  H   UNL     1     131.731 140.713 154.540  1.00  0.00     0.210 HD
ENDBRANCH  29  30
ENDBRANCH   1  11
TORSDOF 6
ENDMDL
MODEL 5
REMARK VINA RESULT:    -7.110      1.304      2.600
REMARK INTER + INTRA:         -10.291
REMARK INTER:                  -9.327
REMARK INTRA:                  -0.964
REMARK UNBOUND:                -0.895
REMARK SMILES CC[C@@H](C=C[C@@H](C)[C@@H]1CC[C@H]2[C@H]3CC=C4C[C@@H](O)CC[C@@]4(C)[C@H]3CC[C@@]21C)C(C)C
REMARK SMILES IDX 6 1 7 2 5 3 4 4 3 5 2 6 1 7 28 8 29 9 30 10 8 11 9 12 26 13
REMARK SMILES IDX 10 14 11 15 25 16 27 17 12 18 24 19 23 20 13 21 21 22 14 23
REMARK SMILES IDX 15 24 20 25 22 26 16 27 19 28 17 29 18 30
REMARK H PARENT 18 31
REMARK Flexibility Score: inf
ROOT
ATOM      1  C   UNL     1     131.591 137.623 154.446  1.00  0.00     0.012 C 
ATOM      2  C   UNL     1     132.821 138.551 154.475  1.00  0.00     0.012 C 
ENDROOT
BRANCH   1   3
ATOM      3  C   UNL     1     130.517 138.148 155.382  1.00  0.00    -0.028 C 
ATOM      4  C   UNL     1     129.199 137.938 155.198  1.00  0.00    -0.027 C 
BRANCH   4   5
ATOM      5  C   UNL     1     128.113 138.389 156.163  1.00  0.00     0.014 C 
BRANCH   5   6
ATOM      6  C   UNL     1     128.606 139.509 157.125  1.00  0.00     0.004 C 
ATOM      7  C   UNL     1     129.005 140.804 156.418  1.00  0.00     0.004 C 
ENDBRANCH   5   6
BRANCH   5   8
ATOM      8  C   UNL     1     127.463 137.131 156.832  1.00  0.00    -0.011 C 
ATOM      9  C   UNL     1     128.344 135.876 156.732  1.00  0.00     0.008 C 
ATOM     10  C   UNL     1     126.032 136.845 156.351  1.00  0.00     0.008 C 
ENDBRANCH   5   8
ENDBRANCH   4   5
ENDBRANCH   1   3
BRANCH   1  11
ATOM     11  C   UNL     1     131.854 136.082 154.643  1.00  0.00     0.002 C 
ATOM     12  C   UNL     1     133.354 135.651 154.649  1.00  0.00     0.005 C 
ATOM     13  C   UNL     1     131.170 135.096 153.628  1.00  0.00    -0.026 C 
ATOM     14  C   UNL     1     133.554 134.617 153.530  1.00  0.00     0.005 C 
ATOM     15  C   UNL     1     132.323 134.795 152.664  1.00  0.00    -0.001 C 
ATOM     16  C   UNL     1     129.986 135.626 152.786  1.00  0.00     0.007 C 
ATOM     17  C   UNL     1     130.683 133.861 154.454  1.00  0.00     0.012 C 
ATOM     18  C   UNL     1     132.034 133.780 151.532  1.00  0.00     0.000 C 
ATOM     19  C   UNL     1     129.587 134.635 151.664  1.00  0.00     0.005 C 
ATOM     20  C   UNL     1     130.771 134.228 150.724  1.00  0.00     0.003 C 
ATOM     21  C   UNL     1     132.046 132.284 151.953  1.00  0.00     0.031 C 
ATOM     22  C   UNL     1     130.401 133.150 149.630  1.00  0.00    -0.008 C 
ATOM     23  C   UNL     1     130.951 131.433 151.361  1.00  0.00    -0.027 C 
ATOM     24  C   UNL     1     130.193 131.793 150.303  1.00  0.00    -0.065 C 
ATOM     25  C   UNL     1     129.136 133.589 148.815  1.00  0.00     0.014 C 
ATOM     26  C   UNL     1     131.576 133.011 148.621  1.00  0.00     0.016 C 
ATOM     27  C   UNL     1     129.347 130.723 149.632  1.00  0.00     0.063 C 
ATOM     28  C   UNL     1     128.494 132.446 148.012  1.00  0.00     0.033 C 
ATOM     29  C   UNL     1     128.103 131.292 148.945  1.00  0.00     0.118 C 
BRANCH  29  30
ATOM     30  O   UNL     1     127.187 131.720 149.919  1.00  0.00    -0.393 OA
ATOM     31  H   UNL     1     127.700 132.250 150.583  1.00  0.00     0.210 HD
ENDBRANCH  29  30
ENDBRANCH   1  11
TORSDOF 6
ENDMDL
MODEL 6
REMARK VINA RESULT:    -6.955      3.048      8.876
REMARK INTER + INTRA:         -10.086
REMARK INTER:                  -8.944
REMARK INTRA:                  -1.142
REMARK UNBOUND:                -0.895
REMARK SMILES CC[C@@H](C=C[C@@H](C)[C@@H]1CC[C@H]2[C@H]3CC=C4C[C@@H](O)CC[C@@]4(C)[C@H]3CC[C@@]21C)C(C)C
REMARK SMILES IDX 6 1 7 2 5 3 4 4 3 5 2 6 1 7 28 8 29 9 30 10 8 11 9 12 26 13
REMARK SMILES IDX 10 14 11 15 25 16 27 17 12 18 24 19 23 20 13 21 21 22 14 23
REMARK SMILES IDX 15 24 20 25 22 26 16 27 19 28 17 29 18 30
REMARK H PARENT 18 31
REMARK Flexibility Score: inf
ROOT
ATOM      1  C   UNL     1     127.963 132.327 147.871  1.00  0.00     0.012 C 
ATOM      2  C   UNL     1     126.816 131.992 148.844  1.00  0.00     0.012 C 
ENDROOT
BRANCH   1   3
ATOM      3  C   UNL     1     127.633 131.818 146.479  1.00  0.00    -0.028 C 
ATOM      4  C   UNL     1     128.563 131.565 145.538  1.00  0.00    -0.027 C 
BRANCH   4   5
ATOM      5  C   UNL     1     128.261 130.983 144.165  1.00  0.00     0.014 C 
BRANCH   5   6
ATOM      6  C   UNL     1     129.305 129.912 143.734  1.00  0.00     0.004 C 
ATOM      7  C   UNL     1     130.447 129.721 144.732  1.00  0.00     0.004 C 
ENDBRANCH   5   6
BRANCH   5   8
ATOM      8  C   UNL     1     128.002 132.151 143.154  1.00  0.00    -0.011 C 
ATOM      9  C   UNL     1     126.642 132.042 142.448  1.00  0.00     0.008 C 
ATOM     10  C   UNL     1     129.139 132.356 142.142  1.00  0.00     0.008 C 
ENDBRANCH   5   8
ENDBRANCH   4   5
ENDBRANCH   1   3
BRANCH   1  11
ATOM     11  C   UNL     1     129.420 131.933 148.322  1.00  0.00     0.002 C 
ATOM     12  C   UNL     1     129.590 130.472 148.847  1.00  0.00     0.005 C 
ATOM     13  C   UNL     1     130.103 132.824 149.423  1.00  0.00    -0.026 C 
ATOM     14  C   UNL     1     130.145 130.545 150.277  1.00  0.00     0.005 C 
ATOM     15  C   UNL     1     129.880 131.981 150.684  1.00  0.00    -0.001 C 
ATOM     16  C   UNL     1     129.512 134.227 149.691  1.00  0.00     0.007 C 
ATOM     17  C   UNL     1     131.603 132.982 149.012  1.00  0.00     0.012 C 
ATOM     18  C   UNL     1     130.489 132.526 151.998  1.00  0.00     0.000 C 
ATOM     19  C   UNL     1     130.118 134.875 150.960  1.00  0.00     0.005 C 
ATOM     20  C   UNL     1     129.997 133.991 152.247  1.00  0.00     0.003 C 
ATOM     21  C   UNL     1     132.019 132.309 152.170  1.00  0.00     0.031 C 
ATOM     22  C   UNL     1     130.690 134.598 153.530  1.00  0.00    -0.008 C 
ATOM     23  C   UNL     1     132.781 133.479 152.740  1.00  0.00    -0.027 C 
ATOM     24  C   UNL     1     132.209 134.527 153.370  1.00  0.00    -0.065 C 
ATOM     25  C   UNL     1     130.205 136.067 153.787  1.00  0.00     0.014 C 
ATOM     26  C   UNL     1     130.299 133.757 154.778  1.00  0.00     0.016 C 
ATOM     27  C   UNL     1     133.110 135.470 154.153  1.00  0.00     0.063 C 
ATOM     28  C   UNL     1     131.098 136.847 154.765  1.00  0.00     0.033 C 
ATOM     29  C   UNL     1     132.544 136.888 154.252  1.00  0.00     0.118 C 
BRANCH  29  30
ATOM     30  O   UNL     1     132.615 137.508 152.994  1.00  0.00    -0.393 OA
ATOM     31  H   UNL     1     132.860 138.456 153.155  1.00  0.00     0.210 HD
ENDBRANCH  29  30
ENDBRANCH   1  11
TORSDOF 6
ENDMDL
MODEL 7
REMARK VINA RESULT:    -6.954      2.688      8.588
REMARK INTER + INTRA:         -10.086
REMARK INTER:                  -9.378
REMARK INTRA:                  -0.708
REMARK UNBOUND:                -0.895
REMARK SMILES CC[C@@H](C=C[C@@H](C)[C@@H]1CC[C@H]2[C@H]3CC=C4C[C@@H](O)CC[C@@]4(C)[C@H]3CC[C@@]21C)C(C)C
REMARK SMILES IDX 6 1 7 2 5 3 4 4 3 5 2 6 1 7 28 8 29 9 30 10 8 11 9 12 26 13
REMARK SMILES IDX 10 14 11 15 25 16 27 17 12 18 24 19 23 20 13 21 21 22 14 23
REMARK SMILES IDX 15 24 20 25 22 26 16 27 19 28 17 29 18 30
REMARK H PARENT 18 31
REMARK Flexibility Score: inf
ROOT
ATOM      1  C   UNL     1     129.247 132.279 150.392  1.00  0.00     0.012 C 
ATOM      2  C   UNL     1     128.828 130.906 150.950  1.00  0.00     0.012 C 
ENDROOT
BRANCH   1   3
ATOM      3  C   UNL     1     128.926 132.361 148.910  1.00  0.00    -0.028 C 
ATOM      4  C   UNL     1     129.187 131.373 148.034  1.00  0.00    -0.027 C 
BRANCH   4   5
ATOM      5  C   UNL     1     128.805 131.405 146.562  1.00  0.00     0.014 C 
BRANCH   5   6
ATOM      6  C   UNL     1     127.390 132.011 146.332  1.00  0.00     0.004 C 
ATOM      7  C   UNL     1     126.361 131.604 147.386  1.00  0.00     0.004 C 
ENDBRANCH   5   6
BRANCH   5   8
ATOM      8  C   UNL     1     129.073 129.998 145.928  1.00  0.00    -0.011 C 
ATOM      9  C   UNL     1     129.767 129.027 146.897  1.00  0.00     0.008 C 
ATOM     10  C   UNL     1     129.807 130.056 144.580  1.00  0.00     0.008 C 
ENDBRANCH   5   8
ENDBRANCH   4   5
ENDBRANCH   1   3
BRANCH   1  11
ATOM     11  C   UNL     1     130.710 132.766 150.714  1.00  0.00     0.002 C 
ATOM     12  C   UNL     1     131.700 131.654 151.186  1.00  0.00     0.005 C 
ATOM     13  C   UNL     1     130.874 133.910 151.779  1.00  0.00    -0.026 C 
ATOM     14  C   UNL     1     132.237 132.055 152.569  1.00  0.00     0.005 C 
ATOM     15  C   UNL     1     131.257 133.114 153.032  1.00  0.00    -0.001 C 
ATOM     16  C   UNL     1     129.631 134.760 152.129  1.00  0.00     0.007 C 
ATOM     17  C   UNL     1     131.998 134.861 151.254  1.00  0.00     0.012 C 
ATOM     18  C   UNL     1     131.567 133.935 154.307  1.00  0.00     0.000 C 
ATOM     19  C   UNL     1     129.879 135.664 153.362  1.00  0.00     0.005 C 
ATOM     20  C   UNL     1     130.371 134.890 154.631  1.00  0.00     0.003 C 
ATOM     21  C   UNL     1     132.971 134.603 154.349  1.00  0.00     0.031 C 
ATOM     22  C   UNL     1     130.715 135.809 155.870  1.00  0.00    -0.008 C 
ATOM     23  C   UNL     1     133.003 136.012 154.886  1.00  0.00    -0.027 C 
ATOM     24  C   UNL     1     132.002 136.585 155.587  1.00  0.00    -0.065 C 
ATOM     25  C   UNL     1     129.522 136.770 156.202  1.00  0.00     0.014 C 
ATOM     26  C   UNL     1     130.955 134.920 157.123  1.00  0.00     0.016 C 
ATOM     27  C   UNL     1     132.292 137.885 156.319  1.00  0.00     0.063 C 
ATOM     28  C   UNL     1     129.912 137.936 157.125  1.00  0.00     0.033 C 
ATOM     29  C   UNL     1     131.048 138.757 156.499  1.00  0.00     0.118 C 
BRANCH  29  30
ATOM     30  O   UNL     1     130.662 139.284 155.256  1.00  0.00    -0.393 OA
ATOM     31  H   UNL     1     131.104 138.732 154.560  1.00  0.00     0.210 HD
ENDBRANCH  29  30
ENDBRANCH   1  11
TORSDOF 6
ENDMDL
MODEL 8
REMARK VINA RESULT:    -6.884      2.632      4.717
REMARK INTER + INTRA:          -9.992
REMARK INTER:                  -8.837
REMARK INTRA:                  -1.155
REMARK UNBOUND:                -0.895
REMARK SMILES CC[C@@H](C=C[C@@H](C)[C@@H]1CC[C@H]2[C@H]3CC=C4C[C@@H](O)CC[C@@]4(C)[C@H]3CC[C@@]21C)C(C)C
REMARK SMILES IDX 6 1 7 2 5 3 4 4 3 5 2 6 1 7 28 8 29 9 30 10 8 11 9 12 26 13
REMARK SMILES IDX 10 14 11 15 25 16 27 17 12 18 24 19 23 20 13 21 21 22 14 23
REMARK SMILES IDX 15 24 20 25 22 26 16 27 19 28 17 29 18 30
REMARK H PARENT 18 31
REMARK Flexibility Score: inf
ROOT
ATOM      1  C   UNL     1     131.985 133.390 151.418  1.00  0.00     0.012 C 
ATOM      2  C   UNL     1     131.962 131.935 151.923  1.00  0.00     0.012 C 
ENDROOT
BRANCH   1   3
ATOM      3  C   UNL     1     132.506 134.313 152.505  1.00  0.00    -0.028 C 
ATOM      4  C   UNL     1     132.230 135.630 152.561  1.00  0.00    -0.027 C 
BRANCH   4   5
ATOM      5  C   UNL     1     132.678 136.556 153.682  1.00  0.00     0.014 C 
BRANCH   5   6
ATOM      6  C   UNL     1     133.586 135.831 154.720  1.00  0.00     0.004 C 
ATOM      7  C   UNL     1     135.068 136.184 154.602  1.00  0.00     0.004 C 
ENDBRANCH   5   6
BRANCH   5   8
ATOM      8  C   UNL     1     131.433 137.314 154.254  1.00  0.00    -0.011 C 
ATOM      9  C   UNL     1     131.752 138.112 155.528  1.00  0.00     0.008 C 
ATOM     10  C   UNL     1     130.201 136.419 154.454  1.00  0.00     0.008 C 
ENDBRANCH   5   8
ENDBRANCH   4   5
ENDBRANCH   1   3
BRANCH   1  11
ATOM     11  C   UNL     1     130.665 133.936 150.753  1.00  0.00     0.002 C 
ATOM     12  C   UNL     1     129.356 133.712 151.573  1.00  0.00     0.005 C 
ATOM     13  C   UNL     1     130.314 133.418 149.310  1.00  0.00    -0.026 C 
ATOM     14  C   UNL     1     128.382 132.906 150.699  1.00  0.00     0.005 C 
ATOM     15  C   UNL     1     129.275 132.333 149.616  1.00  0.00    -0.001 C 
ATOM     16  C   UNL     1     131.442 132.762 148.480  1.00  0.00     0.007 C 
ATOM     17  C   UNL     1     129.753 134.641 148.514  1.00  0.00     0.012 C 
ATOM     18  C   UNL     1     128.636 131.623 148.399  1.00  0.00     0.000 C 
ATOM     19  C   UNL     1     130.894 132.079 147.202  1.00  0.00     0.005 C 
ATOM     20  C   UNL     1     129.755 131.038 147.475  1.00  0.00     0.003 C 
ATOM     21  C   UNL     1     127.527 132.424 147.659  1.00  0.00     0.031 C 
ATOM     22  C   UNL     1     129.124 130.399 146.175  1.00  0.00    -0.008 C 
ATOM     23  C   UNL     1     127.573 132.358 146.153  1.00  0.00    -0.027 C 
ATOM     24  C   UNL     1     128.279 131.448 145.451  1.00  0.00    -0.065 C 
ATOM     25  C   UNL     1     130.238 129.811 145.242  1.00  0.00     0.014 C 
ATOM     26  C   UNL     1     128.189 129.223 146.577  1.00  0.00     0.016 C 
ATOM     27  C   UNL     1     127.992 131.311 143.964  1.00  0.00     0.063 C 
ATOM     28  C   UNL     1     129.754 129.525 143.811  1.00  0.00     0.033 C 
ATOM     29  C   UNL     1     129.197 130.803 143.170  1.00  0.00     0.118 C 
BRANCH  29  30
ATOM     30  O   UNL     1     130.177 131.807 143.114  1.00  0.00    -0.393 OA
ATOM     31  H   UNL     1     129.751 132.601 142.698  1.00  0.00     0.210 HD
ENDBRANCH  29  30
ENDBRANCH   1  11
TORSDOF 6
ENDMDL
MODEL 9
REMARK VINA RESULT:    -6.856      3.318      9.387
REMARK INTER + INTRA:          -9.956
REMARK INTER:                  -9.812
REMARK INTRA:                  -0.144
REMARK UNBOUND:                -0.895
REMARK SMILES CC[C@@H](C=C[C@@H](C)[C@@H]1CC[C@H]2[C@H]3CC=C4C[C@@H](O)CC[C@@]4(C)[C@H]3CC[C@@]21C)C(C)C
REMARK SMILES IDX 6 1 7 2 5 3 4 4 3 5 2 6 1 7 28 8 29 9 30 10 8 11 9 12 26 13
REMARK SMILES IDX 10 14 11 15 25 16 27 17 12 18 24 19 23 20 13 21 21 22 14 23
REMARK SMILES IDX 15 24 20 25 22 26 16 27 19 28 17 29 18 30
REMARK H PARENT 18 31
REMARK Flexibility Score: inf
ROOT
ATOM      1  C   UNL     1     128.924 129.587 146.586  1.00  0.00     0.012 C 
ATOM      2  C   UNL     1     130.108 129.003 147.380  1.00  0.00     0.012 C 
ENDROOT
BRANCH   1   3
ATOM      3  C   UNL     1     129.413 130.177 145.275  1.00  0.00    -0.028 C 
ATOM      4  C   UNL     1     128.999 129.752 144.066  1.00  0.00    -0.027 C 
BRANCH   4   5
ATOM      5  C   UNL     1     129.418 130.379 142.745  1.00  0.00     0.014 C 
BRANCH   5   6
ATOM      6  C   UNL     1     130.736 131.198 142.871  1.00  0.00     0.004 C 
ATOM      7  C   UNL     1     131.780 130.864 141.806  1.00  0.00     0.004 C 
ENDBRANCH   5   6
BRANCH   5   8
ATOM      8  C   UNL     1     128.192 131.123 142.115  1.00  0.00    -0.011 C 
ATOM      9  C   UNL     1     128.374 131.413 140.617  1.00  0.00     0.008 C 
ATOM     10  C   UNL     1     127.777 132.389 142.880  1.00  0.00     0.008 C 
ENDBRANCH   5   8
ENDBRANCH   4   5
ENDBRANCH   1   3
BRANCH   1  11
ATOM     11  C   UNL     1     127.960 130.566 147.358  1.00  0.00     0.002 C 
ATOM     12  C   UNL     1     127.369 131.735 146.510  1.00  0.00     0.005 C 
ATOM     13  C   UNL     1     128.522 131.267 148.648  1.00  0.00    -0.026 C 
ATOM     14  C   UNL     1     127.770 133.058 147.182  1.00  0.00     0.005 C 
ATOM     15  C   UNL     1     128.898 132.652 148.109  1.00  0.00    -0.001 C 
ATOM     16  C   UNL     1     129.784 130.667 149.310  1.00  0.00     0.007 C 
ATOM     17  C   UNL     1     127.364 131.279 149.699  1.00  0.00     0.012 C 
ATOM     18  C   UNL     1     129.444 133.671 149.137  1.00  0.00     0.000 C 
ATOM     19  C   UNL     1     130.361 131.600 150.403  1.00  0.00     0.005 C 
ATOM     20  C   UNL     1     130.660 133.055 149.906  1.00  0.00     0.003 C 
ATOM     21  C   UNL     1     128.376 134.354 150.037  1.00  0.00     0.031 C 
ATOM     22  C   UNL     1     131.164 134.044 151.030  1.00  0.00    -0.008 C 
ATOM     23  C   UNL     1     128.751 134.504 151.490  1.00  0.00    -0.027 C 
ATOM     24  C   UNL     1     130.006 134.378 151.971  1.00  0.00    -0.065 C 
ATOM     25  C   UNL     1     132.381 133.434 151.807  1.00  0.00     0.014 C 
ATOM     26  C   UNL     1     131.650 135.369 150.376  1.00  0.00     0.016 C 
ATOM     27  C   UNL     1     130.280 134.851 153.389  1.00  0.00     0.063 C 
ATOM     28  C   UNL     1     132.679 134.144 153.138  1.00  0.00     0.033 C 
ATOM     29  C   UNL     1     131.445 134.110 154.049  1.00  0.00     0.118 C 
BRANCH  29  30
ATOM     30  O   UNL     1     131.061 132.789 154.328  1.00  0.00    -0.393 OA
ATOM     31  H   UNL     1     131.511 132.212 153.657  1.00  0.00     0.210 HD
ENDBRANCH  29  30
ENDBRANCH   1  11
TORSDOF 6
ENDMDL
