MODEL 1
REMARK VINA RESULT:    -4.382      0.000      0.000
REMARK INTER + INTRA:          -8.306
REMARK INTER:                  -7.455
REMARK INTRA:                  -0.850
REMARK UNBOUND:                -0.850
REMARK SMILES CCCCCCCCCCCCCC(=O)[O-]
REMARK SMILES IDX 8 1 9 2 10 3 11 4 12 5 13 6 14 7 15 8 16 9 7 10 6 11 5 12
REMARK SMILES IDX 4 13 3 14 2 15 1 16
REMARK H PARENT
REMARK Flexibility Score: inf
ROOT
ATOM      1  C   UNL     1      27.891  13.655 -13.069  1.00  0.00     0.000 C 
ENDROOT
BRANCH   1   2
ATOM      2  C   UNL     1      27.763  13.154 -11.619  1.00  0.00     0.000 C 
BRANCH   2   3
ATOM      3  C   UNL     1      26.299  12.936 -11.200  1.00  0.00     0.000 C 
BRANCH   3   4
ATOM      4  C   UNL     1      25.696  14.169 -10.508  1.00  0.00     0.000 C 
BRANCH   4   5
ATOM      5  C   UNL     1      24.381  14.640 -11.154  1.00  0.00     0.006 C 
BRANCH   5   6
ATOM      6  C   UNL     1      24.575  15.443 -12.452  1.00  0.00     0.053 C 
BRANCH   6   7
ATOM      7  C   UNL     1      23.373  16.268 -12.805  1.00  0.00     0.041 C 
ATOM      8  O   UNL     1      22.721  16.855 -11.902  1.00  0.00    -0.550 OA
ATOM      9  O   UNL     1      22.950  16.359 -14.125  1.00  0.00    -0.550 OA
ENDBRANCH   6   7
ENDBRANCH   5   6
ENDBRANCH   4   5
ENDBRANCH   3   4
ENDBRANCH   2   3
ENDBRANCH   1   2
BRANCH   1  10
ATOM     10  C   UNL     1      28.214  15.155 -13.150  1.00  0.00     0.000 C 
BRANCH  10  11
ATOM     11  C   UNL     1      29.278  15.478 -14.209  1.00  0.00    -0.000 C 
BRANCH  11  12
ATOM     12  C   UNL     1      29.443  14.313 -15.197  1.00  0.00    -0.000 C 
BRANCH  12  13
ATOM     13  C   UNL     1      29.569  14.778 -16.659  1.00  0.00    -0.000 C 
BRANCH  13  14
ATOM     14  C   UNL     1      29.267  13.697 -17.714  1.00  0.00    -0.000 C 
BRANCH  14  15
ATOM     15  C   UNL     1      29.809  12.313 -17.325  1.00  0.00    -0.003 C 
ATOM     16  C   UNL     1      30.499  11.641 -18.508  1.00  0.00     0.004 C 
ENDBRANCH  14  15
ENDBRANCH  13  14
ENDBRANCH  12  13
ENDBRANCH  11  12
ENDBRANCH  10  11
ENDBRANCH   1  10
TORSDOF 12
ENDMDL
MODEL 2
REMARK VINA RESULT:    -4.308      3.198      5.729
REMARK INTER + INTRA:          -8.180
REMARK INTER:                  -6.577
REMARK INTRA:                  -1.603
REMARK UNBOUND:                -0.850
REMARK SMILES CCCCCCCCCCCCCC(=O)[O-]
REMARK SMILES IDX 8 1 9 2 10 3 11 4 12 5 13 6 14 7 15 8 16 9 7 10 6 11 5 12
REMARK SMILES IDX 4 13 3 14 2 15 1 16
REMARK H PARENT
REMARK Flexibility Score: inf
ROOT
ATOM      1  C   UNL     1      26.753  14.986 -11.650  1.00  0.00     0.000 C 
ENDROOT
BRANCH   1   2
ATOM      2  C   UNL     1      27.707  15.794 -12.549  1.00  0.00     0.000 C 
BRANCH   2   3
ATOM      3  C   UNL     1      28.518  14.899 -13.499  1.00  0.00     0.000 C 
BRANCH   3   4
ATOM      4  C   UNL     1      29.414  15.710 -14.450  1.00  0.00     0.000 C 
BRANCH   4   5
ATOM      5  C   UNL     1      30.228  14.826 -15.412  1.00  0.00     0.006 C 
BRANCH   5   6
ATOM      6  C   UNL     1      29.677  14.793 -16.849  1.00  0.00     0.053 C 
BRANCH   6   7
ATOM      7  C   UNL     1      29.175  13.437 -17.243  1.00  0.00     0.041 C 
ATOM      8  O   UNL     1      28.331  12.841 -16.522  1.00  0.00    -0.550 OA
ATOM      9  O   UNL     1      29.663  12.815 -18.385  1.00  0.00    -0.550 OA
ENDBRANCH   6   7
ENDBRANCH   5   6
ENDBRANCH   4   5
ENDBRANCH   3   4
ENDBRANCH   2   3
ENDBRANCH   1   2
BRANCH   1  10
ATOM     10  C   UNL     1      26.667  13.507 -12.059  1.00  0.00     0.000 C 
BRANCH  10  11
ATOM     11  C   UNL     1      26.842  12.550 -10.869  1.00  0.00    -0.000 C 
BRANCH  11  12
ATOM     12  C   UNL     1      28.071  11.650 -11.063  1.00  0.00    -0.000 C 
BRANCH  12  13
ATOM     13  C   UNL     1      29.395  12.435 -11.081  1.00  0.00    -0.000 C 
BRANCH  13  14
ATOM     14  C   UNL     1      30.430  11.942 -12.110  1.00  0.00    -0.000 C 
BRANCH  14  15
ATOM     15  C   UNL     1      29.803  11.583 -13.465  1.00  0.00    -0.003 C 
ATOM     16  C   UNL     1      30.877  11.271 -14.503  1.00  0.00     0.004 C 
ENDBRANCH  14  15
ENDBRANCH  13  14
ENDBRANCH  12  13
ENDBRANCH  11  12
ENDBRANCH  10  11
ENDBRANCH   1  10
TORSDOF 12
ENDMDL
MODEL 3
REMARK VINA RESULT:    -4.276      2.173      3.938
REMARK INTER + INTRA:          -8.125
REMARK INTER:                  -6.779
REMARK INTRA:                  -1.346
REMARK UNBOUND:                -0.850
REMARK SMILES CCCCCCCCCCCCCC(=O)[O-]
REMARK SMILES IDX 8 1 9 2 10 3 11 4 12 5 13 6 14 7 15 8 16 9 7 10 6 11 5 12
REMARK SMILES IDX 4 13 3 14 2 15 1 16
REMARK H PARENT
REMARK Flexibility Score: inf
ROOT
ATOM      1  C   UNL     1      29.544  14.369 -15.936  1.00  0.00     0.000 C 
ENDROOT
BRANCH   1   2
ATOM      2  C   UNL     1      29.886  13.652 -14.617  1.00  0.00     0.000 C 
BRANCH   2   3
ATOM      3  C   UNL     1      28.738  12.760 -14.118  1.00  0.00     0.000 C 
BRANCH   3   4
ATOM      4  C   UNL     1      29.007  12.182 -12.719  1.00  0.00     0.000 C 
BRANCH   4   5
ATOM      5  C   UNL     1      28.489  13.084 -11.584  1.00  0.00     0.006 C 
BRANCH   5   6
ATOM      6  C   UNL     1      27.043  12.778 -11.154  1.00  0.00     0.053 C 
BRANCH   6   7
ATOM      7  C   UNL     1      26.168  13.995 -11.169  1.00  0.00     0.041 C 
ATOM      8  O   UNL     1      25.500  14.308 -10.148  1.00  0.00    -0.550 OA
ATOM      9  O   UNL     1      26.059  14.763 -12.322  1.00  0.00    -0.550 OA
ENDBRANCH   6   7
ENDBRANCH   5   6
ENDBRANCH   4   5
ENDBRANCH   3   4
ENDBRANCH   2   3
ENDBRANCH   1   2
BRANCH   1  10
ATOM     10  C   UNL     1      28.779  13.467 -16.917  1.00  0.00     0.000 C 
BRANCH  10  11
ATOM     11  C   UNL     1      29.479  13.340 -18.279  1.00  0.00    -0.000 C 
BRANCH  11  12
ATOM     12  C   UNL     1      30.778  12.530 -18.157  1.00  0.00    -0.000 C 
BRANCH  12  13
ATOM     13  C   UNL     1      30.681  11.136 -18.804  1.00  0.00    -0.000 C 
BRANCH  13  14
ATOM     14  C   UNL     1      31.008   9.960 -17.866  1.00  0.00    -0.000 C 
BRANCH  14  15
ATOM     15  C   UNL     1      30.742  10.279 -16.388  1.00  0.00    -0.003 C 
ATOM     16  C   UNL     1      29.413   9.685 -15.928  1.00  0.00     0.004 C 
ENDBRANCH  14  15
ENDBRANCH  13  14
ENDBRANCH  12  13
ENDBRANCH  11  12
ENDBRANCH  10  11
ENDBRANCH   1  10
TORSDOF 12
ENDMDL
MODEL 4
REMARK VINA RESULT:    -4.253      2.289      3.873
REMARK INTER + INTRA:          -8.087
REMARK INTER:                  -6.589
REMARK INTRA:                  -1.498
REMARK UNBOUND:                -0.850
REMARK SMILES CCCCCCCCCCCCCC(=O)[O-]
REMARK SMILES IDX 8 1 9 2 10 3 11 4 12 5 13 6 14 7 15 8 16 9 7 10 6 11 5 12
REMARK SMILES IDX 4 13 3 14 2 15 1 16
REMARK H PARENT
REMARK Flexibility Score: inf
ROOT
ATOM      1  C   UNL     1      29.744  10.494 -13.632  1.00  0.00     0.000 C 
ENDROOT
BRANCH   1   2
ATOM      2  C   UNL     1      30.523  11.385 -12.645  1.00  0.00     0.000 C 
BRANCH   2   3
ATOM      3  C   UNL     1      29.594  12.203 -11.734  1.00  0.00     0.000 C 
BRANCH   3   4
ATOM      4  C   UNL     1      28.463  11.353 -11.132  1.00  0.00     0.000 C 
BRANCH   4   5
ATOM      5  C   UNL     1      27.180  12.160 -10.864  1.00  0.00     0.006 C 
BRANCH   5   6
ATOM      6  C   UNL     1      27.019  13.397 -11.766  1.00  0.00     0.053 C 
BRANCH   6   7
ATOM      7  C   UNL     1      25.812  14.214 -11.415  1.00  0.00     0.041 C 
ATOM      8  O   UNL     1      25.204  14.861 -12.308  1.00  0.00    -0.550 OA
ATOM      9  O   UNL     1      25.380  14.291 -10.097  1.00  0.00    -0.550 OA
ENDBRANCH   6   7
ENDBRANCH   5   6
ENDBRANCH   4   5
ENDBRANCH   3   4
ENDBRANCH   2   3
ENDBRANCH   1   2
BRANCH   1  10
ATOM     10  C   UNL     1      30.428  10.393 -15.003  1.00  0.00     0.000 C 
BRANCH  10  11
ATOM     11  C   UNL     1      29.493  10.766 -16.164  1.00  0.00    -0.000 C 
BRANCH  11  12
ATOM     12  C   UNL     1      28.582  11.941 -15.780  1.00  0.00    -0.000 C 
BRANCH  12  13
ATOM     13  C   UNL     1      28.683  13.125 -16.758  1.00  0.00    -0.000 C 
BRANCH  13  14
ATOM     14  C   UNL     1      29.709  14.205 -16.370  1.00  0.00    -0.000 C 
BRANCH  14  15
ATOM     15  C   UNL     1      30.018  14.224 -14.865  1.00  0.00    -0.003 C 
ATOM     16  C   UNL     1      29.184  15.281 -14.147  1.00  0.00     0.004 C 
ENDBRANCH  14  15
ENDBRANCH  13  14
ENDBRANCH  12  13
ENDBRANCH  11  12
ENDBRANCH  10  11
ENDBRANCH   1  10
TORSDOF 12
ENDMDL
MODEL 5
REMARK VINA RESULT:    -4.234      2.778      5.146
REMARK INTER + INTRA:          -8.055
REMARK INTER:                  -6.532
REMARK INTRA:                  -1.523
REMARK UNBOUND:                -0.850
REMARK SMILES CCCCCCCCCCCCCC(=O)[O-]
REMARK SMILES IDX 8 1 9 2 10 3 11 4 12 5 13 6 14 7 15 8 16 9 7 10 6 11 5 12
REMARK SMILES IDX 4 13 3 14 2 15 1 16
REMARK H PARENT
REMARK Flexibility Score: inf
ROOT
ATOM      1  C   UNL     1      28.894  13.750 -17.128  1.00  0.00     0.000 C 
ENDROOT
BRANCH   1   2
ATOM      2  C   UNL     1      29.664  15.000 -16.664  1.00  0.00     0.000 C 
BRANCH   2   3
ATOM      3  C   UNL     1      29.903  15.011 -15.145  1.00  0.00     0.000 C 
BRANCH   3   4
ATOM      4  C   UNL     1      30.470  13.678 -14.629  1.00  0.00     0.000 C 
BRANCH   4   5
ATOM      5  C   UNL     1      29.670  13.101 -13.447  1.00  0.00     0.006 C 
BRANCH   5   6
ATOM      6  C   UNL     1      28.185  13.507 -13.440  1.00  0.00     0.053 C 
BRANCH   6   7
ATOM      7  C   UNL     1      27.740  14.037 -12.110  1.00  0.00     0.041 C 
ATOM      8  O   UNL     1      27.408  13.244 -11.191  1.00  0.00    -0.550 OA
ATOM      9  O   UNL     1      27.656  15.408 -11.897  1.00  0.00    -0.550 OA
ENDBRANCH   6   7
ENDBRANCH   5   6
ENDBRANCH   4   5
ENDBRANCH   3   4
ENDBRANCH   2   3
ENDBRANCH   1   2
BRANCH   1  10
ATOM     10  C   UNL     1      29.471  13.145 -18.418  1.00  0.00     0.000 C 
BRANCH  10  11
ATOM     11  C   UNL     1      30.840  12.481 -18.203  1.00  0.00    -0.000 C 
BRANCH  11  12
ATOM     12  C   UNL     1      30.839  11.036 -18.723  1.00  0.00    -0.000 C 
BRANCH  12  13
ATOM     13  C   UNL     1      31.087   9.997 -17.615  1.00  0.00    -0.000 C 
BRANCH  13  14
ATOM     14  C   UNL     1      29.815   9.416 -16.971  1.00  0.00    -0.000 C 
BRANCH  14  15
ATOM     15  C   UNL     1      29.304  10.255 -15.790  1.00  0.00    -0.003 C 
ATOM     16  C   UNL     1      29.587   9.561 -14.461  1.00  0.00     0.004 C 
ENDBRANCH  14  15
ENDBRANCH  13  14
ENDBRANCH  12  13
ENDBRANCH  11  12
ENDBRANCH  10  11
ENDBRANCH   1  10
TORSDOF 12
ENDMDL
MODEL 6
REMARK VINA RESULT:    -4.221      3.181      4.308
REMARK INTER + INTRA:          -8.032
REMARK INTER:                  -6.229
REMARK INTRA:                  -1.803
REMARK UNBOUND:                -0.850
REMARK SMILES CCCCCCCCCCCCCC(=O)[O-]
REMARK SMILES IDX 8 1 9 2 10 3 11 4 12 5 13 6 14 7 15 8 16 9 7 10 6 11 5 12
REMARK SMILES IDX 4 13 3 14 2 15 1 16
REMARK H PARENT
REMARK Flexibility Score: inf
ROOT
ATOM      1  C   UNL     1      30.054   9.339 -10.355  1.00  0.00     0.000 C 
ENDROOT
BRANCH   1   2
ATOM      2  C   UNL     1      29.339  10.670 -10.060  1.00  0.00     0.000 C 
BRANCH   2   3
ATOM      3  C   UNL     1      30.162  11.890 -10.507  1.00  0.00     0.000 C 
BRANCH   3   4
ATOM      4  C   UNL     1      29.325  12.902 -11.307  1.00  0.00     0.000 C 
BRANCH   4   5
ATOM      5  C   UNL     1      27.819  12.583 -11.294  1.00  0.00     0.006 C 
BRANCH   5   6
ATOM      6  C   UNL     1      27.017  13.306 -12.391  1.00  0.00     0.053 C 
BRANCH   6   7
ATOM      7  C   UNL     1      26.315  14.528 -11.881  1.00  0.00     0.041 C 
ATOM      8  O   UNL     1      25.335  14.414 -11.098  1.00  0.00    -0.550 OA
ATOM      9  O   UNL     1      26.717  15.791 -12.297  1.00  0.00    -0.550 OA
ENDBRANCH   6   7
ENDBRANCH   5   6
ENDBRANCH   4   5
ENDBRANCH   3   4
ENDBRANCH   2   3
ENDBRANCH   1   2
BRANCH   1  10
ATOM     10  C   UNL     1      30.414   9.178 -11.840  1.00  0.00     0.000 C 
BRANCH  10  11
ATOM     11  C   UNL     1      29.185   9.229 -12.760  1.00  0.00    -0.000 C 
BRANCH  11  12
ATOM     12  C   UNL     1      29.560   9.759 -14.152  1.00  0.00    -0.000 C 
BRANCH  12  13
ATOM     13  C   UNL     1      30.618  10.876 -14.105  1.00  0.00    -0.000 C 
BRANCH  13  14
ATOM     14  C   UNL     1      30.219  12.180 -14.819  1.00  0.00    -0.000 C 
BRANCH  14  15
ATOM     15  C   UNL     1      28.786  12.147 -15.371  1.00  0.00    -0.003 C 
ATOM     16  C   UNL     1      28.683  12.921 -16.682  1.00  0.00     0.004 C 
ENDBRANCH  14  15
ENDBRANCH  13  14
ENDBRANCH  12  13
ENDBRANCH  11  12
ENDBRANCH  10  11
ENDBRANCH   1  10
TORSDOF 12
ENDMDL
MODEL 7
REMARK VINA RESULT:    -4.215      3.969      6.705
REMARK INTER + INTRA:          -8.021
REMARK INTER:                  -6.566
REMARK INTRA:                  -1.455
REMARK UNBOUND:                -0.850
REMARK SMILES CCCCCCCCCCCCCC(=O)[O-]
REMARK SMILES IDX 8 1 9 2 10 3 11 4 12 5 13 6 14 7 15 8 16 9 7 10 6 11 5 12
REMARK SMILES IDX 4 13 3 14 2 15 1 16
REMARK H PARENT
REMARK Flexibility Score: inf
ROOT
ATOM      1  C   UNL     1      30.574   9.549 -12.276  1.00  0.00     0.000 C 
ENDROOT
BRANCH   1   2
ATOM      2  C   UNL     1      29.349   9.168 -13.128  1.00  0.00     0.000 C 
BRANCH   2   3
ATOM      3  C   UNL     1      29.395   9.789 -14.534  1.00  0.00     0.000 C 
BRANCH   3   4
ATOM      4  C   UNL     1      29.896  11.243 -14.518  1.00  0.00     0.000 C 
BRANCH   4   5
ATOM      5  C   UNL     1      28.775  12.269 -14.759  1.00  0.00     0.006 C 
BRANCH   5   6
ATOM      6  C   UNL     1      28.448  12.500 -16.246  1.00  0.00     0.053 C 
BRANCH   6   7
ATOM      7  C   UNL     1      29.421  13.426 -16.912  1.00  0.00     0.041 C 
ATOM      8  O   UNL     1      29.929  14.381 -16.268  1.00  0.00    -0.550 OA
ATOM      9  O   UNL     1      29.739  13.257 -18.254  1.00  0.00    -0.550 OA
ENDBRANCH   6   7
ENDBRANCH   5   6
ENDBRANCH   4   5
ENDBRANCH   3   4
ENDBRANCH   2   3
ENDBRANCH   1   2
BRANCH   1  10
ATOM     10  C   UNL     1      30.348   9.310 -10.776  1.00  0.00     0.000 C 
BRANCH  10  11
ATOM     11  C   UNL     1      29.485  10.400 -10.123  1.00  0.00    -0.000 C 
BRANCH  11  12
ATOM     12  C   UNL     1      29.900  11.796 -10.610  1.00  0.00    -0.000 C 
BRANCH  12  13
ATOM     13  C   UNL     1      28.741  12.578 -11.254  1.00  0.00    -0.000 C 
BRANCH  13  14
ATOM     14  C   UNL     1      27.336  12.029 -10.948  1.00  0.00    -0.000 C 
BRANCH  14  15
ATOM     15  C   UNL     1      26.230  13.082 -11.121  1.00  0.00    -0.003 C 
ATOM     16  C   UNL     1      26.553  14.035 -12.268  1.00  0.00     0.004 C 
ENDBRANCH  14  15
ENDBRANCH  13  14
ENDBRANCH  12  13
ENDBRANCH  11  12
ENDBRANCH  10  11
ENDBRANCH   1  10
TORSDOF 12
ENDMDL
MODEL 8
REMARK VINA RESULT:    -4.112      4.539      6.001
REMARK INTER + INTRA:          -7.846
REMARK INTER:                  -6.361
REMARK INTRA:                  -1.485
REMARK UNBOUND:                -0.850
REMARK SMILES CCCCCCCCCCCCCC(=O)[O-]
REMARK SMILES IDX 8 1 9 2 10 3 11 4 12 5 13 6 14 7 15 8 16 9 7 10 6 11 5 12
REMARK SMILES IDX 4 13 3 14 2 15 1 16
REMARK H PARENT
REMARK Flexibility Score: inf
ROOT
ATOM      1  C   UNL     1      28.510  12.540 -16.229  1.00  0.00     0.000 C 
ENDROOT
BRANCH   1   2
ATOM      2  C   UNL     1      28.699  13.047 -14.787  1.00  0.00     0.000 C 
BRANCH   2   3
ATOM      3  C   UNL     1      30.181  13.174 -14.399  1.00  0.00     0.000 C 
BRANCH   3   4
ATOM      4  C   UNL     1      30.733  11.889 -13.759  1.00  0.00     0.000 C 
BRANCH   4   5
ATOM      5  C   UNL     1      29.804  11.307 -12.678  1.00  0.00     0.006 C 
BRANCH   5   6
ATOM      6  C   UNL     1      30.516  10.976 -11.354  1.00  0.00     0.053 C 
BRANCH   6   7
ATOM      7  C   UNL     1      29.579  10.440 -10.314  1.00  0.00     0.041 C 
ATOM      8  O   UNL     1      28.420  10.919 -10.200  1.00  0.00    -0.550 OA
ATOM      9  O   UNL     1      29.996   9.439  -9.446  1.00  0.00    -0.550 OA
ENDBRANCH   6   7
ENDBRANCH   5   6
ENDBRANCH   4   5
ENDBRANCH   3   4
ENDBRANCH   2   3
ENDBRANCH   1   2
BRANCH   1  10
ATOM     10  C   UNL     1      28.727  13.643 -17.276  1.00  0.00     0.000 C 
BRANCH  10  11
ATOM     11  C   UNL     1      29.691  13.220 -18.395  1.00  0.00    -0.000 C 
BRANCH  11  12
ATOM     12  C   UNL     1      30.661  12.136 -17.904  1.00  0.00    -0.000 C 
BRANCH  12  13
ATOM     13  C   UNL     1      30.727  10.917 -18.843  1.00  0.00    -0.000 C 
BRANCH  13  14
ATOM     14  C   UNL     1      30.844   9.555 -18.135  1.00  0.00    -0.000 C 
BRANCH  14  15
ATOM     15  C   UNL     1      30.872   9.676 -16.604  1.00  0.00    -0.003 C 
ATOM     16  C   UNL     1      29.625   9.054 -15.981  1.00  0.00     0.004 C 
ENDBRANCH  14  15
ENDBRANCH  13  14
ENDBRANCH  12  13
ENDBRANCH  11  12
ENDBRANCH  10  11
ENDBRANCH   1  10
TORSDOF 12
ENDMDL
