MODEL 1
REMARK VINA RESULT:    -2.893      0.000      0.000
REMARK INTER + INTRA:          -6.987
REMARK INTER:                  -4.923
REMARK INTRA:                  -2.064
REMARK UNBOUND:                -2.064
REMARK SMILES CCCCCCCCCCCCCC(=O)[O-]
REMARK SMILES IDX 8 1 9 2 10 3 11 4 12 5 13 6 14 7 15 8 16 9 7 10 6 11 5 12
REMARK SMILES IDX 4 13 3 14 2 15 1 16
REMARK H PARENT
REMARK Flexibility Score: inf
ROOT
ATOM      1  C   UNL     1      10.524   7.910  31.216  1.00  0.00     0.000 C 
ENDROOT
BRANCH   1   2
ATOM      2  C   UNL     1      10.103   8.382  32.616  1.00  0.00     0.000 C 
BRANCH   2   3
ATOM      3  C   UNL     1      10.818   7.615  33.740  1.00  0.00     0.000 C 
BRANCH   3   4
ATOM      4  C   UNL     1      11.652   6.436  33.215  1.00  0.00     0.000 C 
BRANCH   4   5
ATOM      5  C   UNL     1      11.366   5.160  34.019  1.00  0.00     0.006 C 
BRANCH   5   6
ATOM      6  C   UNL     1       9.871   4.819  34.056  1.00  0.00     0.053 C 
BRANCH   6   7
ATOM      7  C   UNL     1       9.401   4.537  35.451  1.00  0.00     0.041 C 
ATOM      8  O   UNL     1       9.041   3.376  35.777  1.00  0.00    -0.550 OA
ATOM      9  O   UNL     1       9.331   5.566  36.381  1.00  0.00    -0.550 OA
ENDBRANCH   6   7
ENDBRANCH   5   6
ENDBRANCH   4   5
ENDBRANCH   3   4
ENDBRANCH   2   3
ENDBRANCH   1   2
BRANCH   1  10
ATOM     10  C   UNL     1       9.326   7.896  30.259  1.00  0.00     0.000 C 
BRANCH  10  11
ATOM     11  C   UNL     1       8.063   7.385  30.965  1.00  0.00    -0.000 C 
BRANCH  11  12
ATOM     12  C   UNL     1       7.997   5.849  31.045  1.00  0.00    -0.000 C 
BRANCH  12  13
ATOM     13  C   UNL     1       8.688   5.103  29.888  1.00  0.00    -0.000 C 
BRANCH  13  14
ATOM     14  C   UNL     1       9.724   4.074  30.373  1.00  0.00    -0.000 C 
BRANCH  14  15
ATOM     15  C   UNL     1      11.157   4.441  29.957  1.00  0.00    -0.003 C 
ATOM     16  C   UNL     1      12.217   3.652  30.724  1.00  0.00     0.004 C 
ENDBRANCH  14  15
ENDBRANCH  13  14
ENDBRANCH  12  13
ENDBRANCH  11  12
ENDBRANCH  10  11
ENDBRANCH   1  10
TORSDOF 12
ENDMDL
MODEL 2
REMARK VINA RESULT:    -2.868      2.254      4.399
REMARK INTER + INTRA:          -6.945
REMARK INTER:                  -5.118
REMARK INTRA:                  -1.827
REMARK UNBOUND:                -2.064
REMARK SMILES CCCCCCCCCCCCCC(=O)[O-]
REMARK SMILES IDX 8 1 9 2 10 3 11 4 12 5 13 6 14 7 15 8 16 9 7 10 6 11 5 12
REMARK SMILES IDX 4 13 3 14 2 15 1 16
REMARK H PARENT
REMARK Flexibility Score: inf
ROOT
ATOM      1  C   UNL     1       8.022   6.648  31.003  1.00  0.00     0.000 C 
ENDROOT
BRANCH   1   2
ATOM      2  C   UNL     1       8.610   6.212  29.652  1.00  0.00     0.000 C 
BRANCH   2   3
ATOM      3  C   UNL     1       9.009   4.729  29.630  1.00  0.00     0.000 C 
BRANCH   3   4
ATOM      4  C   UNL     1      10.415   4.485  30.198  1.00  0.00     0.000 C 
BRANCH   4   5
ATOM      5  C   UNL     1      10.527   3.079  30.805  1.00  0.00     0.006 C 
BRANCH   5   6
ATOM      6  C   UNL     1       9.297   2.708  31.643  1.00  0.00     0.053 C 
BRANCH   6   7
ATOM      7  C   UNL     1       8.656   1.444  31.158  1.00  0.00     0.041 C 
ATOM      8  O   UNL     1       8.680   1.149  29.934  1.00  0.00    -0.550 OA
ATOM      9  O   UNL     1       8.004   0.606  32.053  1.00  0.00    -0.550 OA
ENDBRANCH   6   7
ENDBRANCH   5   6
ENDBRANCH   4   5
ENDBRANCH   3   4
ENDBRANCH   2   3
ENDBRANCH   1   2
BRANCH   1  10
ATOM     10  C   UNL     1       8.659   7.958  31.482  1.00  0.00     0.000 C 
BRANCH  10  11
ATOM     11  C   UNL     1      10.185   7.921  31.317  1.00  0.00    -0.000 C 
BRANCH  11  12
ATOM     12  C   UNL     1      10.933   8.579  32.491  1.00  0.00    -0.000 C 
BRANCH  12  13
ATOM     13  C   UNL     1      11.425   7.609  33.580  1.00  0.00    -0.000 C 
BRANCH  13  14
ATOM     14  C   UNL     1      11.905   6.262  33.011  1.00  0.00    -0.000 C 
BRANCH  14  15
ATOM     15  C   UNL     1      11.418   5.065  33.843  1.00  0.00    -0.003 C 
ATOM     16  C   UNL     1       9.939   5.166  34.215  1.00  0.00     0.004 C 
ENDBRANCH  14  15
ENDBRANCH  13  14
ENDBRANCH  12  13
ENDBRANCH  11  12
ENDBRANCH  10  11
ENDBRANCH   1  10
TORSDOF 12
ENDMDL
MODEL 3
REMARK VINA RESULT:    -2.860      2.410      2.887
REMARK INTER + INTRA:          -6.931
REMARK INTER:                  -5.026
REMARK INTRA:                  -1.905
REMARK UNBOUND:                -2.064
REMARK SMILES CCCCCCCCCCCCCC(=O)[O-]
REMARK SMILES IDX 8 1 9 2 10 3 11 4 12 5 13 6 14 7 15 8 16 9 7 10 6 11 5 12
REMARK SMILES IDX 4 13 3 14 2 15 1 16
REMARK H PARENT
REMARK Flexibility Score: inf
ROOT
ATOM      1  C   UNL     1       9.280   7.852  30.284  1.00  0.00     0.000 C 
ENDROOT
BRANCH   1   2
ATOM      2  C   UNL     1      10.476   7.994  31.238  1.00  0.00     0.000 C 
BRANCH   2   3
ATOM      3  C   UNL     1      10.047   8.285  32.685  1.00  0.00     0.000 C 
BRANCH   3   4
ATOM      4  C   UNL     1      10.927   7.567  33.719  1.00  0.00     0.000 C 
BRANCH   4   5
ATOM      5  C   UNL     1      11.800   6.496  33.049  1.00  0.00     0.006 C 
BRANCH   5   6
ATOM      6  C   UNL     1      12.458   5.559  34.071  1.00  0.00     0.053 C 
BRANCH   6   7
ATOM      7  C   UNL     1      13.760   5.016  33.566  1.00  0.00     0.041 C 
ATOM      8  O   UNL     1      13.977   4.935  32.329  1.00  0.00    -0.550 OA
ATOM      9  O   UNL     1      14.722   4.570  34.464  1.00  0.00    -0.550 OA
ENDBRANCH   6   7
ENDBRANCH   5   6
ENDBRANCH   4   5
ENDBRANCH   3   4
ENDBRANCH   2   3
ENDBRANCH   1   2
BRANCH   1  10
ATOM     10  C   UNL     1       8.100   7.164  30.980  1.00  0.00     0.000 C 
BRANCH  10  11
ATOM     11  C   UNL     1       8.166   5.641  30.797  1.00  0.00    -0.000 C 
BRANCH  11  12
ATOM     12  C   UNL     1       8.554   4.896  32.088  1.00  0.00    -0.000 C 
BRANCH  12  13
ATOM     13  C   UNL     1       9.673   3.850  31.928  1.00  0.00    -0.000 C 
BRANCH  13  14
ATOM     14  C   UNL     1       9.725   3.238  30.518  1.00  0.00    -0.000 C 
BRANCH  14  15
ATOM     15  C   UNL     1      11.116   3.358  29.876  1.00  0.00    -0.003 C 
ATOM     16  C   UNL     1      11.591   4.805  29.758  1.00  0.00     0.004 C 
ENDBRANCH  14  15
ENDBRANCH  13  14
ENDBRANCH  12  13
ENDBRANCH  11  12
ENDBRANCH  10  11
ENDBRANCH   1  10
TORSDOF 12
ENDMDL
MODEL 4
REMARK VINA RESULT:    -2.825      3.405      5.223
REMARK INTER + INTRA:          -6.871
REMARK INTER:                  -5.033
REMARK INTRA:                  -1.838
REMARK UNBOUND:                -2.064
REMARK SMILES CCCCCCCCCCCCCC(=O)[O-]
REMARK SMILES IDX 8 1 9 2 10 3 11 4 12 5 13 6 14 7 15 8 16 9 7 10 6 11 5 12
REMARK SMILES IDX 4 13 3 14 2 15 1 16
REMARK H PARENT
REMARK Flexibility Score: inf
ROOT
ATOM      1  C   UNL     1       8.446   7.716  30.515  1.00  0.00     0.000 C 
ENDROOT
BRANCH   1   2
ATOM      2  C   UNL     1       7.954   6.268  30.662  1.00  0.00     0.000 C 
BRANCH   2   3
ATOM      3  C   UNL     1       8.622   5.311  29.662  1.00  0.00     0.000 C 
BRANCH   3   4
ATOM      4  C   UNL     1       9.982   4.794  30.155  1.00  0.00     0.000 C 
BRANCH   4   5
ATOM      5  C   UNL     1      11.134   5.460  29.388  1.00  0.00     0.006 C 
BRANCH   5   6
ATOM      6  C   UNL     1      12.505   5.121  29.988  1.00  0.00     0.053 C 
BRANCH   6   7
ATOM      7  C   UNL     1      13.615   5.391  29.019  1.00  0.00     0.041 C 
ATOM      8  O   UNL     1      14.764   4.919  29.223  1.00  0.00    -0.550 OA
ATOM      9  O   UNL     1      13.388   6.191  27.907  1.00  0.00    -0.550 OA
ENDBRANCH   6   7
ENDBRANCH   5   6
ENDBRANCH   4   5
ENDBRANCH   3   4
ENDBRANCH   2   3
ENDBRANCH   1   2
BRANCH   1  10
ATOM     10  C   UNL     1       8.979   8.253  31.848  1.00  0.00     0.000 C 
BRANCH  10  11
ATOM     11  C   UNL     1      10.514   8.257  31.866  1.00  0.00    -0.000 C 
BRANCH  11  12
ATOM     12  C   UNL     1      11.102   7.884  33.239  1.00  0.00    -0.000 C 
BRANCH  12  13
ATOM     13  C   UNL     1      11.659   6.453  33.346  1.00  0.00    -0.000 C 
BRANCH  13  14
ATOM     14  C   UNL     1      10.852   5.566  34.310  1.00  0.00    -0.000 C 
BRANCH  14  15
ATOM     15  C   UNL     1      10.330   4.288  33.637  1.00  0.00    -0.003 C 
ATOM     16  C   UNL     1       8.805   4.190  33.653  1.00  0.00     0.004 C 
ENDBRANCH  14  15
ENDBRANCH  13  14
ENDBRANCH  12  13
ENDBRANCH  11  12
ENDBRANCH  10  11
ENDBRANCH   1  10
TORSDOF 12
ENDMDL
MODEL 5
REMARK VINA RESULT:    -2.790      1.532      1.932
REMARK INTER + INTRA:          -6.812
REMARK INTER:                  -4.765
REMARK INTRA:                  -2.047
REMARK UNBOUND:                -2.064
REMARK SMILES CCCCCCCCCCCCCC(=O)[O-]
REMARK SMILES IDX 8 1 9 2 10 3 11 4 12 5 13 6 14 7 15 8 16 9 7 10 6 11 5 12
REMARK SMILES IDX 4 13 3 14 2 15 1 16
REMARK H PARENT
REMARK Flexibility Score: inf
ROOT
ATOM      1  C   UNL     1      10.465   8.210  31.668  1.00  0.00     0.000 C 
ENDROOT
BRANCH   1   2
ATOM      2  C   UNL     1      11.188   8.156  33.022  1.00  0.00     0.000 C 
BRANCH   2   3
ATOM      3  C   UNL     1      10.492   7.226  34.028  1.00  0.00     0.000 C 
BRANCH   3   4
ATOM      4  C   UNL     1      10.878   5.751  33.838  1.00  0.00     0.000 C 
BRANCH   4   5
ATOM      5  C   UNL     1       9.759   4.822  34.330  1.00  0.00     0.006 C 
BRANCH   5   6
ATOM      6  C   UNL     1       8.873   4.320  33.183  1.00  0.00     0.053 C 
BRANCH   6   7
ATOM      7  C   UNL     1       8.865   2.824  33.102  1.00  0.00     0.041 C 
ATOM      8  O   UNL     1       8.668   2.249  31.999  1.00  0.00    -0.550 OA
ATOM      9  O   UNL     1       9.044   2.065  34.251  1.00  0.00    -0.550 OA
ENDBRANCH   6   7
ENDBRANCH   5   6
ENDBRANCH   4   5
ENDBRANCH   3   4
ENDBRANCH   2   3
ENDBRANCH   1   2
BRANCH   1  10
ATOM     10  C   UNL     1       8.949   8.340  31.859  1.00  0.00     0.000 C 
BRANCH  10  11
ATOM     11  C   UNL     1       8.198   7.269  31.056  1.00  0.00    -0.000 C 
BRANCH  11  12
ATOM     12  C   UNL     1       9.026   6.702  29.888  1.00  0.00    -0.000 C 
BRANCH  12  13
ATOM     13  C   UNL     1       8.869   5.189  29.648  1.00  0.00    -0.000 C 
BRANCH  13  14
ATOM     14  C   UNL     1      10.207   4.432  29.702  1.00  0.00    -0.000 C 
BRANCH  14  15
ATOM     15  C   UNL     1      11.419   5.373  29.616  1.00  0.00    -0.003 C 
ATOM     16  C   UNL     1      12.483   5.067  30.669  1.00  0.00     0.004 C 
ENDBRANCH  14  15
ENDBRANCH  13  14
ENDBRANCH  12  13
ENDBRANCH  11  12
ENDBRANCH  10  11
ENDBRANCH   1  10
TORSDOF 12
ENDMDL
MODEL 6
REMARK VINA RESULT:    -2.761     12.140     14.243
REMARK INTER + INTRA:          -6.762
REMARK INTER:                  -5.917
REMARK INTRA:                  -0.845
REMARK UNBOUND:                -2.064
REMARK SMILES CCCCCCCCCCCCCC(=O)[O-]
REMARK SMILES IDX 8 1 9 2 10 3 11 4 12 5 13 6 14 7 15 8 16 9 7 10 6 11 5 12
REMARK SMILES IDX 4 13 3 14 2 15 1 16
REMARK H PARENT
REMARK Flexibility Score: inf
ROOT
ATOM      1  C   UNL     1      20.869   7.222  34.738  1.00  0.00     0.000 C 
ENDROOT
BRANCH   1   2
ATOM      2  C   UNL     1      21.793   7.341  33.517  1.00  0.00     0.000 C 
BRANCH   2   3
ATOM      3  C   UNL     1      22.205   5.974  32.949  1.00  0.00     0.000 C 
BRANCH   3   4
ATOM      4  C   UNL     1      22.582   6.039  31.462  1.00  0.00     0.000 C 
BRANCH   4   5
ATOM      5  C   UNL     1      23.343   7.335  31.144  1.00  0.00     0.006 C 
BRANCH   5   6
ATOM      6  C   UNL     1      24.142   7.236  29.839  1.00  0.00     0.053 C 
BRANCH   6   7
ATOM      7  C   UNL     1      24.918   8.489  29.567  1.00  0.00     0.041 C 
ATOM      8  O   UNL     1      24.919   9.429  30.405  1.00  0.00    -0.550 OA
ATOM      9  O   UNL     1      25.614   8.630  28.374  1.00  0.00    -0.550 OA
ENDBRANCH   6   7
ENDBRANCH   5   6
ENDBRANCH   4   5
ENDBRANCH   3   4
ENDBRANCH   2   3
ENDBRANCH   1   2
BRANCH   1  10
ATOM     10  C   UNL     1      20.435   8.605  35.237  1.00  0.00     0.000 C 
BRANCH  10  11
ATOM     11  C   UNL     1      19.526   8.487  36.468  1.00  0.00    -0.000 C 
BRANCH  11  12
ATOM     12  C   UNL     1      19.830   9.543  37.545  1.00  0.00    -0.000 C 
BRANCH  12  13
ATOM     13  C   UNL     1      20.647   9.035  38.748  1.00  0.00    -0.000 C 
BRANCH  13  14
ATOM     14  C   UNL     1      22.118   9.485  38.706  1.00  0.00    -0.000 C 
BRANCH  14  15
ATOM     15  C   UNL     1      23.069   8.347  38.304  1.00  0.00    -0.003 C 
ATOM     16  C   UNL     1      22.469   6.962  38.540  1.00  0.00     0.004 C 
ENDBRANCH  14  15
ENDBRANCH  13  14
ENDBRANCH  12  13
ENDBRANCH  11  12
ENDBRANCH  10  11
ENDBRANCH   1  10
TORSDOF 12
ENDMDL
MODEL 7
REMARK VINA RESULT:    -2.727      3.928      5.682
REMARK INTER + INTRA:          -6.704
REMARK INTER:                  -4.918
REMARK INTRA:                  -1.786
REMARK UNBOUND:                -2.064
REMARK SMILES CCCCCCCCCCCCCC(=O)[O-]
REMARK SMILES IDX 8 1 9 2 10 3 11 4 12 5 13 6 14 7 15 8 16 9 7 10 6 11 5 12
REMARK SMILES IDX 4 13 3 14 2 15 1 16
REMARK H PARENT
REMARK Flexibility Score: inf
ROOT
ATOM      1  C   UNL     1      12.418   5.651  33.721  1.00  0.00     0.000 C 
ENDROOT
BRANCH   1   2
ATOM      2  C   UNL     1      12.744   5.433  32.235  1.00  0.00     0.000 C 
BRANCH   2   3
ATOM      3  C   UNL     1      12.142   4.131  31.682  1.00  0.00     0.000 C 
BRANCH   3   4
ATOM      4  C   UNL     1      12.439   3.930  30.188  1.00  0.00     0.000 C 
BRANCH   4   5
ATOM      5  C   UNL     1      12.249   5.239  29.409  1.00  0.00     0.006 C 
BRANCH   5   6
ATOM      6  C   UNL     1      12.763   5.138  27.966  1.00  0.00     0.053 C 
BRANCH   6   7
ATOM      7  C   UNL     1      13.958   6.012  27.741  1.00  0.00     0.041 C 
ATOM      8  O   UNL     1      14.950   5.943  28.513  1.00  0.00    -0.550 OA
ATOM      9  O   UNL     1      13.963   6.926  26.695  1.00  0.00    -0.550 OA
ENDBRANCH   6   7
ENDBRANCH   5   6
ENDBRANCH   4   5
ENDBRANCH   3   4
ENDBRANCH   2   3
ENDBRANCH   1   2
BRANCH   1  10
ATOM     10  C   UNL     1      11.090   6.399  33.888  1.00  0.00     0.000 C 
BRANCH  10  11
ATOM     11  C   UNL     1      11.199   7.838  33.363  1.00  0.00    -0.000 C 
BRANCH  11  12
ATOM     12  C   UNL     1       9.965   8.279  32.555  1.00  0.00    -0.000 C 
BRANCH  12  13
ATOM     13  C   UNL     1       9.869   7.692  31.134  1.00  0.00    -0.000 C 
BRANCH  13  14
ATOM     14  C   UNL     1       8.548   6.945  30.882  1.00  0.00    -0.000 C 
BRANCH  14  15
ATOM     15  C   UNL     1       8.744   5.425  30.775  1.00  0.00    -0.003 C 
ATOM     16  C   UNL     1       8.505   4.702  32.100  1.00  0.00     0.004 C 
ENDBRANCH  14  15
ENDBRANCH  13  14
ENDBRANCH  12  13
ENDBRANCH  11  12
ENDBRANCH  10  11
ENDBRANCH   1  10
TORSDOF 12
ENDMDL
MODEL 8
REMARK VINA RESULT:    -2.721      2.579      4.951
REMARK INTER + INTRA:          -6.694
REMARK INTER:                  -4.667
REMARK INTRA:                  -2.027
REMARK UNBOUND:                -2.064
REMARK SMILES CCCCCCCCCCCCCC(=O)[O-]
REMARK SMILES IDX 8 1 9 2 10 3 11 4 12 5 13 6 14 7 15 8 16 9 7 10 6 11 5 12
REMARK SMILES IDX 4 13 3 14 2 15 1 16
REMARK H PARENT
REMARK Flexibility Score: inf
ROOT
ATOM      1  C   UNL     1       9.575   2.945  33.261  1.00  0.00     0.000 C 
ENDROOT
BRANCH   1   2
ATOM      2  C   UNL     1       8.984   2.953  31.843  1.00  0.00     0.000 C 
BRANCH   2   3
ATOM      3  C   UNL     1       9.989   3.435  30.785  1.00  0.00     0.000 C 
BRANCH   3   4
ATOM      4  C   UNL     1       9.961   4.959  30.594  1.00  0.00     0.000 C 
BRANCH   4   5
ATOM      5  C   UNL     1       8.567   5.433  30.159  1.00  0.00     0.006 C 
BRANCH   5   6
ATOM      6  C   UNL     1       7.947   6.415  31.162  1.00  0.00     0.053 C 
BRANCH   6   7
ATOM      7  C   UNL     1       8.440   7.813  30.945  1.00  0.00     0.041 C 
ATOM      8  O   UNL     1       8.521   8.284  29.781  1.00  0.00    -0.550 OA
ATOM      9  O   UNL     1       8.839   8.585  32.029  1.00  0.00    -0.550 OA
ENDBRANCH   6   7
ENDBRANCH   5   6
ENDBRANCH   4   5
ENDBRANCH   3   4
ENDBRANCH   2   3
ENDBRANCH   1   2
BRANCH   1  10
ATOM     10  C   UNL     1       9.002   4.093  34.101  1.00  0.00     0.000 C 
BRANCH  10  11
ATOM     11  C   UNL     1      10.124   4.904  34.764  1.00  0.00    -0.000 C 
BRANCH  11  12
ATOM     12  C   UNL     1      10.479   6.186  33.988  1.00  0.00    -0.000 C 
BRANCH  12  13
ATOM     13  C   UNL     1      11.955   6.309  33.568  1.00  0.00    -0.000 C 
BRANCH  13  14
ATOM     14  C   UNL     1      12.790   5.073  33.943  1.00  0.00    -0.000 C 
BRANCH  14  15
ATOM     15  C   UNL     1      13.028   4.139  32.747  1.00  0.00    -0.003 C 
ATOM     16  C   UNL     1      13.896   4.775  31.661  1.00  0.00     0.004 C 
ENDBRANCH  14  15
ENDBRANCH  13  14
ENDBRANCH  12  13
ENDBRANCH  11  12
ENDBRANCH  10  11
ENDBRANCH   1  10
TORSDOF 12
ENDMDL
MODEL 9
REMARK VINA RESULT:    -2.717      3.024      4.653
REMARK INTER + INTRA:          -6.687
REMARK INTER:                  -4.931
REMARK INTRA:                  -1.756
REMARK UNBOUND:                -2.064
REMARK SMILES CCCCCCCCCCCCCC(=O)[O-]
REMARK SMILES IDX 8 1 9 2 10 3 11 4 12 5 13 6 14 7 15 8 16 9 7 10 6 11 5 12
REMARK SMILES IDX 4 13 3 14 2 15 1 16
REMARK H PARENT
REMARK Flexibility Score: inf
ROOT
ATOM      1  C   UNL     1      10.752   8.142  32.885  1.00  0.00     0.000 C 
ENDROOT
BRANCH   1   2
ATOM      2  C   UNL     1      10.153   8.233  31.474  1.00  0.00     0.000 C 
BRANCH   2   3
ATOM      3  C   UNL     1       8.633   8.006  31.460  1.00  0.00     0.000 C 
BRANCH   3   4
ATOM      4  C   UNL     1       8.251   6.570  31.073  1.00  0.00     0.000 C 
BRANCH   4   5
ATOM      5  C   UNL     1       8.888   6.174  29.732  1.00  0.00     0.006 C 
BRANCH   5   6
ATOM      6  C   UNL     1       9.661   4.852  29.822  1.00  0.00     0.053 C 
BRANCH   6   7
ATOM      7  C   UNL     1      11.050   4.984  29.279  1.00  0.00     0.041 C 
ATOM      8  O   UNL     1      11.651   6.089  29.334  1.00  0.00    -0.550 OA
ATOM      9  O   UNL     1      11.670   3.893  28.683  1.00  0.00    -0.550 OA
ENDBRANCH   6   7
ENDBRANCH   5   6
ENDBRANCH   4   5
ENDBRANCH   3   4
ENDBRANCH   2   3
ENDBRANCH   1   2
BRANCH   1  10
ATOM     10  C   UNL     1      11.509   6.823  33.077  1.00  0.00     0.000 C 
BRANCH  10  11
ATOM     11  C   UNL     1      10.786   5.914  34.081  1.00  0.00    -0.000 C 
BRANCH  11  12
ATOM     12  C   UNL     1      10.340   4.575  33.469  1.00  0.00    -0.000 C 
BRANCH  12  13
ATOM     13  C   UNL     1       8.964   4.066  33.939  1.00  0.00    -0.000 C 
BRANCH  13  14
ATOM     14  C   UNL     1       8.226   3.251  32.863  1.00  0.00    -0.000 C 
BRANCH  14  15
ATOM     15  C   UNL     1       8.914   1.909  32.567  1.00  0.00    -0.003 C 
ATOM     16  C   UNL     1       8.740   1.462  31.116  1.00  0.00     0.004 C 
ENDBRANCH  14  15
ENDBRANCH  13  14
ENDBRANCH  12  13
ENDBRANCH  11  12
ENDBRANCH  10  11
ENDBRANCH   1  10
TORSDOF 12
ENDMDL
