MODEL 1
REMARK VINA RESULT:    -1.080      0.000      0.000
REMARK INTER + INTRA:          -1.357
REMARK INTER:                  -1.301
REMARK INTRA:                  -0.056
REMARK UNBOUND:                -0.056
REMARK SMILES O=c1c(O)c(-c2ccc(O)c(O)c2)oc2cc(O)cc(O)c12
REMARK SMILES IDX 5 1 3 2 2 3 1 4 22 5 20 6 19 7 17 8 16 9 15 10 14 11 6 12
REMARK SMILES IDX 7 13 8 14 9 15 13 16 11 17 10 18 12 20 4 22 21 24 18 26
REMARK H PARENT 10 19 12 21 4 23 21 25 18 27
REMARK Flexibility Score: inf
ROOT
ATOM      1  C   UNL     1      -7.964   9.055  -9.194  1.00  0.00     0.180 A 
ATOM      2  C   UNL     1      -8.764   9.034 -10.349  1.00  0.00     0.208 A 
ATOM      3  C   UNL     1      -8.170   9.296 -11.595  1.00  0.00     0.238 A 
ATOM      4  O   UNL     1      -8.880   9.223 -12.631  1.00  0.00    -0.285 OA
ATOM      5  C   UNL     1      -6.787   9.592 -11.667  1.00  0.00     0.111 A 
ATOM      6  C   UNL     1      -6.089   9.912 -12.870  1.00  0.00     0.134 A 
ATOM      7  C   UNL     1      -4.697  10.059 -12.842  1.00  0.00     0.093 A 
ATOM      8  C   UNL     1      -3.986   9.961 -11.642  1.00  0.00     0.123 A 
ATOM      9  C   UNL     1      -4.666   9.709 -10.454  1.00  0.00     0.094 A 
ATOM     10  C   UNL     1      -6.050   9.521 -10.455  1.00  0.00     0.146 A 
ATOM     11  O   UNL     1      -6.658   9.271  -9.303  1.00  0.00    -0.452 OA
ENDROOT
BRANCH   1  12
ATOM     12  C   UNL     1      -8.523   8.813  -7.844  1.00  0.00     0.025 A 
ATOM     13  C   UNL     1      -9.629   9.539  -7.369  1.00  0.00     0.016 A 
ATOM     14  C   UNL     1     -10.123   9.311  -6.082  1.00  0.00     0.051 A 
ATOM     15  C   UNL     1      -9.517   8.368  -5.248  1.00  0.00     0.157 A 
ATOM     16  C   UNL     1      -7.902   7.882  -6.996  1.00  0.00     0.062 A 
ATOM     17  C   UNL     1      -8.399   7.651  -5.704  1.00  0.00     0.158 A 
BRANCH  15  18
ATOM     18  O   UNL     1     -10.035   8.161  -3.970  1.00  0.00    -0.504 OA
ATOM     19  H   UNL     1      -9.845   7.317  -3.443  1.00  0.00     0.293 HD
ENDBRANCH  15  18
BRANCH  17  20
ATOM     20  O   UNL     1      -7.783   6.714  -4.875  1.00  0.00    -0.504 OA
ATOM     21  H   UNL     1      -6.878   6.319  -5.099  1.00  0.00     0.293 HD
ENDBRANCH  17  20
ENDBRANCH   1  12
BRANCH   2  22
ATOM     22  O   UNL     1     -10.122   8.718 -10.258  1.00  0.00    -0.502 OA
ATOM     23  H   UNL     1     -10.838   9.245 -10.744  1.00  0.00     0.293 HD
ENDBRANCH   2  22
BRANCH   6  24
ATOM     24  O   UNL     1      -6.714  10.122 -14.102  1.00  0.00    -0.507 OA
ATOM     25  H   UNL     1      -6.232  10.198 -14.985  1.00  0.00     0.293 HD
ENDBRANCH   6  24
BRANCH   8  26
ATOM     26  O   UNL     1      -2.603  10.125 -11.621  1.00  0.00    -0.508 OA
ATOM     27  H   UNL     1      -2.178  11.032 -11.463  1.00  0.00     0.293 HD
ENDBRANCH   8  26
TORSDOF 6
ENDMDL
MODEL 2
REMARK VINA RESULT:    -0.455     14.671     16.134
REMARK INTER + INTRA:          -0.604
REMARK INTER:                  -0.963
REMARK INTRA:                   0.359
REMARK UNBOUND:                -0.056
REMARK SMILES O=c1c(O)c(-c2ccc(O)c(O)c2)oc2cc(O)cc(O)c12
REMARK SMILES IDX 5 1 3 2 2 3 1 4 22 5 20 6 19 7 17 8 16 9 15 10 14 11 6 12
REMARK SMILES IDX 7 13 8 14 9 15 13 16 11 17 10 18 12 20 4 22 21 24 18 26
REMARK H PARENT 10 19 12 21 4 23 21 25 18 27
REMARK Flexibility Score: inf
ROOT
ATOM      1  C   UNL     1      -8.631  -5.327 -12.159  1.00  0.00     0.180 A 
ATOM      2  C   UNL     1      -7.742  -6.034 -12.987  1.00  0.00     0.208 A 
ATOM      3  C   UNL     1      -7.434  -7.368 -12.674  1.00  0.00     0.238 A 
ATOM      4  O   UNL     1      -6.680  -8.013 -13.449  1.00  0.00    -0.285 OA
ATOM      5  C   UNL     1      -8.006  -7.973 -11.529  1.00  0.00     0.111 A 
ATOM      6  C   UNL     1      -7.733  -9.305 -11.094  1.00  0.00     0.134 A 
ATOM      7  C   UNL     1      -8.455  -9.844 -10.022  1.00  0.00     0.093 A 
ATOM      8  C   UNL     1      -9.393  -9.075  -9.327  1.00  0.00     0.123 A 
ATOM      9  C   UNL     1      -9.622  -7.755  -9.706  1.00  0.00     0.094 A 
ATOM     10  C   UNL     1      -8.945  -7.202 -10.795  1.00  0.00     0.146 A 
ATOM     11  O   UNL     1      -9.201  -5.943 -11.130  1.00  0.00    -0.452 OA
ENDROOT
BRANCH   1  12
ATOM     12  C   UNL     1      -8.985  -3.912 -12.410  1.00  0.00     0.025 A 
ATOM     13  C   UNL     1      -8.866  -3.344 -13.691  1.00  0.00     0.016 A 
ATOM     14  C   UNL     1      -9.182  -1.999 -13.899  1.00  0.00     0.051 A 
ATOM     15  C   UNL     1      -9.607  -1.199 -12.834  1.00  0.00     0.157 A 
ATOM     16  C   UNL     1      -9.390  -3.100 -11.338  1.00  0.00     0.062 A 
ATOM     17  C   UNL     1      -9.709  -1.749 -11.546  1.00  0.00     0.158 A 
BRANCH  15  18
ATOM     18  O   UNL     1      -9.917   0.140 -13.073  1.00  0.00    -0.504 OA
ATOM     19  H   UNL     1      -9.200   0.834 -13.250  1.00  0.00     0.293 HD
ENDBRANCH  15  18
BRANCH  17  20
ATOM     20  O   UNL     1     -10.124  -0.956 -10.478  1.00  0.00    -0.504 OA
ATOM     21  H   UNL     1      -9.520  -0.248 -10.074  1.00  0.00     0.293 HD
ENDBRANCH  17  20
ENDBRANCH   1  12
BRANCH   2  22
ATOM     22  O   UNL     1      -7.207  -5.425 -14.125  1.00  0.00    -0.502 OA
ATOM     23  H   UNL     1      -6.211  -5.403 -14.313  1.00  0.00     0.293 HD
ENDBRANCH   2  22
BRANCH   6  24
ATOM     24  O   UNL     1      -6.753 -10.125 -11.660  1.00  0.00    -0.507 OA
ATOM     25  H   UNL     1      -5.831  -9.816 -11.929  1.00  0.00     0.293 HD
ENDBRANCH   6  24
BRANCH   8  26
ATOM     26  O   UNL     1     -10.095  -9.614  -8.251  1.00  0.00    -0.508 OA
ATOM     27  H   UNL     1     -10.631  -9.028  -7.621  1.00  0.00     0.293 HD
ENDBRANCH   8  26
TORSDOF 6
ENDMDL
