MODEL 1
REMARK VINA RESULT:    -4.784      0.000      0.000
REMARK INTER + INTRA:          -8.908
REMARK INTER:                  -8.140
REMARK INTRA:                  -0.768
REMARK UNBOUND:                -0.768
REMARK SMILES CCCCCCCCCCCCCC(=O)[O-]
REMARK SMILES IDX 8 1 9 2 10 3 11 4 12 5 13 6 14 7 15 8 16 9 7 10 6 11 5 12
REMARK SMILES IDX 4 13 3 14 2 15 1 16
REMARK H PARENT
REMARK Flexibility Score: inf
ROOT
ATOM      1  C   UNL     1    -129.571 113.469  43.969  1.00  0.00     0.000 C 
ENDROOT
BRANCH   1   2
ATOM      2  C   UNL     1    -129.003 112.038  43.977  1.00  0.00     0.000 C 
BRANCH   2   3
ATOM      3  C   UNL     1    -129.479 111.171  42.795  1.00  0.00     0.000 C 
BRANCH   3   4
ATOM      4  C   UNL     1    -129.361 109.665  43.088  1.00  0.00     0.000 C 
BRANCH   4   5
ATOM      5  C   UNL     1    -129.569 108.801  41.833  1.00  0.00     0.006 C 
BRANCH   5   6
ATOM      6  C   UNL     1    -129.681 109.636  40.551  1.00  0.00     0.053 C 
BRANCH   6   7
ATOM      7  C   UNL     1    -130.530 108.931  39.542  1.00  0.00     0.041 C 
ATOM      8  O   UNL     1    -131.648 109.407  39.210  1.00  0.00    -0.550 OA
ATOM      9  O   UNL     1    -130.111 107.720  39.004  1.00  0.00    -0.550 OA
ENDBRANCH   6   7
ENDBRANCH   5   6
ENDBRANCH   4   5
ENDBRANCH   3   4
ENDBRANCH   2   3
ENDBRANCH   1   2
BRANCH   1  10
ATOM     10  C   UNL     1    -130.058 113.899  42.574  1.00  0.00     0.000 C 
BRANCH  10  11
ATOM     11  C   UNL     1    -129.470 115.249  42.123  1.00  0.00    -0.000 C 
BRANCH  11  12
ATOM     12  C   UNL     1    -130.151 116.491  42.726  1.00  0.00    -0.000 C 
BRANCH  12  13
ATOM     13  C   UNL     1    -129.150 117.581  43.147  1.00  0.00    -0.000 C 
BRANCH  13  14
ATOM     14  C   UNL     1    -129.348 118.026  44.612  1.00  0.00    -0.000 C 
BRANCH  14  15
ATOM     15  C   UNL     1    -130.094 116.996  45.477  1.00  0.00    -0.003 C 
ATOM     16  C   UNL     1    -130.886 117.630  46.618  1.00  0.00     0.004 C 
ENDBRANCH  14  15
ENDBRANCH  13  14
ENDBRANCH  12  13
ENDBRANCH  11  12
ENDBRANCH  10  11
ENDBRANCH   1  10
TORSDOF 12
ENDMDL
MODEL 2
REMARK VINA RESULT:    -4.721      1.605      2.385
REMARK INTER + INTRA:          -8.800
REMARK INTER:                  -8.387
REMARK INTRA:                  -0.413
REMARK UNBOUND:                -0.768
REMARK SMILES CCCCCCCCCCCCCC(=O)[O-]
REMARK SMILES IDX 8 1 9 2 10 3 11 4 12 5 13 6 14 7 15 8 16 9 7 10 6 11 5 12
REMARK SMILES IDX 4 13 3 14 2 15 1 16
REMARK H PARENT
REMARK Flexibility Score: inf
ROOT
ATOM      1  C   UNL     1    -129.367 111.643  44.046  1.00  0.00     0.000 C 
ENDROOT
BRANCH   1   2
ATOM      2  C   UNL     1    -129.363 110.705  42.824  1.00  0.00     0.000 C 
BRANCH   2   3
ATOM      3  C   UNL     1    -129.602 109.224  43.175  1.00  0.00     0.000 C 
BRANCH   3   4
ATOM      4  C   UNL     1    -128.678 108.278  42.388  1.00  0.00     0.000 C 
BRANCH   4   5
ATOM      5  C   UNL     1    -129.363 107.679  41.149  1.00  0.00     0.006 C 
BRANCH   5   6
ATOM      6  C   UNL     1    -128.947 106.225  40.888  1.00  0.00     0.053 C 
BRANCH   6   7
ATOM      7  C   UNL     1    -129.458 105.768  39.558  1.00  0.00     0.041 C 
ATOM      8  O   UNL     1    -130.043 106.576  38.791  1.00  0.00    -0.550 OA
ATOM      9  O   UNL     1    -129.331 104.435  39.186  1.00  0.00    -0.550 OA
ENDBRANCH   6   7
ENDBRANCH   5   6
ENDBRANCH   4   5
ENDBRANCH   3   4
ENDBRANCH   2   3
ENDBRANCH   1   2
BRANCH   1  10
ATOM     10  C   UNL     1    -128.917 113.070  43.690  1.00  0.00     0.000 C 
BRANCH  10  11
ATOM     11  C   UNL     1    -130.084 113.978  43.261  1.00  0.00    -0.000 C 
BRANCH  11  12
ATOM     12  C   UNL     1    -129.753 114.980  42.139  1.00  0.00    -0.000 C 
BRANCH  12  13
ATOM     13  C   UNL     1    -129.671 116.434  42.636  1.00  0.00    -0.000 C 
BRANCH  13  14
ATOM     14  C   UNL     1    -129.746 116.533  44.175  1.00  0.00    -0.000 C 
BRANCH  14  15
ATOM     15  C   UNL     1    -129.476 117.946  44.718  1.00  0.00    -0.003 C 
ATOM     16  C   UNL     1    -128.620 118.796  43.782  1.00  0.00     0.004 C 
ENDBRANCH  14  15
ENDBRANCH  13  14
ENDBRANCH  12  13
ENDBRANCH  11  12
ENDBRANCH  10  11
ENDBRANCH   1  10
TORSDOF 12
ENDMDL
MODEL 3
REMARK VINA RESULT:    -4.697      1.186      2.068
REMARK INTER + INTRA:          -8.759
REMARK INTER:                  -8.043
REMARK INTRA:                  -0.717
REMARK UNBOUND:                -0.768
REMARK SMILES CCCCCCCCCCCCCC(=O)[O-]
REMARK SMILES IDX 8 1 9 2 10 3 11 4 12 5 13 6 14 7 15 8 16 9 7 10 6 11 5 12
REMARK SMILES IDX 4 13 3 14 2 15 1 16
REMARK H PARENT
REMARK Flexibility Score: inf
ROOT
ATOM      1  C   UNL     1    -129.365 112.005  43.747  1.00  0.00     0.000 C 
ENDROOT
BRANCH   1   2
ATOM      2  C   UNL     1    -129.125 110.697  42.970  1.00  0.00     0.000 C 
BRANCH   2   3
ATOM      3  C   UNL     1    -129.765 109.457  43.624  1.00  0.00     0.000 C 
BRANCH   3   4
ATOM      4  C   UNL     1    -129.738 108.227  42.700  1.00  0.00     0.000 C 
BRANCH   4   5
ATOM      5  C   UNL     1    -128.960 108.482  41.400  1.00  0.00     0.006 C 
BRANCH   5   6
ATOM      6  C   UNL     1    -129.667 107.909  40.164  1.00  0.00     0.053 C 
BRANCH   6   7
ATOM      7  C   UNL     1    -130.509 108.960  39.512  1.00  0.00     0.041 C 
ATOM      8  O   UNL     1    -131.541 108.636  38.867  1.00  0.00    -0.550 OA
ATOM      9  O   UNL     1    -130.126 110.294  39.573  1.00  0.00    -0.550 OA
ENDBRANCH   6   7
ENDBRANCH   5   6
ENDBRANCH   4   5
ENDBRANCH   3   4
ENDBRANCH   2   3
ENDBRANCH   1   2
BRANCH   1  10
ATOM     10  C   UNL     1    -129.716 113.182  42.820  1.00  0.00     0.000 C 
BRANCH  10  11
ATOM     11  C   UNL     1    -129.422 114.553  43.454  1.00  0.00    -0.000 C 
BRANCH  11  12
ATOM     12  C   UNL     1    -129.654 114.633  44.974  1.00  0.00    -0.000 C 
BRANCH  12  13
ATOM     13  C   UNL     1    -129.764 116.078  45.491  1.00  0.00    -0.000 C 
BRANCH  13  14
ATOM     14  C   UNL     1    -130.025 117.090  44.355  1.00  0.00    -0.000 C 
BRANCH  14  15
ATOM     15  C   UNL     1    -128.995 118.230  44.292  1.00  0.00    -0.003 C 
ATOM     16  C   UNL     1    -128.505 118.520  42.875  1.00  0.00     0.004 C 
ENDBRANCH  14  15
ENDBRANCH  13  14
ENDBRANCH  12  13
ENDBRANCH  11  12
ENDBRANCH  10  11
ENDBRANCH   1  10
TORSDOF 12
ENDMDL
MODEL 4
REMARK VINA RESULT:    -4.612      4.082      8.558
REMARK INTER + INTRA:          -8.616
REMARK INTER:                  -8.127
REMARK INTRA:                  -0.488
REMARK UNBOUND:                -0.768
REMARK SMILES CCCCCCCCCCCCCC(=O)[O-]
REMARK SMILES IDX 8 1 9 2 10 3 11 4 12 5 13 6 14 7 15 8 16 9 7 10 6 11 5 12
REMARK SMILES IDX 4 13 3 14 2 15 1 16
REMARK H PARENT
REMARK Flexibility Score: inf
ROOT
ATOM      1  C   UNL     1    -128.949 113.062  43.744  1.00  0.00     0.000 C 
ENDROOT
BRANCH   1   2
ATOM      2  C   UNL     1    -130.010 113.836  42.940  1.00  0.00     0.000 C 
BRANCH   2   3
ATOM      3  C   UNL     1    -129.497 115.160  42.342  1.00  0.00     0.000 C 
BRANCH   3   4
ATOM      4  C   UNL     1    -130.082 116.392  43.056  1.00  0.00     0.000 C 
BRANCH   4   5
ATOM      5  C   UNL     1    -129.730 116.430  44.552  1.00  0.00     0.006 C 
BRANCH   5   6
ATOM      6  C   UNL     1    -130.056 117.781  45.203  1.00  0.00     0.053 C 
BRANCH   6   7
ATOM      7  C   UNL     1    -130.684 117.575  46.545  1.00  0.00     0.041 C 
ATOM      8  O   UNL     1    -130.922 118.561  47.291  1.00  0.00    -0.550 OA
ATOM      9  O   UNL     1    -130.962 116.290  46.992  1.00  0.00    -0.550 OA
ENDBRANCH   6   7
ENDBRANCH   5   6
ENDBRANCH   4   5
ENDBRANCH   3   4
ENDBRANCH   2   3
ENDBRANCH   1   2
BRANCH   1  10
ATOM     10  C   UNL     1    -129.353 111.599  43.991  1.00  0.00     0.000 C 
BRANCH  10  11
ATOM     11  C   UNL     1    -129.423 110.768  42.696  1.00  0.00    -0.000 C 
BRANCH  11  12
ATOM     12  C   UNL     1    -129.411 109.242  42.899  1.00  0.00    -0.000 C 
BRANCH  12  13
ATOM     13  C   UNL     1    -129.091 108.467  41.609  1.00  0.00    -0.000 C 
BRANCH  13  14
ATOM     14  C   UNL     1    -129.401 109.288  40.338  1.00  0.00    -0.000 C 
BRANCH  14  15
ATOM     15  C   UNL     1    -130.304 108.555  39.333  1.00  0.00    -0.003 C 
ATOM     16  C   UNL     1    -129.869 107.114  39.073  1.00  0.00     0.004 C 
ENDBRANCH  14  15
ENDBRANCH  13  14
ENDBRANCH  12  13
ENDBRANCH  11  12
ENDBRANCH  10  11
ENDBRANCH   1  10
TORSDOF 12
ENDMDL
MODEL 5
REMARK VINA RESULT:    -4.582      1.718      2.337
REMARK INTER + INTRA:          -8.564
REMARK INTER:                  -7.866
REMARK INTRA:                  -0.698
REMARK UNBOUND:                -0.768
REMARK SMILES CCCCCCCCCCCCCC(=O)[O-]
REMARK SMILES IDX 8 1 9 2 10 3 11 4 12 5 13 6 14 7 15 8 16 9 7 10 6 11 5 12
REMARK SMILES IDX 4 13 3 14 2 15 1 16
REMARK H PARENT
REMARK Flexibility Score: inf
ROOT
ATOM      1  C   UNL     1    -130.121 113.125  41.756  1.00  0.00     0.000 C 
ENDROOT
BRANCH   1   2
ATOM      2  C   UNL     1    -129.938 111.744  41.097  1.00  0.00     0.000 C 
BRANCH   2   3
ATOM      3  C   UNL     1    -129.372 111.807  39.666  1.00  0.00     0.000 C 
BRANCH   3   4
ATOM      4  C   UNL     1    -129.274 110.417  39.013  1.00  0.00     0.000 C 
BRANCH   4   5
ATOM      5  C   UNL     1    -130.290 109.419  39.591  1.00  0.00     0.006 C 
BRANCH   5   6
ATOM      6  C   UNL     1    -129.835 107.961  39.447  1.00  0.00     0.053 C 
BRANCH   6   7
ATOM      7  C   UNL     1    -129.318 107.444  40.752  1.00  0.00     0.041 C 
ATOM      8  O   UNL     1    -129.025 108.244  41.679  1.00  0.00    -0.550 OA
ATOM      9  O   UNL     1    -129.111 106.082  40.928  1.00  0.00    -0.550 OA
ENDBRANCH   6   7
ENDBRANCH   5   6
ENDBRANCH   4   5
ENDBRANCH   3   4
ENDBRANCH   2   3
ENDBRANCH   1   2
BRANCH   1  10
ATOM     10  C   UNL     1    -129.645 113.144  43.218  1.00  0.00     0.000 C 
BRANCH  10  11
ATOM     11  C   UNL     1    -129.455 114.569  43.769  1.00  0.00    -0.000 C 
BRANCH  11  12
ATOM     12  C   UNL     1    -129.951 115.697  42.845  1.00  0.00    -0.000 C 
BRANCH  12  13
ATOM     13  C   UNL     1    -129.734 117.100  43.438  1.00  0.00    -0.000 C 
BRANCH  13  14
ATOM     14  C   UNL     1    -129.379 117.054  44.940  1.00  0.00    -0.000 C 
BRANCH  14  15
ATOM     15  C   UNL     1    -130.500 117.570  45.857  1.00  0.00    -0.003 C 
ATOM     16  C   UNL     1    -130.874 116.584  46.962  1.00  0.00     0.004 C 
ENDBRANCH  14  15
ENDBRANCH  13  14
ENDBRANCH  12  13
ENDBRANCH  11  12
ENDBRANCH  10  11
ENDBRANCH   1  10
TORSDOF 12
ENDMDL
MODEL 6
REMARK VINA RESULT:    -4.557      5.618      7.396
REMARK INTER + INTRA:          -8.522
REMARK INTER:                  -8.094
REMARK INTRA:                  -0.429
REMARK UNBOUND:                -0.768
REMARK SMILES CCCCCCCCCCCCCC(=O)[O-]
REMARK SMILES IDX 8 1 9 2 10 3 11 4 12 5 13 6 14 7 15 8 16 9 7 10 6 11 5 12
REMARK SMILES IDX 4 13 3 14 2 15 1 16
REMARK H PARENT
REMARK Flexibility Score: inf
ROOT
ATOM      1  C   UNL     1    -128.919 111.843  38.616  1.00  0.00     0.000 C 
ENDROOT
BRANCH   1   2
ATOM      2  C   UNL     1    -128.770 110.362  39.014  1.00  0.00     0.000 C 
BRANCH   2   3
ATOM      3  C   UNL     1    -129.955 109.815  39.833  1.00  0.00     0.000 C 
BRANCH   3   4
ATOM      4  C   UNL     1    -130.614 108.594  39.166  1.00  0.00     0.000 C 
BRANCH   4   5
ATOM      5  C   UNL     1    -129.606 107.478  38.848  1.00  0.00     0.006 C 
BRANCH   5   6
ATOM      6  C   UNL     1    -130.162 106.078  39.138  1.00  0.00     0.053 C 
BRANCH   6   7
ATOM      7  C   UNL     1    -129.256 105.341  40.074  1.00  0.00     0.041 C 
ATOM      8  O   UNL     1    -129.213 104.082  40.055  1.00  0.00    -0.550 OA
ATOM      9  O   UNL     1    -128.495 106.041  41.001  1.00  0.00    -0.550 OA
ENDBRANCH   6   7
ENDBRANCH   5   6
ENDBRANCH   4   5
ENDBRANCH   3   4
ENDBRANCH   2   3
ENDBRANCH   1   2
BRANCH   1  10
ATOM     10  C   UNL     1    -128.102 112.199  37.363  1.00  0.00     0.000 C 
BRANCH  10  11
ATOM     11  C   UNL     1    -128.566 113.506  36.695  1.00  0.00    -0.000 C 
BRANCH  11  12
ATOM     12  C   UNL     1    -128.864 113.398  35.188  1.00  0.00    -0.000 C 
BRANCH  12  13
ATOM     13  C   UNL     1    -129.956 114.376  34.719  1.00  0.00    -0.000 C 
BRANCH  13  14
ATOM     14  C   UNL     1    -130.945 113.722  33.730  1.00  0.00    -0.000 C 
BRANCH  14  15
ATOM     15  C   UNL     1    -132.321 113.416  34.343  1.00  0.00    -0.003 C 
ATOM     16  C   UNL     1    -133.400 113.152  33.294  1.00  0.00     0.004 C 
ENDBRANCH  14  15
ENDBRANCH  13  14
ENDBRANCH  12  13
ENDBRANCH  11  12
ENDBRANCH  10  11
ENDBRANCH   1  10
TORSDOF 12
ENDMDL
MODEL 7
REMARK VINA RESULT:    -4.443      3.762      8.091
REMARK INTER + INTRA:          -8.328
REMARK INTER:                  -7.550
REMARK INTRA:                  -0.778
REMARK UNBOUND:                -0.768
REMARK SMILES CCCCCCCCCCCCCC(=O)[O-]
REMARK SMILES IDX 8 1 9 2 10 3 11 4 12 5 13 6 14 7 15 8 16 9 7 10 6 11 5 12
REMARK SMILES IDX 4 13 3 14 2 15 1 16
REMARK H PARENT
REMARK Flexibility Score: inf
ROOT
ATOM      1  C   UNL     1    -129.352 110.935  42.772  1.00  0.00     0.000 C 
ENDROOT
BRANCH   1   2
ATOM      2  C   UNL     1    -129.360 111.792  44.052  1.00  0.00     0.000 C 
BRANCH   2   3
ATOM      3  C   UNL     1    -128.989 113.269  43.815  1.00  0.00     0.000 C 
BRANCH   3   4
ATOM      4  C   UNL     1    -129.866 113.928  42.737  1.00  0.00     0.000 C 
BRANCH   4   5
ATOM      5  C   UNL     1    -129.396 115.347  42.379  1.00  0.00     0.006 C 
BRANCH   5   6
ATOM      6  C   UNL     1    -130.284 116.438  42.992  1.00  0.00     0.053 C 
BRANCH   6   7
ATOM      7  C   UNL     1    -129.602 117.067  44.166  1.00  0.00     0.041 C 
ATOM      8  O   UNL     1    -129.688 116.541  45.306  1.00  0.00    -0.550 OA
ATOM      9  O   UNL     1    -128.913 118.263  44.009  1.00  0.00    -0.550 OA
ENDBRANCH   6   7
ENDBRANCH   5   6
ENDBRANCH   4   5
ENDBRANCH   3   4
ENDBRANCH   2   3
ENDBRANCH   1   2
BRANCH   1  10
ATOM     10  C   UNL     1    -129.386 109.427  43.075  1.00  0.00     0.000 C 
BRANCH  10  11
ATOM     11  C   UNL     1    -128.593 108.592  42.055  1.00  0.00    -0.000 C 
BRANCH  11  12
ATOM     12  C   UNL     1    -129.348 107.383  41.473  1.00  0.00    -0.000 C 
BRANCH  12  13
ATOM     13  C   UNL     1    -129.645 107.525  39.969  1.00  0.00    -0.000 C 
BRANCH  13  14
ATOM     14  C   UNL     1    -129.672 109.000  39.514  1.00  0.00    -0.000 C 
BRANCH  14  15
ATOM     15  C   UNL     1    -131.074 109.631  39.543  1.00  0.00    -0.003 C 
ATOM     16  C   UNL     1    -132.079 108.902  38.654  1.00  0.00     0.004 C 
ENDBRANCH  14  15
ENDBRANCH  13  14
ENDBRANCH  12  13
ENDBRANCH  11  12
ENDBRANCH  10  11
ENDBRANCH   1  10
TORSDOF 12
ENDMDL
MODEL 8
REMARK VINA RESULT:    -4.307      3.933      8.768
REMARK INTER + INTRA:          -8.097
REMARK INTER:                  -7.548
REMARK INTRA:                  -0.549
REMARK UNBOUND:                -0.768
REMARK SMILES CCCCCCCCCCCCCC(=O)[O-]
REMARK SMILES IDX 8 1 9 2 10 3 11 4 12 5 13 6 14 7 15 8 16 9 7 10 6 11 5 12
REMARK SMILES IDX 4 13 3 14 2 15 1 16
REMARK H PARENT
REMARK Flexibility Score: inf
ROOT
ATOM      1  C   UNL     1    -129.351 110.943  43.077  1.00  0.00     0.000 C 
ENDROOT
BRANCH   1   2
ATOM      2  C   UNL     1    -129.376 111.907  44.278  1.00  0.00     0.000 C 
BRANCH   2   3
ATOM      3  C   UNL     1    -128.987 113.355  43.924  1.00  0.00     0.000 C 
BRANCH   3   4
ATOM      4  C   UNL     1    -129.905 113.962  42.848  1.00  0.00     0.000 C 
BRANCH   4   5
ATOM      5  C   UNL     1    -129.404 115.325  42.344  1.00  0.00     0.006 C 
BRANCH   5   6
ATOM      6  C   UNL     1    -130.236 116.497  42.880  1.00  0.00     0.053 C 
BRANCH   6   7
ATOM      7  C   UNL     1    -129.541 117.146  44.035  1.00  0.00     0.041 C 
ATOM      8  O   UNL     1    -128.899 118.217  43.869  1.00  0.00    -0.550 OA
ATOM      9  O   UNL     1    -129.559 116.542  45.286  1.00  0.00    -0.550 OA
ENDBRANCH   6   7
ENDBRANCH   5   6
ENDBRANCH   4   5
ENDBRANCH   3   4
ENDBRANCH   2   3
ENDBRANCH   1   2
BRANCH   1  10
ATOM     10  C   UNL     1    -129.745 109.509  43.468  1.00  0.00     0.000 C 
BRANCH  10  11
ATOM     11  C   UNL     1    -129.269 108.457  42.449  1.00  0.00    -0.000 C 
BRANCH  11  12
ATOM     12  C   UNL     1    -129.638 108.754  40.984  1.00  0.00    -0.000 C 
BRANCH  12  13
ATOM     13  C   UNL     1    -129.542 107.515  40.077  1.00  0.00    -0.000 C 
BRANCH  13  14
ATOM     14  C   UNL     1    -129.048 106.266  40.838  1.00  0.00    -0.000 C 
BRANCH  14  15
ATOM     15  C   UNL     1    -129.458 104.938  40.182  1.00  0.00    -0.003 C 
ATOM     16  C   UNL     1    -129.750 105.071  38.689  1.00  0.00     0.004 C 
ENDBRANCH  14  15
ENDBRANCH  13  14
ENDBRANCH  12  13
ENDBRANCH  11  12
ENDBRANCH  10  11
ENDBRANCH   1  10
TORSDOF 12
ENDMDL
MODEL 9
REMARK VINA RESULT:    -4.303      2.035      3.227
REMARK INTER + INTRA:          -8.090
REMARK INTER:                  -7.641
REMARK INTRA:                  -0.449
REMARK UNBOUND:                -0.768
REMARK SMILES CCCCCCCCCCCCCC(=O)[O-]
REMARK SMILES IDX 8 1 9 2 10 3 11 4 12 5 13 6 14 7 15 8 16 9 7 10 6 11 5 12
REMARK SMILES IDX 4 13 3 14 2 15 1 16
REMARK H PARENT
REMARK Flexibility Score: inf
ROOT
ATOM      1  C   UNL     1    -130.087 111.544  40.988  1.00  0.00     0.000 C 
ENDROOT
BRANCH   1   2
ATOM      2  C   UNL     1    -129.424 110.793  39.819  1.00  0.00     0.000 C 
BRANCH   2   3
ATOM      3  C   UNL     1    -129.899 109.335  39.664  1.00  0.00     0.000 C 
BRANCH   3   4
ATOM      4  C   UNL     1    -129.532 108.467  40.880  1.00  0.00     0.000 C 
BRANCH   4   5
ATOM      5  C   UNL     1    -129.281 106.998  40.503  1.00  0.00     0.006 C 
BRANCH   5   6
ATOM      6  C   UNL     1    -130.045 106.571  39.243  1.00  0.00     0.053 C 
BRANCH   6   7
ATOM      7  C   UNL     1    -129.644 105.189  38.833  1.00  0.00     0.041 C 
ATOM      8  O   UNL     1    -129.781 104.818  37.638  1.00  0.00    -0.550 OA
ATOM      9  O   UNL     1    -129.165 104.295  39.782  1.00  0.00    -0.550 OA
ENDBRANCH   6   7
ENDBRANCH   5   6
ENDBRANCH   4   5
ENDBRANCH   3   4
ENDBRANCH   2   3
ENDBRANCH   1   2
BRANCH   1  10
ATOM     10  C   UNL     1    -129.806 113.056  40.950  1.00  0.00     0.000 C 
BRANCH  10  11
ATOM     11  C   UNL     1    -130.389 113.806  42.161  1.00  0.00    -0.000 C 
BRANCH  11  12
ATOM     12  C   UNL     1    -129.713 113.493  43.509  1.00  0.00    -0.000 C 
BRANCH  12  13
ATOM     13  C   UNL     1    -129.331 114.758  44.298  1.00  0.00    -0.000 C 
BRANCH  13  14
ATOM     14  C   UNL     1    -129.864 116.046  43.636  1.00  0.00    -0.000 C 
BRANCH  14  15
ATOM     15  C   UNL     1    -129.783 117.287  44.540  1.00  0.00    -0.003 C 
ATOM     16  C   UNL     1    -128.901 118.393  43.965  1.00  0.00     0.004 C 
ENDBRANCH  14  15
ENDBRANCH  13  14
ENDBRANCH  12  13
ENDBRANCH  11  12
ENDBRANCH  10  11
ENDBRANCH   1  10
TORSDOF 12
ENDMDL
