MODEL 1
REMARK VINA RESULT:    -3.887      0.000      0.000
REMARK INTER + INTRA:          -7.009
REMARK INTER:                  -6.160
REMARK INTRA:                  -0.850
REMARK UNBOUND:                -0.850
REMARK SMILES CCCCCCCCCCCC(=O)[O-]
REMARK SMILES IDX 7 1 8 2 9 3 10 4 11 5 12 6 13 7 14 8 6 9 5 10 4 11 3 12 2 13
REMARK SMILES IDX 1 14
REMARK H PARENT
REMARK Flexibility Score: inf
ROOT
ATOM      1  C   UNL     1     -32.615 -52.478  30.697  1.00  0.00     0.000 C 
ENDROOT
BRANCH   1   2
ATOM      2  C   UNL     1     -33.039 -52.395  29.222  1.00  0.00     0.000 C 
BRANCH   2   3
ATOM      3  C   UNL     1     -34.457 -51.819  29.092  1.00  0.00     0.000 C 
BRANCH   3   4
ATOM      4  C   UNL     1     -35.410 -52.747  28.316  1.00  0.00     0.006 C 
BRANCH   4   5
ATOM      5  C   UNL     1     -34.811 -54.117  27.964  1.00  0.00     0.053 C 
BRANCH   5   6
ATOM      6  C   UNL     1     -35.482 -55.230  28.709  1.00  0.00     0.041 C 
ATOM      7  O   UNL     1     -36.443 -54.984  29.486  1.00  0.00    -0.550 OA
ATOM      8  O   UNL     1     -35.068 -56.543  28.520  1.00  0.00    -0.550 OA
ENDBRANCH   5   6
ENDBRANCH   4   5
ENDBRANCH   3   4
ENDBRANCH   2   3
ENDBRANCH   1   2
BRANCH   1   9
ATOM      9  C   UNL     1     -33.345 -53.593  31.463  1.00  0.00     0.000 C 
BRANCH   9  10
ATOM     10  C   UNL     1     -33.057 -53.557  32.974  1.00  0.00    -0.000 C 
BRANCH  10  11
ATOM     11  C   UNL     1     -32.723 -52.144  33.478  1.00  0.00    -0.000 C 
BRANCH  11  12
ATOM     12  C   UNL     1     -31.287 -52.028  34.012  1.00  0.00    -0.000 C 
BRANCH  12  13
ATOM     13  C   UNL     1     -30.713 -53.411  34.345  1.00  0.00    -0.003 C 
ATOM     14  C   UNL     1     -29.229 -53.490  33.998  1.00  0.00     0.004 C 
ENDBRANCH  12  13
ENDBRANCH  11  12
ENDBRANCH  10  11
ENDBRANCH   9  10
ENDBRANCH   1   9
TORSDOF 10
ENDMDL
MODEL 2
REMARK VINA RESULT:    -3.854      9.046     10.919
REMARK INTER + INTRA:          -6.957
REMARK INTER:                  -6.196
REMARK INTRA:                  -0.761
REMARK UNBOUND:                -0.850
REMARK SMILES CCCCCCCCCCCC(=O)[O-]
REMARK SMILES IDX 7 1 8 2 9 3 10 4 11 5 12 6 13 7 14 8 6 9 5 10 4 11 3 12 2 13
REMARK SMILES IDX 1 14
REMARK H PARENT
REMARK Flexibility Score: inf
ROOT
ATOM      1  C   UNL     1     -26.153 -51.427  23.791  1.00  0.00     0.000 C 
ENDROOT
BRANCH   1   2
ATOM      2  C   UNL     1     -26.690 -52.200  25.005  1.00  0.00     0.000 C 
BRANCH   2   3
ATOM      3  C   UNL     1     -25.831 -51.931  26.249  1.00  0.00     0.000 C 
BRANCH   3   4
ATOM      4  C   UNL     1     -25.038 -53.168  26.708  1.00  0.00     0.006 C 
BRANCH   4   5
ATOM      5  C   UNL     1     -25.674 -53.927  27.882  1.00  0.00     0.053 C 
BRANCH   5   6
ATOM      6  C   UNL     1     -24.977 -53.642  29.177  1.00  0.00     0.041 C 
ATOM      7  O   UNL     1     -23.960 -52.899  29.200  1.00  0.00    -0.550 OA
ATOM      8  O   UNL     1     -25.469 -54.172  30.364  1.00  0.00    -0.550 OA
ENDBRANCH   5   6
ENDBRANCH   4   5
ENDBRANCH   3   4
ENDBRANCH   2   3
ENDBRANCH   1   2
BRANCH   1   9
ATOM      9  C   UNL     1     -25.010 -50.466  24.155  1.00  0.00     0.000 C 
BRANCH   9  10
ATOM     10  C   UNL     1     -25.318 -49.008  23.772  1.00  0.00    -0.000 C 
BRANCH  10  11
ATOM     11  C   UNL     1     -26.736 -48.835  23.204  1.00  0.00    -0.000 C 
BRANCH  11  12
ATOM     12  C   UNL     1     -27.595 -47.871  24.036  1.00  0.00    -0.000 C 
BRANCH  12  13
ATOM     13  C   UNL     1     -26.765 -47.218  25.149  1.00  0.00    -0.003 C 
ATOM     14  C   UNL     1     -26.574 -45.727  24.891  1.00  0.00     0.004 C 
ENDBRANCH  12  13
ENDBRANCH  11  12
ENDBRANCH  10  11
ENDBRANCH   9  10
ENDBRANCH   1   9
TORSDOF 10
ENDMDL
MODEL 3
REMARK VINA RESULT:    -3.811      4.790      7.869
REMARK INTER + INTRA:          -6.888
REMARK INTER:                  -6.370
REMARK INTRA:                  -0.518
REMARK UNBOUND:                -0.850
REMARK SMILES CCCCCCCCCCCC(=O)[O-]
REMARK SMILES IDX 7 1 8 2 9 3 10 4 11 5 12 6 13 7 14 8 6 9 5 10 4 11 3 12 2 13
REMARK SMILES IDX 1 14
REMARK H PARENT
REMARK Flexibility Score: inf
ROOT
ATOM      1  C   UNL     1     -34.016 -50.856  24.529  1.00  0.00     0.000 C 
ENDROOT
BRANCH   1   2
ATOM      2  C   UNL     1     -34.422 -52.210  25.131  1.00  0.00     0.000 C 
BRANCH   2   3
ATOM      3  C   UNL     1     -34.149 -52.240  26.643  1.00  0.00     0.000 C 
BRANCH   3   4
ATOM      4  C   UNL     1     -34.803 -53.445  27.344  1.00  0.00     0.006 C 
BRANCH   4   5
ATOM      5  C   UNL     1     -35.205 -53.184  28.804  1.00  0.00     0.053 C 
BRANCH   5   6
ATOM      6  C   UNL     1     -35.730 -54.419  29.469  1.00  0.00     0.041 C 
ATOM      7  O   UNL     1     -36.954 -54.709  29.394  1.00  0.00    -0.550 OA
ATOM      8  O   UNL     1     -34.863 -55.268  30.146  1.00  0.00    -0.550 OA
ENDBRANCH   5   6
ENDBRANCH   4   5
ENDBRANCH   3   4
ENDBRANCH   2   3
ENDBRANCH   1   2
BRANCH   1   9
ATOM      9  C   UNL     1     -32.644 -50.899  23.837  1.00  0.00     0.000 C 
BRANCH   9  10
ATOM     10  C   UNL     1     -32.314 -49.590  23.099  1.00  0.00    -0.000 C 
BRANCH  10  11
ATOM     11  C   UNL     1     -33.543 -48.685  22.923  1.00  0.00    -0.000 C 
BRANCH  11  12
ATOM     12  C   UNL     1     -33.307 -47.255  23.433  1.00  0.00    -0.000 C 
BRANCH  12  13
ATOM     13  C   UNL     1     -34.637 -46.555  23.739  1.00  0.00    -0.003 C 
ATOM     14  C   UNL     1     -35.686 -47.551  24.224  1.00  0.00     0.004 C 
ENDBRANCH  12  13
ENDBRANCH  11  12
ENDBRANCH  10  11
ENDBRANCH   9  10
ENDBRANCH   1   9
TORSDOF 10
ENDMDL
MODEL 4
REMARK VINA RESULT:    -3.802      3.760      7.038
REMARK INTER + INTRA:          -6.875
REMARK INTER:                  -6.426
REMARK INTRA:                  -0.449
REMARK UNBOUND:                -0.850
REMARK SMILES CCCCCCCCCCCC(=O)[O-]
REMARK SMILES IDX 7 1 8 2 9 3 10 4 11 5 12 6 13 7 14 8 6 9 5 10 4 11 3 12 2 13
REMARK SMILES IDX 1 14
REMARK H PARENT
REMARK Flexibility Score: inf
ROOT
ATOM      1  C   UNL     1     -32.355 -52.888  33.562  1.00  0.00     0.000 C 
ENDROOT
BRANCH   1   2
ATOM      2  C   UNL     1     -31.227 -53.843  33.984  1.00  0.00     0.000 C 
BRANCH   2   3
ATOM      3  C   UNL     1     -29.894 -53.092  34.114  1.00  0.00     0.000 C 
BRANCH   3   4
ATOM      4  C   UNL     1     -28.671 -54.007  33.922  1.00  0.00     0.006 C 
BRANCH   4   5
ATOM      5  C   UNL     1     -27.377 -53.264  33.559  1.00  0.00     0.053 C 
BRANCH   5   6
ATOM      6  C   UNL     1     -27.070 -53.355  32.095  1.00  0.00     0.041 C 
ATOM      7  O   UNL     1     -27.869 -52.872  31.249  1.00  0.00    -0.550 OA
ATOM      8  O   UNL     1     -25.887 -53.945  31.667  1.00  0.00    -0.550 OA
ENDBRANCH   5   6
ENDBRANCH   4   5
ENDBRANCH   3   4
ENDBRANCH   2   3
ENDBRANCH   1   2
BRANCH   1   9
ATOM      9  C   UNL     1     -33.276 -53.492  32.490  1.00  0.00     0.000 C 
BRANCH   9  10
ATOM     10  C   UNL     1     -32.985 -52.943  31.082  1.00  0.00    -0.000 C 
BRANCH  10  11
ATOM     11  C   UNL     1     -34.001 -53.431  30.037  1.00  0.00    -0.000 C 
BRANCH  11  12
ATOM     12  C   UNL     1     -33.985 -54.956  29.859  1.00  0.00    -0.000 C 
BRANCH  12  13
ATOM     13  C   UNL     1     -35.412 -55.519  29.823  1.00  0.00    -0.003 C 
ATOM     14  C   UNL     1     -36.375 -54.538  29.162  1.00  0.00     0.004 C 
ENDBRANCH  12  13
ENDBRANCH  11  12
ENDBRANCH  10  11
ENDBRANCH   9  10
ENDBRANCH   1   9
TORSDOF 10
ENDMDL
MODEL 5
REMARK VINA RESULT:    -3.779      4.019      5.698
REMARK INTER + INTRA:          -6.837
REMARK INTER:                  -5.752
REMARK INTRA:                  -1.085
REMARK UNBOUND:                -0.850
REMARK SMILES CCCCCCCCCCCC(=O)[O-]
REMARK SMILES IDX 7 1 8 2 9 3 10 4 11 5 12 6 13 7 14 8 6 9 5 10 4 11 3 12 2 13
REMARK SMILES IDX 1 14
REMARK H PARENT
REMARK Flexibility Score: inf
ROOT
ATOM      1  C   UNL     1     -34.268 -51.549  28.690  1.00  0.00     0.000 C 
ENDROOT
BRANCH   1   2
ATOM      2  C   UNL     1     -33.499 -52.065  27.464  1.00  0.00     0.000 C 
BRANCH   2   3
ATOM      3  C   UNL     1     -34.466 -52.597  26.396  1.00  0.00     0.000 C 
BRANCH   3   4
ATOM      4  C   UNL     1     -34.075 -52.170  24.969  1.00  0.00     0.006 C 
BRANCH   4   5
ATOM      5  C   UNL     1     -34.985 -51.094  24.359  1.00  0.00     0.053 C 
BRANCH   5   6
ATOM      6  C   UNL     1     -34.294 -49.768  24.257  1.00  0.00     0.041 C 
ATOM      7  O   UNL     1     -33.099 -49.645  24.634  1.00  0.00    -0.550 OA
ATOM      8  O   UNL     1     -34.960 -48.677  23.714  1.00  0.00    -0.550 OA
ENDBRANCH   5   6
ENDBRANCH   4   5
ENDBRANCH   3   4
ENDBRANCH   2   3
ENDBRANCH   1   2
BRANCH   1   9
ATOM      9  C   UNL     1     -33.441 -51.618  29.984  1.00  0.00     0.000 C 
BRANCH   9  10
ATOM     10  C   UNL     1     -32.971 -53.046  30.309  1.00  0.00    -0.000 C 
BRANCH  10  11
ATOM     11  C   UNL     1     -34.142 -54.024  30.494  1.00  0.00    -0.000 C 
BRANCH  11  12
ATOM     12  C   UNL     1     -34.126 -55.171  29.471  1.00  0.00    -0.000 C 
BRANCH  12  13
ATOM     13  C   UNL     1     -35.548 -55.663  29.176  1.00  0.00    -0.003 C 
ATOM     14  C   UNL     1     -36.506 -54.493  28.977  1.00  0.00     0.004 C 
ENDBRANCH  12  13
ENDBRANCH  11  12
ENDBRANCH  10  11
ENDBRANCH   9  10
ENDBRANCH   1   9
TORSDOF 10
ENDMDL
MODEL 6
REMARK VINA RESULT:    -3.776      4.325      7.002
REMARK INTER + INTRA:          -6.832
REMARK INTER:                  -6.384
REMARK INTRA:                  -0.449
REMARK UNBOUND:                -0.850
REMARK SMILES CCCCCCCCCCCC(=O)[O-]
REMARK SMILES IDX 7 1 8 2 9 3 10 4 11 5 12 6 13 7 14 8 6 9 5 10 4 11 3 12 2 13
REMARK SMILES IDX 1 14
REMARK H PARENT
REMARK Flexibility Score: inf
ROOT
ATOM      1  C   UNL     1     -32.024 -51.381  33.350  1.00  0.00     0.000 C 
ENDROOT
BRANCH   1   2
ATOM      2  C   UNL     1     -33.234 -50.651  33.954  1.00  0.00     0.000 C 
BRANCH   2   3
ATOM      3  C   UNL     1     -32.873 -50.016  35.305  1.00  0.00     0.000 C 
BRANCH   3   4
ATOM      4  C   UNL     1     -33.907 -48.977  35.774  1.00  0.00     0.006 C 
BRANCH   4   5
ATOM      5  C   UNL     1     -35.277 -49.096  35.089  1.00  0.00     0.053 C 
BRANCH   5   6
ATOM      6  C   UNL     1     -35.828 -47.757  34.702  1.00  0.00     0.041 C 
ATOM      7  O   UNL     1     -37.072 -47.588  34.601  1.00  0.00    -0.550 OA
ATOM      8  O   UNL     1     -34.968 -46.688  34.485  1.00  0.00    -0.550 OA
ENDBRANCH   5   6
ENDBRANCH   4   5
ENDBRANCH   3   4
ENDBRANCH   2   3
ENDBRANCH   1   2
BRANCH   1   9
ATOM      9  C   UNL     1     -32.119 -52.908  33.493  1.00  0.00     0.000 C 
BRANCH   9  10
ATOM     10  C   UNL     1     -33.343 -53.495  32.770  1.00  0.00    -0.000 C 
BRANCH  10  11
ATOM     11  C   UNL     1     -33.252 -53.350  31.243  1.00  0.00    -0.000 C 
BRANCH  11  12
ATOM     12  C   UNL     1     -34.063 -54.418  30.495  1.00  0.00    -0.000 C 
BRANCH  12  13
ATOM     13  C   UNL     1     -35.135 -53.772  29.608  1.00  0.00    -0.003 C 
ATOM     14  C   UNL     1     -36.296 -54.729  29.359  1.00  0.00     0.004 C 
ENDBRANCH  12  13
ENDBRANCH  11  12
ENDBRANCH  10  11
ENDBRANCH   9  10
ENDBRANCH   1   9
TORSDOF 10
ENDMDL
MODEL 7
REMARK VINA RESULT:    -3.740      1.425      2.603
REMARK INTER + INTRA:          -6.775
REMARK INTER:                  -5.854
REMARK INTRA:                  -0.921
REMARK UNBOUND:                -0.850
REMARK SMILES CCCCCCCCCCCC(=O)[O-]
REMARK SMILES IDX 7 1 8 2 9 3 10 4 11 5 12 6 13 7 14 8 6 9 5 10 4 11 3 12 2 13
REMARK SMILES IDX 1 14
REMARK H PARENT
REMARK Flexibility Score: inf
ROOT
ATOM      1  C   UNL     1     -32.983 -52.877  32.887  1.00  0.00     0.000 C 
ENDROOT
BRANCH   1   2
ATOM      2  C   UNL     1     -32.318 -52.182  31.689  1.00  0.00     0.000 C 
BRANCH   2   3
ATOM      3  C   UNL     1     -32.708 -52.869  30.372  1.00  0.00     0.000 C 
BRANCH   3   4
ATOM      4  C   UNL     1     -33.898 -53.833  30.529  1.00  0.00     0.006 C 
BRANCH   4   5
ATOM      5  C   UNL     1     -35.029 -53.611  29.514  1.00  0.00     0.053 C 
BRANCH   5   6
ATOM      6  C   UNL     1     -35.886 -54.830  29.355  1.00  0.00     0.041 C 
ATOM      7  O   UNL     1     -37.138 -54.743  29.459  1.00  0.00    -0.550 OA
ATOM      8  O   UNL     1     -35.303 -56.056  29.059  1.00  0.00    -0.550 OA
ENDBRANCH   5   6
ENDBRANCH   4   5
ENDBRANCH   3   4
ENDBRANCH   2   3
ENDBRANCH   1   2
BRANCH   1   9
ATOM      9  C   UNL     1     -31.998 -53.733  33.700  1.00  0.00     0.000 C 
BRANCH   9  10
ATOM     10  C   UNL     1     -30.645 -53.033  33.916  1.00  0.00    -0.000 C 
BRANCH  10  11
ATOM     11  C   UNL     1     -30.725 -51.902  34.954  1.00  0.00    -0.000 C 
BRANCH  11  12
ATOM     12  C   UNL     1     -30.256 -50.550  34.396  1.00  0.00    -0.000 C 
BRANCH  12  13
ATOM     13  C   UNL     1     -31.278 -49.447  34.702  1.00  0.00    -0.003 C 
ATOM     14  C   UNL     1     -32.541 -50.025  35.332  1.00  0.00     0.004 C 
ENDBRANCH  12  13
ENDBRANCH  11  12
ENDBRANCH  10  11
ENDBRANCH   9  10
ENDBRANCH   1   9
TORSDOF 10
ENDMDL
MODEL 8
REMARK VINA RESULT:    -3.713      4.415      7.202
REMARK INTER + INTRA:          -6.732
REMARK INTER:                  -5.841
REMARK INTRA:                  -0.891
REMARK UNBOUND:                -0.850
REMARK SMILES CCCCCCCCCCCC(=O)[O-]
REMARK SMILES IDX 7 1 8 2 9 3 10 4 11 5 12 6 13 7 14 8 6 9 5 10 4 11 3 12 2 13
REMARK SMILES IDX 1 14
REMARK H PARENT
REMARK Flexibility Score: inf
ROOT
ATOM      1  C   UNL     1     -34.522 -51.772  25.092  1.00  0.00     0.000 C 
ENDROOT
BRANCH   1   2
ATOM      2  C   UNL     1     -33.398 -51.636  26.130  1.00  0.00     0.000 C 
BRANCH   2   3
ATOM      3  C   UNL     1     -33.817 -52.248  27.475  1.00  0.00     0.000 C 
BRANCH   3   4
ATOM      4  C   UNL     1     -34.927 -53.306  27.330  1.00  0.00     0.006 C 
BRANCH   4   5
ATOM      5  C   UNL     1     -35.522 -53.784  28.664  1.00  0.00     0.053 C 
BRANCH   5   6
ATOM      6  C   UNL     1     -34.858 -55.033  29.158  1.00  0.00     0.041 C 
ATOM      7  O   UNL     1     -35.203 -56.156  28.704  1.00  0.00    -0.550 OA
ATOM      8  O   UNL     1     -33.837 -54.953  30.097  1.00  0.00    -0.550 OA
ENDBRANCH   5   6
ENDBRANCH   4   5
ENDBRANCH   3   4
ENDBRANCH   2   3
ENDBRANCH   1   2
BRANCH   1   9
ATOM      9  C   UNL     1     -34.555 -50.604  24.093  1.00  0.00     0.000 C 
BRANCH   9  10
ATOM     10  C   UNL     1     -33.366 -49.643  24.269  1.00  0.00    -0.000 C 
BRANCH  10  11
ATOM     11  C   UNL     1     -32.577 -49.438  22.966  1.00  0.00    -0.000 C 
BRANCH  11  12
ATOM     12  C   UNL     1     -31.116 -49.902  23.076  1.00  0.00    -0.000 C 
BRANCH  12  13
ATOM     13  C   UNL     1     -30.914 -51.248  22.369  1.00  0.00    -0.003 C 
ATOM     14  C   UNL     1     -31.027 -52.409  23.351  1.00  0.00     0.004 C 
ENDBRANCH  12  13
ENDBRANCH  11  12
ENDBRANCH  10  11
ENDBRANCH   9  10
ENDBRANCH   1   9
TORSDOF 10
ENDMDL
MODEL 9
REMARK VINA RESULT:    -3.706      7.977      9.864
REMARK INTER + INTRA:          -6.723
REMARK INTER:                  -5.590
REMARK INTRA:                  -1.132
REMARK UNBOUND:                -0.850
REMARK SMILES CCCCCCCCCCCC(=O)[O-]
REMARK SMILES IDX 7 1 8 2 9 3 10 4 11 5 12 6 13 7 14 8 6 9 5 10 4 11 3 12 2 13
REMARK SMILES IDX 1 14
REMARK H PARENT
REMARK Flexibility Score: inf
ROOT
ATOM      1  C   UNL     1     -30.268 -48.197  34.617  1.00  0.00     0.000 C 
ENDROOT
BRANCH   1   2
ATOM      2  C   UNL     1     -29.272 -49.241  35.142  1.00  0.00     0.000 C 
BRANCH   2   3
ATOM      3  C   UNL     1     -28.071 -48.561  35.816  1.00  0.00     0.000 C 
BRANCH   3   4
ATOM      4  C   UNL     1     -26.953 -48.199  34.822  1.00  0.00     0.006 C 
BRANCH   4   5
ATOM      5  C   UNL     1     -26.579 -49.330  33.851  1.00  0.00     0.053 C 
BRANCH   5   6
ATOM      6  C   UNL     1     -25.818 -50.425  34.534  1.00  0.00     0.041 C 
ATOM      7  O   UNL     1     -24.660 -50.209  34.982  1.00  0.00    -0.550 OA
ATOM      8  O   UNL     1     -26.400 -51.675  34.705  1.00  0.00    -0.550 OA
ENDBRANCH   5   6
ENDBRANCH   4   5
ENDBRANCH   3   4
ENDBRANCH   2   3
ENDBRANCH   1   2
BRANCH   1   9
ATOM      9  C   UNL     1     -30.487 -47.035  35.600  1.00  0.00     0.000 C 
BRANCH   9  10
ATOM     10  C   UNL     1     -30.450 -45.661  34.908  1.00  0.00    -0.000 C 
BRANCH  10  11
ATOM     11  C   UNL     1     -29.582 -45.662  33.640  1.00  0.00    -0.000 C 
BRANCH  11  12
ATOM     12  C   UNL     1     -28.500 -44.572  33.660  1.00  0.00    -0.000 C 
BRANCH  12  13
ATOM     13  C   UNL     1     -27.310 -44.964  32.775  1.00  0.00    -0.003 C 
ATOM     14  C   UNL     1     -27.633 -44.768  31.297  1.00  0.00     0.004 C 
ENDBRANCH  12  13
ENDBRANCH  11  12
ENDBRANCH  10  11
ENDBRANCH   9  10
ENDBRANCH   1   9
TORSDOF 10
ENDMDL
