MODEL 1
REMARK VINA RESULT:    -7.050      0.000      0.000
REMARK INTER + INTRA:          -8.480
REMARK INTER:                  -8.493
REMARK INTRA:                   0.013
REMARK UNBOUND:                 0.013
REMARK SMILES O=c1c(O)c(-c2ccc(O)c(O)c2)oc2cc(O)cc(O)c12
REMARK SMILES IDX 5 1 3 2 2 3 1 4 22 5 20 6 19 7 17 8 16 9 15 10 14 11 6 12
REMARK SMILES IDX 7 13 8 14 9 15 13 16 11 17 10 18 12 20 4 22 21 24 18 26
REMARK H PARENT 10 19 12 21 4 23 21 25 18 27
REMARK Flexibility Score: inf
ROOT
ATOM      1  C   UNL     1      -4.241  -4.591  17.391  1.00  0.00     0.180 A 
ATOM      2  C   UNL     1      -2.992  -4.231  17.924  1.00  0.00     0.208 A 
ATOM      3  C   UNL     1      -2.592  -4.776  19.154  1.00  0.00     0.238 A 
ATOM      4  O   UNL     1      -1.497  -4.407  19.652  1.00  0.00    -0.285 OA
ATOM      5  C   UNL     1      -3.440  -5.687  19.829  1.00  0.00     0.111 A 
ATOM      6  C   UNL     1      -3.118  -6.332  21.062  1.00  0.00     0.134 A 
ATOM      7  C   UNL     1      -4.086  -7.115  21.704  1.00  0.00     0.093 A 
ATOM      8  C   UNL     1      -5.338  -7.329  21.128  1.00  0.00     0.123 A 
ATOM      9  C   UNL     1      -5.641  -6.751  19.894  1.00  0.00     0.094 A 
ATOM     10  C   UNL     1      -4.710  -5.937  19.246  1.00  0.00     0.146 A 
ATOM     11  O   UNL     1      -5.041  -5.397  18.079  1.00  0.00    -0.452 OA
ENDROOT
BRANCH   1  12
ATOM     12  C   UNL     1      -4.720  -4.077  16.087  1.00  0.00     0.025 A 
ATOM     13  C   UNL     1      -6.042  -3.618  15.970  1.00  0.00     0.016 A 
ATOM     14  C   UNL     1      -6.522  -3.148  14.745  1.00  0.00     0.051 A 
ATOM     15  C   UNL     1      -5.692  -3.146  13.616  1.00  0.00     0.157 A 
ATOM     16  C   UNL     1      -3.897  -4.092  14.947  1.00  0.00     0.062 A 
ATOM     17  C   UNL     1      -4.379  -3.622  13.717  1.00  0.00     0.158 A 
BRANCH  15  18
ATOM     18  O   UNL     1      -6.165  -2.676  12.392  1.00  0.00    -0.504 OA
ATOM     19  H   UNL     1      -6.851  -1.931  12.341  1.00  0.00     0.293 HD
ENDBRANCH  15  18
BRANCH  17  20
ATOM     20  O   UNL     1      -3.559  -3.631  12.589  1.00  0.00    -0.504 OA
ATOM     21  H   UNL     1      -3.817  -3.139  11.741  1.00  0.00     0.293 HD
ENDBRANCH  17  20
ENDBRANCH   1  12
BRANCH   2  22
ATOM     22  O   UNL     1      -2.181  -3.311  17.252  1.00  0.00    -0.502 OA
ATOM     23  H   UNL     1      -1.811  -2.482  17.702  1.00  0.00     0.293 HD
ENDBRANCH   2  22
BRANCH   6  24
ATOM     24  O   UNL     1      -1.865  -6.260  21.677  1.00  0.00    -0.507 OA
ATOM     25  H   UNL     1      -1.597  -5.560  22.353  1.00  0.00     0.293 HD
ENDBRANCH   6  24
BRANCH   8  26
ATOM     26  O   UNL     1      -6.271  -8.125  21.788  1.00  0.00    -0.508 OA
ATOM     27  H   UNL     1      -7.260  -8.073  21.571  1.00  0.00     0.293 HD
ENDBRANCH   8  26
TORSDOF 6
ENDMDL
MODEL 2
REMARK VINA RESULT:    -6.952      1.562      7.150
REMARK INTER + INTRA:          -8.362
REMARK INTER:                  -8.512
REMARK INTRA:                   0.151
REMARK UNBOUND:                 0.013
REMARK SMILES O=c1c(O)c(-c2ccc(O)c(O)c2)oc2cc(O)cc(O)c12
REMARK SMILES IDX 5 1 3 2 2 3 1 4 22 5 20 6 19 7 17 8 16 9 15 10 14 11 6 12
REMARK SMILES IDX 7 13 8 14 9 15 13 16 11 17 10 18 12 20 4 22 21 24 18 26
REMARK H PARENT 10 19 12 21 4 23 21 25 18 27
REMARK Flexibility Score: inf
ROOT
ATOM      1  C   UNL     1      -4.519  -4.521  18.077  1.00  0.00     0.180 A 
ATOM      2  C   UNL     1      -5.859  -4.233  18.388  1.00  0.00     0.208 A 
ATOM      3  C   UNL     1      -6.725  -3.831  17.359  1.00  0.00     0.238 A 
ATOM      4  O   UNL     1      -7.910  -3.522  17.652  1.00  0.00    -0.285 OA
ATOM      5  C   UNL     1      -6.246  -3.737  16.031  1.00  0.00     0.111 A 
ATOM      6  C   UNL     1      -7.046  -3.378  14.904  1.00  0.00     0.134 A 
ATOM      7  C   UNL     1      -6.436  -3.191  13.656  1.00  0.00     0.093 A 
ATOM      8  C   UNL     1      -5.071  -3.411  13.482  1.00  0.00     0.123 A 
ATOM      9  C   UNL     1      -4.290  -3.819  14.564  1.00  0.00     0.094 A 
ATOM     10  C   UNL     1      -4.862  -3.981  15.828  1.00  0.00     0.146 A 
ATOM     11  O   UNL     1      -4.083  -4.360  16.834  1.00  0.00    -0.452 OA
ENDROOT
BRANCH   1  12
ATOM     12  C   UNL     1      -3.552  -4.974  19.104  1.00  0.00     0.025 A 
ATOM     13  C   UNL     1      -2.209  -4.578  19.010  1.00  0.00     0.016 A 
ATOM     14  C   UNL     1      -1.275  -5.011  19.955  1.00  0.00     0.051 A 
ATOM     15  C   UNL     1      -1.669  -5.859  20.998  1.00  0.00     0.157 A 
ATOM     16  C   UNL     1      -3.938  -5.842  20.141  1.00  0.00     0.062 A 
ATOM     17  C   UNL     1      -3.001  -6.278  21.089  1.00  0.00     0.158 A 
BRANCH  15  18
ATOM     18  O   UNL     1      -0.742  -6.291  21.945  1.00  0.00    -0.504 OA
ATOM     19  H   UNL     1       0.229  -6.455  21.700  1.00  0.00     0.293 HD
ENDBRANCH  15  18
BRANCH  17  20
ATOM     20  O   UNL     1      -3.388  -7.134  22.120  1.00  0.00    -0.504 OA
ATOM     21  H   UNL     1      -2.716  -7.505  22.781  1.00  0.00     0.293 HD
ENDBRANCH  17  20
ENDBRANCH   1  12
BRANCH   2  22
ATOM     22  O   UNL     1      -6.306  -4.310  19.710  1.00  0.00    -0.502 OA
ATOM     23  H   UNL     1      -5.702  -4.120  20.500  1.00  0.00     0.293 HD
ENDBRANCH   2  22
BRANCH   6  24
ATOM     24  O   UNL     1      -8.434  -3.223  14.949  1.00  0.00    -0.507 OA
ATOM     25  H   UNL     1      -8.967  -2.627  14.333  1.00  0.00     0.293 HD
ENDBRANCH   6  24
BRANCH   8  26
ATOM     26  O   UNL     1      -4.501  -3.229  12.224  1.00  0.00    -0.508 OA
ATOM     27  H   UNL     1      -4.956  -2.669  11.511  1.00  0.00     0.293 HD
ENDBRANCH   8  26
TORSDOF 6
ENDMDL
MODEL 3
REMARK VINA RESULT:    -6.946     14.818     17.067
REMARK INTER + INTRA:          -8.354
REMARK INTER:                  -8.199
REMARK INTRA:                  -0.155
REMARK UNBOUND:                 0.013
REMARK SMILES O=c1c(O)c(-c2ccc(O)c(O)c2)oc2cc(O)cc(O)c12
REMARK SMILES IDX 5 1 3 2 2 3 1 4 22 5 20 6 19 7 17 8 16 9 15 10 14 11 6 12
REMARK SMILES IDX 7 13 8 14 9 15 13 16 11 17 10 18 12 20 4 22 21 24 18 26
REMARK H PARENT 10 19 12 21 4 23 21 25 18 27
REMARK Flexibility Score: inf
ROOT
ATOM      1  C   UNL     1      -1.522   2.721   3.184  1.00  0.00     0.180 A 
ATOM      2  C   UNL     1      -2.766   2.838   3.827  1.00  0.00     0.208 A 
ATOM      3  C   UNL     1      -3.547   1.688   4.013  1.00  0.00     0.238 A 
ATOM      4  O   UNL     1      -4.684   1.807   4.540  1.00  0.00    -0.285 OA
ATOM      5  C   UNL     1      -3.069   0.432   3.568  1.00  0.00     0.111 A 
ATOM      6  C   UNL     1      -3.760  -0.806   3.741  1.00  0.00     0.134 A 
ATOM      7  C   UNL     1      -3.252  -1.969   3.146  1.00  0.00     0.093 A 
ATOM      8  C   UNL     1      -2.049  -1.951   2.441  1.00  0.00     0.123 A 
ATOM      9  C   UNL     1      -1.336  -0.758   2.317  1.00  0.00     0.094 A 
ATOM     10  C   UNL     1      -1.834   0.425   2.869  1.00  0.00     0.146 A 
ATOM     11  O   UNL     1      -1.130   1.541   2.720  1.00  0.00    -0.452 OA
ENDROOT
BRANCH   1  12
ATOM     12  C   UNL     1      -0.631   3.886   2.974  1.00  0.00     0.025 A 
ATOM     13  C   UNL     1      -1.031   4.914   2.105  1.00  0.00     0.016 A 
ATOM     14  C   UNL     1      -0.197   6.011   1.875  1.00  0.00     0.051 A 
ATOM     15  C   UNL     1       1.055   6.088   2.499  1.00  0.00     0.157 A 
ATOM     16  C   UNL     1       0.635   3.958   3.582  1.00  0.00     0.062 A 
ATOM     17  C   UNL     1       1.473   5.059   3.350  1.00  0.00     0.158 A 
BRANCH  15  18
ATOM     18  O   UNL     1       1.889   7.182   2.276  1.00  0.00    -0.504 OA
ATOM     19  H   UNL     1       2.178   7.791   3.033  1.00  0.00     0.293 HD
ENDBRANCH  15  18
BRANCH  17  20
ATOM     20  O   UNL     1       2.726   5.131   3.959  1.00  0.00    -0.504 OA
ATOM     21  H   UNL     1       3.080   6.000   4.342  1.00  0.00     0.293 HD
ENDBRANCH  17  20
ENDBRANCH   1  12
BRANCH   2  22
ATOM     22  O   UNL     1      -3.230   4.092   4.237  1.00  0.00    -0.502 OA
ATOM     23  H   UNL     1      -2.895   4.546   5.079  1.00  0.00     0.293 HD
ENDBRANCH   2  22
BRANCH   6  24
ATOM     24  O   UNL     1      -4.922  -0.952   4.503  1.00  0.00    -0.507 OA
ATOM     25  H   UNL     1      -4.959  -0.898   5.510  1.00  0.00     0.293 HD
ENDBRANCH   6  24
BRANCH   8  26
ATOM     26  O   UNL     1      -1.567  -3.128   1.875  1.00  0.00    -0.508 OA
ATOM     27  H   UNL     1      -1.222  -3.157   0.922  1.00  0.00     0.293 HD
ENDBRANCH   8  26
TORSDOF 6
ENDMDL
MODEL 4
REMARK VINA RESULT:    -6.610      1.157      2.896
REMARK INTER + INTRA:          -7.949
REMARK INTER:                  -8.190
REMARK INTRA:                   0.241
REMARK UNBOUND:                 0.013
REMARK SMILES O=c1c(O)c(-c2ccc(O)c(O)c2)oc2cc(O)cc(O)c12
REMARK SMILES IDX 5 1 3 2 2 3 1 4 22 5 20 6 19 7 17 8 16 9 15 10 14 11 6 12
REMARK SMILES IDX 7 13 8 14 9 15 13 16 11 17 10 18 12 20 4 22 21 24 18 26
REMARK H PARENT 10 19 12 21 4 23 21 25 18 27
REMARK Flexibility Score: inf
ROOT
ATOM      1  C   UNL     1      -5.351  -5.018  17.470  1.00  0.00     0.180 A 
ATOM      2  C   UNL     1      -6.408  -5.727  18.066  1.00  0.00     0.208 A 
ATOM      3  C   UNL     1      -6.211  -6.312  19.326  1.00  0.00     0.238 A 
ATOM      4  O   UNL     1      -7.143  -6.993  19.830  1.00  0.00    -0.285 OA
ATOM      5  C   UNL     1      -4.965  -6.168  19.983  1.00  0.00     0.111 A 
ATOM      6  C   UNL     1      -4.668  -6.685  21.280  1.00  0.00     0.134 A 
ATOM      7  C   UNL     1      -3.362  -6.594  21.777  1.00  0.00     0.093 A 
ATOM      8  C   UNL     1      -2.360  -5.950  21.054  1.00  0.00     0.123 A 
ATOM      9  C   UNL     1      -2.653  -5.389  19.810  1.00  0.00     0.094 A 
ATOM     10  C   UNL     1      -3.938  -5.494  19.273  1.00  0.00     0.146 A 
ATOM     11  O   UNL     1      -4.174  -4.955  18.082  1.00  0.00    -0.452 OA
ENDROOT
BRANCH   1  12
ATOM     12  C   UNL     1      -5.491  -4.352  16.155  1.00  0.00     0.025 A 
ATOM     13  C   UNL     1      -6.722  -3.780  15.798  1.00  0.00     0.016 A 
ATOM     14  C   UNL     1      -6.883  -3.165  14.553  1.00  0.00     0.051 A 
ATOM     15  C   UNL     1      -5.819  -3.128  13.642  1.00  0.00     0.157 A 
ATOM     16  C   UNL     1      -4.432  -4.331  15.229  1.00  0.00     0.062 A 
ATOM     17  C   UNL     1      -4.594  -3.715  13.979  1.00  0.00     0.158 A 
BRANCH  15  18
ATOM     18  O   UNL     1      -5.974  -2.514  12.401  1.00  0.00    -0.504 OA
ATOM     19  H   UNL     1      -5.277  -2.612  11.671  1.00  0.00     0.293 HD
ENDBRANCH  15  18
BRANCH  17  20
ATOM     20  O   UNL     1      -3.541  -3.689  13.065  1.00  0.00    -0.504 OA
ATOM     21  H   UNL     1      -2.575  -3.648  13.369  1.00  0.00     0.293 HD
ENDBRANCH  17  20
ENDBRANCH   1  12
BRANCH   2  22
ATOM     22  O   UNL     1      -7.622  -5.877  17.389  1.00  0.00    -0.502 OA
ATOM     23  H   UNL     1      -7.780  -5.496  16.464  1.00  0.00     0.293 HD
ENDBRANCH   2  22
BRANCH   6  24
ATOM     24  O   UNL     1      -5.618  -7.267  22.125  1.00  0.00    -0.507 OA
ATOM     25  H   UNL     1      -6.595  -7.380  21.900  1.00  0.00     0.293 HD
ENDBRANCH   6  24
BRANCH   8  26
ATOM     26  O   UNL     1      -1.075  -5.865  21.585  1.00  0.00    -0.508 OA
ATOM     27  H   UNL     1      -0.255  -5.834  20.989  1.00  0.00     0.293 HD
ENDBRANCH   8  26
TORSDOF 6
ENDMDL
MODEL 5
REMARK VINA RESULT:    -6.433     14.213     17.818
REMARK INTER + INTRA:          -7.736
REMARK INTER:                  -7.835
REMARK INTRA:                   0.098
REMARK UNBOUND:                 0.013
REMARK SMILES O=c1c(O)c(-c2ccc(O)c(O)c2)oc2cc(O)cc(O)c12
REMARK SMILES IDX 5 1 3 2 2 3 1 4 22 5 20 6 19 7 17 8 16 9 15 10 14 11 6 12
REMARK SMILES IDX 7 13 8 14 9 15 13 16 11 17 10 18 12 20 4 22 21 24 18 26
REMARK H PARENT 10 19 12 21 4 23 21 25 18 27
REMARK Flexibility Score: inf
ROOT
ATOM      1  C   UNL     1      -3.147   2.287   3.035  1.00  0.00     0.180 A 
ATOM      2  C   UNL     1      -4.333   2.946   3.397  1.00  0.00     0.208 A 
ATOM      3  C   UNL     1      -4.379   4.348   3.338  1.00  0.00     0.238 A 
ATOM      4  O   UNL     1      -5.426   4.936   3.716  1.00  0.00    -0.285 OA
ATOM      5  C   UNL     1      -3.243   5.072   2.902  1.00  0.00     0.111 A 
ATOM      6  C   UNL     1      -3.191   6.492   2.764  1.00  0.00     0.134 A 
ATOM      7  C   UNL     1      -1.974   7.111   2.448  1.00  0.00     0.093 A 
ATOM      8  C   UNL     1      -0.827   6.359   2.202  1.00  0.00     0.123 A 
ATOM      9  C   UNL     1      -0.881   4.966   2.276  1.00  0.00     0.094 A 
ATOM     10  C   UNL     1      -2.071   4.322   2.623  1.00  0.00     0.146 A 
ATOM     11  O   UNL     1      -2.078   2.996   2.692  1.00  0.00    -0.452 OA
ENDROOT
BRANCH   1  12
ATOM     12  C   UNL     1      -3.030   0.810   3.048  1.00  0.00     0.025 A 
ATOM     13  C   UNL     1      -2.470   0.152   1.941  1.00  0.00     0.016 A 
ATOM     14  C   UNL     1      -2.369  -1.242   1.923  1.00  0.00     0.051 A 
ATOM     15  C   UNL     1      -2.843  -1.997   3.004  1.00  0.00     0.157 A 
ATOM     16  C   UNL     1      -3.523   0.046   4.121  1.00  0.00     0.062 A 
ATOM     17  C   UNL     1      -3.423  -1.353   4.102  1.00  0.00     0.158 A 
BRANCH  15  18
ATOM     18  O   UNL     1      -2.742  -3.387   2.991  1.00  0.00    -0.504 OA
ATOM     19  H   UNL     1      -3.555  -3.979   3.122  1.00  0.00     0.293 HD
ENDBRANCH  15  18
BRANCH  17  20
ATOM     20  O   UNL     1      -3.906  -2.108   5.171  1.00  0.00    -0.504 OA
ATOM     21  H   UNL     1      -4.076  -3.103   5.083  1.00  0.00     0.293 HD
ENDBRANCH  17  20
ENDBRANCH   1  12
BRANCH   2  22
ATOM     22  O   UNL     1      -5.436   2.213   3.847  1.00  0.00    -0.502 OA
ATOM     23  H   UNL     1      -5.662   2.121   4.830  1.00  0.00     0.293 HD
ENDBRANCH   2  22
BRANCH   6  24
ATOM     24  O   UNL     1      -4.301   7.331   2.899  1.00  0.00    -0.507 OA
ATOM     25  H   UNL     1      -4.313   8.311   2.660  1.00  0.00     0.293 HD
ENDBRANCH   6  24
BRANCH   8  26
ATOM     26  O   UNL     1       0.362   7.007   1.876  1.00  0.00    -0.508 OA
ATOM     27  H   UNL     1       0.926   6.715   1.085  1.00  0.00     0.293 HD
ENDBRANCH   8  26
TORSDOF 6
ENDMDL
MODEL 6
REMARK VINA RESULT:    -6.189      2.858      6.483
REMARK INTER + INTRA:          -7.442
REMARK INTER:                  -7.394
REMARK INTRA:                  -0.048
REMARK UNBOUND:                 0.013
REMARK SMILES O=c1c(O)c(-c2ccc(O)c(O)c2)oc2cc(O)cc(O)c12
REMARK SMILES IDX 5 1 3 2 2 3 1 4 22 5 20 6 19 7 17 8 16 9 15 10 14 11 6 12
REMARK SMILES IDX 7 13 8 14 9 15 13 16 11 17 10 18 12 20 4 22 21 24 18 26
REMARK H PARENT 10 19 12 21 4 23 21 25 18 27
REMARK Flexibility Score: inf
ROOT
ATOM      1  C   UNL     1      -6.867  -5.337  19.280  1.00  0.00     0.180 A 
ATOM      2  C   UNL     1      -7.060  -4.534  18.143  1.00  0.00     0.208 A 
ATOM      3  C   UNL     1      -5.940  -3.988  17.497  1.00  0.00     0.238 A 
ATOM      4  O   UNL     1      -6.121  -3.225  16.513  1.00  0.00    -0.285 OA
ATOM      5  C   UNL     1      -4.640  -4.265  17.986  1.00  0.00     0.111 A 
ATOM      6  C   UNL     1      -3.432  -3.797  17.386  1.00  0.00     0.134 A 
ATOM      7  C   UNL     1      -2.209  -4.025  18.029  1.00  0.00     0.093 A 
ATOM      8  C   UNL     1      -2.143  -4.756  19.213  1.00  0.00     0.123 A 
ATOM      9  C   UNL     1      -3.312  -5.269  19.778  1.00  0.00     0.094 A 
ATOM     10  C   UNL     1      -4.551  -5.029  19.178  1.00  0.00     0.146 A 
ATOM     11  O   UNL     1      -5.641  -5.525  19.753  1.00  0.00    -0.452 OA
ENDROOT
BRANCH   1  12
ATOM     12  C   UNL     1      -7.997  -5.968  20.000  1.00  0.00     0.025 A 
ATOM     13  C   UNL     1      -8.088  -5.836  21.395  1.00  0.00     0.016 A 
ATOM     14  C   UNL     1      -9.133  -6.440  22.098  1.00  0.00     0.051 A 
ATOM     15  C   UNL     1     -10.095  -7.198  21.417  1.00  0.00     0.157 A 
ATOM     16  C   UNL     1      -8.953  -6.747  19.324  1.00  0.00     0.062 A 
ATOM     17  C   UNL     1     -10.002  -7.355  20.029  1.00  0.00     0.158 A 
BRANCH  15  18
ATOM     18  O   UNL     1     -11.142  -7.800  22.113  1.00  0.00    -0.504 OA
ATOM     19  H   UNL     1     -11.199  -7.758  23.124  1.00  0.00     0.293 HD
ENDBRANCH  15  18
BRANCH  17  20
ATOM     20  O   UNL     1     -10.953  -8.122  19.355  1.00  0.00    -0.504 OA
ATOM     21  H   UNL     1     -10.823  -9.115  19.204  1.00  0.00     0.293 HD
ENDBRANCH  17  20
ENDBRANCH   1  12
BRANCH   2  22
ATOM     22  O   UNL     1      -8.353  -4.255  17.691  1.00  0.00    -0.502 OA
ATOM     23  H   UNL     1      -9.178  -4.460  18.243  1.00  0.00     0.293 HD
ENDBRANCH   2  22
BRANCH   6  24
ATOM     24  O   UNL     1      -3.377  -3.135  16.156  1.00  0.00    -0.507 OA
ATOM     25  H   UNL     1      -4.126  -2.583  15.766  1.00  0.00     0.293 HD
ENDBRANCH   6  24
BRANCH   8  26
ATOM     26  O   UNL     1      -0.908  -4.976  19.818  1.00  0.00    -0.508 OA
ATOM     27  H   UNL     1      -0.048  -4.624  19.412  1.00  0.00     0.293 HD
ENDBRANCH   8  26
TORSDOF 6
ENDMDL
MODEL 7
REMARK VINA RESULT:    -6.061      2.909      5.420
REMARK INTER + INTRA:          -7.288
REMARK INTER:                  -7.156
REMARK INTRA:                  -0.133
REMARK UNBOUND:                 0.013
REMARK SMILES O=c1c(O)c(-c2ccc(O)c(O)c2)oc2cc(O)cc(O)c12
REMARK SMILES IDX 5 1 3 2 2 3 1 4 22 5 20 6 19 7 17 8 16 9 15 10 14 11 6 12
REMARK SMILES IDX 7 13 8 14 9 15 13 16 11 17 10 18 12 20 4 22 21 24 18 26
REMARK H PARENT 10 19 12 21 4 23 21 25 18 27
REMARK Flexibility Score: inf
ROOT
ATOM      1  C   UNL     1      -5.613  -4.213  18.142  1.00  0.00     0.180 A 
ATOM      2  C   UNL     1      -6.218  -3.956  16.900  1.00  0.00     0.208 A 
ATOM      3  C   UNL     1      -7.484  -4.500  16.633  1.00  0.00     0.238 A 
ATOM      4  O   UNL     1      -7.996  -4.312  15.499  1.00  0.00    -0.285 OA
ATOM      5  C   UNL     1      -8.136  -5.282  17.616  1.00  0.00     0.111 A 
ATOM      6  C   UNL     1      -9.438  -5.850  17.468  1.00  0.00     0.134 A 
ATOM      7  C   UNL     1      -9.931  -6.713  18.455  1.00  0.00     0.093 A 
ATOM      8  C   UNL     1      -9.198  -6.978  19.611  1.00  0.00     0.123 A 
ATOM      9  C   UNL     1      -7.950  -6.381  19.793  1.00  0.00     0.094 A 
ATOM     10  C   UNL     1      -7.417  -5.543  18.811  1.00  0.00     0.146 A 
ATOM     11  O   UNL     1      -6.221  -5.004  19.018  1.00  0.00    -0.452 OA
ENDROOT
BRANCH   1  12
ATOM     12  C   UNL     1      -4.291  -3.653  18.506  1.00  0.00     0.025 A 
ATOM     13  C   UNL     1      -4.199  -2.728  19.558  1.00  0.00     0.016 A 
ATOM     14  C   UNL     1      -2.965  -2.170  19.905  1.00  0.00     0.051 A 
ATOM     15  C   UNL     1      -1.810  -2.519  19.194  1.00  0.00     0.157 A 
ATOM     16  C   UNL     1      -3.131  -3.984  17.782  1.00  0.00     0.062 A 
ATOM     17  C   UNL     1      -1.893  -3.423  18.129  1.00  0.00     0.158 A 
BRANCH  15  18
ATOM     18  O   UNL     1      -0.576  -1.968  19.538  1.00  0.00    -0.504 OA
ATOM     19  H   UNL     1      -0.412  -0.968  19.496  1.00  0.00     0.293 HD
ENDBRANCH  15  18
BRANCH  17  20
ATOM     20  O   UNL     1      -0.743  -3.758  17.414  1.00  0.00    -0.504 OA
ATOM     21  H   UNL     1       0.106  -4.052  17.883  1.00  0.00     0.293 HD
ENDBRANCH  17  20
ENDBRANCH   1  12
BRANCH   2  22
ATOM     22  O   UNL     1      -5.546  -3.200  15.934  1.00  0.00    -0.502 OA
ATOM     23  H   UNL     1      -4.792  -3.580  15.374  1.00  0.00     0.293 HD
ENDBRANCH   2  22
BRANCH   6  24
ATOM     24  O   UNL     1     -10.291  -5.578  16.394  1.00  0.00    -0.507 OA
ATOM     25  H   UNL     1     -10.045  -5.692  15.422  1.00  0.00     0.293 HD
ENDBRANCH   6  24
BRANCH   8  26
ATOM     26  O   UNL     1      -9.726  -7.830  20.579  1.00  0.00    -0.508 OA
ATOM     27  H   UNL     1     -10.716  -8.047  20.612  1.00  0.00     0.293 HD
ENDBRANCH   8  26
TORSDOF 6
ENDMDL
MODEL 8
REMARK VINA RESULT:    -6.027      3.471      5.808
REMARK INTER + INTRA:          -7.247
REMARK INTER:                  -6.914
REMARK INTRA:                  -0.333
REMARK UNBOUND:                 0.013
REMARK SMILES O=c1c(O)c(-c2ccc(O)c(O)c2)oc2cc(O)cc(O)c12
REMARK SMILES IDX 5 1 3 2 2 3 1 4 22 5 20 6 19 7 17 8 16 9 15 10 14 11 6 12
REMARK SMILES IDX 7 13 8 14 9 15 13 16 11 17 10 18 12 20 4 22 21 24 18 26
REMARK H PARENT 10 19 12 21 4 23 21 25 18 27
REMARK Flexibility Score: inf
ROOT
ATOM      1  C   UNL     1      -5.861  -5.112  19.626  1.00  0.00     0.180 A 
ATOM      2  C   UNL     1      -6.278  -5.744  20.810  1.00  0.00     0.208 A 
ATOM      3  C   UNL     1      -7.520  -6.398  20.833  1.00  0.00     0.238 A 
ATOM      4  O   UNL     1      -7.912  -6.914  21.912  1.00  0.00    -0.285 OA
ATOM      5  C   UNL     1      -8.323  -6.425  19.667  1.00  0.00     0.111 A 
ATOM      6  C   UNL     1      -9.581  -7.093  19.565  1.00  0.00     0.134 A 
ATOM      7  C   UNL     1     -10.349  -6.945  18.403  1.00  0.00     0.093 A 
ATOM      8  C   UNL     1      -9.877  -6.209  17.317  1.00  0.00     0.123 A 
ATOM      9  C   UNL     1      -8.623  -5.601  17.384  1.00  0.00     0.094 A 
ATOM     10  C   UNL     1      -7.849  -5.701  18.543  1.00  0.00     0.146 A 
ATOM     11  O   UNL     1      -6.665  -5.099  18.569  1.00  0.00    -0.452 OA
ENDROOT
BRANCH   1  12
ATOM     12  C   UNL     1      -4.554  -4.424  19.518  1.00  0.00     0.025 A 
ATOM     13  C   UNL     1      -4.477  -3.044  19.766  1.00  0.00     0.016 A 
ATOM     14  C   UNL     1      -3.259  -2.371  19.649  1.00  0.00     0.051 A 
ATOM     15  C   UNL     1      -2.103  -3.065  19.267  1.00  0.00     0.157 A 
ATOM     16  C   UNL     1      -3.396  -5.112  19.115  1.00  0.00     0.062 A 
ATOM     17  C   UNL     1      -2.173  -4.436  18.996  1.00  0.00     0.158 A 
BRANCH  15  18
ATOM     18  O   UNL     1      -0.885  -2.398  19.152  1.00  0.00    -0.504 OA
ATOM     19  H   UNL     1      -0.036  -2.886  18.889  1.00  0.00     0.293 HD
ENDBRANCH  15  18
BRANCH  17  20
ATOM     20  O   UNL     1      -1.024  -5.122  18.603  1.00  0.00    -0.504 OA
ATOM     21  H   UNL     1      -0.110  -4.686  18.630  1.00  0.00     0.293 HD
ENDBRANCH  17  20
ENDBRANCH   1  12
BRANCH   2  22
ATOM     22  O   UNL     1      -5.480  -5.685  21.957  1.00  0.00    -0.502 OA
ATOM     23  H   UNL     1      -5.567  -4.944  22.642  1.00  0.00     0.293 HD
ENDBRANCH   2  22
BRANCH   6  24
ATOM     24  O   UNL     1     -10.104  -7.929  20.557  1.00  0.00    -0.507 OA
ATOM     25  H   UNL     1     -10.193  -8.930  20.476  1.00  0.00     0.293 HD
ENDBRANCH   6  24
BRANCH   8  26
ATOM     26  O   UNL     1     -10.661  -6.095  16.172  1.00  0.00    -0.508 OA
ATOM     27  H   UNL     1     -10.452  -6.621  15.331  1.00  0.00     0.293 HD
ENDBRANCH   8  26
TORSDOF 6
ENDMDL
