MODEL 1
REMARK VINA RESULT:    -3.674      0.000      0.000
REMARK INTER + INTRA:         -11.854
REMARK INTER:                  -8.399
REMARK INTRA:                  -3.455
REMARK UNBOUND:                -3.455
REMARK SMILES CCCCCCCCCCCCCCCCCCCCCCCC(=O)[O-]
REMARK SMILES IDX 13 1 14 2 15 3 16 4 17 5 18 6 19 7 20 8 21 9 22 10 23 11
REMARK SMILES IDX 24 12 25 13 26 14 12 15 11 16 10 17 9 18 8 19 7 20 6 21 5 22
REMARK SMILES IDX 4 23 3 24 2 25 1 26
REMARK H PARENT
REMARK Flexibility Score: inf
ROOT
ATOM      1  C   UNL     1     153.754 133.934 170.949  1.00  0.00     0.000 C 
ENDROOT
BRANCH   1   2
ATOM      2  C   UNL     1     152.952 132.685 170.541  1.00  0.00     0.000 C 
BRANCH   2   3
ATOM      3  C   UNL     1     152.481 132.736 169.078  1.00  0.00     0.000 C 
BRANCH   3   4
ATOM      4  C   UNL     1     151.046 132.210 168.905  1.00  0.00     0.000 C 
BRANCH   4   5
ATOM      5  C   UNL     1     150.531 132.355 167.464  1.00  0.00     0.000 C 
BRANCH   5   6
ATOM      6  C   UNL     1     150.513 133.815 166.983  1.00  0.00     0.000 C 
BRANCH   6   7
ATOM      7  C   UNL     1     150.804 133.902 165.479  1.00  0.00     0.000 C 
BRANCH   7   8
ATOM      8  C   UNL     1     151.064 132.507 164.889  1.00  0.00     0.000 C 
BRANCH   8   9
ATOM      9  C   UNL     1     150.855 132.451 163.365  1.00  0.00     0.000 C 
BRANCH   9  10
ATOM     10  C   UNL     1     149.549 133.092 162.864  1.00  0.00     0.006 C 
BRANCH  10  11
ATOM     11  C   UNL     1     148.293 132.363 163.360  1.00  0.00     0.053 C 
BRANCH  11  12
ATOM     12  C   UNL     1     147.063 133.146 163.023  1.00  0.00     0.041 C 
ATOM     13  O   UNL     1     146.515 133.872 163.894  1.00  0.00    -0.550 OA
ATOM     14  O   UNL     1     146.498 133.044 161.757  1.00  0.00    -0.550 OA
ENDBRANCH  11  12
ENDBRANCH  10  11
ENDBRANCH   9  10
ENDBRANCH   8   9
ENDBRANCH   7   8
ENDBRANCH   6   7
ENDBRANCH   5   6
ENDBRANCH   4   5
ENDBRANCH   3   4
ENDBRANCH   2   3
ENDBRANCH   1   2
BRANCH   1  15
ATOM     15  C   UNL     1     155.132 133.994 170.255  1.00  0.00     0.000 C 
BRANCH  15  16
ATOM     16  C   UNL     1     156.225 133.199 170.992  1.00  0.00     0.000 C 
BRANCH  16  17
ATOM     17  C   UNL     1     157.426 132.867 170.094  1.00  0.00     0.000 C 
BRANCH  17  18
ATOM     18  C   UNL     1     157.425 133.662 168.777  1.00  0.00    -0.000 C 
BRANCH  18  19
ATOM     19  C   UNL     1     158.092 132.944 167.585  1.00  0.00    -0.000 C 
BRANCH  19  20
ATOM     20  C   UNL     1     157.157 132.025 166.773  1.00  0.00    -0.000 C 
BRANCH  20  21
ATOM     21  C   UNL     1     155.663 132.119 167.145  1.00  0.00    -0.000 C 
BRANCH  21  22
ATOM     22  C   UNL     1     154.694 132.195 165.951  1.00  0.00    -0.000 C 
BRANCH  22  23
ATOM     23  C   UNL     1     154.514 133.629 165.422  1.00  0.00    -0.000 C 
BRANCH  23  24
ATOM     24  C   UNL     1     154.269 134.655 166.542  1.00  0.00    -0.000 C 
BRANCH  24  25
ATOM     25  C   UNL     1     154.796 136.073 166.258  1.00  0.00    -0.003 C 
ATOM     26  C   UNL     1     156.099 136.389 166.990  1.00  0.00     0.004 C 
ENDBRANCH  24  25
ENDBRANCH  23  24
ENDBRANCH  22  23
ENDBRANCH  21  22
ENDBRANCH  20  21
ENDBRANCH  19  20
ENDBRANCH  18  19
ENDBRANCH  17  18
ENDBRANCH  16  17
ENDBRANCH  15  16
ENDBRANCH   1  15
TORSDOF 22
ENDMDL
MODEL 2
REMARK VINA RESULT:    -3.642      2.329      5.880
REMARK INTER + INTRA:         -11.780
REMARK INTER:                  -7.718
REMARK INTRA:                  -4.062
REMARK UNBOUND:                -3.455
REMARK SMILES CCCCCCCCCCCCCCCCCCCCCCCC(=O)[O-]
REMARK SMILES IDX 13 1 14 2 15 3 16 4 17 5 18 6 19 7 20 8 21 9 22 10 23 11
REMARK SMILES IDX 24 12 25 13 26 14 12 15 11 16 10 17 9 18 8 19 7 20 6 21 5 22
REMARK SMILES IDX 4 23 3 24 2 25 1 26
REMARK H PARENT
REMARK Flexibility Score: inf
ROOT
ATOM      1  C   UNL     1     155.732 132.261 166.953  1.00  0.00     0.000 C 
ENDROOT
BRANCH   1   2
ATOM      2  C   UNL     1     157.249 132.102 166.745  1.00  0.00     0.000 C 
BRANCH   2   3
ATOM      3  C   UNL     1     158.072 133.008 167.675  1.00  0.00     0.000 C 
BRANCH   3   4
ATOM      4  C   UNL     1     157.386 133.235 169.032  1.00  0.00     0.000 C 
BRANCH   4   5
ATOM      5  C   UNL     1     156.875 134.675 169.205  1.00  0.00     0.000 C 
BRANCH   5   6
ATOM      6  C   UNL     1     155.467 134.737 169.819  1.00  0.00     0.000 C 
BRANCH   6   7
ATOM      7  C   UNL     1     155.087 133.397 170.461  1.00  0.00     0.000 C 
BRANCH   7   8
ATOM      8  C   UNL     1     153.721 132.912 169.951  1.00  0.00     0.000 C 
BRANCH   8   9
ATOM      9  C   UNL     1     152.901 134.026 169.278  1.00  0.00     0.000 C 
BRANCH   9  10
ATOM     10  C   UNL     1     151.580 133.565 168.637  1.00  0.00     0.006 C 
BRANCH  10  11
ATOM     11  C   UNL     1     151.780 132.510 167.542  1.00  0.00     0.053 C 
BRANCH  11  12
ATOM     12  C   UNL     1     150.764 132.680 166.456  1.00  0.00     0.041 C 
ATOM     13  O   UNL     1     149.610 133.105 166.729  1.00  0.00    -0.550 OA
ATOM     14  O   UNL     1     151.078 132.331 165.147  1.00  0.00    -0.550 OA
ENDBRANCH  11  12
ENDBRANCH  10  11
ENDBRANCH   9  10
ENDBRANCH   8   9
ENDBRANCH   7   8
ENDBRANCH   6   7
ENDBRANCH   5   6
ENDBRANCH   4   5
ENDBRANCH   3   4
ENDBRANCH   2   3
ENDBRANCH   1   2
BRANCH   1  15
ATOM     15  C   UNL     1     154.953 132.220 165.621  1.00  0.00     0.000 C 
BRANCH  15  16
ATOM     16  C   UNL     1     154.350 133.579 165.221  1.00  0.00     0.000 C 
BRANCH  16  17
ATOM     17  C   UNL     1     154.729 134.707 166.192  1.00  0.00     0.000 C 
BRANCH  17  18
ATOM     18  C   UNL     1     153.734 135.881 166.160  1.00  0.00    -0.000 C 
BRANCH  18  19
ATOM     19  C   UNL     1     154.277 137.207 166.730  1.00  0.00    -0.000 C 
BRANCH  19  20
ATOM     20  C   UNL     1     154.387 138.358 165.709  1.00  0.00    -0.000 C 
BRANCH  20  21
ATOM     21  C   UNL     1     155.023 139.654 166.253  1.00  0.00    -0.000 C 
BRANCH  21  22
ATOM     22  C   UNL     1     156.523 139.825 165.951  1.00  0.00    -0.000 C 
BRANCH  22  23
ATOM     23  C   UNL     1     157.394 139.784 167.219  1.00  0.00    -0.000 C 
BRANCH  23  24
ATOM     24  C   UNL     1     157.505 138.373 167.824  1.00  0.00    -0.000 C 
BRANCH  24  25
ATOM     25  C   UNL     1     157.353 138.304 169.354  1.00  0.00    -0.003 C 
ATOM     26  C   UNL     1     155.925 138.571 169.829  1.00  0.00     0.004 C 
ENDBRANCH  24  25
ENDBRANCH  23  24
ENDBRANCH  22  23
ENDBRANCH  21  22
ENDBRANCH  20  21
ENDBRANCH  19  20
ENDBRANCH  18  19
ENDBRANCH  17  18
ENDBRANCH  16  17
ENDBRANCH  15  16
ENDBRANCH   1  15
TORSDOF 22
ENDMDL
MODEL 3
REMARK VINA RESULT:    -3.500      2.558      4.530
REMARK INTER + INTRA:         -11.455
REMARK INTER:                  -8.403
REMARK INTRA:                  -3.052
REMARK UNBOUND:                -3.455
REMARK SMILES CCCCCCCCCCCCCCCCCCCCCCCC(=O)[O-]
REMARK SMILES IDX 13 1 14 2 15 3 16 4 17 5 18 6 19 7 20 8 21 9 22 10 23 11
REMARK SMILES IDX 24 12 25 13 26 14 12 15 11 16 10 17 9 18 8 19 7 20 6 21 5 22
REMARK SMILES IDX 4 23 3 24 2 25 1 26
REMARK H PARENT
REMARK Flexibility Score: inf
ROOT
ATOM      1  C   UNL     1     153.726 132.234 165.525  1.00  0.00     0.000 C 
ENDROOT
BRANCH   1   2
ATOM      2  C   UNL     1     153.309 132.634 164.098  1.00  0.00     0.000 C 
BRANCH   2   3
ATOM      3  C   UNL     1     151.949 132.046 163.692  1.00  0.00     0.000 C 
BRANCH   3   4
ATOM      4  C   UNL     1     150.888 132.201 164.795  1.00  0.00     0.000 C 
BRANCH   4   5
ATOM      5  C   UNL     1     149.509 132.592 164.242  1.00  0.00     0.000 C 
BRANCH   5   6
ATOM      6  C   UNL     1     149.552 132.984 162.756  1.00  0.00     0.000 C 
BRANCH   6   7
ATOM      7  C   UNL     1     148.179 133.470 162.275  1.00  0.00     0.000 C 
BRANCH   7   8
ATOM      8  C   UNL     1     147.411 134.158 163.414  1.00  0.00     0.000 C 
BRANCH   8   9
ATOM      9  C   UNL     1     146.924 135.570 163.043  1.00  0.00     0.000 C 
BRANCH   9  10
ATOM     10  C   UNL     1     145.398 135.768 163.100  1.00  0.00     0.006 C 
BRANCH  10  11
ATOM     11  C   UNL     1     144.804 136.239 161.766  1.00  0.00     0.053 C 
BRANCH  11  12
ATOM     12  C   UNL     1     143.912 137.422 161.977  1.00  0.00     0.041 C 
ATOM     13  O   UNL     1     144.108 138.487 161.332  1.00  0.00    -0.550 OA
ATOM     14  O   UNL     1     142.888 137.363 162.915  1.00  0.00    -0.550 OA
ENDBRANCH  11  12
ENDBRANCH  10  11
ENDBRANCH   9  10
ENDBRANCH   8   9
ENDBRANCH   7   8
ENDBRANCH   6   7
ENDBRANCH   5   6
ENDBRANCH   4   5
ENDBRANCH   3   4
ENDBRANCH   2   3
ENDBRANCH   1   2
BRANCH   1  15
ATOM     15  C   UNL     1     155.260 132.210 165.699  1.00  0.00     0.000 C 
BRANCH  15  16
ATOM     16  C   UNL     1     155.712 132.284 167.169  1.00  0.00     0.000 C 
BRANCH  16  17
ATOM     17  C   UNL     1     157.240 132.300 167.321  1.00  0.00     0.000 C 
BRANCH  17  18
ATOM     18  C   UNL     1     157.754 133.554 168.050  1.00  0.00    -0.000 C 
BRANCH  18  19
ATOM     19  C   UNL     1     156.662 134.567 168.447  1.00  0.00    -0.000 C 
BRANCH  19  20
ATOM     20  C   UNL     1     156.646 135.867 167.618  1.00  0.00    -0.000 C 
BRANCH  20  21
ATOM     21  C   UNL     1     155.536 135.947 166.549  1.00  0.00    -0.000 C 
BRANCH  21  22
ATOM     22  C   UNL     1     154.108 136.121 167.100  1.00  0.00    -0.000 C 
BRANCH  22  23
ATOM     23  C   UNL     1     153.025 135.843 166.044  1.00  0.00    -0.000 C 
BRANCH  23  24
ATOM     24  C   UNL     1     151.692 135.379 166.660  1.00  0.00    -0.000 C 
BRANCH  24  25
ATOM     25  C   UNL     1     150.439 135.709 165.829  1.00  0.00    -0.003 C 
ATOM     26  C   UNL     1     150.762 136.154 164.403  1.00  0.00     0.004 C 
ENDBRANCH  24  25
ENDBRANCH  23  24
ENDBRANCH  22  23
ENDBRANCH  21  22
ENDBRANCH  20  21
ENDBRANCH  19  20
ENDBRANCH  18  19
ENDBRANCH  17  18
ENDBRANCH  16  17
ENDBRANCH  15  16
ENDBRANCH   1  15
TORSDOF 22
ENDMDL
MODEL 4
REMARK VINA RESULT:    -3.449      4.375      8.051
REMARK INTER + INTRA:         -11.340
REMARK INTER:                  -7.528
REMARK INTRA:                  -3.812
REMARK UNBOUND:                -3.455
REMARK SMILES CCCCCCCCCCCCCCCCCCCCCCCC(=O)[O-]
REMARK SMILES IDX 13 1 14 2 15 3 16 4 17 5 18 6 19 7 20 8 21 9 22 10 23 11
REMARK SMILES IDX 24 12 25 13 26 14 12 15 11 16 10 17 9 18 8 19 7 20 6 21 5 22
REMARK SMILES IDX 4 23 3 24 2 25 1 26
REMARK H PARENT
REMARK Flexibility Score: inf
ROOT
ATOM      1  C   UNL     1     153.945 133.119 164.958  1.00  0.00     0.000 C 
ENDROOT
BRANCH   1   2
ATOM      2  C   UNL     1     155.047 132.270 165.617  1.00  0.00     0.000 C 
BRANCH   2   3
ATOM      3  C   UNL     1     155.076 132.420 167.146  1.00  0.00     0.000 C 
BRANCH   3   4
ATOM      4  C   UNL     1     156.508 132.473 167.704  1.00  0.00     0.000 C 
BRANCH   4   5
ATOM      5  C   UNL     1     156.758 133.710 168.582  1.00  0.00     0.000 C 
BRANCH   5   6
ATOM      6  C   UNL     1     156.964 134.991 167.759  1.00  0.00     0.000 C 
BRANCH   6   7
ATOM      7  C   UNL     1     156.142 136.152 168.334  1.00  0.00     0.000 C 
BRANCH   7   8
ATOM      8  C   UNL     1     155.493 136.975 167.209  1.00  0.00     0.000 C 
BRANCH   8   9
ATOM      9  C   UNL     1     155.720 138.489 167.365  1.00  0.00     0.000 C 
BRANCH   9  10
ATOM     10  C   UNL     1     157.182 138.906 167.608  1.00  0.00     0.006 C 
BRANCH  10  11
ATOM     11  C   UNL     1     157.363 140.426 167.706  1.00  0.00     0.053 C 
BRANCH  11  12
ATOM     12  C   UNL     1     157.707 141.002 166.367  1.00  0.00     0.041 C 
ATOM     13  O   UNL     1     158.125 140.253 165.444  1.00  0.00    -0.550 OA
ATOM     14  O   UNL     1     157.603 142.371 166.151  1.00  0.00    -0.550 OA
ENDBRANCH  11  12
ENDBRANCH  10  11
ENDBRANCH   9  10
ENDBRANCH   8   9
ENDBRANCH   7   8
ENDBRANCH   6   7
ENDBRANCH   5   6
ENDBRANCH   4   5
ENDBRANCH   3   4
ENDBRANCH   2   3
ENDBRANCH   1   2
BRANCH   1  15
ATOM     15  C   UNL     1     153.043 132.282 164.025  1.00  0.00     0.000 C 
BRANCH  15  16
ATOM     16  C   UNL     1     151.581 132.198 164.498  1.00  0.00     0.000 C 
BRANCH  16  17
ATOM     17  C   UNL     1     151.450 132.185 166.028  1.00  0.00     0.000 C 
BRANCH  17  18
ATOM     18  C   UNL     1     150.225 132.969 166.530  1.00  0.00    -0.000 C 
BRANCH  18  19
ATOM     19  C   UNL     1     150.369 133.560 167.947  1.00  0.00    -0.000 C 
BRANCH  19  20
ATOM     20  C   UNL     1     151.816 133.645 168.474  1.00  0.00    -0.000 C 
BRANCH  20  21
ATOM     21  C   UNL     1     152.567 134.943 168.113  1.00  0.00    -0.000 C 
BRANCH  21  22
ATOM     22  C   UNL     1     151.709 136.222 168.129  1.00  0.00    -0.000 C 
BRANCH  22  23
ATOM     23  C   UNL     1     151.757 136.988 166.796  1.00  0.00    -0.000 C 
BRANCH  23  24
ATOM     24  C   UNL     1     152.083 136.080 165.595  1.00  0.00    -0.000 C 
BRANCH  24  25
ATOM     25  C   UNL     1     150.968 135.966 164.540  1.00  0.00    -0.003 C 
ATOM     26  C   UNL     1     149.675 136.669 164.952  1.00  0.00     0.004 C 
ENDBRANCH  24  25
ENDBRANCH  23  24
ENDBRANCH  22  23
ENDBRANCH  21  22
ENDBRANCH  20  21
ENDBRANCH  19  20
ENDBRANCH  18  19
ENDBRANCH  17  18
ENDBRANCH  16  17
ENDBRANCH  15  16
ENDBRANCH   1  15
TORSDOF 22
ENDMDL
MODEL 5
REMARK VINA RESULT:    -3.448      4.248      7.066
REMARK INTER + INTRA:         -11.338
REMARK INTER:                  -7.027
REMARK INTRA:                  -4.311
REMARK UNBOUND:                -3.455
REMARK SMILES CCCCCCCCCCCCCCCCCCCCCCCC(=O)[O-]
REMARK SMILES IDX 13 1 14 2 15 3 16 4 17 5 18 6 19 7 20 8 21 9 22 10 23 11
REMARK SMILES IDX 24 12 25 13 26 14 12 15 11 16 10 17 9 18 8 19 7 20 6 21 5 22
REMARK SMILES IDX 4 23 3 24 2 25 1 26
REMARK H PARENT
REMARK Flexibility Score: inf
ROOT
ATOM      1  C   UNL     1     151.493 135.046 167.597  1.00  0.00     0.000 C 
ENDROOT
BRANCH   1   2
ATOM      2  C   UNL     1     151.176 134.498 166.194  1.00  0.00     0.000 C 
BRANCH   2   3
ATOM      3  C   UNL     1     151.123 132.962 166.156  1.00  0.00     0.000 C 
BRANCH   3   4
ATOM      4  C   UNL     1     151.398 132.399 164.752  1.00  0.00     0.000 C 
BRANCH   4   5
ATOM      5  C   UNL     1     152.891 132.134 164.500  1.00  0.00     0.000 C 
BRANCH   5   6
ATOM      6  C   UNL     1     153.676 131.875 165.796  1.00  0.00     0.000 C 
BRANCH   6   7
ATOM      7  C   UNL     1     155.154 132.252 165.628  1.00  0.00     0.000 C 
BRANCH   7   8
ATOM      8  C   UNL     1     155.788 132.602 166.983  1.00  0.00     0.000 C 
BRANCH   8   9
ATOM      9  C   UNL     1     154.755 132.722 168.117  1.00  0.00     0.000 C 
BRANCH   9  10
ATOM     10  C   UNL     1     155.344 132.708 169.539  1.00  0.00     0.006 C 
BRANCH  10  11
ATOM     11  C   UNL     1     156.748 133.323 169.613  1.00  0.00     0.053 C 
BRANCH  11  12
ATOM     12  C   UNL     1     156.983 133.934 170.959  1.00  0.00     0.041 C 
ATOM     13  O   UNL     1     157.002 135.186 171.092  1.00  0.00    -0.550 OA
ATOM     14  O   UNL     1     157.221 133.120 172.060  1.00  0.00    -0.550 OA
ENDBRANCH  11  12
ENDBRANCH  10  11
ENDBRANCH   9  10
ENDBRANCH   8   9
ENDBRANCH   7   8
ENDBRANCH   6   7
ENDBRANCH   5   6
ENDBRANCH   4   5
ENDBRANCH   3   4
ENDBRANCH   2   3
ENDBRANCH   1   2
BRANCH   1  15
ATOM     15  C   UNL     1     152.841 135.796 167.638  1.00  0.00     0.000 C 
BRANCH  15  16
ATOM     16  C   UNL     1     153.528 135.899 166.264  1.00  0.00     0.000 C 
BRANCH  16  17
ATOM     17  C   UNL     1     155.045 136.112 166.371  1.00  0.00     0.000 C 
BRANCH  17  18
ATOM     18  C   UNL     1     155.526 136.262 167.825  1.00  0.00    -0.000 C 
BRANCH  18  19
ATOM     19  C   UNL     1     156.937 136.865 167.983  1.00  0.00    -0.000 C 
BRANCH  19  20
ATOM     20  C   UNL     1     156.968 138.344 168.418  1.00  0.00    -0.000 C 
BRANCH  20  21
ATOM     21  C   UNL     1     157.430 139.335 167.329  1.00  0.00    -0.000 C 
BRANCH  21  22
ATOM     22  C   UNL     1     156.635 139.276 166.011  1.00  0.00    -0.000 C 
BRANCH  22  23
ATOM     23  C   UNL     1     155.554 140.366 165.918  1.00  0.00    -0.000 C 
BRANCH  23  24
ATOM     24  C   UNL     1     154.140 139.834 166.210  1.00  0.00    -0.000 C 
BRANCH  24  25
ATOM     25  C   UNL     1     153.513 140.330 167.526  1.00  0.00    -0.003 C 
ATOM     26  C   UNL     1     153.438 139.248 168.603  1.00  0.00     0.004 C 
ENDBRANCH  24  25
ENDBRANCH  23  24
ENDBRANCH  22  23
ENDBRANCH  21  22
ENDBRANCH  20  21
ENDBRANCH  19  20
ENDBRANCH  18  19
ENDBRANCH  17  18
ENDBRANCH  16  17
ENDBRANCH  15  16
ENDBRANCH   1  15
TORSDOF 22
ENDMDL
MODEL 6
REMARK VINA RESULT:    -3.445      2.821      7.607
REMARK INTER + INTRA:         -11.330
REMARK INTER:                  -7.603
REMARK INTRA:                  -3.726
REMARK UNBOUND:                -3.455
REMARK SMILES CCCCCCCCCCCCCCCCCCCCCCCC(=O)[O-]
REMARK SMILES IDX 13 1 14 2 15 3 16 4 17 5 18 6 19 7 20 8 21 9 22 10 23 11
REMARK SMILES IDX 24 12 25 13 26 14 12 15 11 16 10 17 9 18 8 19 7 20 6 21 5 22
REMARK SMILES IDX 4 23 3 24 2 25 1 26
REMARK H PARENT
REMARK Flexibility Score: inf
ROOT
ATOM      1  C   UNL     1     154.174 134.649 166.480  1.00  0.00     0.000 C 
ENDROOT
BRANCH   1   2
ATOM      2  C   UNL     1     154.391 133.751 165.248  1.00  0.00     0.000 C 
BRANCH   2   3
ATOM      3  C   UNL     1     154.614 132.277 165.623  1.00  0.00     0.000 C 
BRANCH   3   4
ATOM      4  C   UNL     1     155.570 132.111 166.816  1.00  0.00     0.000 C 
BRANCH   4   5
ATOM      5  C   UNL     1     157.048 132.096 166.394  1.00  0.00     0.000 C 
BRANCH   5   6
ATOM      6  C   UNL     1     157.980 132.679 167.468  1.00  0.00     0.000 C 
BRANCH   6   7
ATOM      7  C   UNL     1     157.195 133.529 168.475  1.00  0.00     0.000 C 
BRANCH   7   8
ATOM      8  C   UNL     1     157.386 133.002 169.905  1.00  0.00     0.000 C 
BRANCH   8   9
ATOM      9  C   UNL     1     156.105 133.088 170.753  1.00  0.00     0.000 C 
BRANCH   9  10
ATOM     10  C   UNL     1     154.947 133.868 170.105  1.00  0.00     0.006 C 
BRANCH  10  11
ATOM     11  C   UNL     1     153.739 132.982 169.773  1.00  0.00     0.053 C 
BRANCH  11  12
ATOM     12  C   UNL     1     152.599 133.279 170.697  1.00  0.00     0.041 C 
ATOM     13  O   UNL     1     152.653 134.270 171.472  1.00  0.00    -0.550 OA
ATOM     14  O   UNL     1     151.493 132.438 170.730  1.00  0.00    -0.550 OA
ENDBRANCH  11  12
ENDBRANCH  10  11
ENDBRANCH   9  10
ENDBRANCH   8   9
ENDBRANCH   7   8
ENDBRANCH   6   7
ENDBRANCH   5   6
ENDBRANCH   4   5
ENDBRANCH   3   4
ENDBRANCH   2   3
ENDBRANCH   1   2
BRANCH   1  15
ATOM     15  C   UNL     1     152.871 135.470 166.380  1.00  0.00     0.000 C 
BRANCH  15  16
ATOM     16  C   UNL     1     151.759 134.972 167.322  1.00  0.00     0.000 C 
BRANCH  16  17
ATOM     17  C   UNL     1     150.574 134.351 166.569  1.00  0.00     0.000 C 
BRANCH  17  18
ATOM     18  C   UNL     1     150.670 132.818 166.466  1.00  0.00    -0.000 C 
BRANCH  18  19
ATOM     19  C   UNL     1     150.994 132.282 165.057  1.00  0.00    -0.000 C 
BRANCH  19  20
ATOM     20  C   UNL     1     150.961 133.338 163.934  1.00  0.00    -0.000 C 
BRANCH  20  21
ATOM     21  C   UNL     1     149.992 133.027 162.773  1.00  0.00    -0.000 C 
BRANCH  21  22
ATOM     22  C   UNL     1     148.532 133.457 163.006  1.00  0.00    -0.000 C 
BRANCH  22  23
ATOM     23  C   UNL     1     147.620 132.282 163.395  1.00  0.00    -0.000 C 
BRANCH  23  24
ATOM     24  C   UNL     1     146.626 132.639 164.515  1.00  0.00    -0.000 C 
BRANCH  24  25
ATOM     25  C   UNL     1     147.116 133.711 165.506  1.00  0.00    -0.003 C 
ATOM     26  C   UNL     1     146.031 134.716 165.890  1.00  0.00     0.004 C 
ENDBRANCH  24  25
ENDBRANCH  23  24
ENDBRANCH  22  23
ENDBRANCH  21  22
ENDBRANCH  20  21
ENDBRANCH  19  20
ENDBRANCH  18  19
ENDBRANCH  17  18
ENDBRANCH  16  17
ENDBRANCH  15  16
ENDBRANCH   1  15
TORSDOF 22
ENDMDL
MODEL 7
REMARK VINA RESULT:    -3.422      3.479      9.121
REMARK INTER + INTRA:         -11.279
REMARK INTER:                  -8.947
REMARK INTRA:                  -2.332
REMARK UNBOUND:                -3.455
REMARK SMILES CCCCCCCCCCCCCCCCCCCCCCCC(=O)[O-]
REMARK SMILES IDX 13 1 14 2 15 3 16 4 17 5 18 6 19 7 20 8 21 9 22 10 23 11
REMARK SMILES IDX 24 12 25 13 26 14 12 15 11 16 10 17 9 18 8 19 7 20 6 21 5 22
REMARK SMILES IDX 4 23 3 24 2 25 1 26
REMARK H PARENT
REMARK Flexibility Score: inf
ROOT
ATOM      1  C   UNL     1     152.766 132.453 164.027  1.00  0.00     0.000 C 
ENDROOT
BRANCH   1   2
ATOM      2  C   UNL     1     153.463 132.037 165.335  1.00  0.00     0.000 C 
BRANCH   2   3
ATOM      3  C   UNL     1     154.919 132.522 165.412  1.00  0.00     0.000 C 
BRANCH   3   4
ATOM      4  C   UNL     1     155.554 132.261 166.788  1.00  0.00     0.000 C 
BRANCH   4   5
ATOM      5  C   UNL     1     157.090 132.259 166.742  1.00  0.00     0.000 C 
BRANCH   5   6
ATOM      6  C   UNL     1     157.725 132.820 168.024  1.00  0.00     0.000 C 
BRANCH   6   7
ATOM      7  C   UNL     1     156.667 133.034 169.114  1.00  0.00     0.000 C 
BRANCH   7   8
ATOM      8  C   UNL     1     156.849 134.399 169.795  1.00  0.00     0.000 C 
BRANCH   8   9
ATOM      9  C   UNL     1     156.639 135.582 168.833  1.00  0.00     0.000 C 
BRANCH   9  10
ATOM     10  C   UNL     1     155.285 135.595 168.102  1.00  0.00     0.006 C 
BRANCH  10  11
ATOM     11  C   UNL     1     155.377 136.160 166.679  1.00  0.00     0.053 C 
BRANCH  11  12
ATOM     12  C   UNL     1     155.248 137.651 166.696  1.00  0.00     0.041 C 
ATOM     13  O   UNL     1     155.954 138.357 165.928  1.00  0.00    -0.550 OA
ATOM     14  O   UNL     1     154.376 138.264 167.588  1.00  0.00    -0.550 OA
ENDBRANCH  11  12
ENDBRANCH  10  11
ENDBRANCH   9  10
ENDBRANCH   8   9
ENDBRANCH   7   8
ENDBRANCH   6   7
ENDBRANCH   5   6
ENDBRANCH   4   5
ENDBRANCH   3   4
ENDBRANCH   2   3
ENDBRANCH   1   2
BRANCH   1  15
ATOM     15  C   UNL     1     151.336 131.881 163.921  1.00  0.00     0.000 C 
BRANCH  15  16
ATOM     16  C   UNL     1     150.308 132.635 164.784  1.00  0.00     0.000 C 
BRANCH  16  17
ATOM     17  C   UNL     1     149.448 133.611 163.969  1.00  0.00     0.000 C 
BRANCH  17  18
ATOM     18  C   UNL     1     148.236 132.931 163.307  1.00  0.00    -0.000 C 
BRANCH  18  19
ATOM     19  C   UNL     1     147.978 133.346 161.845  1.00  0.00    -0.000 C 
BRANCH  19  20
ATOM     20  C   UNL     1     146.842 132.577 161.139  1.00  0.00    -0.000 C 
BRANCH  20  21
ATOM     21  C   UNL     1     145.545 133.383 160.921  1.00  0.00    -0.000 C 
BRANCH  21  22
ATOM     22  C   UNL     1     144.635 133.507 162.157  1.00  0.00    -0.000 C 
BRANCH  22  23
ATOM     23  C   UNL     1     144.724 134.891 162.825  1.00  0.00    -0.000 C 
BRANCH  23  24
ATOM     24  C   UNL     1     145.146 136.002 161.846  1.00  0.00    -0.000 C 
BRANCH  24  25
ATOM     25  C   UNL     1     146.082 137.072 162.436  1.00  0.00    -0.003 C 
ATOM     26  C   UNL     1     147.072 136.510 163.455  1.00  0.00     0.004 C 
ENDBRANCH  24  25
ENDBRANCH  23  24
ENDBRANCH  22  23
ENDBRANCH  21  22
ENDBRANCH  20  21
ENDBRANCH  19  20
ENDBRANCH  18  19
ENDBRANCH  17  18
ENDBRANCH  16  17
ENDBRANCH  15  16
ENDBRANCH   1  15
TORSDOF 22
ENDMDL
MODEL 8
REMARK VINA RESULT:    -3.405      3.332      6.164
REMARK INTER + INTRA:         -11.240
REMARK INTER:                  -7.747
REMARK INTRA:                  -3.493
REMARK UNBOUND:                -3.455
REMARK SMILES CCCCCCCCCCCCCCCCCCCCCCCC(=O)[O-]
REMARK SMILES IDX 13 1 14 2 15 3 16 4 17 5 18 6 19 7 20 8 21 9 22 10 23 11
REMARK SMILES IDX 24 12 25 13 26 14 12 15 11 16 10 17 9 18 8 19 7 20 6 21 5 22
REMARK SMILES IDX 4 23 3 24 2 25 1 26
REMARK H PARENT
REMARK Flexibility Score: inf
ROOT
ATOM      1  C   UNL     1     155.852 135.819 167.749  1.00  0.00     0.000 C 
ENDROOT
BRANCH   1   2
ATOM      2  C   UNL     1     156.661 135.363 168.977  1.00  0.00     0.000 C 
BRANCH   2   3
ATOM      3  C   UNL     1     156.913 133.846 168.990  1.00  0.00     0.000 C 
BRANCH   3   4
ATOM      4  C   UNL     1     157.835 133.395 167.845  1.00  0.00     0.000 C 
BRANCH   4   5
ATOM      5  C   UNL     1     157.220 132.273 166.994  1.00  0.00     0.000 C 
BRANCH   5   6
ATOM      6  C   UNL     1     155.685 132.248 167.062  1.00  0.00     0.000 C 
BRANCH   6   7
ATOM      7  C   UNL     1     155.073 132.219 165.655  1.00  0.00     0.000 C 
BRANCH   7   8
ATOM      8  C   UNL     1     154.261 133.495 165.384  1.00  0.00     0.000 C 
BRANCH   8   9
ATOM      9  C   UNL     1     152.787 133.209 165.047  1.00  0.00     0.000 C 
BRANCH   9  10
ATOM     10  C   UNL     1     151.793 133.482 166.191  1.00  0.00     0.006 C 
BRANCH  10  11
ATOM     11  C   UNL     1     151.710 132.330 167.201  1.00  0.00     0.053 C 
BRANCH  11  12
ATOM     12  C   UNL     1     152.118 132.796 168.564  1.00  0.00     0.041 C 
ATOM     13  O   UNL     1     152.930 133.751 168.691  1.00  0.00    -0.550 OA
ATOM     14  O   UNL     1     151.632 132.150 169.695  1.00  0.00    -0.550 OA
ENDBRANCH  11  12
ENDBRANCH  10  11
ENDBRANCH   9  10
ENDBRANCH   8   9
ENDBRANCH   7   8
ENDBRANCH   6   7
ENDBRANCH   5   6
ENDBRANCH   4   5
ENDBRANCH   3   4
ENDBRANCH   2   3
ENDBRANCH   1   2
BRANCH   1  15
ATOM     15  C   UNL     1     156.598 136.892 166.927  1.00  0.00     0.000 C 
BRANCH  15  16
ATOM     16  C   UNL     1     156.817 138.210 167.694  1.00  0.00     0.000 C 
BRANCH  16  17
ATOM     17  C   UNL     1     157.915 139.085 167.071  1.00  0.00     0.000 C 
BRANCH  17  18
ATOM     18  C   UNL     1     157.385 140.439 166.567  1.00  0.00    -0.000 C 
BRANCH  18  19
ATOM     19  C   UNL     1     156.786 140.413 165.147  1.00  0.00    -0.000 C 
BRANCH  19  20
ATOM     20  C   UNL     1     155.441 141.152 164.994  1.00  0.00    -0.000 C 
BRANCH  20  21
ATOM     21  C   UNL     1     154.240 140.473 165.685  1.00  0.00    -0.000 C 
BRANCH  21  22
ATOM     22  C   UNL     1     153.591 139.324 164.891  1.00  0.00    -0.000 C 
BRANCH  22  23
ATOM     23  C   UNL     1     153.467 138.029 165.712  1.00  0.00    -0.000 C 
BRANCH  23  24
ATOM     24  C   UNL     1     153.091 138.286 167.183  1.00  0.00    -0.000 C 
BRANCH  24  25
ATOM     25  C   UNL     1     152.288 137.160 167.859  1.00  0.00    -0.003 C 
ATOM     26  C   UNL     1     150.922 136.926 167.215  1.00  0.00     0.004 C 
ENDBRANCH  24  25
ENDBRANCH  23  24
ENDBRANCH  22  23
ENDBRANCH  21  22
ENDBRANCH  20  21
ENDBRANCH  19  20
ENDBRANCH  18  19
ENDBRANCH  17  18
ENDBRANCH  16  17
ENDBRANCH  15  16
ENDBRANCH   1  15
TORSDOF 22
ENDMDL
MODEL 9
REMARK VINA RESULT:    -3.403      3.882      8.168
REMARK INTER + INTRA:         -11.234
REMARK INTER:                  -7.994
REMARK INTRA:                  -3.240
REMARK UNBOUND:                -3.455
REMARK SMILES CCCCCCCCCCCCCCCCCCCCCCCC(=O)[O-]
REMARK SMILES IDX 13 1 14 2 15 3 16 4 17 5 18 6 19 7 20 8 21 9 22 10 23 11
REMARK SMILES IDX 24 12 25 13 26 14 12 15 11 16 10 17 9 18 8 19 7 20 6 21 5 22
REMARK SMILES IDX 4 23 3 24 2 25 1 26
REMARK H PARENT
REMARK Flexibility Score: inf
ROOT
ATOM      1  C   UNL     1     151.424 132.115 164.236  1.00  0.00     0.000 C 
ENDROOT
BRANCH   1   2
ATOM      2  C   UNL     1     152.830 132.075 163.610  1.00  0.00     0.000 C 
BRANCH   2   3
ATOM      3  C   UNL     1     153.896 132.728 164.504  1.00  0.00     0.000 C 
BRANCH   3   4
ATOM      4  C   UNL     1     154.226 131.876 165.741  1.00  0.00     0.000 C 
BRANCH   4   5
ATOM      5  C   UNL     1     155.576 132.249 166.375  1.00  0.00     0.000 C 
BRANCH   5   6
ATOM      6  C   UNL     1     155.453 132.620 167.862  1.00  0.00     0.000 C 
BRANCH   6   7
ATOM      7  C   UNL     1     156.360 133.807 168.209  1.00  0.00     0.000 C 
BRANCH   7   8
ATOM      8  C   UNL     1     155.860 135.095 167.536  1.00  0.00     0.000 C 
BRANCH   8   9
ATOM      9  C   UNL     1     156.617 136.350 168.005  1.00  0.00     0.000 C 
BRANCH   9  10
ATOM     10  C   UNL     1     156.635 137.513 166.997  1.00  0.00     0.006 C 
BRANCH  10  11
ATOM     11  C   UNL     1     157.284 138.784 167.559  1.00  0.00     0.053 C 
BRANCH  11  12
ATOM     12  C   UNL     1     156.575 139.231 168.799  1.00  0.00     0.041 C 
ATOM     13  O   UNL     1     155.407 139.698 168.729  1.00  0.00    -0.550 OA
ATOM     14  O   UNL     1     157.219 139.170 170.030  1.00  0.00    -0.550 OA
ENDBRANCH  11  12
ENDBRANCH  10  11
ENDBRANCH   9  10
ENDBRANCH   8   9
ENDBRANCH   7   8
ENDBRANCH   6   7
ENDBRANCH   5   6
ENDBRANCH   4   5
ENDBRANCH   3   4
ENDBRANCH   2   3
ENDBRANCH   1   2
BRANCH   1  15
ATOM     15  C   UNL     1     150.358 132.629 163.245  1.00  0.00     0.000 C 
BRANCH  15  16
ATOM     16  C   UNL     1     148.913 132.398 163.723  1.00  0.00     0.000 C 
BRANCH  16  17
ATOM     17  C   UNL     1     148.405 133.517 164.644  1.00  0.00     0.000 C 
BRANCH  17  18
ATOM     18  C   UNL     1     147.841 132.985 165.974  1.00  0.00    -0.000 C 
BRANCH  18  19
ATOM     19  C   UNL     1     148.629 133.412 167.229  1.00  0.00    -0.000 C 
BRANCH  19  20
ATOM     20  C   UNL     1     149.982 132.697 167.424  1.00  0.00    -0.000 C 
BRANCH  20  21
ATOM     21  C   UNL     1     150.712 133.029 168.742  1.00  0.00    -0.000 C 
BRANCH  21  22
ATOM     22  C   UNL     1     151.850 134.059 168.618  1.00  0.00    -0.000 C 
BRANCH  22  23
ATOM     23  C   UNL     1     152.251 134.330 167.158  1.00  0.00    -0.000 C 
BRANCH  23  24
ATOM     24  C   UNL     1     152.054 135.800 166.746  1.00  0.00    -0.000 C 
BRANCH  24  25
ATOM     25  C   UNL     1     151.537 136.013 165.311  1.00  0.00    -0.003 C 
ATOM     26  C   UNL     1     150.133 136.614 165.260  1.00  0.00     0.004 C 
ENDBRANCH  24  25
ENDBRANCH  23  24
ENDBRANCH  22  23
ENDBRANCH  21  22
ENDBRANCH  20  21
ENDBRANCH  19  20
ENDBRANCH  18  19
ENDBRANCH  17  18
ENDBRANCH  16  17
ENDBRANCH  15  16
ENDBRANCH   1  15
TORSDOF 22
ENDMDL
