MODEL 1
REMARK VINA RESULT:     6.351      0.000      0.000
REMARK INTER + INTRA:          13.273
REMARK INTER:                  14.519
REMARK INTRA:                  -1.246
REMARK UNBOUND:                -1.246
REMARK SMILES CCCCCCCCCCCCCCCCCCCCCCCC(=O)[O-]
REMARK SMILES IDX 13 1 14 2 15 3 16 4 17 5 18 6 19 7 20 8 21 9 22 10 23 11
REMARK SMILES IDX 24 12 25 13 26 14 12 15 11 16 10 17 9 18 8 19 7 20 6 21 5 22
REMARK SMILES IDX 4 23 3 24 2 25 1 26
REMARK H PARENT
REMARK Flexibility Score: inf
ROOT
ATOM      1  C   UNL     1      16.011  27.125  10.767  1.00  0.00     0.000 C 
ENDROOT
BRANCH   1   2
ATOM      2  C   UNL     1      15.336  26.061   9.884  1.00  0.00     0.000 C 
BRANCH   2   3
ATOM      3  C   UNL     1      15.224  26.431   8.391  1.00  0.00     0.000 C 
BRANCH   3   4
ATOM      4  C   UNL     1      14.882  25.258   7.451  1.00  0.00     0.000 C 
BRANCH   4   5
ATOM      5  C   UNL     1      15.003  25.574   5.947  1.00  0.00     0.000 C 
BRANCH   5   6
ATOM      6  C   UNL     1      16.367  26.148   5.515  1.00  0.00     0.000 C 
BRANCH   6   7
ATOM      7  C   UNL     1      17.025  25.437   4.316  1.00  0.00     0.000 C 
BRANCH   7   8
ATOM      8  C   UNL     1      18.014  26.295   3.506  1.00  0.00     0.000 C 
BRANCH   8   9
ATOM      9  C   UNL     1      19.402  26.388   4.163  1.00  0.00     0.000 C 
BRANCH   9  10
ATOM     10  C   UNL     1      20.192  25.068   4.073  1.00  0.00     0.006 C 
BRANCH  10  11
ATOM     11  C   UNL     1      20.875  24.646   5.385  1.00  0.00     0.053 C 
BRANCH  11  12
ATOM     12  C   UNL     1      22.298  25.107   5.453  1.00  0.00     0.041 C 
ATOM     13  O   UNL     1      22.693  26.057   4.728  1.00  0.00    -0.550 OA
ATOM     14  O   UNL     1      23.182  24.503   6.338  1.00  0.00    -0.550 OA
ENDBRANCH  11  12
ENDBRANCH  10  11
ENDBRANCH   9  10
ENDBRANCH   8   9
ENDBRANCH   7   8
ENDBRANCH   6   7
ENDBRANCH   5   6
ENDBRANCH   4   5
ENDBRANCH   3   4
ENDBRANCH   2   3
ENDBRANCH   1   2
BRANCH   1  15
ATOM     15  C   UNL     1      15.199  27.453  12.032  1.00  0.00     0.000 C 
BRANCH  15  16
ATOM     16  C   UNL     1      15.031  26.235  12.955  1.00  0.00     0.000 C 
BRANCH  16  17
ATOM     17  C   UNL     1      16.380  25.606  13.349  1.00  0.00     0.000 C 
BRANCH  17  18
ATOM     18  C   UNL     1      17.142  26.441  14.391  1.00  0.00    -0.000 C 
BRANCH  18  19
ATOM     19  C   UNL     1      18.193  27.364  13.751  1.00  0.00    -0.000 C 
BRANCH  19  20
ATOM     20  C   UNL     1      18.935  26.698  12.578  1.00  0.00    -0.000 C 
BRANCH  20  21
ATOM     21  C   UNL     1      19.711  27.664  11.661  1.00  0.00    -0.000 C 
BRANCH  21  22
ATOM     22  C   UNL     1      21.241  27.471  11.649  1.00  0.00    -0.000 C 
BRANCH  22  23
ATOM     23  C   UNL     1      22.039  28.668  11.103  1.00  0.00    -0.000 C 
BRANCH  23  24
ATOM     24  C   UNL     1      23.544  28.566  11.405  1.00  0.00    -0.000 C 
BRANCH  24  25
ATOM     25  C   UNL     1      24.137  29.896  11.895  1.00  0.00    -0.003 C 
ATOM     26  C   UNL     1      25.641  29.999  11.644  1.00  0.00     0.004 C 
ENDBRANCH  24  25
ENDBRANCH  23  24
ENDBRANCH  22  23
ENDBRANCH  21  22
ENDBRANCH  20  21
ENDBRANCH  19  20
ENDBRANCH  18  19
ENDBRANCH  17  18
ENDBRANCH  16  17
ENDBRANCH  15  16
ENDBRANCH   1  15
TORSDOF 22
ENDMDL
MODEL 2
REMARK VINA RESULT:     8.296      2.286      7.604
REMARK INTER + INTRA:          17.719
REMARK INTER:                  18.499
REMARK INTRA:                  -0.781
REMARK UNBOUND:                -1.246
REMARK SMILES CCCCCCCCCCCCCCCCCCCCCCCC(=O)[O-]
REMARK SMILES IDX 13 1 14 2 15 3 16 4 17 5 18 6 19 7 20 8 21 9 22 10 23 11
REMARK SMILES IDX 24 12 25 13 26 14 12 15 11 16 10 17 9 18 8 19 7 20 6 21 5 22
REMARK SMILES IDX 4 23 3 24 2 25 1 26
REMARK H PARENT
REMARK Flexibility Score: inf
ROOT
ATOM      1  C   UNL     1      15.811  26.356   8.823  1.00  0.00     0.000 C 
ENDROOT
BRANCH   1   2
ATOM      2  C   UNL     1      14.983  26.973   9.964  1.00  0.00     0.000 C 
BRANCH   2   3
ATOM      3  C   UNL     1      14.911  26.122  11.249  1.00  0.00     0.000 C 
BRANCH   3   4
ATOM      4  C   UNL     1      14.948  26.923  12.566  1.00  0.00     0.000 C 
BRANCH   4   5
ATOM      5  C   UNL     1      14.875  26.069  13.847  1.00  0.00     0.000 C 
BRANCH   5   6
ATOM      6  C   UNL     1      16.084  25.140  14.074  1.00  0.00     0.000 C 
BRANCH   6   7
ATOM      7  C   UNL     1      17.353  25.837  14.606  1.00  0.00     0.000 C 
BRANCH   7   8
ATOM      8  C   UNL     1      17.314  27.376  14.587  1.00  0.00     0.000 C 
BRANCH   8   9
ATOM      9  C   UNL     1      17.709  27.967  13.223  1.00  0.00     0.000 C 
BRANCH   9  10
ATOM     10  C   UNL     1      18.402  26.940  12.308  1.00  0.00     0.006 C 
BRANCH  10  11
ATOM     11  C   UNL     1      19.152  27.556  11.115  1.00  0.00     0.053 C 
BRANCH  11  12
ATOM     12  C   UNL     1      20.638  27.454  11.270  1.00  0.00     0.041 C 
ATOM     13  O   UNL     1      21.158  27.451  12.416  1.00  0.00    -0.550 OA
ATOM     14  O   UNL     1      21.446  27.336  10.146  1.00  0.00    -0.550 OA
ENDBRANCH  11  12
ENDBRANCH  10  11
ENDBRANCH   9  10
ENDBRANCH   8   9
ENDBRANCH   7   8
ENDBRANCH   6   7
ENDBRANCH   5   6
ENDBRANCH   4   5
ENDBRANCH   3   4
ENDBRANCH   2   3
ENDBRANCH   1   2
BRANCH   1  15
ATOM     15  C   UNL     1      14.939  25.852   7.660  1.00  0.00     0.000 C 
BRANCH  15  16
ATOM     16  C   UNL     1      15.256  26.564   6.335  1.00  0.00     0.000 C 
BRANCH  16  17
ATOM     17  C   UNL     1      15.998  25.652   5.340  1.00  0.00     0.000 C 
BRANCH  17  18
ATOM     18  C   UNL     1      17.184  26.357   4.661  1.00  0.00    -0.000 C 
BRANCH  18  19
ATOM     19  C   UNL     1      17.521  25.749   3.289  1.00  0.00    -0.000 C 
BRANCH  19  20
ATOM     20  C   UNL     1      19.023  25.822   2.958  1.00  0.00    -0.000 C 
BRANCH  20  21
ATOM     21  C   UNL     1      19.969  25.582   4.151  1.00  0.00    -0.000 C 
BRANCH  21  22
ATOM     22  C   UNL     1      20.688  24.218   4.154  1.00  0.00    -0.000 C 
BRANCH  22  23
ATOM     23  C   UNL     1      21.512  23.924   5.420  1.00  0.00    -0.000 C 
BRANCH  23  24
ATOM     24  C   UNL     1      22.136  25.190   6.030  1.00  0.00    -0.000 C 
BRANCH  24  25
ATOM     25  C   UNL     1      22.713  24.943   7.433  1.00  0.00    -0.003 C 
ATOM     26  C   UNL     1      24.068  24.237   7.397  1.00  0.00     0.004 C 
ENDBRANCH  24  25
ENDBRANCH  23  24
ENDBRANCH  22  23
ENDBRANCH  21  22
ENDBRANCH  20  21
ENDBRANCH  19  20
ENDBRANCH  18  19
ENDBRANCH  17  18
ENDBRANCH  16  17
ENDBRANCH  15  16
ENDBRANCH   1  15
TORSDOF 22
ENDMDL
MODEL 3
REMARK VINA RESULT:     8.445      2.090      5.135
REMARK INTER + INTRA:          18.059
REMARK INTER:                  19.162
REMARK INTRA:                  -1.103
REMARK UNBOUND:                -1.246
REMARK SMILES CCCCCCCCCCCCCCCCCCCCCCCC(=O)[O-]
REMARK SMILES IDX 13 1 14 2 15 3 16 4 17 5 18 6 19 7 20 8 21 9 22 10 23 11
REMARK SMILES IDX 24 12 25 13 26 14 12 15 11 16 10 17 9 18 8 19 7 20 6 21 5 22
REMARK SMILES IDX 4 23 3 24 2 25 1 26
REMARK H PARENT
REMARK Flexibility Score: inf
ROOT
ATOM      1  C   UNL     1      18.613  27.468  11.918  1.00  0.00     0.000 C 
ENDROOT
BRANCH   1   2
ATOM      2  C   UNL     1      17.616  26.297  11.863  1.00  0.00     0.000 C 
BRANCH   2   3
ATOM      3  C   UNL     1      16.294  26.532  12.623  1.00  0.00     0.000 C 
BRANCH   3   4
ATOM      4  C   UNL     1      15.016  26.209  11.824  1.00  0.00     0.000 C 
BRANCH   4   5
ATOM      5  C   UNL     1      14.946  26.852  10.425  1.00  0.00     0.000 C 
BRANCH   5   6
ATOM      6  C   UNL     1      14.884  25.850   9.255  1.00  0.00     0.000 C 
BRANCH   6   7
ATOM      7  C   UNL     1      15.335  26.409   7.890  1.00  0.00     0.000 C 
BRANCH   7   8
ATOM      8  C   UNL     1      15.106  25.474   6.689  1.00  0.00     0.000 C 
BRANCH   8   9
ATOM      9  C   UNL     1      15.509  26.112   5.349  1.00  0.00     0.000 C 
BRANCH   9  10
ATOM     10  C   UNL     1      16.353  25.170   4.470  1.00  0.00     0.006 C 
BRANCH  10  11
ATOM     11  C   UNL     1      17.336  25.888   3.531  1.00  0.00     0.053 C 
BRANCH  11  12
ATOM     12  C   UNL     1      18.654  26.152   4.191  1.00  0.00     0.041 C 
ATOM     13  O   UNL     1      18.822  27.190   4.883  1.00  0.00    -0.550 OA
ATOM     14  O   UNL     1      19.691  25.236   4.062  1.00  0.00    -0.550 OA
ENDBRANCH  11  12
ENDBRANCH  10  11
ENDBRANCH   9  10
ENDBRANCH   8   9
ENDBRANCH   7   8
ENDBRANCH   6   7
ENDBRANCH   5   6
ENDBRANCH   4   5
ENDBRANCH   3   4
ENDBRANCH   2   3
ENDBRANCH   1   2
BRANCH   1  15
ATOM     15  C   UNL     1      19.888  27.204  11.099  1.00  0.00     0.000 C 
BRANCH  15  16
ATOM     16  C   UNL     1      20.876  28.380  11.152  1.00  0.00     0.000 C 
BRANCH  16  17
ATOM     17  C   UNL     1      22.332  27.937  10.918  1.00  0.00     0.000 C 
BRANCH  17  18
ATOM     18  C   UNL     1      23.272  28.366  12.056  1.00  0.00    -0.000 C 
BRANCH  18  19
ATOM     19  C   UNL     1      23.406  29.895  12.164  1.00  0.00    -0.000 C 
BRANCH  19  20
ATOM     20  C   UNL     1      24.869  30.371  12.092  1.00  0.00    -0.000 C 
BRANCH  20  21
ATOM     21  C   UNL     1      25.742  29.648  11.047  1.00  0.00    -0.000 C 
BRANCH  21  22
ATOM     22  C   UNL     1      27.263  29.784  11.256  1.00  0.00    -0.000 C 
BRANCH  22  23
ATOM     23  C   UNL     1      28.002  30.558  10.149  1.00  0.00    -0.000 C 
BRANCH  23  24
ATOM     24  C   UNL     1      28.419  29.659   8.973  1.00  0.00    -0.000 C 
BRANCH  24  25
ATOM     25  C   UNL     1      29.310  28.488   9.414  1.00  0.00    -0.003 C 
ATOM     26  C   UNL     1      28.714  27.126   9.056  1.00  0.00     0.004 C 
ENDBRANCH  24  25
ENDBRANCH  23  24
ENDBRANCH  22  23
ENDBRANCH  21  22
ENDBRANCH  20  21
ENDBRANCH  19  20
ENDBRANCH  18  19
ENDBRANCH  17  18
ENDBRANCH  16  17
ENDBRANCH  15  16
ENDBRANCH   1  15
TORSDOF 22
ENDMDL
MODEL 4
REMARK VINA RESULT:     9.038      5.549     10.238
REMARK INTER + INTRA:          19.415
REMARK INTER:                  20.359
REMARK INTRA:                  -0.943
REMARK UNBOUND:                -1.246
REMARK SMILES CCCCCCCCCCCCCCCCCCCCCCCC(=O)[O-]
REMARK SMILES IDX 13 1 14 2 15 3 16 4 17 5 18 6 19 7 20 8 21 9 22 10 23 11
REMARK SMILES IDX 24 12 25 13 26 14 12 15 11 16 10 17 9 18 8 19 7 20 6 21 5 22
REMARK SMILES IDX 4 23 3 24 2 25 1 26
REMARK H PARENT
REMARK Flexibility Score: inf
ROOT
ATOM      1  C   UNL     1      25.278  30.186  11.790  1.00  0.00     0.000 C 
ENDROOT
BRANCH   1   2
ATOM      2  C   UNL     1      24.518  28.976  11.219  1.00  0.00     0.000 C 
BRANCH   2   3
ATOM      3  C   UNL     1      23.207  28.626  11.954  1.00  0.00     0.000 C 
BRANCH   3   4
ATOM      4  C   UNL     1      22.179  27.840  11.116  1.00  0.00     0.000 C 
BRANCH   4   5
ATOM      5  C   UNL     1      20.710  28.249  11.343  1.00  0.00     0.000 C 
BRANCH   5   6
ATOM      6  C   UNL     1      19.749  27.079  11.630  1.00  0.00     0.000 C 
BRANCH   6   7
ATOM      7  C   UNL     1      18.287  27.484  11.901  1.00  0.00     0.000 C 
BRANCH   7   8
ATOM      8  C   UNL     1      17.837  27.377  13.370  1.00  0.00     0.000 C 
BRANCH   8   9
ATOM      9  C   UNL     1      16.860  26.214  13.613  1.00  0.00     0.000 C 
BRANCH   9  10
ATOM     10  C   UNL     1      16.208  25.702  12.314  1.00  0.00     0.006 C 
BRANCH  10  11
ATOM     11  C   UNL     1      14.879  26.387  11.958  1.00  0.00     0.053 C 
BRANCH  11  12
ATOM     12  C   UNL     1      14.887  26.948  10.569  1.00  0.00     0.041 C 
ATOM     13  O   UNL     1      14.875  26.178   9.574  1.00  0.00    -0.550 OA
ATOM     14  O   UNL     1      14.884  28.324  10.376  1.00  0.00    -0.550 OA
ENDBRANCH  11  12
ENDBRANCH  10  11
ENDBRANCH   9  10
ENDBRANCH   8   9
ENDBRANCH   7   8
ENDBRANCH   6   7
ENDBRANCH   5   6
ENDBRANCH   4   5
ENDBRANCH   3   4
ENDBRANCH   2   3
ENDBRANCH   1   2
BRANCH   1  15
ATOM     15  C   UNL     1      26.767  30.191  11.402  1.00  0.00     0.000 C 
BRANCH  15  16
ATOM     16  C   UNL     1      27.010  29.619   9.996  1.00  0.00     0.000 C 
BRANCH  16  17
ATOM     17  C   UNL     1      28.447  29.099   9.813  1.00  0.00     0.000 C 
BRANCH  17  18
ATOM     18  C   UNL     1      28.497  27.717   9.140  1.00  0.00    -0.000 C 
BRANCH  18  19
ATOM     19  C   UNL     1      29.380  26.720   9.910  1.00  0.00    -0.000 C 
BRANCH  19  20
ATOM     20  C   UNL     1      29.038  25.253   9.593  1.00  0.00    -0.000 C 
BRANCH  20  21
ATOM     21  C   UNL     1      30.091  24.222  10.045  1.00  0.00    -0.000 C 
BRANCH  21  22
ATOM     22  C   UNL     1      29.924  23.703  11.487  1.00  0.00    -0.000 C 
BRANCH  22  23
ATOM     23  C   UNL     1      31.025  24.148  12.466  1.00  0.00    -0.000 C 
BRANCH  23  24
ATOM     24  C   UNL     1      31.965  22.999  12.867  1.00  0.00    -0.000 C 
BRANCH  24  25
ATOM     25  C   UNL     1      33.448  23.381  12.736  1.00  0.00    -0.003 C 
ATOM     26  C   UNL     1      34.251  22.357  11.933  1.00  0.00     0.004 C 
ENDBRANCH  24  25
ENDBRANCH  23  24
ENDBRANCH  22  23
ENDBRANCH  21  22
ENDBRANCH  20  21
ENDBRANCH  19  20
ENDBRANCH  18  19
ENDBRANCH  17  18
ENDBRANCH  16  17
ENDBRANCH  15  16
ENDBRANCH   1  15
TORSDOF 22
ENDMDL
