MODEL 1
REMARK VINA RESULT:    -2.236      0.000      0.000
REMARK INTER + INTRA:         -10.675
REMARK INTER:                  -5.635
REMARK INTRA:                  -5.040
REMARK UNBOUND:                -5.040
REMARK SMILES CCCCCCCCCCCCCCCCCCCCCCCCCCCC(=O)[O-]
REMARK SMILES IDX 15 1 16 2 17 3 18 4 19 5 20 6 21 7 22 8 23 9 24 10 25 11
REMARK SMILES IDX 26 12 27 13 28 14 29 15 30 16 14 17 13 18 12 19 11 20 10 21
REMARK SMILES IDX 9 22 8 23 7 24 6 25 5 26 4 27 3 28 2 29 1 30
REMARK H PARENT
REMARK Flexibility Score: inf
ROOT
ATOM      1  C   UNL     1      -0.074  14.005 -12.107  1.00  0.00     0.000 C 
ENDROOT
BRANCH   1   2
ATOM      2  C   UNL     1       0.799  14.105 -10.848  1.00  0.00     0.000 C 
BRANCH   2   3
ATOM      3  C   UNL     1       0.752  12.829  -9.988  1.00  0.00     0.000 C 
BRANCH   3   4
ATOM      4  C   UNL     1       0.709  13.070  -8.465  1.00  0.00     0.000 C 
BRANCH   4   5
ATOM      5  C   UNL     1      -0.306  12.203  -7.699  1.00  0.00     0.000 C 
BRANCH   5   6
ATOM      6  C   UNL     1      -1.486  11.758  -8.574  1.00  0.00     0.000 C 
BRANCH   6   7
ATOM      7  C   UNL     1      -1.609  10.227  -8.602  1.00  0.00     0.000 C 
BRANCH   7   8
ATOM      8  C   UNL     1      -1.221   9.616  -9.962  1.00  0.00     0.000 C 
BRANCH   8   9
ATOM      9  C   UNL     1       0.182   8.982 -10.016  1.00  0.00     0.000 C 
BRANCH   9  10
ATOM     10  C   UNL     1       0.779   8.732  -8.621  1.00  0.00     0.000 C 
BRANCH  10  11
ATOM     11  C   UNL     1       0.690   7.258  -8.193  1.00  0.00     0.000 C 
BRANCH  11  12
ATOM     12  C   UNL     1      -0.095   7.061  -6.882  1.00  0.00     0.006 C 
BRANCH  12  13
ATOM     13  C   UNL     1       0.707   6.268  -5.840  1.00  0.00     0.053 C 
BRANCH  13  14
ATOM     14  C   UNL     1       2.168   6.594  -5.894  1.00  0.00     0.041 C 
ATOM     15  O   UNL     1       2.591   7.693  -5.444  1.00  0.00    -0.550 OA
ATOM     16  O   UNL     1       3.070   5.661  -6.391  1.00  0.00    -0.550 OA
ENDBRANCH  13  14
ENDBRANCH  12  13
ENDBRANCH  11  12
ENDBRANCH  10  11
ENDBRANCH   9  10
ENDBRANCH   8   9
ENDBRANCH   7   8
ENDBRANCH   6   7
ENDBRANCH   5   6
ENDBRANCH   4   5
ENDBRANCH   3   4
ENDBRANCH   2   3
ENDBRANCH   1   2
BRANCH   1  17
ATOM     17  C   UNL     1      -1.155  12.926 -11.944  1.00  0.00     0.000 C 
BRANCH  17  18
ATOM     18  C   UNL     1      -2.528  13.500 -11.546  1.00  0.00     0.000 C 
BRANCH  18  19
ATOM     19  C   UNL     1      -3.737  12.604 -11.883  1.00  0.00     0.000 C 
BRANCH  19  20
ATOM     20  C   UNL     1      -3.344  11.319 -12.631  1.00  0.00     0.000 C 
BRANCH  20  21
ATOM     21  C   UNL     1      -4.002  10.068 -12.027  1.00  0.00     0.000 C 
BRANCH  21  22
ATOM     22  C   UNL     1      -5.463  10.311 -11.604  1.00  0.00    -0.000 C 
BRANCH  22  23
ATOM     23  C   UNL     1      -5.967   9.252 -10.611  1.00  0.00    -0.000 C 
BRANCH  23  24
ATOM     24  C   UNL     1      -5.058   9.120  -9.377  1.00  0.00    -0.000 C 
BRANCH  24  25
ATOM     25  C   UNL     1      -5.675   8.219  -8.285  1.00  0.00    -0.000 C 
BRANCH  25  26
ATOM     26  C   UNL     1      -4.879   6.926  -8.018  1.00  0.00    -0.000 C 
BRANCH  26  27
ATOM     27  C   UNL     1      -3.366   7.030  -8.274  1.00  0.00    -0.000 C 
BRANCH  27  28
ATOM     28  C   UNL     1      -2.799   5.976  -9.247  1.00  0.00    -0.000 C 
BRANCH  28  29
ATOM     29  C   UNL     1      -3.520   5.943 -10.611  1.00  0.00    -0.003 C 
ATOM     30  C   UNL     1      -2.755   6.705 -11.694  1.00  0.00     0.004 C 
ENDBRANCH  28  29
ENDBRANCH  27  28
ENDBRANCH  26  27
ENDBRANCH  25  26
ENDBRANCH  24  25
ENDBRANCH  23  24
ENDBRANCH  22  23
ENDBRANCH  21  22
ENDBRANCH  20  21
ENDBRANCH  19  20
ENDBRANCH  18  19
ENDBRANCH  17  18
ENDBRANCH   1  17
TORSDOF 26
ENDMDL
MODEL 2
REMARK VINA RESULT:    -2.222      1.621      2.571
REMARK INTER + INTRA:         -10.640
REMARK INTER:                  -4.973
REMARK INTRA:                  -5.667
REMARK UNBOUND:                -5.040
REMARK SMILES CCCCCCCCCCCCCCCCCCCCCCCCCCCC(=O)[O-]
REMARK SMILES IDX 15 1 16 2 17 3 18 4 19 5 20 6 21 7 22 8 23 9 24 10 25 11
REMARK SMILES IDX 26 12 27 13 28 14 29 15 30 16 14 17 13 18 12 19 11 20 10 21
REMARK SMILES IDX 9 22 8 23 7 24 6 25 5 26 4 27 3 28 2 29 1 30
REMARK H PARENT
REMARK Flexibility Score: inf
ROOT
ATOM      1  C   UNL     1      -1.581  11.461  -9.115  1.00  0.00     0.000 C 
ENDROOT
BRANCH   1   2
ATOM      2  C   UNL     1      -0.698  12.181  -8.085  1.00  0.00     0.000 C 
BRANCH   2   3
ATOM      3  C   UNL     1       0.683  11.522  -7.920  1.00  0.00     0.000 C 
BRANCH   3   4
ATOM      4  C   UNL     1       1.696  11.841  -9.037  1.00  0.00     0.000 C 
BRANCH   4   5
ATOM      5  C   UNL     1       2.680  10.704  -9.365  1.00  0.00     0.000 C 
BRANCH   5   6
ATOM      6  C   UNL     1       2.677  10.325 -10.852  1.00  0.00     0.000 C 
BRANCH   6   7
ATOM      7  C   UNL     1       1.404  10.829 -11.549  1.00  0.00     0.000 C 
BRANCH   7   8
ATOM      8  C   UNL     1       0.517   9.689 -12.083  1.00  0.00     0.000 C 
BRANCH   8   9
ATOM      9  C   UNL     1      -0.137   8.809 -11.001  1.00  0.00     0.000 C 
BRANCH   9  10
ATOM     10  C   UNL     1       0.439   7.384 -10.960  1.00  0.00     0.000 C 
BRANCH  10  11
ATOM     11  C   UNL     1       0.421   6.777  -9.547  1.00  0.00     0.000 C 
BRANCH  11  12
ATOM     12  C   UNL     1       0.264   7.837  -8.441  1.00  0.00     0.006 C 
BRANCH  12  13
ATOM     13  C   UNL     1       1.258   7.628  -7.290  1.00  0.00     0.053 C 
BRANCH  13  14
ATOM     14  C   UNL     1       0.656   6.833  -6.172  1.00  0.00     0.041 C 
ATOM     15  O   UNL     1       1.374   6.441  -5.213  1.00  0.00    -0.550 OA
ATOM     16  O   UNL     1      -0.709   6.573  -6.160  1.00  0.00    -0.550 OA
ENDBRANCH  13  14
ENDBRANCH  12  13
ENDBRANCH  11  12
ENDBRANCH  10  11
ENDBRANCH   9  10
ENDBRANCH   8   9
ENDBRANCH   7   8
ENDBRANCH   6   7
ENDBRANCH   5   6
ENDBRANCH   4   5
ENDBRANCH   3   4
ENDBRANCH   2   3
ENDBRANCH   1   2
BRANCH   1  17
ATOM     17  C   UNL     1      -1.841  12.354 -10.338  1.00  0.00     0.000 C 
BRANCH  17  18
ATOM     18  C   UNL     1      -3.117  11.968 -11.110  1.00  0.00     0.000 C 
BRANCH  18  19
ATOM     19  C   UNL     1      -3.018  10.668 -11.934  1.00  0.00     0.000 C 
BRANCH  19  20
ATOM     20  C   UNL     1      -4.103  10.558 -13.017  1.00  0.00     0.000 C 
BRANCH  20  21
ATOM     21  C   UNL     1      -5.251   9.625 -12.602  1.00  0.00     0.000 C 
BRANCH  21  22
ATOM     22  C   UNL     1      -6.367  10.362 -11.837  1.00  0.00    -0.000 C 
BRANCH  22  23
ATOM     23  C   UNL     1      -6.919   9.532 -10.667  1.00  0.00    -0.000 C 
BRANCH  23  24
ATOM     24  C   UNL     1      -5.914   8.482 -10.162  1.00  0.00    -0.000 C 
BRANCH  24  25
ATOM     25  C   UNL     1      -4.958   9.049  -9.091  1.00  0.00    -0.000 C 
BRANCH  25  26
ATOM     26  C   UNL     1      -3.558   8.405  -9.097  1.00  0.00    -0.000 C 
BRANCH  26  27
ATOM     27  C   UNL     1      -3.362   7.288 -10.137  1.00  0.00    -0.000 C 
BRANCH  27  28
ATOM     28  C   UNL     1      -3.060   5.897  -9.545  1.00  0.00    -0.000 C 
BRANCH  28  29
ATOM     29  C   UNL     1      -3.533   5.729  -8.085  1.00  0.00    -0.003 C 
ATOM     30  C   UNL     1      -4.987   5.263  -7.992  1.00  0.00     0.004 C 
ENDBRANCH  28  29
ENDBRANCH  27  28
ENDBRANCH  26  27
ENDBRANCH  25  26
ENDBRANCH  24  25
ENDBRANCH  23  24
ENDBRANCH  22  23
ENDBRANCH  21  22
ENDBRANCH  20  21
ENDBRANCH  19  20
ENDBRANCH  18  19
ENDBRANCH  17  18
ENDBRANCH   1  17
TORSDOF 26
ENDMDL
MODEL 3
REMARK VINA RESULT:    -2.217      2.072      4.652
REMARK INTER + INTRA:         -10.626
REMARK INTER:                  -4.969
REMARK INTRA:                  -5.657
REMARK UNBOUND:                -5.040
REMARK SMILES CCCCCCCCCCCCCCCCCCCCCCCCCCCC(=O)[O-]
REMARK SMILES IDX 15 1 16 2 17 3 18 4 19 5 20 6 21 7 22 8 23 9 24 10 25 11
REMARK SMILES IDX 26 12 27 13 28 14 29 15 30 16 14 17 13 18 12 19 11 20 10 21
REMARK SMILES IDX 9 22 8 23 7 24 6 25 5 26 4 27 3 28 2 29 1 30
REMARK H PARENT
REMARK Flexibility Score: inf
ROOT
ATOM      1  C   UNL     1      -2.696  12.080 -10.844  1.00  0.00     0.000 C 
ENDROOT
BRANCH   1   2
ATOM      2  C   UNL     1      -1.735  10.992 -10.342  1.00  0.00     0.000 C 
BRANCH   2   3
ATOM      3  C   UNL     1      -1.762  10.835  -8.810  1.00  0.00     0.000 C 
BRANCH   3   4
ATOM      4  C   UNL     1      -0.453  11.222  -8.093  1.00  0.00     0.000 C 
BRANCH   4   5
ATOM      5  C   UNL     1      -0.399  12.673  -7.581  1.00  0.00     0.000 C 
BRANCH   5   6
ATOM      6  C   UNL     1       1.022  13.117  -7.204  1.00  0.00     0.000 C 
BRANCH   6   7
ATOM      7  C   UNL     1       1.099  13.529  -5.726  1.00  0.00     0.000 C 
BRANCH   7   8
ATOM      8  C   UNL     1       2.050  12.641  -4.902  1.00  0.00     0.000 C 
BRANCH   8   9
ATOM      9  C   UNL     1       3.183  11.976  -5.707  1.00  0.00     0.000 C 
BRANCH   9  10
ATOM     10  C   UNL     1       3.207  10.446  -5.554  1.00  0.00     0.000 C 
BRANCH  10  11
ATOM     11  C   UNL     1       2.700   9.717  -6.810  1.00  0.00     0.000 C 
BRANCH  11  12
ATOM     12  C   UNL     1       3.649   8.598  -7.277  1.00  0.00     0.006 C 
BRANCH  12  13
ATOM     13  C   UNL     1       3.006   7.209  -7.167  1.00  0.00     0.053 C 
BRANCH  13  14
ATOM     14  C   UNL     1       3.299   6.562  -5.848  1.00  0.00     0.041 C 
ATOM     15  O   UNL     1       4.317   5.832  -5.710  1.00  0.00    -0.550 OA
ATOM     16  O   UNL     1       2.478   6.811  -4.755  1.00  0.00    -0.550 OA
ENDBRANCH  13  14
ENDBRANCH  12  13
ENDBRANCH  11  12
ENDBRANCH  10  11
ENDBRANCH   9  10
ENDBRANCH   8   9
ENDBRANCH   7   8
ENDBRANCH   6   7
ENDBRANCH   5   6
ENDBRANCH   4   5
ENDBRANCH   3   4
ENDBRANCH   2   3
ENDBRANCH   1   2
BRANCH   1  17
ATOM     17  C   UNL     1      -2.002  13.449 -10.890  1.00  0.00     0.000 C 
BRANCH  17  18
ATOM     18  C   UNL     1      -0.621  13.406 -11.572  1.00  0.00     0.000 C 
BRANCH  18  19
ATOM     19  C   UNL     1       0.493  14.190 -10.851  1.00  0.00     0.000 C 
BRANCH  19  20
ATOM     20  C   UNL     1       1.827  13.427 -10.796  1.00  0.00     0.000 C 
BRANCH  20  21
ATOM     21  C   UNL     1       1.660  11.934 -11.118  1.00  0.00     0.000 C 
BRANCH  21  22
ATOM     22  C   UNL     1       2.584  11.037 -10.272  1.00  0.00    -0.000 C 
BRANCH  22  23
ATOM     23  C   UNL     1       2.525   9.564 -10.707  1.00  0.00    -0.000 C 
BRANCH  23  24
ATOM     24  C   UNL     1       1.257   8.851 -10.206  1.00  0.00    -0.000 C 
BRANCH  24  25
ATOM     25  C   UNL     1       0.761   7.770 -11.190  1.00  0.00    -0.000 C 
BRANCH  25  26
ATOM     26  C   UNL     1      -0.710   7.361 -10.981  1.00  0.00    -0.000 C 
BRANCH  26  27
ATOM     27  C   UNL     1      -0.967   6.469  -9.754  1.00  0.00    -0.000 C 
BRANCH  27  28
ATOM     28  C   UNL     1      -1.687   7.170  -8.584  1.00  0.00    -0.000 C 
BRANCH  28  29
ATOM     29  C   UNL     1      -0.760   7.497  -7.393  1.00  0.00    -0.003 C 
ATOM     30  C   UNL     1      -0.522   6.287  -6.490  1.00  0.00     0.004 C 
ENDBRANCH  28  29
ENDBRANCH  27  28
ENDBRANCH  26  27
ENDBRANCH  25  26
ENDBRANCH  24  25
ENDBRANCH  23  24
ENDBRANCH  22  23
ENDBRANCH  21  22
ENDBRANCH  20  21
ENDBRANCH  19  20
ENDBRANCH  18  19
ENDBRANCH  17  18
ENDBRANCH   1  17
TORSDOF 26
ENDMDL
MODEL 4
REMARK VINA RESULT:    -2.208      2.090      5.654
REMARK INTER + INTRA:         -10.604
REMARK INTER:                  -4.807
REMARK INTRA:                  -5.798
REMARK UNBOUND:                -5.040
REMARK SMILES CCCCCCCCCCCCCCCCCCCCCCCCCCCC(=O)[O-]
REMARK SMILES IDX 15 1 16 2 17 3 18 4 19 5 20 6 21 7 22 8 23 9 24 10 25 11
REMARK SMILES IDX 26 12 27 13 28 14 29 15 30 16 14 17 13 18 12 19 11 20 10 21
REMARK SMILES IDX 9 22 8 23 7 24 6 25 5 26 4 27 3 28 2 29 1 30
REMARK H PARENT
REMARK Flexibility Score: inf
ROOT
ATOM      1  C   UNL     1       1.220   7.161  -8.274  1.00  0.00     0.000 C 
ENDROOT
BRANCH   1   2
ATOM      2  C   UNL     1       0.937   8.577  -8.797  1.00  0.00     0.000 C 
BRANCH   2   3
ATOM      3  C   UNL     1      -0.535   8.778  -9.202  1.00  0.00     0.000 C 
BRANCH   3   4
ATOM      4  C   UNL     1      -1.381   9.590  -8.201  1.00  0.00     0.000 C 
BRANCH   4   5
ATOM      5  C   UNL     1      -2.334  10.616  -8.839  1.00  0.00     0.000 C 
BRANCH   5   6
ATOM      6  C   UNL     1      -3.193  10.013  -9.960  1.00  0.00     0.000 C 
BRANCH   6   7
ATOM      7  C   UNL     1      -3.154  10.890 -11.220  1.00  0.00     0.000 C 
BRANCH   7   8
ATOM      8  C   UNL     1      -2.428  10.216 -12.400  1.00  0.00     0.000 C 
BRANCH   8   9
ATOM      9  C   UNL     1      -0.910  10.469 -12.461  1.00  0.00     0.000 C 
BRANCH   9  10
ATOM     10  C   UNL     1      -0.515  11.866 -11.951  1.00  0.00     0.000 C 
BRANCH  10  11
ATOM     11  C   UNL     1       0.576  11.815 -10.869  1.00  0.00     0.000 C 
BRANCH  11  12
ATOM     12  C   UNL     1       0.289  12.754  -9.683  1.00  0.00     0.006 C 
BRANCH  12  13
ATOM     13  C   UNL     1       1.242  12.510  -8.505  1.00  0.00     0.053 C 
BRANCH  13  14
ATOM     14  C   UNL     1       0.607  12.859  -7.193  1.00  0.00     0.041 C 
ATOM     15  O   UNL     1      -0.575  13.294  -7.154  1.00  0.00    -0.550 OA
ATOM     16  O   UNL     1       1.302  12.650  -6.008  1.00  0.00    -0.550 OA
ENDBRANCH  13  14
ENDBRANCH  12  13
ENDBRANCH  11  12
ENDBRANCH  10  11
ENDBRANCH   9  10
ENDBRANCH   8   9
ENDBRANCH   7   8
ENDBRANCH   6   7
ENDBRANCH   5   6
ENDBRANCH   4   5
ENDBRANCH   3   4
ENDBRANCH   2   3
ENDBRANCH   1   2
BRANCH   1  17
ATOM     17  C   UNL     1       1.004   7.082  -6.755  1.00  0.00     0.000 C 
BRANCH  17  18
ATOM     18  C   UNL     1      -0.196   6.201  -6.359  1.00  0.00     0.000 C 
BRANCH  18  19
ATOM     19  C   UNL     1      -0.856   5.429  -7.519  1.00  0.00     0.000 C 
BRANCH  19  20
ATOM     20  C   UNL     1      -2.300   5.878  -7.796  1.00  0.00     0.000 C 
BRANCH  20  21
ATOM     21  C   UNL     1      -2.845   5.309  -9.116  1.00  0.00     0.000 C 
BRANCH  21  22
ATOM     22  C   UNL     1      -3.495   6.388 -10.004  1.00  0.00    -0.000 C 
BRANCH  22  23
ATOM     23  C   UNL     1      -2.710   6.625 -11.304  1.00  0.00    -0.000 C 
BRANCH  23  24
ATOM     24  C   UNL     1      -3.620   6.661 -12.544  1.00  0.00    -0.000 C 
BRANCH  24  25
ATOM     25  C   UNL     1      -5.109   6.839 -12.177  1.00  0.00    -0.000 C 
BRANCH  25  26
ATOM     26  C   UNL     1      -5.604   8.296 -12.261  1.00  0.00    -0.000 C 
BRANCH  26  27
ATOM     27  C   UNL     1      -6.891   8.592 -11.472  1.00  0.00    -0.000 C 
BRANCH  27  28
ATOM     28  C   UNL     1      -6.666   9.102 -10.034  1.00  0.00    -0.000 C 
BRANCH  28  29
ATOM     29  C   UNL     1      -6.697   7.985  -8.968  1.00  0.00    -0.003 C 
ATOM     30  C   UNL     1      -5.721   8.247  -7.821  1.00  0.00     0.004 C 
ENDBRANCH  28  29
ENDBRANCH  27  28
ENDBRANCH  26  27
ENDBRANCH  25  26
ENDBRANCH  24  25
ENDBRANCH  23  24
ENDBRANCH  22  23
ENDBRANCH  21  22
ENDBRANCH  20  21
ENDBRANCH  19  20
ENDBRANCH  18  19
ENDBRANCH  17  18
ENDBRANCH   1  17
TORSDOF 26
ENDMDL
MODEL 5
REMARK VINA RESULT:    -2.208      2.753      7.730
REMARK INTER + INTRA:         -10.603
REMARK INTER:                  -4.612
REMARK INTRA:                  -5.991
REMARK UNBOUND:                -5.040
REMARK SMILES CCCCCCCCCCCCCCCCCCCCCCCCCCCC(=O)[O-]
REMARK SMILES IDX 15 1 16 2 17 3 18 4 19 5 20 6 21 7 22 8 23 9 24 10 25 11
REMARK SMILES IDX 26 12 27 13 28 14 29 15 30 16 14 17 13 18 12 19 11 20 10 21
REMARK SMILES IDX 9 22 8 23 7 24 6 25 5 26 4 27 3 28 2 29 1 30
REMARK H PARENT
REMARK Flexibility Score: inf
ROOT
ATOM      1  C   UNL     1      -0.227   7.928  -7.677  1.00  0.00     0.000 C 
ENDROOT
BRANCH   1   2
ATOM      2  C   UNL     1       0.483   7.254  -8.861  1.00  0.00     0.000 C 
BRANCH   2   3
ATOM      3  C   UNL     1       0.098   7.874 -10.217  1.00  0.00     0.000 C 
BRANCH   3   4
ATOM      4  C   UNL     1      -0.912   7.055 -11.046  1.00  0.00     0.000 C 
BRANCH   4   5
ATOM      5  C   UNL     1      -1.309   5.701 -10.431  1.00  0.00     0.000 C 
BRANCH   5   6
ATOM      6  C   UNL     1      -2.744   5.693  -9.887  1.00  0.00     0.000 C 
BRANCH   6   7
ATOM      7  C   UNL     1      -3.445   7.034 -10.154  1.00  0.00     0.000 C 
BRANCH   7   8
ATOM      8  C   UNL     1      -3.944   7.720  -8.868  1.00  0.00     0.000 C 
BRANCH   8   9
ATOM      9  C   UNL     1      -3.568   9.207  -8.734  1.00  0.00     0.000 C 
BRANCH   9  10
ATOM     10  C   UNL     1      -3.393   9.905 -10.094  1.00  0.00     0.000 C 
BRANCH  10  11
ATOM     11  C   UNL     1      -2.107  10.744 -10.169  1.00  0.00     0.000 C 
BRANCH  11  12
ATOM     12  C   UNL     1      -1.690  11.325  -8.806  1.00  0.00     0.006 C 
BRANCH  12  13
ATOM     13  C   UNL     1      -0.169  11.502  -8.691  1.00  0.00     0.053 C 
BRANCH  13  14
ATOM     14  C   UNL     1       0.194  12.609  -7.748  1.00  0.00     0.041 C 
ATOM     15  O   UNL     1      -0.706  13.225  -7.115  1.00  0.00    -0.550 OA
ATOM     16  O   UNL     1       1.529  12.921  -7.524  1.00  0.00    -0.550 OA
ENDBRANCH  13  14
ENDBRANCH  12  13
ENDBRANCH  11  12
ENDBRANCH  10  11
ENDBRANCH   9  10
ENDBRANCH   8   9
ENDBRANCH   7   8
ENDBRANCH   6   7
ENDBRANCH   5   6
ENDBRANCH   4   5
ENDBRANCH   3   4
ENDBRANCH   2   3
ENDBRANCH   1   2
BRANCH   1  17
ATOM     17  C   UNL     1      -0.953   6.890  -6.808  1.00  0.00     0.000 C 
BRANCH  17  18
ATOM     18  C   UNL     1      -0.097   5.644  -6.511  1.00  0.00     0.000 C 
BRANCH  18  19
ATOM     19  C   UNL     1      -0.687   4.309  -7.007  1.00  0.00     0.000 C 
BRANCH  19  20
ATOM     20  C   UNL     1       0.320   3.465  -7.805  1.00  0.00     0.000 C 
BRANCH  20  21
ATOM     21  C   UNL     1       1.742   3.554  -7.230  1.00  0.00     0.000 C 
BRANCH  21  22
ATOM     22  C   UNL     1       2.816   3.718  -8.323  1.00  0.00    -0.000 C 
BRANCH  22  23
ATOM     23  C   UNL     1       2.233   4.264  -9.636  1.00  0.00    -0.000 C 
BRANCH  23  24
ATOM     24  C   UNL     1       3.145   5.314 -10.295  1.00  0.00    -0.000 C 
BRANCH  24  25
ATOM     25  C   UNL     1       4.188   5.888  -9.311  1.00  0.00    -0.000 C 
BRANCH  25  26
ATOM     26  C   UNL     1       4.176   7.426  -9.214  1.00  0.00    -0.000 C 
BRANCH  26  27
ATOM     27  C   UNL     1       3.902   7.986  -7.808  1.00  0.00    -0.000 C 
BRANCH  27  28
ATOM     28  C   UNL     1       3.410   6.946  -6.781  1.00  0.00    -0.000 C 
BRANCH  28  29
ATOM     29  C   UNL     1       4.455   6.605  -5.697  1.00  0.00    -0.003 C 
ATOM     30  C   UNL     1       4.173   7.315  -4.372  1.00  0.00     0.004 C 
ENDBRANCH  28  29
ENDBRANCH  27  28
ENDBRANCH  26  27
ENDBRANCH  25  26
ENDBRANCH  24  25
ENDBRANCH  23  24
ENDBRANCH  22  23
ENDBRANCH  21  22
ENDBRANCH  20  21
ENDBRANCH  19  20
ENDBRANCH  18  19
ENDBRANCH  17  18
ENDBRANCH   1  17
TORSDOF 26
ENDMDL
MODEL 6
REMARK VINA RESULT:    -2.197      2.848      6.700
REMARK INTER + INTRA:         -10.577
REMARK INTER:                  -5.372
REMARK INTRA:                  -5.205
REMARK UNBOUND:                -5.040
REMARK SMILES CCCCCCCCCCCCCCCCCCCCCCCCCCCC(=O)[O-]
REMARK SMILES IDX 15 1 16 2 17 3 18 4 19 5 20 6 21 7 22 8 23 9 24 10 25 11
REMARK SMILES IDX 26 12 27 13 28 14 29 15 30 16 14 17 13 18 12 19 11 20 10 21
REMARK SMILES IDX 9 22 8 23 7 24 6 25 5 26 4 27 3 28 2 29 1 30
REMARK H PARENT
REMARK Flexibility Score: inf
ROOT
ATOM      1  C   UNL     1      -0.645   5.098  -6.751  1.00  0.00     0.000 C 
ENDROOT
BRANCH   1   2
ATOM      2  C   UNL     1       0.051   6.338  -6.172  1.00  0.00     0.000 C 
BRANCH   2   3
ATOM      3  C   UNL     1       1.565   6.356  -6.452  1.00  0.00     0.000 C 
BRANCH   3   4
ATOM      4  C   UNL     1       2.151   7.744  -6.779  1.00  0.00     0.000 C 
BRANCH   4   5
ATOM      5  C   UNL     1       2.959   7.816  -8.087  1.00  0.00     0.000 C 
BRANCH   5   6
ATOM      6  C   UNL     1       2.525   6.758  -9.112  1.00  0.00     0.000 C 
BRANCH   6   7
ATOM      7  C   UNL     1       1.534   7.346 -10.128  1.00  0.00     0.000 C 
BRANCH   7   8
ATOM      8  C   UNL     1       0.139   6.698 -10.054  1.00  0.00     0.000 C 
BRANCH   8   9
ATOM      9  C   UNL     1      -1.041   7.688 -10.047  1.00  0.00     0.000 C 
BRANCH   9  10
ATOM     10  C   UNL     1      -1.212   8.406  -8.697  1.00  0.00     0.000 C 
BRANCH  10  11
ATOM     11  C   UNL     1      -1.111   9.935  -8.821  1.00  0.00     0.000 C 
BRANCH  11  12
ATOM     12  C   UNL     1       0.281  10.476  -8.448  1.00  0.00     0.006 C 
BRANCH  12  13
ATOM     13  C   UNL     1       0.519  11.891  -8.995  1.00  0.00     0.053 C 
BRANCH  13  14
ATOM     14  C   UNL     1      -0.557  12.842  -8.567  1.00  0.00     0.041 C 
ATOM     15  O   UNL     1      -0.621  13.233  -7.371  1.00  0.00    -0.550 OA
ATOM     16  O   UNL     1      -1.454  13.342  -9.503  1.00  0.00    -0.550 OA
ENDBRANCH  13  14
ENDBRANCH  12  13
ENDBRANCH  11  12
ENDBRANCH  10  11
ENDBRANCH   9  10
ENDBRANCH   8   9
ENDBRANCH   7   8
ENDBRANCH   6   7
ENDBRANCH   5   6
ENDBRANCH   4   5
ENDBRANCH   3   4
ENDBRANCH   2   3
ENDBRANCH   1   2
BRANCH   1  17
ATOM     17  C   UNL     1       0.381   4.104  -7.315  1.00  0.00     0.000 C 
BRANCH  17  18
ATOM     18  C   UNL     1      -0.190   2.685  -7.504  1.00  0.00     0.000 C 
BRANCH  18  19
ATOM     19  C   UNL     1      -1.584   2.620  -8.158  1.00  0.00     0.000 C 
BRANCH  19  20
ATOM     20  C   UNL     1      -2.697   2.242  -7.166  1.00  0.00     0.000 C 
BRANCH  20  21
ATOM     21  C   UNL     1      -4.100   2.406  -7.772  1.00  0.00     0.000 C 
BRANCH  21  22
ATOM     22  C   UNL     1      -4.068   3.017  -9.186  1.00  0.00    -0.000 C 
BRANCH  22  23
ATOM     23  C   UNL     1      -4.696   4.419  -9.232  1.00  0.00    -0.000 C 
BRANCH  23  24
ATOM     24  C   UNL     1      -3.668   5.534  -8.976  1.00  0.00    -0.000 C 
BRANCH  24  25
ATOM     25  C   UNL     1      -3.977   6.338  -7.694  1.00  0.00    -0.000 C 
BRANCH  25  26
ATOM     26  C   UNL     1      -5.325   7.082  -7.733  1.00  0.00    -0.000 C 
BRANCH  26  27
ATOM     27  C   UNL     1      -5.257   8.523  -8.267  1.00  0.00    -0.000 C 
BRANCH  27  28
ATOM     28  C   UNL     1      -5.700   8.693  -9.734  1.00  0.00    -0.000 C 
BRANCH  28  29
ATOM     29  C   UNL     1      -4.524   8.784 -10.730  1.00  0.00    -0.003 C 
ATOM     30  C   UNL     1      -4.063  10.224 -10.957  1.00  0.00     0.004 C 
ENDBRANCH  28  29
ENDBRANCH  27  28
ENDBRANCH  26  27
ENDBRANCH  25  26
ENDBRANCH  24  25
ENDBRANCH  23  24
ENDBRANCH  22  23
ENDBRANCH  21  22
ENDBRANCH  20  21
ENDBRANCH  19  20
ENDBRANCH  18  19
ENDBRANCH  17  18
ENDBRANCH   1  17
TORSDOF 26
ENDMDL
MODEL 7
REMARK VINA RESULT:    -2.194      3.073      6.745
REMARK INTER + INTRA:         -10.569
REMARK INTER:                  -6.453
REMARK INTRA:                  -4.116
REMARK UNBOUND:                -5.040
REMARK SMILES CCCCCCCCCCCCCCCCCCCCCCCCCCCC(=O)[O-]
REMARK SMILES IDX 15 1 16 2 17 3 18 4 19 5 20 6 21 7 22 8 23 9 24 10 25 11
REMARK SMILES IDX 26 12 27 13 28 14 29 15 30 16 14 17 13 18 12 19 11 20 10 21
REMARK SMILES IDX 9 22 8 23 7 24 6 25 5 26 4 27 3 28 2 29 1 30
REMARK H PARENT
REMARK Flexibility Score: inf
ROOT
ATOM      1  C   UNL     1      -1.065  13.633 -10.957  1.00  0.00     0.000 C 
ENDROOT
BRANCH   1   2
ATOM      2  C   UNL     1      -2.378  12.882 -10.689  1.00  0.00     0.000 C 
BRANCH   2   3
ATOM      3  C   UNL     1      -2.526  11.616 -11.552  1.00  0.00     0.000 C 
BRANCH   3   4
ATOM      4  C   UNL     1      -2.364  10.285 -10.791  1.00  0.00     0.000 C 
BRANCH   4   5
ATOM      5  C   UNL     1      -3.129  10.203  -9.458  1.00  0.00     0.000 C 
BRANCH   5   6
ATOM      6  C   UNL     1      -4.395   9.340  -9.551  1.00  0.00     0.000 C 
BRANCH   6   7
ATOM      7  C   UNL     1      -4.302   8.118  -8.625  1.00  0.00     0.000 C 
BRANCH   7   8
ATOM      8  C   UNL     1      -3.949   6.819  -9.374  1.00  0.00     0.000 C 
BRANCH   8   9
ATOM      9  C   UNL     1      -2.517   6.303  -9.145  1.00  0.00     0.000 C 
BRANCH   9  10
ATOM     10  C   UNL     1      -1.581   6.585 -10.333  1.00  0.00     0.000 C 
BRANCH  10  11
ATOM     11  C   UNL     1      -0.220   7.149  -9.894  1.00  0.00     0.000 C 
BRANCH  11  12
ATOM     12  C   UNL     1      -0.312   8.027  -8.633  1.00  0.00     0.006 C 
BRANCH  12  13
ATOM     13  C   UNL     1       0.769   7.676  -7.601  1.00  0.00     0.053 C 
BRANCH  13  14
ATOM     14  C   UNL     1       0.295   6.639  -6.628  1.00  0.00     0.041 C 
ATOM     15  O   UNL     1      -0.812   6.777  -6.042  1.00  0.00    -0.550 OA
ATOM     16  O   UNL     1       1.050   5.494  -6.411  1.00  0.00    -0.550 OA
ENDBRANCH  13  14
ENDBRANCH  12  13
ENDBRANCH  11  12
ENDBRANCH  10  11
ENDBRANCH   9  10
ENDBRANCH   8   9
ENDBRANCH   7   8
ENDBRANCH   6   7
ENDBRANCH   5   6
ENDBRANCH   4   5
ENDBRANCH   3   4
ENDBRANCH   2   3
ENDBRANCH   1   2
BRANCH   1  17
ATOM     17  C   UNL     1      -0.162  13.622  -9.715  1.00  0.00     0.000 C 
BRANCH  17  18
ATOM     18  C   UNL     1      -0.788  12.882  -8.517  1.00  0.00     0.000 C 
BRANCH  18  19
ATOM     19  C   UNL     1      -0.052  11.600  -8.079  1.00  0.00     0.000 C 
BRANCH  19  20
ATOM     20  C   UNL     1       1.329  11.443  -8.737  1.00  0.00     0.000 C 
BRANCH  20  21
ATOM     21  C   UNL     1       2.468  11.428  -7.706  1.00  0.00     0.000 C 
BRANCH  21  22
ATOM     22  C   UNL     1       2.952  12.843  -7.335  1.00  0.00    -0.000 C 
BRANCH  22  23
ATOM     23  C   UNL     1       2.620  13.211  -5.880  1.00  0.00    -0.000 C 
BRANCH  23  24
ATOM     24  C   UNL     1       1.630  14.384  -5.780  1.00  0.00    -0.000 C 
BRANCH  24  25
ATOM     25  C   UNL     1       0.236  13.939  -5.288  1.00  0.00    -0.000 C 
BRANCH  25  26
ATOM     26  C   UNL     1       0.252  13.231  -3.919  1.00  0.00    -0.000 C 
BRANCH  26  27
ATOM     27  C   UNL     1      -0.890  13.629  -2.969  1.00  0.00    -0.000 C 
BRANCH  27  28
ATOM     28  C   UNL     1      -0.595  14.851  -2.076  1.00  0.00    -0.000 C 
BRANCH  28  29
ATOM     29  C   UNL     1      -1.805  15.310  -1.235  1.00  0.00    -0.003 C 
ATOM     30  C   UNL     1      -2.264  16.723  -1.597  1.00  0.00     0.004 C 
ENDBRANCH  28  29
ENDBRANCH  27  28
ENDBRANCH  26  27
ENDBRANCH  25  26
ENDBRANCH  24  25
ENDBRANCH  23  24
ENDBRANCH  22  23
ENDBRANCH  21  22
ENDBRANCH  20  21
ENDBRANCH  19  20
ENDBRANCH  18  19
ENDBRANCH  17  18
ENDBRANCH   1  17
TORSDOF 26
ENDMDL
MODEL 8
REMARK VINA RESULT:    -2.174      7.888     11.170
REMARK INTER + INTRA:         -10.518
REMARK INTER:                  -5.200
REMARK INTRA:                  -5.318
REMARK UNBOUND:                -5.040
REMARK SMILES CCCCCCCCCCCCCCCCCCCCCCCCCCCC(=O)[O-]
REMARK SMILES IDX 15 1 16 2 17 3 18 4 19 5 20 6 21 7 22 8 23 9 24 10 25 11
REMARK SMILES IDX 26 12 27 13 28 14 29 15 30 16 14 17 13 18 12 19 11 20 10 21
REMARK SMILES IDX 9 22 8 23 7 24 6 25 5 26 4 27 3 28 2 29 1 30
REMARK H PARENT
REMARK Flexibility Score: inf
ROOT
ATOM      1  C   UNL     1       3.408  12.945  -3.164  1.00  0.00     0.000 C 
ENDROOT
BRANCH   1   2
ATOM      2  C   UNL     1       2.407  12.131  -3.998  1.00  0.00     0.000 C 
BRANCH   2   3
ATOM      3  C   UNL     1       1.704  12.976  -5.076  1.00  0.00     0.000 C 
BRANCH   3   4
ATOM      4  C   UNL     1       0.213  13.265  -4.809  1.00  0.00     0.000 C 
BRANCH   4   5
ATOM      5  C   UNL     1      -0.060  14.452  -3.869  1.00  0.00     0.000 C 
BRANCH   5   6
ATOM      6  C   UNL     1       0.839  15.661  -4.162  1.00  0.00     0.000 C 
BRANCH   6   7
ATOM      7  C   UNL     1       1.469  16.209  -2.873  1.00  0.00     0.000 C 
BRANCH   7   8
ATOM      8  C   UNL     1       0.438  16.444  -1.752  1.00  0.00     0.000 C 
BRANCH   8   9
ATOM      9  C   UNL     1      -0.528  17.620  -1.990  1.00  0.00     0.000 C 
BRANCH   9  10
ATOM     10  C   UNL     1      -1.985  17.279  -1.635  1.00  0.00     0.000 C 
BRANCH  10  11
ATOM     11  C   UNL     1      -2.192  15.781  -1.357  1.00  0.00     0.000 C 
BRANCH  11  12
ATOM     12  C   UNL     1      -3.100  15.516  -0.143  1.00  0.00     0.006 C 
BRANCH  12  13
ATOM     13  C   UNL     1      -4.408  14.816  -0.537  1.00  0.00     0.053 C 
BRANCH  13  14
ATOM     14  C   UNL     1      -5.385  15.768  -1.158  1.00  0.00     0.041 C 
ATOM     15  O   UNL     1      -6.131  15.387  -2.099  1.00  0.00    -0.550 OA
ATOM     16  O   UNL     1      -5.511  17.058  -0.659  1.00  0.00    -0.550 OA
ENDBRANCH  13  14
ENDBRANCH  12  13
ENDBRANCH  11  12
ENDBRANCH  10  11
ENDBRANCH   9  10
ENDBRANCH   8   9
ENDBRANCH   7   8
ENDBRANCH   6   7
ENDBRANCH   5   6
ENDBRANCH   4   5
ENDBRANCH   3   4
ENDBRANCH   2   3
ENDBRANCH   1   2
BRANCH   1  17
ATOM     17  C   UNL     1       2.926  13.090  -1.713  1.00  0.00     0.000 C 
BRANCH  17  18
ATOM     18  C   UNL     1       1.612  12.335  -1.432  1.00  0.00     0.000 C 
BRANCH  18  19
ATOM     19  C   UNL     1       0.621  13.065  -0.505  1.00  0.00     0.000 C 
BRANCH  19  20
ATOM     20  C   UNL     1      -0.805  12.495  -0.581  1.00  0.00     0.000 C 
BRANCH  20  21
ATOM     21  C   UNL     1      -1.439  12.322   0.808  1.00  0.00     0.000 C 
BRANCH  21  22
ATOM     22  C   UNL     1      -2.694  11.428   0.781  1.00  0.00    -0.000 C 
BRANCH  22  23
ATOM     23  C   UNL     1      -2.354   9.953   0.512  1.00  0.00    -0.000 C 
BRANCH  23  24
ATOM     24  C   UNL     1      -1.441   9.351   1.595  1.00  0.00    -0.000 C 
BRANCH  24  25
ATOM     25  C   UNL     1      -0.319   8.475   0.998  1.00  0.00    -0.000 C 
BRANCH  25  26
ATOM     26  C   UNL     1       0.930   9.266   0.564  1.00  0.00    -0.000 C 
BRANCH  26  27
ATOM     27  C   UNL     1       1.500  10.217   1.631  1.00  0.00    -0.000 C 
BRANCH  27  28
ATOM     28  C   UNL     1       2.996  10.015   1.945  1.00  0.00    -0.000 C 
BRANCH  28  29
ATOM     29  C   UNL     1       3.931  10.929   1.124  1.00  0.00    -0.003 C 
ATOM     30  C   UNL     1       4.543  10.208  -0.077  1.00  0.00     0.004 C 
ENDBRANCH  28  29
ENDBRANCH  27  28
ENDBRANCH  26  27
ENDBRANCH  25  26
ENDBRANCH  24  25
ENDBRANCH  23  24
ENDBRANCH  22  23
ENDBRANCH  21  22
ENDBRANCH  20  21
ENDBRANCH  19  20
ENDBRANCH  18  19
ENDBRANCH  17  18
ENDBRANCH   1  17
TORSDOF 26
ENDMDL
MODEL 9
REMARK VINA RESULT:    -2.146      8.812     12.058
REMARK INTER + INTRA:         -10.447
REMARK INTER:                  -4.281
REMARK INTRA:                  -6.167
REMARK UNBOUND:                -5.040
REMARK SMILES CCCCCCCCCCCCCCCCCCCCCCCCCCCC(=O)[O-]
REMARK SMILES IDX 15 1 16 2 17 3 18 4 19 5 20 6 21 7 22 8 23 9 24 10 25 11
REMARK SMILES IDX 26 12 27 13 28 14 29 15 30 16 14 17 13 18 12 19 11 20 10 21
REMARK SMILES IDX 9 22 8 23 7 24 6 25 5 26 4 27 3 28 2 29 1 30
REMARK H PARENT
REMARK Flexibility Score: inf
ROOT
ATOM      1  C   UNL     1       0.808  13.536   0.498  1.00  0.00     0.000 C 
ENDROOT
BRANCH   1   2
ATOM      2  C   UNL     1       2.294  13.716   0.155  1.00  0.00     0.000 C 
BRANCH   2   3
ATOM      3  C   UNL     1       2.664  13.123  -1.216  1.00  0.00     0.000 C 
BRANCH   3   4
ATOM      4  C   UNL     1       1.504  12.438  -1.966  1.00  0.00     0.000 C 
BRANCH   4   5
ATOM      5  C   UNL     1       1.347  12.855  -3.439  1.00  0.00     0.000 C 
BRANCH   5   6
ATOM      6  C   UNL     1       0.009  13.551  -3.721  1.00  0.00     0.000 C 
BRANCH   6   7
ATOM      7  C   UNL     1      -0.020  14.962  -3.114  1.00  0.00     0.000 C 
BRANCH   7   8
ATOM      8  C   UNL     1      -1.143  15.149  -2.077  1.00  0.00     0.000 C 
BRANCH   8   9
ATOM      9  C   UNL     1      -2.025  13.909  -1.839  1.00  0.00     0.000 C 
BRANCH   9  10
ATOM     10  C   UNL     1      -2.789  13.966  -0.506  1.00  0.00     0.000 C 
BRANCH  10  11
ATOM     11  C   UNL     1      -2.807  12.613   0.226  1.00  0.00     0.000 C 
BRANCH  11  12
ATOM     12  C   UNL     1      -4.065  12.416   1.091  1.00  0.00     0.006 C 
BRANCH  12  13
ATOM     13  C   UNL     1      -3.848  11.383   2.205  1.00  0.00     0.053 C 
BRANCH  13  14
ATOM     14  C   UNL     1      -4.850  10.271   2.138  1.00  0.00     0.041 C 
ATOM     15  O   UNL     1      -5.722  10.146   3.039  1.00  0.00    -0.550 OA
ATOM     16  O   UNL     1      -4.855   9.406   1.051  1.00  0.00    -0.550 OA
ENDBRANCH  13  14
ENDBRANCH  12  13
ENDBRANCH  11  12
ENDBRANCH  10  11
ENDBRANCH   9  10
ENDBRANCH   8   9
ENDBRANCH   7   8
ENDBRANCH   6   7
ENDBRANCH   5   6
ENDBRANCH   4   5
ENDBRANCH   3   4
ENDBRANCH   2   3
ENDBRANCH   1   2
BRANCH   1  17
ATOM     17  C   UNL     1       0.308  14.676   1.397  1.00  0.00     0.000 C 
BRANCH  17  18
ATOM     18  C   UNL     1       0.113  14.250   2.865  1.00  0.00     0.000 C 
BRANCH  18  19
ATOM     19  C   UNL     1      -0.512  12.855   3.066  1.00  0.00     0.000 C 
BRANCH  19  20
ATOM     20  C   UNL     1       0.403  11.891   3.839  1.00  0.00     0.000 C 
BRANCH  20  21
ATOM     21  C   UNL     1       1.861  12.374   3.877  1.00  0.00     0.000 C 
BRANCH  21  22
ATOM     22  C   UNL     1       2.843  11.344   3.289  1.00  0.00    -0.000 C 
BRANCH  22  23
ATOM     23  C   UNL     1       2.121  10.184   2.585  1.00  0.00    -0.000 C 
BRANCH  23  24
ATOM     24  C   UNL     1       2.420  10.132   1.076  1.00  0.00    -0.000 C 
BRANCH  24  25
ATOM     25  C   UNL     1       1.263   9.507   0.267  1.00  0.00    -0.000 C 
BRANCH  25  26
ATOM     26  C   UNL     1      -0.108  10.160   0.531  1.00  0.00    -0.000 C 
BRANCH  26  27
ATOM     27  C   UNL     1      -1.249   9.174   0.832  1.00  0.00    -0.000 C 
BRANCH  27  28
ATOM     28  C   UNL     1      -0.944   8.148   1.942  1.00  0.00    -0.000 C 
BRANCH  28  29
ATOM     29  C   UNL     1      -2.029   8.079   3.038  1.00  0.00    -0.003 C 
ATOM     30  C   UNL     1      -1.713   8.984   4.229  1.00  0.00     0.004 C 
ENDBRANCH  28  29
ENDBRANCH  27  28
ENDBRANCH  26  27
ENDBRANCH  25  26
ENDBRANCH  24  25
ENDBRANCH  23  24
ENDBRANCH  22  23
ENDBRANCH  21  22
ENDBRANCH  20  21
ENDBRANCH  19  20
ENDBRANCH  18  19
ENDBRANCH  17  18
ENDBRANCH   1  17
TORSDOF 26
ENDMDL
