MODEL 1
REMARK VINA RESULT:    -7.186      0.000      0.000
REMARK INTER + INTRA:         -11.095
REMARK INTER:                  -9.916
REMARK INTRA:                  -1.179
REMARK UNBOUND:                -1.179
REMARK SMILES O=c1c(O[C@@H]2OC(CO)[C@H](O)[C@@H](O)[C@H]2O)c(-c2ccc(O)c(O)c2)oc2cc(O)cc(O)c12
REMARK SMILES IDX 4 1 3 2 16 3 25 4 2 5 26 6 1 7 33 8 27 9 31 10 28 11 30 12
REMARK SMILES IDX 17 13 20 14 19 15 22 16 18 17 24 18 21 19 23 21 32 23 29 25
REMARK SMILES IDX 5 27 14 28 6 29 12 30 7 31 10 32 15 33 13 35 8 37 9 38 11 40
REMARK H PARENT 21 20 23 22 32 24 29 26 15 34 13 36 9 39 11 41
REMARK Flexibility Score: inf
ROOT
ATOM      1  O   UNL     1      -9.368  34.196   7.484  1.00  0.00    -0.454 OA
ENDROOT
BRANCH   1   2
ATOM      2  C   UNL     1     -10.145  35.095   8.185  1.00  0.00     0.214 A 
ATOM      3  C   UNL     1     -10.937  34.801   9.227  1.00  0.00     0.180 A 
ATOM      4  O   UNL     1     -11.622  35.808   9.787  1.00  0.00    -0.452 OA
ATOM      5  C   UNL     1     -10.072  36.441   7.739  1.00  0.00     0.239 A 
ATOM      6  C   UNL     1     -11.607  37.039   9.439  1.00  0.00     0.146 A 
ATOM      7  O   UNL     1      -9.346  36.764   6.774  1.00  0.00    -0.285 OA
ATOM      8  C   UNL     1     -10.810  37.395   8.379  1.00  0.00     0.111 A 
ATOM      9  C   UNL     1     -12.378  38.001  10.117  1.00  0.00     0.094 A 
ATOM     10  C   UNL     1     -10.770  38.731   7.977  1.00  0.00     0.134 A 
ATOM     11  C   UNL     1     -12.341  39.301   9.725  1.00  0.00     0.123 A 
ATOM     12  C   UNL     1     -11.533  39.637   8.662  1.00  0.00     0.093 A 
BRANCH   3  13
ATOM     13  C   UNL     1     -11.175  33.504   9.846  1.00  0.00     0.025 A 
ATOM     14  C   UNL     1     -11.901  30.984  10.936  1.00  0.00     0.157 A 
ATOM     15  C   UNL     1     -12.572  31.508   9.847  1.00  0.00     0.051 A 
ATOM     16  C   UNL     1     -10.882  31.732  11.456  1.00  0.00     0.158 A 
ATOM     17  C   UNL     1     -12.220  32.729   9.322  1.00  0.00     0.016 A 
ATOM     18  C   UNL     1     -10.531  32.961  10.920  1.00  0.00     0.062 A 
BRANCH  14  19
ATOM     19  O   UNL     1     -12.269  29.742  11.460  1.00  0.00    -0.504 OA
ATOM     20  H   UNL     1     -11.858  29.396  12.319  1.00  0.00     0.293 HD
ENDBRANCH  14  19
BRANCH  16  21
ATOM     21  O   UNL     1     -10.186  31.212  12.568  1.00  0.00    -0.504 OA
ATOM     22  H   UNL     1     -10.260  31.831  13.391  1.00  0.00     0.293 HD
ENDBRANCH  16  21
ENDBRANCH   3  13
BRANCH  10  23
ATOM     23  O   UNL     1      -9.958  39.088   6.901  1.00  0.00    -0.507 OA
ATOM     24  H   UNL     1      -9.529  40.032   6.884  1.00  0.00     0.293 HD
ENDBRANCH  10  23
BRANCH  11  25
ATOM     25  O   UNL     1     -13.125  40.209  10.426  1.00  0.00    -0.508 OA
ATOM     26  H   UNL     1     -12.935  40.436  11.397  1.00  0.00     0.293 HD
ENDBRANCH  11  25
ENDBRANCH   1   2
BRANCH   1  27
ATOM     27  C   UNL     1      -9.611  33.478   6.373  1.00  0.00     0.339 C 
ATOM     28  C   UNL     1      -8.597  33.727   5.220  1.00  0.00     0.214 C 
ATOM     29  O   UNL     1      -9.702  32.015   6.922  1.00  0.00    -0.332 OA
ATOM     30  C   UNL     1      -7.268  33.539   6.134  1.00  0.00     0.180 C 
ATOM     31  C   UNL     1      -8.436  32.000   6.786  1.00  0.00     0.179 C 
ATOM     32  C   UNL     1      -7.116  31.984   6.645  1.00  0.00     0.177 C 
BRANCH  28  33
ATOM     33  O   UNL     1      -8.620  32.838   4.235  1.00  0.00    -0.384 OA
ATOM     34  H   UNL     1      -9.542  32.618   3.942  1.00  0.00     0.211 HD
ENDBRANCH  28  33
BRANCH  30  35
ATOM     35  O   UNL     1      -6.185  33.850   5.403  1.00  0.00    -0.387 OA
ATOM     36  H   UNL     1      -6.314  33.840   4.418  1.00  0.00     0.211 HD
ENDBRANCH  30  35
BRANCH  31  37
ATOM     37  C   UNL     1      -8.638  30.269   6.294  1.00  0.00     0.191 C 
BRANCH  37  38
ATOM     38  O   UNL     1      -9.114  30.385   5.044  1.00  0.00    -0.394 OA
ATOM     39  H   UNL     1      -8.870  29.643   4.422  1.00  0.00     0.210 HD
ENDBRANCH  37  38
ENDBRANCH  31  37
BRANCH  32  40
ATOM     40  O   UNL     1      -6.195  32.129   7.662  1.00  0.00    -0.387 OA
ATOM     41  H   UNL     1      -6.001  33.080   7.872  1.00  0.00     0.211 HD
ENDBRANCH  32  40
ENDBRANCH   1  27
TORSDOF 12
ENDMDL
MODEL 2
REMARK VINA RESULT:    -6.592      1.955      3.668
REMARK INTER + INTRA:         -10.277
REMARK INTER:                  -9.241
REMARK INTRA:                  -1.036
REMARK UNBOUND:                -1.179
REMARK SMILES O=c1c(O[C@@H]2OC(CO)[C@H](O)[C@@H](O)[C@H]2O)c(-c2ccc(O)c(O)c2)oc2cc(O)cc(O)c12
REMARK SMILES IDX 4 1 3 2 16 3 25 4 2 5 26 6 1 7 33 8 27 9 31 10 28 11 30 12
REMARK SMILES IDX 17 13 20 14 19 15 22 16 18 17 24 18 21 19 23 21 32 23 29 25
REMARK SMILES IDX 5 27 14 28 6 29 12 30 7 31 10 32 15 33 13 35 8 37 9 38 11 40
REMARK H PARENT 21 20 23 22 32 24 29 26 15 34 13 36 9 39 11 41
REMARK Flexibility Score: inf
ROOT
ATOM      1  O   UNL     1      -8.972  31.710   6.295  1.00  0.00    -0.454 OA
ENDROOT
BRANCH   1   2
ATOM      2  C   UNL     1      -9.330  32.991   6.663  1.00  0.00     0.214 A 
ATOM      3  C   UNL     1     -10.173  33.315   7.655  1.00  0.00     0.180 A 
ATOM      4  O   UNL     1     -10.406  34.617   7.869  1.00  0.00    -0.452 OA
ATOM      5  C   UNL     1      -8.734  34.033   5.904  1.00  0.00     0.239 A 
ATOM      6  C   UNL     1      -9.908  35.606   7.228  1.00  0.00     0.146 A 
ATOM      7  O   UNL     1      -7.941  33.781   4.971  1.00  0.00    -0.285 OA
ATOM      8  C   UNL     1      -9.037  35.330   6.203  1.00  0.00     0.111 A 
ATOM      9  C   UNL     1     -10.237  36.933   7.557  1.00  0.00     0.094 A 
ATOM     10  C   UNL     1      -8.474  36.388   5.486  1.00  0.00     0.134 A 
ATOM     11  C   UNL     1      -9.691  37.962   6.859  1.00  0.00     0.123 A 
ATOM     12  C   UNL     1      -8.818  37.664   5.837  1.00  0.00     0.093 A 
BRANCH   3  13
ATOM     13  C   UNL     1     -10.902  32.425   8.550  1.00  0.00     0.025 A 
ATOM     14  C   UNL     1     -12.144  30.779  10.502  1.00  0.00     0.157 A 
ATOM     15  C   UNL     1     -11.384  31.872  10.873  1.00  0.00     0.051 A 
ATOM     16  C   UNL     1     -12.267  30.533   9.163  1.00  0.00     0.158 A 
ATOM     17  C   UNL     1     -10.782  32.667   9.926  1.00  0.00     0.016 A 
ATOM     18  C   UNL     1     -11.659  31.340   8.214  1.00  0.00     0.062 A 
BRANCH  14  19
ATOM     19  O   UNL     1     -12.751  29.979  11.475  1.00  0.00    -0.504 OA
ATOM     20  H   UNL     1     -12.918  28.994  11.309  1.00  0.00     0.293 HD
ENDBRANCH  14  19
BRANCH  16  21
ATOM     21  O   UNL     1     -13.039  29.421   8.767  1.00  0.00    -0.504 OA
ATOM     22  H   UNL     1     -12.509  28.785   8.150  1.00  0.00     0.293 HD
ENDBRANCH  16  21
ENDBRANCH   3  13
BRANCH  10  23
ATOM     23  O   UNL     1      -7.588  36.103   4.447  1.00  0.00    -0.507 OA
ATOM     24  H   UNL     1      -6.568  36.138   4.630  1.00  0.00     0.293 HD
ENDBRANCH  10  23
BRANCH  11  25
ATOM     25  O   UNL     1     -10.053  39.253   7.223  1.00  0.00    -0.508 OA
ATOM     26  H   UNL     1     -10.982  39.466   7.574  1.00  0.00     0.293 HD
ENDBRANCH  11  25
ENDBRANCH   1   2
BRANCH   1  27
ATOM     27  C   UNL     1      -8.332  30.733   6.959  1.00  0.00     0.339 C 
ATOM     28  C   UNL     1      -8.960  29.321   6.777  1.00  0.00     0.214 C 
ATOM     29  O   UNL     1      -6.850  30.907   6.486  1.00  0.00    -0.332 OA
ATOM     30  C   UNL     1      -9.044  29.395   5.157  1.00  0.00     0.180 C 
ATOM     31  C   UNL     1      -7.189  30.167   5.506  1.00  0.00     0.179 C 
ATOM     32  C   UNL     1      -7.543  29.396   4.485  1.00  0.00     0.177 C 
BRANCH  28  33
ATOM     33  O   UNL     1      -8.202  28.303   7.163  1.00  0.00    -0.384 OA
ATOM     34  H   UNL     1      -8.252  27.532   6.541  1.00  0.00     0.211 HD
ENDBRANCH  28  33
BRANCH  30  35
ATOM     35  O   UNL     1      -9.707  28.319   4.703  1.00  0.00    -0.387 OA
ATOM     36  H   UNL     1      -9.672  27.515   5.286  1.00  0.00     0.211 HD
ENDBRANCH  30  35
BRANCH  31  37
ATOM     37  C   UNL     1      -5.527  29.460   5.631  1.00  0.00     0.191 C 
BRANCH  37  38
ATOM     38  O   UNL     1      -5.712  28.458   6.505  1.00  0.00    -0.394 OA
ATOM     39  H   UNL     1      -6.660  28.285   6.767  1.00  0.00     0.210 HD
ENDBRANCH  37  38
ENDBRANCH  31  37
BRANCH  32  40
ATOM     40  O   UNL     1      -7.826  29.832   3.207  1.00  0.00    -0.387 OA
ATOM     41  H   UNL     1      -8.343  29.168   2.680  1.00  0.00     0.211 HD
ENDBRANCH  32  40
ENDBRANCH   1  27
TORSDOF 12
ENDMDL
MODEL 3
REMARK VINA RESULT:    -6.455     14.995     18.089
REMARK INTER + INTRA:         -10.087
REMARK INTER:                  -9.285
REMARK INTRA:                  -0.802
REMARK UNBOUND:                -1.179
REMARK SMILES O=c1c(O[C@@H]2OC(CO)[C@H](O)[C@@H](O)[C@H]2O)c(-c2ccc(O)c(O)c2)oc2cc(O)cc(O)c12
REMARK SMILES IDX 4 1 3 2 16 3 25 4 2 5 26 6 1 7 33 8 27 9 31 10 28 11 30 12
REMARK SMILES IDX 17 13 20 14 19 15 22 16 18 17 24 18 21 19 23 21 32 23 29 25
REMARK SMILES IDX 5 27 14 28 6 29 12 30 7 31 10 32 15 33 13 35 8 37 9 38 11 40
REMARK H PARENT 21 20 23 22 32 24 29 26 15 34 13 36 9 39 11 41
REMARK Flexibility Score: inf
ROOT
ATOM      1  O   UNL     1       0.789  44.205   1.253  1.00  0.00    -0.454 OA
ENDROOT
BRANCH   1   2
ATOM      2  C   UNL     1       1.418  44.788   2.334  1.00  0.00     0.214 A 
ATOM      3  C   UNL     1       2.647  45.326   2.330  1.00  0.00     0.180 A 
ATOM      4  O   UNL     1       3.097  45.849   3.479  1.00  0.00    -0.452 OA
ATOM      5  C   UNL     1       0.667  44.805   3.539  1.00  0.00     0.239 A 
ATOM      6  C   UNL     1       2.480  45.898   4.599  1.00  0.00     0.146 A 
ATOM      7  O   UNL     1      -0.483  44.318   3.591  1.00  0.00    -0.285 OA
ATOM      8  C   UNL     1       1.217  45.364   4.657  1.00  0.00     0.111 A 
ATOM      9  C   UNL     1       3.071  46.480   5.735  1.00  0.00     0.094 A 
ATOM     10  C   UNL     1       0.517  45.404   5.865  1.00  0.00     0.134 A 
ATOM     11  C   UNL     1       2.391  46.518   6.910  1.00  0.00     0.123 A 
ATOM     12  C   UNL     1       1.124  45.979   6.947  1.00  0.00     0.093 A 
BRANCH   3  13
ATOM     13  C   UNL     1       3.594  45.413   1.226  1.00  0.00     0.025 A 
ATOM     14  C   UNL     1       5.362  45.859  -0.950  1.00  0.00     0.157 A 
ATOM     15  C   UNL     1       4.894  46.912  -0.188  1.00  0.00     0.051 A 
ATOM     16  C   UNL     1       4.935  44.605  -0.608  1.00  0.00     0.158 A 
ATOM     17  C   UNL     1       4.036  46.694   0.865  1.00  0.00     0.016 A 
ATOM     18  C   UNL     1       4.073  44.394   0.455  1.00  0.00     0.062 A 
BRANCH  14  19
ATOM     19  O   UNL     1       6.234  46.093  -2.018  1.00  0.00    -0.504 OA
ATOM     20  H   UNL     1       6.417  45.376  -2.709  1.00  0.00     0.293 HD
ENDBRANCH  14  19
BRANCH  16  21
ATOM     21  O   UNL     1       5.404  43.519  -1.377  1.00  0.00    -0.504 OA
ATOM     22  H   UNL     1       4.940  42.635  -1.116  1.00  0.00     0.293 HD
ENDBRANCH  16  21
ENDBRANCH   3  13
BRANCH  10  23
ATOM     23  O   UNL     1      -0.768  44.862   5.918  1.00  0.00    -0.507 OA
ATOM     24  H   UNL     1      -1.115  44.478   6.816  1.00  0.00     0.293 HD
ENDBRANCH  10  23
BRANCH  11  25
ATOM     25  O   UNL     1       3.021  47.100   8.003  1.00  0.00    -0.508 OA
ATOM     26  H   UNL     1       2.596  47.099   8.925  1.00  0.00     0.293 HD
ENDBRANCH  11  25
ENDBRANCH   1   2
BRANCH   1  27
ATOM     27  C   UNL     1       0.572  42.919   0.929  1.00  0.00     0.339 C 
ATOM     28  C   UNL     1      -0.891  42.609   0.499  1.00  0.00     0.214 C 
ATOM     29  O   UNL     1       1.688  42.636  -0.130  1.00  0.00    -0.332 OA
ATOM     30  C   UNL     1      -1.005  43.830  -0.565  1.00  0.00     0.180 C 
ATOM     31  C   UNL     1       0.856  43.102  -0.974  1.00  0.00     0.179 C 
ATOM     32  C   UNL     1      -0.012  43.587  -1.853  1.00  0.00     0.177 C 
BRANCH  28  33
ATOM     33  O   UNL     1      -1.075  41.441  -0.103  1.00  0.00    -0.384 OA
ATOM     34  H   UNL     1      -1.218  41.534  -1.080  1.00  0.00     0.211 HD
ENDBRANCH  28  33
BRANCH  30  35
ATOM     35  O   UNL     1      -2.268  43.904  -1.015  1.00  0.00    -0.387 OA
ATOM     36  H   UNL     1      -2.368  44.026  -1.996  1.00  0.00     0.211 HD
ENDBRANCH  30  35
BRANCH  31  37
ATOM     37  C   UNL     1       1.502  41.849  -2.110  1.00  0.00     0.191 C 
BRANCH  37  38
ATOM     38  O   UNL     1       2.821  42.099  -2.084  1.00  0.00    -0.394 OA
ATOM     39  H   UNL     1       3.364  41.610  -2.765  1.00  0.00     0.210 HD
ENDBRANCH  37  38
ENDBRANCH  31  37
BRANCH  32  40
ATOM     40  O   UNL     1       0.021  44.853  -2.403  1.00  0.00    -0.387 OA
ATOM     41  H   UNL     1       0.916  45.093  -2.760  1.00  0.00     0.211 HD
ENDBRANCH  32  40
ENDBRANCH   1  27
TORSDOF 12
ENDMDL
MODEL 4
REMARK VINA RESULT:    -6.249      2.997      6.350
REMARK INTER + INTRA:          -9.803
REMARK INTER:                  -8.615
REMARK INTRA:                  -1.188
REMARK UNBOUND:                -1.179
REMARK SMILES O=c1c(O[C@@H]2OC(CO)[C@H](O)[C@@H](O)[C@H]2O)c(-c2ccc(O)c(O)c2)oc2cc(O)cc(O)c12
REMARK SMILES IDX 4 1 3 2 16 3 25 4 2 5 26 6 1 7 33 8 27 9 31 10 28 11 30 12
REMARK SMILES IDX 17 13 20 14 19 15 22 16 18 17 24 18 21 19 23 21 32 23 29 25
REMARK SMILES IDX 5 27 14 28 6 29 12 30 7 31 10 32 15 33 13 35 8 37 9 38 11 40
REMARK H PARENT 21 20 23 22 32 24 29 26 15 34 13 36 9 39 11 41
REMARK Flexibility Score: inf
ROOT
ATOM      1  O   UNL     1      -9.644  30.339   7.395  1.00  0.00    -0.454 OA
ENDROOT
BRANCH   1   2
ATOM      2  C   UNL     1      -9.153  31.513   6.859  1.00  0.00     0.214 A 
ATOM      3  C   UNL     1      -8.163  31.610   5.960  1.00  0.00     0.180 A 
ATOM      4  O   UNL     1      -7.817  32.839   5.551  1.00  0.00    -0.452 OA
ATOM      5  C   UNL     1      -9.776  32.702   7.323  1.00  0.00     0.239 A 
ATOM      6  C   UNL     1      -8.330  33.949   5.924  1.00  0.00     0.146 A 
ATOM      7  O   UNL     1     -10.704  32.662   8.159  1.00  0.00    -0.285 OA
ATOM      8  C   UNL     1      -9.349  33.906   6.843  1.00  0.00     0.111 A 
ATOM      9  C   UNL     1      -7.870  35.177   5.413  1.00  0.00     0.094 A 
ATOM     10  C   UNL     1      -9.932  35.102   7.268  1.00  0.00     0.134 A 
ATOM     11  C   UNL     1      -8.436  36.340   5.827  1.00  0.00     0.123 A 
ATOM     12  C   UNL     1      -9.459  36.275   6.747  1.00  0.00     0.093 A 
BRANCH   3  13
ATOM     13  C   UNL     1      -7.380  30.540   5.355  1.00  0.00     0.025 A 
ATOM     14  C   UNL     1      -6.097  28.367   4.052  1.00  0.00     0.157 A 
ATOM     15  C   UNL     1      -7.300  28.865   3.588  1.00  0.00     0.051 A 
ATOM     16  C   UNL     1      -5.562  28.967   5.158  1.00  0.00     0.158 A 
ATOM     17  C   UNL     1      -7.920  29.916   4.222  1.00  0.00     0.016 A 
ATOM     18  C   UNL     1      -6.192  30.027   5.790  1.00  0.00     0.062 A 
BRANCH  14  19
ATOM     19  O   UNL     1      -5.477  27.298   3.399  1.00  0.00    -0.504 OA
ATOM     20  H   UNL     1      -4.471  27.265   3.294  1.00  0.00     0.293 HD
ENDBRANCH  14  19
BRANCH  16  21
ATOM     21  O   UNL     1      -4.334  28.470   5.646  1.00  0.00    -0.504 OA
ATOM     22  H   UNL     1      -3.936  29.082   6.375  1.00  0.00     0.293 HD
ENDBRANCH  16  21
ENDBRANCH   3  13
BRANCH  10  23
ATOM     23  O   UNL     1     -10.968  35.053   8.200  1.00  0.00    -0.507 OA
ATOM     24  H   UNL     1     -11.929  34.836   7.876  1.00  0.00     0.293 HD
ENDBRANCH  10  23
BRANCH  11  25
ATOM     25  O   UNL     1      -7.942  37.524   5.294  1.00  0.00    -0.508 OA
ATOM     26  H   UNL     1      -8.318  38.427   5.566  1.00  0.00     0.293 HD
ENDBRANCH  11  25
ENDBRANCH   1   2
BRANCH   1  27
ATOM     27  C   UNL     1     -10.746  29.621   7.120  1.00  0.00     0.339 C 
ATOM     28  C   UNL     1     -10.515  28.461   6.109  1.00  0.00     0.214 C 
ATOM     29  O   UNL     1     -11.258  29.218   8.544  1.00  0.00    -0.332 OA
ATOM     30  C   UNL     1      -9.214  27.850   6.864  1.00  0.00     0.180 C 
ATOM     31  C   UNL     1     -10.457  28.233   8.435  1.00  0.00     0.179 C 
ATOM     32  C   UNL     1      -9.622  27.207   8.322  1.00  0.00     0.177 C 
BRANCH  28  33
ATOM     33  O   UNL     1     -11.486  27.560   6.040  1.00  0.00    -0.384 OA
ATOM     34  H   UNL     1     -11.348  26.906   5.308  1.00  0.00     0.211 HD
ENDBRANCH  28  33
BRANCH  30  35
ATOM     35  O   UNL     1      -8.685  26.875   6.107  1.00  0.00    -0.387 OA
ATOM     36  H   UNL     1      -7.732  26.660   6.290  1.00  0.00     0.211 HD
ENDBRANCH  30  35
BRANCH  31  37
ATOM     37  C   UNL     1     -11.719  27.276   9.312  1.00  0.00     0.191 C 
BRANCH  37  38
ATOM     38  O   UNL     1     -11.383  27.476  10.596  1.00  0.00    -0.394 OA
ATOM     39  H   UNL     1     -12.147  27.623  11.222  1.00  0.00     0.210 HD
ENDBRANCH  37  38
ENDBRANCH  31  37
BRANCH  32  40
ATOM     40  O   UNL     1      -8.384  27.106   8.922  1.00  0.00    -0.387 OA
ATOM     41  H   UNL     1      -8.444  26.941   9.900  1.00  0.00     0.211 HD
ENDBRANCH  32  40
ENDBRANCH   1  27
TORSDOF 12
ENDMDL
MODEL 5
REMARK VINA RESULT:    -6.225      2.083      3.602
REMARK INTER + INTRA:          -9.769
REMARK INTER:                  -9.150
REMARK INTRA:                  -0.619
REMARK UNBOUND:                -1.179
REMARK SMILES O=c1c(O[C@@H]2OC(CO)[C@H](O)[C@@H](O)[C@H]2O)c(-c2ccc(O)c(O)c2)oc2cc(O)cc(O)c12
REMARK SMILES IDX 4 1 3 2 16 3 25 4 2 5 26 6 1 7 33 8 27 9 31 10 28 11 30 12
REMARK SMILES IDX 17 13 20 14 19 15 22 16 18 17 24 18 21 19 23 21 32 23 29 25
REMARK SMILES IDX 5 27 14 28 6 29 12 30 7 31 10 32 15 33 13 35 8 37 9 38 11 40
REMARK H PARENT 21 20 23 22 32 24 29 26 15 34 13 36 9 39 11 41
REMARK Flexibility Score: inf
ROOT
ATOM      1  O   UNL     1      -9.032  31.154   6.872  1.00  0.00    -0.454 OA
ENDROOT
BRANCH   1   2
ATOM      2  C   UNL     1      -9.360  32.473   7.110  1.00  0.00     0.214 A 
ATOM      3  C   UNL     1     -10.200  32.913   8.058  1.00  0.00     0.180 A 
ATOM      4  O   UNL     1     -10.400  34.236   8.143  1.00  0.00    -0.452 OA
ATOM      5  C   UNL     1      -8.732  33.421   6.258  1.00  0.00     0.239 A 
ATOM      6  C   UNL     1      -9.873  35.145   7.412  1.00  0.00     0.146 A 
ATOM      7  O   UNL     1      -7.939  33.059   5.362  1.00  0.00    -0.285 OA
ATOM      8  C   UNL     1      -9.003  34.748   6.427  1.00  0.00     0.111 A 
ATOM      9  C   UNL     1     -10.170  36.505   7.608  1.00  0.00     0.094 A 
ATOM     10  C   UNL     1      -8.409  35.716   5.615  1.00  0.00     0.134 A 
ATOM     11  C   UNL     1      -9.593  37.448   6.818  1.00  0.00     0.123 A 
ATOM     12  C   UNL     1      -8.721  37.029   5.837  1.00  0.00     0.093 A 
BRANCH   3  13
ATOM     13  C   UNL     1     -10.958  32.134   9.029  1.00  0.00     0.025 A 
ATOM     14  C   UNL     1     -12.259  30.725  11.122  1.00  0.00     0.157 A 
ATOM     15  C   UNL     1     -11.499  31.848  11.387  1.00  0.00     0.051 A 
ATOM     16  C   UNL     1     -12.352  30.331   9.816  1.00  0.00     0.158 A 
ATOM     17  C   UNL     1     -10.868  32.528  10.372  1.00  0.00     0.016 A 
ATOM     18  C   UNL     1     -11.715  31.023   8.799  1.00  0.00     0.062 A 
BRANCH  14  19
ATOM     19  O   UNL     1     -12.895  30.042  12.163  1.00  0.00    -0.504 OA
ATOM     20  H   UNL     1     -12.745  29.051  12.305  1.00  0.00     0.293 HD
ENDBRANCH  14  19
BRANCH  16  21
ATOM     21  O   UNL     1     -13.125  29.186   9.529  1.00  0.00    -0.504 OA
ATOM     22  H   UNL     1     -13.838  29.011  10.255  1.00  0.00     0.293 HD
ENDBRANCH  16  21
ENDBRANCH   3  13
BRANCH  10  23
ATOM     23  O   UNL     1      -7.523  35.309   4.617  1.00  0.00    -0.507 OA
ATOM     24  H   UNL     1      -6.713  35.913   4.384  1.00  0.00     0.293 HD
ENDBRANCH  10  23
BRANCH  11  25
ATOM     25  O   UNL     1      -9.924  38.777   7.051  1.00  0.00    -0.508 OA
ATOM     26  H   UNL     1      -9.435  39.332   7.745  1.00  0.00     0.293 HD
ENDBRANCH  11  25
ENDBRANCH   1   2
BRANCH   1  27
ATOM     27  C   UNL     1      -9.769  30.107   6.464  1.00  0.00     0.339 C 
ATOM     28  C   UNL     1      -9.606  29.761   4.956  1.00  0.00     0.214 C 
ATOM     29  O   UNL     1      -9.375  28.989   7.486  1.00  0.00    -0.332 OA
ATOM     30  C   UNL     1      -7.982  29.760   4.970  1.00  0.00     0.180 C 
ATOM     31  C   UNL     1      -8.407  28.755   6.693  1.00  0.00     0.179 C 
ATOM     32  C   UNL     1      -7.398  28.511   5.866  1.00  0.00     0.177 C 
BRANCH  28  33
ATOM     33  O   UNL     1     -10.074  28.576   4.587  1.00  0.00    -0.384 OA
ATOM     34  H   UNL     1      -9.730  27.837   5.152  1.00  0.00     0.211 HD
ENDBRANCH  28  33
BRANCH  30  35
ATOM     35  O   UNL     1      -7.532  29.623   3.712  1.00  0.00    -0.387 OA
ATOM     36  H   UNL     1      -8.202  29.309   3.049  1.00  0.00     0.211 HD
ENDBRANCH  30  35
BRANCH  31  37
ATOM     37  C   UNL     1      -8.655  27.011   7.111  1.00  0.00     0.191 C 
BRANCH  37  38
ATOM     38  O   UNL     1      -7.898  26.875   8.212  1.00  0.00    -0.394 OA
ATOM     39  H   UNL     1      -6.926  27.066   8.091  1.00  0.00     0.210 HD
ENDBRANCH  37  38
ENDBRANCH  31  37
BRANCH  32  40
ATOM     40  O   UNL     1      -6.090  28.908   6.052  1.00  0.00    -0.387 OA
ATOM     41  H   UNL     1      -5.983  29.528   6.820  1.00  0.00     0.211 HD
ENDBRANCH  32  40
ENDBRANCH   1  27
TORSDOF 12
ENDMDL
MODEL 6
REMARK VINA RESULT:    -6.198      1.310      2.334
REMARK INTER + INTRA:          -9.732
REMARK INTER:                  -8.634
REMARK INTRA:                  -1.098
REMARK UNBOUND:                -1.179
REMARK SMILES O=c1c(O[C@@H]2OC(CO)[C@H](O)[C@@H](O)[C@H]2O)c(-c2ccc(O)c(O)c2)oc2cc(O)cc(O)c12
REMARK SMILES IDX 4 1 3 2 16 3 25 4 2 5 26 6 1 7 33 8 27 9 31 10 28 11 30 12
REMARK SMILES IDX 17 13 20 14 19 15 22 16 18 17 24 18 21 19 23 21 32 23 29 25
REMARK SMILES IDX 5 27 14 28 6 29 12 30 7 31 10 32 15 33 13 35 8 37 9 38 11 40
REMARK H PARENT 21 20 23 22 32 24 29 26 15 34 13 36 9 39 11 41
REMARK Flexibility Score: inf
ROOT
ATOM      1  O   UNL     1     -10.045  32.474   7.387  1.00  0.00    -0.454 OA
ENDROOT
BRANCH   1   2
ATOM      2  C   UNL     1     -10.467  33.628   8.014  1.00  0.00     0.214 A 
ATOM      3  C   UNL     1     -10.870  33.724   9.290  1.00  0.00     0.180 A 
ATOM      4  O   UNL     1     -11.248  34.932   9.730  1.00  0.00    -0.452 OA
ATOM      5  C   UNL     1     -10.460  34.797   7.208  1.00  0.00     0.239 A 
ATOM      6  C   UNL     1     -11.269  36.024   9.064  1.00  0.00     0.146 A 
ATOM      7  O   UNL     1     -10.091  34.758   6.015  1.00  0.00    -0.285 OA
ATOM      8  C   UNL     1     -10.864  35.982   7.753  1.00  0.00     0.111 A 
ATOM      9  C   UNL     1     -11.691  37.232   9.651  1.00  0.00     0.094 A 
ATOM     10  C   UNL     1     -10.873  37.158   7.000  1.00  0.00     0.134 A 
ATOM     11  C   UNL     1     -11.701  38.376   8.919  1.00  0.00     0.123 A 
ATOM     12  C   UNL     1     -11.288  38.312   7.606  1.00  0.00     0.093 A 
BRANCH   3  13
ATOM     13  C   UNL     1     -10.969  32.669  10.290  1.00  0.00     0.025 A 
ATOM     14  C   UNL     1     -11.441  30.600  12.176  1.00  0.00     0.157 A 
ATOM     15  C   UNL     1     -12.313  30.817  11.126  1.00  0.00     0.051 A 
ATOM     16  C   UNL     1     -10.353  31.423  12.261  1.00  0.00     0.158 A 
ATOM     17  C   UNL     1     -12.083  31.821  10.215  1.00  0.00     0.016 A 
ATOM     18  C   UNL     1     -10.127  32.431  11.338  1.00  0.00     0.062 A 
BRANCH  14  19
ATOM     19  O   UNL     1     -11.686  29.576  13.096  1.00  0.00    -0.504 OA
ATOM     20  H   UNL     1     -12.446  29.645  13.762  1.00  0.00     0.293 HD
ENDBRANCH  14  19
BRANCH  16  21
ATOM     21  O   UNL     1      -9.453  31.215  13.328  1.00  0.00    -0.504 OA
ATOM     22  H   UNL     1      -8.839  32.031  13.478  1.00  0.00     0.293 HD
ENDBRANCH  16  21
ENDBRANCH   3  13
BRANCH  10  23
ATOM     23  O   UNL     1     -10.459  37.111   5.669  1.00  0.00    -0.507 OA
ATOM     24  H   UNL     1     -10.241  36.192   5.241  1.00  0.00     0.293 HD
ENDBRANCH  10  23
BRANCH  11  25
ATOM     25  O   UNL     1     -12.130  39.539   9.545  1.00  0.00    -0.508 OA
ATOM     26  H   UNL     1     -12.973  40.021   9.250  1.00  0.00     0.293 HD
ENDBRANCH  11  25
ENDBRANCH   1   2
BRANCH   1  27
ATOM     27  C   UNL     1      -9.045  31.619   7.662  1.00  0.00     0.339 C 
ATOM     28  C   UNL     1      -9.117  30.279   6.874  1.00  0.00     0.214 C 
ATOM     29  O   UNL     1      -7.768  32.497   7.435  1.00  0.00    -0.332 OA
ATOM     30  C   UNL     1      -9.333  30.964   5.418  1.00  0.00     0.180 C 
ATOM     31  C   UNL     1      -7.876  32.148   6.215  1.00  0.00     0.179 C 
ATOM     32  C   UNL     1      -7.989  31.785   4.943  1.00  0.00     0.177 C 
BRANCH  28  33
ATOM     33  O   UNL     1      -8.012  29.545   6.890  1.00  0.00    -0.384 OA
ATOM     34  H   UNL     1      -8.199  28.575   6.974  1.00  0.00     0.211 HD
ENDBRANCH  28  33
BRANCH  30  35
ATOM     35  O   UNL     1      -9.581  30.003   4.512  1.00  0.00    -0.387 OA
ATOM     36  H   UNL     1      -9.443  29.071   4.828  1.00  0.00     0.211 HD
ENDBRANCH  30  35
BRANCH  31  37
ATOM     37  C   UNL     1      -6.066  32.110   6.200  1.00  0.00     0.191 C 
BRANCH  37  38
ATOM     38  O   UNL     1      -5.800  31.021   6.938  1.00  0.00    -0.394 OA
ATOM     39  H   UNL     1      -4.841  30.894   7.185  1.00  0.00     0.210 HD
ENDBRANCH  37  38
ENDBRANCH  31  37
BRANCH  32  40
ATOM     40  O   UNL     1      -8.500  32.563   3.925  1.00  0.00    -0.387 OA
ATOM     41  H   UNL     1      -8.638  33.508   4.197  1.00  0.00     0.211 HD
ENDBRANCH  32  40
ENDBRANCH   1  27
TORSDOF 12
ENDMDL
MODEL 7
REMARK VINA RESULT:    -5.512     15.342     17.750
REMARK INTER + INTRA:          -8.786
REMARK INTER:                  -7.618
REMARK INTRA:                  -1.168
REMARK UNBOUND:                -1.179
REMARK SMILES O=c1c(O[C@@H]2OC(CO)[C@H](O)[C@@H](O)[C@H]2O)c(-c2ccc(O)c(O)c2)oc2cc(O)cc(O)c12
REMARK SMILES IDX 4 1 3 2 16 3 25 4 2 5 26 6 1 7 33 8 27 9 31 10 28 11 30 12
REMARK SMILES IDX 17 13 20 14 19 15 22 16 18 17 24 18 21 19 23 21 32 23 29 25
REMARK SMILES IDX 5 27 14 28 6 29 12 30 7 31 10 32 15 33 13 35 8 37 9 38 11 40
REMARK H PARENT 21 20 23 22 32 24 29 26 15 34 13 36 9 39 11 41
REMARK Flexibility Score: inf
ROOT
ATOM      1  O   UNL     1       3.529  44.614   2.619  1.00  0.00    -0.454 OA
ENDROOT
BRANCH   1   2
ATOM      2  C   UNL     1       2.293  44.951   3.133  1.00  0.00     0.214 A 
ATOM      3  C   UNL     1       1.107  44.655   2.580  1.00  0.00     0.180 A 
ATOM      4  O   UNL     1       0.005  45.066   3.222  1.00  0.00    -0.452 OA
ATOM      5  C   UNL     1       2.317  45.672   4.356  1.00  0.00     0.239 A 
ATOM      6  C   UNL     1      -0.050  45.717   4.322  1.00  0.00     0.146 A 
ATOM      7  O   UNL     1       3.397  45.968   4.910  1.00  0.00    -0.285 OA
ATOM      8  C   UNL     1       1.136  46.044   4.931  1.00  0.00     0.111 A 
ATOM      9  C   UNL     1      -1.281  46.089   4.893  1.00  0.00     0.094 A 
ATOM     10  C   UNL     1       1.110  46.753   6.134  1.00  0.00     0.134 A 
ATOM     11  C   UNL     1      -1.307  46.779   6.062  1.00  0.00     0.123 A 
ATOM     12  C   UNL     1      -0.106  47.095   6.659  1.00  0.00     0.093 A 
BRANCH   3  13
ATOM     13  C   UNL     1       0.840  43.941   1.338  1.00  0.00     0.025 A 
ATOM     14  C   UNL     1       0.513  42.356  -0.995  1.00  0.00     0.157 A 
ATOM     15  C   UNL     1       1.049  41.819   0.159  1.00  0.00     0.051 A 
ATOM     16  C   UNL     1       0.152  43.675  -0.958  1.00  0.00     0.158 A 
ATOM     17  C   UNL     1       1.208  42.589   1.288  1.00  0.00     0.016 A 
ATOM     18  C   UNL     1       0.313  44.443   0.183  1.00  0.00     0.062 A 
BRANCH  14  19
ATOM     19  O   UNL     1       0.357  41.563  -2.136  1.00  0.00    -0.504 OA
ATOM     20  H   UNL     1       0.800  40.655  -2.204  1.00  0.00     0.293 HD
ENDBRANCH  14  19
BRANCH  16  21
ATOM     21  O   UNL     1      -0.396  44.239  -2.130  1.00  0.00    -0.504 OA
ATOM     22  H   UNL     1      -1.207  43.699  -2.473  1.00  0.00     0.293 HD
ENDBRANCH  16  21
ENDBRANCH   3  13
BRANCH  10  23
ATOM     23  O   UNL     1       2.317  47.081   6.751  1.00  0.00    -0.507 OA
ATOM     24  H   UNL     1       2.885  47.858   6.367  1.00  0.00     0.293 HD
ENDBRANCH  10  23
BRANCH  11  25
ATOM     25  O   UNL     1      -2.549  47.125   6.580  1.00  0.00    -0.508 OA
ATOM     26  H   UNL     1      -3.408  46.741   6.200  1.00  0.00     0.293 HD
ENDBRANCH  11  25
ENDBRANCH   1   2
BRANCH   1  27
ATOM     27  C   UNL     1       4.406  45.304   1.871  1.00  0.00     0.339 C 
ATOM     28  C   UNL     1       5.891  44.889   2.086  1.00  0.00     0.214 C 
ATOM     29  O   UNL     1       3.834  45.135   0.424  1.00  0.00    -0.332 OA
ATOM     30  C   UNL     1       5.634  43.295   1.920  1.00  0.00     0.180 C 
ATOM     31  C   UNL     1       4.502  44.051   0.402  1.00  0.00     0.179 C 
ATOM     32  C   UNL     1       5.198  42.921   0.379  1.00  0.00     0.177 C 
BRANCH  28  33
ATOM     33  O   UNL     1       6.745  45.326   1.170  1.00  0.00    -0.384 OA
ATOM     34  H   UNL     1       7.528  45.787   1.568  1.00  0.00     0.211 HD
ENDBRANCH  28  33
BRANCH  30  35
ATOM     35  O   UNL     1       6.768  42.635   2.209  1.00  0.00    -0.387 OA
ATOM     36  H   UNL     1       7.160  42.109   1.463  1.00  0.00     0.211 HD
ENDBRANCH  30  35
BRANCH  31  37
ATOM     37  C   UNL     1       4.814  44.429  -1.341  1.00  0.00     0.191 C 
BRANCH  37  38
ATOM     38  O   UNL     1       5.616  45.502  -1.258  1.00  0.00    -0.394 OA
ATOM     39  H   UNL     1       5.194  46.373  -1.504  1.00  0.00     0.210 HD
ENDBRANCH  37  38
ENDBRANCH  31  37
BRANCH  32  40
ATOM     40  O   UNL     1       4.682  41.653   0.551  1.00  0.00    -0.387 OA
ATOM     41  H   UNL     1       4.145  41.349  -0.227  1.00  0.00     0.211 HD
ENDBRANCH  32  40
ENDBRANCH   1  27
TORSDOF 12
ENDMDL
MODEL 8
REMARK VINA RESULT:    -5.194      2.222      6.342
REMARK INTER + INTRA:          -8.347
REMARK INTER:                  -7.688
REMARK INTRA:                  -0.659
REMARK UNBOUND:                -1.179
REMARK SMILES O=c1c(O[C@@H]2OC(CO)[C@H](O)[C@@H](O)[C@H]2O)c(-c2ccc(O)c(O)c2)oc2cc(O)cc(O)c12
REMARK SMILES IDX 4 1 3 2 16 3 25 4 2 5 26 6 1 7 33 8 27 9 31 10 28 11 30 12
REMARK SMILES IDX 17 13 20 14 19 15 22 16 18 17 24 18 21 19 23 21 32 23 29 25
REMARK SMILES IDX 5 27 14 28 6 29 12 30 7 31 10 32 15 33 13 35 8 37 9 38 11 40
REMARK H PARENT 21 20 23 22 32 24 29 26 15 34 13 36 9 39 11 41
REMARK Flexibility Score: inf
ROOT
ATOM      1  O   UNL     1      -9.750  34.073   7.601  1.00  0.00    -0.454 OA
ENDROOT
BRANCH   1   2
ATOM      2  C   UNL     1     -10.219  32.960   8.269  1.00  0.00     0.214 A 
ATOM      3  C   UNL     1      -9.894  31.687   7.997  1.00  0.00     0.180 A 
ATOM      4  O   UNL     1     -10.450  30.731   8.754  1.00  0.00    -0.452 OA
ATOM      5  C   UNL     1     -11.121  33.224   9.334  1.00  0.00     0.239 A 
ATOM      6  C   UNL     1     -11.268  30.893   9.724  1.00  0.00     0.146 A 
ATOM      7  O   UNL     1     -11.452  34.393   9.627  1.00  0.00    -0.285 OA
ATOM      8  C   UNL     1     -11.632  32.177  10.046  1.00  0.00     0.111 A 
ATOM      9  C   UNL     1     -11.780  29.797  10.441  1.00  0.00     0.094 A 
ATOM     10  C   UNL     1     -12.522  32.387  11.102  1.00  0.00     0.134 A 
ATOM     11  C   UNL     1     -12.646  30.000  11.468  1.00  0.00     0.123 A 
ATOM     12  C   UNL     1     -12.997  31.296  11.776  1.00  0.00     0.093 A 
BRANCH   3  13
ATOM     13  C   UNL     1      -9.006  31.182   6.958  1.00  0.00     0.025 A 
ATOM     14  C   UNL     1      -7.464  29.982   4.898  1.00  0.00     0.157 A 
ATOM     15  C   UNL     1      -8.811  29.704   5.031  1.00  0.00     0.051 A 
ATOM     16  C   UNL     1      -6.917  30.854   5.798  1.00  0.00     0.158 A 
ATOM     17  C   UNL     1      -9.556  30.285   6.030  1.00  0.00     0.016 A 
ATOM     18  C   UNL     1      -7.675  31.437   6.801  1.00  0.00     0.062 A 
BRANCH  14  19
ATOM     19  O   UNL     1      -6.718  29.384   3.878  1.00  0.00    -0.504 OA
ATOM     20  H   UNL     1      -6.222  29.947   3.197  1.00  0.00     0.293 HD
ENDBRANCH  14  19
BRANCH  16  21
ATOM     21  O   UNL     1      -5.542  31.148   5.677  1.00  0.00    -0.504 OA
ATOM     22  H   UNL     1      -5.246  31.879   6.342  1.00  0.00     0.293 HD
ENDBRANCH  16  21
ENDBRANCH   3  13
BRANCH  10  23
ATOM     23  O   UNL     1     -12.887  33.694  11.427  1.00  0.00    -0.507 OA
ATOM     24  H   UNL     1     -12.579  34.471  10.814  1.00  0.00     0.293 HD
ENDBRANCH  10  23
BRANCH  11  25
ATOM     25  O   UNL     1     -13.125  28.882  12.140  1.00  0.00    -0.508 OA
ATOM     26  H   UNL     1     -12.523  28.094  12.355  1.00  0.00     0.293 HD
ENDBRANCH  11  25
ENDBRANCH   1   2
BRANCH   1  27
ATOM     27  C   UNL     1      -9.841  34.450   6.315  1.00  0.00     0.339 C 
ATOM     28  C   UNL     1     -11.195  35.120   5.941  1.00  0.00     0.214 C 
ATOM     29  O   UNL     1      -8.552  35.317   6.117  1.00  0.00    -0.332 OA
ATOM     30  C   UNL     1     -11.200  36.166   7.183  1.00  0.00     0.180 C 
ATOM     31  C   UNL     1      -9.261  36.277   6.562  1.00  0.00     0.179 C 
ATOM     32  C   UNL     1      -9.999  37.279   7.026  1.00  0.00     0.177 C 
BRANCH  28  33
ATOM     33  O   UNL     1     -11.214  35.764   4.782  1.00  0.00    -0.384 OA
ATOM     34  H   UNL     1     -10.711  36.619   4.812  1.00  0.00     0.211 HD
ENDBRANCH  28  33
BRANCH  30  35
ATOM     35  O   UNL     1     -12.375  36.816   7.204  1.00  0.00    -0.387 OA
ATOM     36  H   UNL     1     -12.330  37.777   7.454  1.00  0.00     0.211 HD
ENDBRANCH  30  35
BRANCH  31  37
ATOM     37  C   UNL     1      -8.370  37.314   5.375  1.00  0.00     0.191 C 
BRANCH  37  38
ATOM     38  O   UNL     1      -7.507  37.971   6.165  1.00  0.00    -0.394 OA
ATOM     39  H   UNL     1      -6.972  38.685   5.717  1.00  0.00     0.210 HD
ENDBRANCH  37  38
ENDBRANCH  31  37
BRANCH  32  40
ATOM     40  O   UNL     1      -9.946  37.793   8.305  1.00  0.00    -0.387 OA
ATOM     41  H   UNL     1      -9.142  38.355   8.460  1.00  0.00     0.211 HD
ENDBRANCH  32  40
ENDBRANCH   1  27
TORSDOF 12
ENDMDL
