MODEL 1
REMARK VINA RESULT:    -6.993      0.000      0.000
REMARK INTER + INTRA:          -8.648
REMARK INTER:                  -8.424
REMARK INTRA:                  -0.224
REMARK UNBOUND:                -0.224
REMARK SMILES O=c1c(O)c(-c2ccc(O)c(O)c2)oc2cc(O)cc(O)c12
REMARK SMILES IDX 5 1 3 2 2 3 1 4 22 5 20 6 19 7 17 8 16 9 15 10 14 11 6 12
REMARK SMILES IDX 7 13 8 14 9 15 13 16 11 17 10 18 12 20 4 22 21 24 18 26
REMARK H PARENT 10 19 12 21 4 23 21 25 18 27
REMARK Flexibility Score: inf
ROOT
ATOM      1  C   UNL     1       6.936  15.896  18.708  1.00  0.00     0.180 A 
ATOM      2  C   UNL     1       7.683  14.718  18.878  1.00  0.00     0.208 A 
ATOM      3  C   UNL     1       7.299  13.561  18.181  1.00  0.00     0.238 A 
ATOM      4  O   UNL     1       8.004  12.525  18.295  1.00  0.00    -0.285 OA
ATOM      5  C   UNL     1       6.165  13.593  17.334  1.00  0.00     0.111 A 
ATOM      6  C   UNL     1       5.662  12.471  16.610  1.00  0.00     0.134 A 
ATOM      7  C   UNL     1       4.612  12.648  15.702  1.00  0.00     0.093 A 
ATOM      8  C   UNL     1       4.003  13.895  15.540  1.00  0.00     0.123 A 
ATOM      9  C   UNL     1       4.448  14.984  16.286  1.00  0.00     0.094 A 
ATOM     10  C   UNL     1       5.518  14.846  17.173  1.00  0.00     0.146 A 
ATOM     11  O   UNL     1       5.916  15.912  17.858  1.00  0.00    -0.452 OA
ENDROOT
BRANCH   1  12
ATOM     12  C   UNL     1       7.263  17.148  19.428  1.00  0.00     0.025 A 
ATOM     13  C   UNL     1       7.099  17.256  20.821  1.00  0.00     0.016 A 
ATOM     14  C   UNL     1       7.391  18.455  21.476  1.00  0.00     0.051 A 
ATOM     15  C   UNL     1       7.838  19.566  20.751  1.00  0.00     0.157 A 
ATOM     16  C   UNL     1       7.691  18.272  18.703  1.00  0.00     0.062 A 
ATOM     17  C   UNL     1       7.986  19.475  19.356  1.00  0.00     0.158 A 
BRANCH  15  18
ATOM     18  O   UNL     1       8.131  20.761  21.407  1.00  0.00    -0.504 OA
ATOM     19  H   UNL     1       7.779  21.649  21.072  1.00  0.00     0.293 HD
ENDBRANCH  15  18
BRANCH  17  20
ATOM     20  O   UNL     1       8.421  20.565  18.604  1.00  0.00    -0.504 OA
ATOM     21  H   UNL     1       8.840  20.453  17.689  1.00  0.00     0.293 HD
ENDBRANCH  17  20
ENDBRANCH   1  12
BRANCH   2  22
ATOM     22  O   UNL     1       8.812  14.715  19.702  1.00  0.00    -0.502 OA
ATOM     23  H   UNL     1       9.333  13.870  19.908  1.00  0.00     0.293 HD
ENDBRANCH   2  22
BRANCH   6  24
ATOM     24  O   UNL     1       6.138  11.165  16.766  1.00  0.00    -0.507 OA
ATOM     25  H   UNL     1       5.890  10.387  16.173  1.00  0.00     0.293 HD
ENDBRANCH   6  24
BRANCH   8  26
ATOM     26  O   UNL     1       2.948  14.060  14.645  1.00  0.00    -0.508 OA
ATOM     27  H   UNL     1       2.540  13.273  14.155  1.00  0.00     0.293 HD
ENDBRANCH   8  26
TORSDOF 6
ENDMDL
MODEL 2
REMARK VINA RESULT:    -6.323      2.394      7.518
REMARK INTER + INTRA:          -7.841
REMARK INTER:                  -7.656
REMARK INTRA:                  -0.186
REMARK UNBOUND:                -0.224
REMARK SMILES O=c1c(O)c(-c2ccc(O)c(O)c2)oc2cc(O)cc(O)c12
REMARK SMILES IDX 5 1 3 2 2 3 1 4 22 5 20 6 19 7 17 8 16 9 15 10 14 11 6 12
REMARK SMILES IDX 7 13 8 14 9 15 13 16 11 17 10 18 12 20 4 22 21 24 18 26
REMARK H PARENT 10 19 12 21 4 23 21 25 18 27
REMARK Flexibility Score: inf
ROOT
ATOM      1  C   UNL     1       5.788  12.992  17.515  1.00  0.00     0.180 A 
ATOM      2  C   UNL     1       4.940  13.970  16.964  1.00  0.00     0.208 A 
ATOM      3  C   UNL     1       5.364  15.308  16.948  1.00  0.00     0.238 A 
ATOM      4  O   UNL     1       4.624  16.169  16.405  1.00  0.00    -0.285 OA
ATOM      5  C   UNL     1       6.623  15.655  17.495  1.00  0.00     0.111 A 
ATOM      6  C   UNL     1       7.137  16.985  17.567  1.00  0.00     0.134 A 
ATOM      7  C   UNL     1       8.447  17.196  18.010  1.00  0.00     0.093 A 
ATOM      8  C   UNL     1       9.241  16.131  18.444  1.00  0.00     0.123 A 
ATOM      9  C   UNL     1       8.728  14.836  18.434  1.00  0.00     0.094 A 
ATOM     10  C   UNL     1       7.436  14.590  17.963  1.00  0.00     0.146 A 
ATOM     11  O   UNL     1       6.989  13.340  17.961  1.00  0.00    -0.452 OA
ENDROOT
BRANCH   1  12
ATOM     12  C   UNL     1       5.400  11.565  17.590  1.00  0.00     0.025 A 
ATOM     13  C   UNL     1       6.042  10.589  16.807  1.00  0.00     0.016 A 
ATOM     14  C   UNL     1       5.643   9.252  16.877  1.00  0.00     0.051 A 
ATOM     15  C   UNL     1       4.590   8.872  17.719  1.00  0.00     0.157 A 
ATOM     16  C   UNL     1       4.331  11.182  18.416  1.00  0.00     0.062 A 
ATOM     17  C   UNL     1       3.929   9.843  18.490  1.00  0.00     0.158 A 
BRANCH  15  18
ATOM     18  O   UNL     1       4.195   7.537  17.789  1.00  0.00    -0.504 OA
ATOM     19  H   UNL     1       3.223   7.278  17.912  1.00  0.00     0.293 HD
ENDBRANCH  15  18
BRANCH  17  20
ATOM     20  O   UNL     1       2.872   9.499  19.332  1.00  0.00    -0.504 OA
ATOM     21  H   UNL     1       2.580  10.093  20.098  1.00  0.00     0.293 HD
ENDBRANCH  17  20
ENDBRANCH   1  12
BRANCH   2  22
ATOM     22  O   UNL     1       3.711  13.602  16.410  1.00  0.00    -0.502 OA
ATOM     23  H   UNL     1       3.444  12.634  16.273  1.00  0.00     0.293 HD
ENDBRANCH   2  22
BRANCH   6  24
ATOM     24  O   UNL     1       6.395  18.126  17.245  1.00  0.00    -0.507 OA
ATOM     25  H   UNL     1       6.226  18.898  17.872  1.00  0.00     0.293 HD
ENDBRANCH   6  24
BRANCH   8  26
ATOM     26  O   UNL     1      10.540  16.352  18.898  1.00  0.00    -0.508 OA
ATOM     27  H   UNL     1      11.111  17.102  18.527  1.00  0.00     0.293 HD
ENDBRANCH   8  26
TORSDOF 6
ENDMDL
MODEL 3
REMARK VINA RESULT:    -5.784      1.822      6.855
REMARK INTER + INTRA:          -7.192
REMARK INTER:                  -6.874
REMARK INTRA:                  -0.318
REMARK UNBOUND:                -0.224
REMARK SMILES O=c1c(O)c(-c2ccc(O)c(O)c2)oc2cc(O)cc(O)c12
REMARK SMILES IDX 5 1 3 2 2 3 1 4 22 5 20 6 19 7 17 8 16 9 15 10 14 11 6 12
REMARK SMILES IDX 7 13 8 14 9 15 13 16 11 17 10 18 12 20 4 22 21 24 18 26
REMARK H PARENT 10 19 12 21 4 23 21 25 18 27
REMARK Flexibility Score: inf
ROOT
ATOM      1  C   UNL     1       6.973  16.125  18.301  1.00  0.00     0.180 A 
ATOM      2  C   UNL     1       7.848  16.432  17.244  1.00  0.00     0.208 A 
ATOM      3  C   UNL     1       8.514  17.668  17.250  1.00  0.00     0.238 A 
ATOM      4  O   UNL     1       9.337  17.914  16.330  1.00  0.00    -0.285 OA
ATOM      5  C   UNL     1       8.287  18.586  18.302  1.00  0.00     0.111 A 
ATOM      6  C   UNL     1       8.878  19.883  18.388  1.00  0.00     0.134 A 
ATOM      7  C   UNL     1       8.683  20.656  19.538  1.00  0.00     0.093 A 
ATOM      8  C   UNL     1       7.866  20.206  20.579  1.00  0.00     0.123 A 
ATOM      9  C   UNL     1       7.237  18.968  20.477  1.00  0.00     0.094 A 
ATOM     10  C   UNL     1       7.441  18.158  19.358  1.00  0.00     0.146 A 
ATOM     11  O   UNL     1       6.830  16.980  19.306  1.00  0.00    -0.452 OA
ENDROOT
BRANCH   1  12
ATOM     12  C   UNL     1       6.215  14.854  18.353  1.00  0.00     0.025 A 
ATOM     13  C   UNL     1       6.718  13.728  19.028  1.00  0.00     0.016 A 
ATOM     14  C   UNL     1       5.997  12.531  19.043  1.00  0.00     0.051 A 
ATOM     15  C   UNL     1       4.771  12.437  18.373  1.00  0.00     0.157 A 
ATOM     16  C   UNL     1       4.995  14.747  17.664  1.00  0.00     0.062 A 
ATOM     17  C   UNL     1       4.269  13.550  17.677  1.00  0.00     0.158 A 
BRANCH  15  18
ATOM     18  O   UNL     1       4.052  11.243  18.391  1.00  0.00    -0.504 OA
ATOM     19  H   UNL     1       3.183  11.140  17.881  1.00  0.00     0.293 HD
ENDBRANCH  15  18
BRANCH  17  20
ATOM     20  O   UNL     1       3.056  13.487  16.994  1.00  0.00    -0.504 OA
ATOM     21  H   UNL     1       2.258  14.051  17.262  1.00  0.00     0.293 HD
ENDBRANCH  17  20
ENDBRANCH   1  12
BRANCH   2  22
ATOM     22  O   UNL     1       8.075  15.501  16.227  1.00  0.00    -0.502 OA
ATOM     23  H   UNL     1       8.924  14.951  16.173  1.00  0.00     0.293 HD
ENDBRANCH   2  22
BRANCH   6  24
ATOM     24  O   UNL     1       9.636  20.464  17.367  1.00  0.00    -0.507 OA
ATOM     25  H   UNL     1       9.901  20.000  16.511  1.00  0.00     0.293 HD
ENDBRANCH   6  24
BRANCH   8  26
ATOM     26  O   UNL     1       7.665  20.989  21.714  1.00  0.00    -0.508 OA
ATOM     27  H   UNL     1       8.169  21.856  21.856  1.00  0.00     0.293 HD
ENDBRANCH   8  26
TORSDOF 6
ENDMDL
MODEL 4
REMARK VINA RESULT:    -5.655     14.654     16.131
REMARK INTER + INTRA:          -7.036
REMARK INTER:                  -6.705
REMARK INTRA:                  -0.331
REMARK UNBOUND:                -0.224
REMARK SMILES O=c1c(O)c(-c2ccc(O)c(O)c2)oc2cc(O)cc(O)c12
REMARK SMILES IDX 5 1 3 2 2 3 1 4 22 5 20 6 19 7 17 8 16 9 15 10 14 11 6 12
REMARK SMILES IDX 7 13 8 14 9 15 13 16 11 17 10 18 12 20 4 22 21 24 18 26
REMARK H PARENT 10 19 12 21 4 23 21 25 18 27
REMARK Flexibility Score: inf
ROOT
ATOM      1  C   UNL     1       0.113  11.792   4.816  1.00  0.00     0.180 A 
ATOM      2  C   UNL     1      -0.354  12.069   6.113  1.00  0.00     0.208 A 
ATOM      3  C   UNL     1      -1.179  11.131   6.755  1.00  0.00     0.238 A 
ATOM      4  O   UNL     1      -1.548  11.360   7.936  1.00  0.00    -0.285 OA
ATOM      5  C   UNL     1      -1.537   9.935   6.087  1.00  0.00     0.111 A 
ATOM      6  C   UNL     1      -2.399   8.933   6.627  1.00  0.00     0.134 A 
ATOM      7  C   UNL     1      -2.581   7.732   5.932  1.00  0.00     0.093 A 
ATOM      8  C   UNL     1      -1.984   7.523   4.686  1.00  0.00     0.123 A 
ATOM      9  C   UNL     1      -1.190   8.519   4.124  1.00  0.00     0.094 A 
ATOM     10  C   UNL     1      -0.960   9.714   4.810  1.00  0.00     0.146 A 
ATOM     11  O   UNL     1      -0.189  10.633   4.242  1.00  0.00    -0.452 OA
ENDROOT
BRANCH   1  12
ATOM     12  C   UNL     1       0.964  12.743   4.065  1.00  0.00     0.025 A 
ATOM     13  C   UNL     1       0.404  13.779   3.298  1.00  0.00     0.016 A 
ATOM     14  C   UNL     1       1.226  14.650   2.578  1.00  0.00     0.051 A 
ATOM     15  C   UNL     1       2.617  14.490   2.602  1.00  0.00     0.157 A 
ATOM     16  C   UNL     1       2.359  12.574   4.068  1.00  0.00     0.062 A 
ATOM     17  C   UNL     1       3.186  13.445   3.349  1.00  0.00     0.158 A 
BRANCH  15  18
ATOM     18  O   UNL     1       3.435  15.362   1.884  1.00  0.00    -0.504 OA
ATOM     19  H   UNL     1       3.082  16.235   1.513  1.00  0.00     0.293 HD
ENDBRANCH  15  18
BRANCH  17  20
ATOM     20  O   UNL     1       4.566  13.254   3.387  1.00  0.00    -0.504 OA
ATOM     21  H   UNL     1       5.179  13.864   3.915  1.00  0.00     0.293 HD
ENDBRANCH  17  20
ENDBRANCH   1  12
BRANCH   2  22
ATOM     22  O   UNL     1       0.031  13.246   6.762  1.00  0.00    -0.502 OA
ATOM     23  H   UNL     1      -0.537  14.085   6.748  1.00  0.00     0.293 HD
ENDBRANCH   2  22
BRANCH   6  24
ATOM     24  O   UNL     1      -3.115   9.079   7.819  1.00  0.00    -0.507 OA
ATOM     25  H   UNL     1      -3.594   8.332   8.298  1.00  0.00     0.293 HD
ENDBRANCH   6  24
BRANCH   8  26
ATOM     26  O   UNL     1      -2.184   6.330   3.994  1.00  0.00    -0.508 OA
ATOM     27  H   UNL     1      -2.307   6.315   2.989  1.00  0.00     0.293 HD
ENDBRANCH   8  26
TORSDOF 6
ENDMDL
MODEL 5
REMARK VINA RESULT:    -5.510     14.537     16.001
REMARK INTER + INTRA:          -6.862
REMARK INTER:                  -6.578
REMARK INTRA:                  -0.283
REMARK UNBOUND:                -0.224
REMARK SMILES O=c1c(O)c(-c2ccc(O)c(O)c2)oc2cc(O)cc(O)c12
REMARK SMILES IDX 5 1 3 2 2 3 1 4 22 5 20 6 19 7 17 8 16 9 15 10 14 11 6 12
REMARK SMILES IDX 7 13 8 14 9 15 13 16 11 17 10 18 12 20 4 22 21 24 18 26
REMARK H PARENT 10 19 12 21 4 23 21 25 18 27
REMARK Flexibility Score: inf
ROOT
ATOM      1  C   UNL     1       0.066  11.517   4.686  1.00  0.00     0.180 A 
ATOM      2  C   UNL     1      -0.155  10.273   4.068  1.00  0.00     0.208 A 
ATOM      3  C   UNL     1      -0.907   9.300   4.746  1.00  0.00     0.238 A 
ATOM      4  O   UNL     1      -1.147   8.210   4.166  1.00  0.00    -0.285 OA
ATOM      5  C   UNL     1      -1.416   9.577   6.038  1.00  0.00     0.111 A 
ATOM      6  C   UNL     1      -2.157   8.651   6.833  1.00  0.00     0.134 A 
ATOM      7  C   UNL     1      -2.722   9.075   8.040  1.00  0.00     0.093 A 
ATOM      8  C   UNL     1      -2.519  10.373   8.514  1.00  0.00     0.123 A 
ATOM      9  C   UNL     1      -1.746  11.266   7.775  1.00  0.00     0.094 A 
ATOM     10  C   UNL     1      -1.200  10.883   6.548  1.00  0.00     0.146 A 
ATOM     11  O   UNL     1      -0.479  11.769   5.870  1.00  0.00    -0.452 OA
ENDROOT
BRANCH   1  12
ATOM     12  C   UNL     1       0.869  12.583   4.046  1.00  0.00     0.025 A 
ATOM     13  C   UNL     1       0.258  13.666   3.389  1.00  0.00     0.016 A 
ATOM     14  C   UNL     1       1.036  14.648   2.770  1.00  0.00     0.051 A 
ATOM     15  C   UNL     1       2.434  14.556   2.786  1.00  0.00     0.157 A 
ATOM     16  C   UNL     1       2.270  12.484   4.040  1.00  0.00     0.062 A 
ATOM     17  C   UNL     1       3.054  13.466   3.422  1.00  0.00     0.158 A 
BRANCH  15  18
ATOM     18  O   UNL     1       3.208  15.538   2.170  1.00  0.00    -0.504 OA
ATOM     19  H   UNL     1       3.617  16.299   2.699  1.00  0.00     0.293 HD
ENDBRANCH  15  18
BRANCH  17  20
ATOM     20  O   UNL     1       4.442  13.341   3.449  1.00  0.00    -0.504 OA
ATOM     21  H   UNL     1       5.009  13.462   2.618  1.00  0.00     0.293 HD
ENDBRANCH  17  20
ENDBRANCH   1  12
BRANCH   2  22
ATOM     22  O   UNL     1       0.338  10.030   2.783  1.00  0.00    -0.502 OA
ATOM     23  H   UNL     1       1.271  10.303   2.498  1.00  0.00     0.293 HD
ENDBRANCH   2  22
BRANCH   6  24
ATOM     24  O   UNL     1      -2.341   7.306   6.495  1.00  0.00    -0.507 OA
ATOM     25  H   UNL     1      -3.116   6.737   6.801  1.00  0.00     0.293 HD
ENDBRANCH   6  24
BRANCH   8  26
ATOM     26  O   UNL     1      -3.072  10.783   9.726  1.00  0.00    -0.508 OA
ATOM     27  H   UNL     1      -3.358  10.114  10.431  1.00  0.00     0.293 HD
ENDBRANCH   8  26
TORSDOF 6
ENDMDL
MODEL 6
REMARK VINA RESULT:    -5.270     12.951     15.343
REMARK INTER + INTRA:          -6.573
REMARK INTER:                  -6.251
REMARK INTRA:                  -0.322
REMARK UNBOUND:                -0.224
REMARK SMILES O=c1c(O)c(-c2ccc(O)c(O)c2)oc2cc(O)cc(O)c12
REMARK SMILES IDX 5 1 3 2 2 3 1 4 22 5 20 6 19 7 17 8 16 9 15 10 14 11 6 12
REMARK SMILES IDX 7 13 8 14 9 15 13 16 11 17 10 18 12 20 4 22 21 24 18 26
REMARK H PARENT 10 19 12 21 4 23 21 25 18 27
REMARK Flexibility Score: inf
ROOT
ATOM      1  C   UNL     1      -1.283  11.273   6.550  1.00  0.00     0.180 A 
ATOM      2  C   UNL     1      -1.637   9.917   6.433  1.00  0.00     0.208 A 
ATOM      3  C   UNL     1      -2.187   9.258   7.545  1.00  0.00     0.238 A 
ATOM      4  O   UNL     1      -2.552   8.061   7.417  1.00  0.00    -0.285 OA
ATOM      5  C   UNL     1      -2.362   9.958   8.762  1.00  0.00     0.111 A 
ATOM      6  C   UNL     1      -2.872   9.379   9.964  1.00  0.00     0.134 A 
ATOM      7  C   UNL     1      -3.124  10.197  11.071  1.00  0.00     0.093 A 
ATOM      8  C   UNL     1      -2.823  11.561  11.044  1.00  0.00     0.123 A 
ATOM      9  C   UNL     1      -2.268  12.123   9.896  1.00  0.00     0.094 A 
ATOM     10  C   UNL     1      -2.040  11.340   8.762  1.00  0.00     0.146 A 
ATOM     11  O   UNL     1      -1.519  11.918   7.686  1.00  0.00    -0.452 OA
ENDROOT
BRANCH   1  12
ATOM     12  C   UNL     1      -0.675  12.028   5.431  1.00  0.00     0.025 A 
ATOM     13  C   UNL     1      -1.466  12.746   4.517  1.00  0.00     0.016 A 
ATOM     14  C   UNL     1      -0.872  13.431   3.454  1.00  0.00     0.051 A 
ATOM     15  C   UNL     1       0.517  13.398   3.280  1.00  0.00     0.157 A 
ATOM     16  C   UNL     1       0.716  11.980   5.239  1.00  0.00     0.062 A 
ATOM     17  C   UNL     1       1.315  12.666   4.176  1.00  0.00     0.158 A 
BRANCH  15  18
ATOM     18  O   UNL     1       1.107  14.085   2.220  1.00  0.00    -0.504 OA
ATOM     19  H   UNL     1       1.830  14.778   2.375  1.00  0.00     0.293 HD
ENDBRANCH  15  18
BRANCH  17  20
ATOM     20  O   UNL     1       2.699  12.607   4.026  1.00  0.00    -0.504 OA
ATOM     21  H   UNL     1       3.174  13.036   3.241  1.00  0.00     0.293 HD
ENDBRANCH  17  20
ENDBRANCH   1  12
BRANCH   2  22
ATOM     22  O   UNL     1      -1.477   9.252   5.214  1.00  0.00    -0.502 OA
ATOM     23  H   UNL     1      -2.243   9.112   4.566  1.00  0.00     0.293 HD
ENDBRANCH   2  22
BRANCH   6  24
ATOM     24  O   UNL     1      -3.121   8.013  10.127  1.00  0.00    -0.507 OA
ATOM     25  H   UNL     1      -2.774   7.288   9.517  1.00  0.00     0.293 HD
ENDBRANCH   6  24
BRANCH   8  26
ATOM     26  O   UNL     1      -3.062  12.365  12.156  1.00  0.00    -0.508 OA
ATOM     27  H   UNL     1      -3.244  11.966  13.069  1.00  0.00     0.293 HD
ENDBRANCH   8  26
TORSDOF 6
ENDMDL
MODEL 7
REMARK VINA RESULT:    -5.219     13.024     15.334
REMARK INTER + INTRA:          -6.511
REMARK INTER:                  -6.278
REMARK INTRA:                  -0.233
REMARK UNBOUND:                -0.224
REMARK SMILES O=c1c(O)c(-c2ccc(O)c(O)c2)oc2cc(O)cc(O)c12
REMARK SMILES IDX 5 1 3 2 2 3 1 4 22 5 20 6 19 7 17 8 16 9 15 10 14 11 6 12
REMARK SMILES IDX 7 13 8 14 9 15 13 16 11 17 10 18 12 20 4 22 21 24 18 26
REMARK H PARENT 10 19 12 21 4 23 21 25 18 27
REMARK Flexibility Score: inf
ROOT
ATOM      1  C   UNL     1      -1.224  12.384   6.933  1.00  0.00     0.180 A 
ATOM      2  C   UNL     1      -1.915  13.581   6.675  1.00  0.00     0.208 A 
ATOM      3  C   UNL     1      -1.392  14.479   5.730  1.00  0.00     0.238 A 
ATOM      4  O   UNL     1      -2.044  15.522   5.463  1.00  0.00    -0.285 OA
ATOM      5  C   UNL     1      -0.179  14.176   5.067  1.00  0.00     0.111 A 
ATOM      6  C   UNL     1       0.463  15.031   4.121  1.00  0.00     0.134 A 
ATOM      7  C   UNL     1       1.591  14.574   3.431  1.00  0.00     0.093 A 
ATOM      8  C   UNL     1       2.140  13.317   3.700  1.00  0.00     0.123 A 
ATOM      9  C   UNL     1       1.556  12.500   4.665  1.00  0.00     0.094 A 
ATOM     10  C   UNL     1       0.407  12.914   5.344  1.00  0.00     0.146 A 
ATOM     11  O   UNL     1      -0.123  12.100   6.249  1.00  0.00    -0.452 OA
ENDROOT
BRANCH   1  12
ATOM     12  C   UNL     1      -1.699  11.401   7.933  1.00  0.00     0.025 A 
ATOM     13  C   UNL     1      -2.282  10.183   7.543  1.00  0.00     0.016 A 
ATOM     14  C   UNL     1      -2.745   9.280   8.504  1.00  0.00     0.051 A 
ATOM     15  C   UNL     1      -2.646   9.586   9.867  1.00  0.00     0.157 A 
ATOM     16  C   UNL     1      -1.621  11.712   9.301  1.00  0.00     0.062 A 
ATOM     17  C   UNL     1      -2.083  10.810  10.267  1.00  0.00     0.158 A 
BRANCH  15  18
ATOM     18  O   UNL     1      -3.107   8.683  10.824  1.00  0.00    -0.504 OA
ATOM     19  H   UNL     1      -3.803   8.948  11.510  1.00  0.00     0.293 HD
ENDBRANCH  15  18
BRANCH  17  20
ATOM     20  O   UNL     1      -1.977  11.148  11.615  1.00  0.00    -0.504 OA
ATOM     21  H   UNL     1      -2.344  12.018  11.982  1.00  0.00     0.293 HD
ENDBRANCH  17  20
ENDBRANCH   1  12
BRANCH   2  22
ATOM     22  O   UNL     1      -3.124  13.849   7.325  1.00  0.00    -0.502 OA
ATOM     23  H   UNL     1      -3.182  13.994   8.326  1.00  0.00     0.293 HD
ENDBRANCH   2  22
BRANCH   6  24
ATOM     24  O   UNL     1       0.050  16.338   3.845  1.00  0.00    -0.507 OA
ATOM     25  H   UNL     1       0.055  17.096   4.512  1.00  0.00     0.293 HD
ENDBRANCH   6  24
BRANCH   8  26
ATOM     26  O   UNL     1       3.273  12.875   3.020  1.00  0.00    -0.508 OA
ATOM     27  H   UNL     1       3.804  12.074   3.339  1.00  0.00     0.293 HD
ENDBRANCH   8  26
TORSDOF 6
ENDMDL
MODEL 8
REMARK VINA RESULT:    -5.205      1.752      6.787
REMARK INTER + INTRA:          -6.494
REMARK INTER:                  -6.211
REMARK INTRA:                  -0.283
REMARK UNBOUND:                -0.224
REMARK SMILES O=c1c(O)c(-c2ccc(O)c(O)c2)oc2cc(O)cc(O)c12
REMARK SMILES IDX 5 1 3 2 2 3 1 4 22 5 20 6 19 7 17 8 16 9 15 10 14 11 6 12
REMARK SMILES IDX 7 13 8 14 9 15 13 16 11 17 10 18 12 20 4 22 21 24 18 26
REMARK H PARENT 10 19 12 21 4 23 21 25 18 27
REMARK Flexibility Score: inf
ROOT
ATOM      1  C   UNL     1       6.925  15.645  18.603  1.00  0.00     0.180 A 
ATOM      2  C   UNL     1       6.763  16.154  19.904  1.00  0.00     0.208 A 
ATOM      3  C   UNL     1       7.255  17.435  20.200  1.00  0.00     0.238 A 
ATOM      4  O   UNL     1       7.058  17.906  21.350  1.00  0.00    -0.285 OA
ATOM      5  C   UNL     1       7.915  18.185  19.197  1.00  0.00     0.111 A 
ATOM      6  C   UNL     1       8.488  19.477  19.397  1.00  0.00     0.134 A 
ATOM      7  C   UNL     1       9.003  20.181  18.302  1.00  0.00     0.093 A 
ATOM      8  C   UNL     1       9.024  19.613  17.026  1.00  0.00     0.123 A 
ATOM      9  C   UNL     1       8.522  18.328  16.833  1.00  0.00     0.094 A 
ATOM     10  C   UNL     1       7.969  17.615  17.899  1.00  0.00     0.146 A 
ATOM     11  O   UNL     1       7.491  16.398  17.668  1.00  0.00    -0.452 OA
ENDROOT
BRANCH   1  12
ATOM     12  C   UNL     1       6.456  14.293  18.222  1.00  0.00     0.025 A 
ATOM     13  C   UNL     1       7.352  13.218  18.088  1.00  0.00     0.016 A 
ATOM     14  C   UNL     1       6.890  11.956  17.703  1.00  0.00     0.051 A 
ATOM     15  C   UNL     1       5.531  11.753  17.434  1.00  0.00     0.157 A 
ATOM     16  C   UNL     1       5.097  14.089  17.930  1.00  0.00     0.062 A 
ATOM     17  C   UNL     1       4.630  12.826  17.545  1.00  0.00     0.158 A 
BRANCH  15  18
ATOM     18  O   UNL     1       5.072  10.493  17.053  1.00  0.00    -0.504 OA
ATOM     19  H   UNL     1       5.403  10.043  16.207  1.00  0.00     0.293 HD
ENDBRANCH  15  18
BRANCH  17  20
ATOM     20  O   UNL     1       3.273  12.659  17.277  1.00  0.00    -0.504 OA
ATOM     21  H   UNL     1       2.943  12.146  16.469  1.00  0.00     0.293 HD
ENDBRANCH  17  20
ENDBRANCH   1  12
BRANCH   2  22
ATOM     22  O   UNL     1       6.088  15.405  20.872  1.00  0.00    -0.502 OA
ATOM     23  H   UNL     1       6.316  15.459  21.858  1.00  0.00     0.293 HD
ENDBRANCH   2  22
BRANCH   6  24
ATOM     24  O   UNL     1       8.601  20.096  20.646  1.00  0.00    -0.507 OA
ATOM     25  H   UNL     1       9.273  20.813  20.874  1.00  0.00     0.293 HD
ENDBRANCH   6  24
BRANCH   8  26
ATOM     26  O   UNL     1       9.552  20.314  15.944  1.00  0.00    -0.508 OA
ATOM     27  H   UNL     1       9.804  21.293  16.019  1.00  0.00     0.293 HD
ENDBRANCH   8  26
TORSDOF 6
ENDMDL
MODEL 9
REMARK VINA RESULT:    -5.072     14.020     15.369
REMARK INTER + INTRA:          -6.334
REMARK INTER:                  -6.241
REMARK INTRA:                  -0.093
REMARK UNBOUND:                -0.224
REMARK SMILES O=c1c(O)c(-c2ccc(O)c(O)c2)oc2cc(O)cc(O)c12
REMARK SMILES IDX 5 1 3 2 2 3 1 4 22 5 20 6 19 7 17 8 16 9 15 10 14 11 6 12
REMARK SMILES IDX 7 13 8 14 9 15 13 16 11 17 10 18 12 20 4 22 21 24 18 26
REMARK H PARENT 10 19 12 21 4 23 21 25 18 27
REMARK Flexibility Score: inf
ROOT
ATOM      1  C   UNL     1      -1.208  12.620   6.187  1.00  0.00     0.180 A 
ATOM      2  C   UNL     1      -1.481  12.434   7.553  1.00  0.00     0.208 A 
ATOM      3  C   UNL     1      -1.880  11.164   8.001  1.00  0.00     0.238 A 
ATOM      4  O   UNL     1      -2.070  10.991   9.232  1.00  0.00    -0.285 OA
ATOM      5  C   UNL     1      -2.015  10.102   7.075  1.00  0.00     0.111 A 
ATOM      6  C   UNL     1      -2.451   8.785   7.412  1.00  0.00     0.134 A 
ATOM      7  C   UNL     1      -2.424   7.779   6.440  1.00  0.00     0.093 A 
ATOM      8  C   UNL     1      -2.037   8.057   5.126  1.00  0.00     0.123 A 
ATOM      9  C   UNL     1      -1.668   9.353   4.774  1.00  0.00     0.094 A 
ATOM     10  C   UNL     1      -1.650  10.370   5.731  1.00  0.00     0.146 A 
ATOM     11  O   UNL     1      -1.281  11.589   5.354  1.00  0.00    -0.452 OA
ENDROOT
BRANCH   1  12
ATOM     12  C   UNL     1      -0.807  13.935   5.636  1.00  0.00     0.025 A 
ATOM     13  C   UNL     1      -1.601  15.080   5.821  1.00  0.00     0.016 A 
ATOM     14  C   UNL     1      -1.215  16.305   5.271  1.00  0.00     0.051 A 
ATOM     15  C   UNL     1      -0.040  16.402   4.517  1.00  0.00     0.157 A 
ATOM     16  C   UNL     1       0.360  14.034   4.860  1.00  0.00     0.062 A 
ATOM     17  C   UNL     1       0.751  15.259   4.308  1.00  0.00     0.158 A 
BRANCH  15  18
ATOM     18  O   UNL     1       0.345  17.626   3.971  1.00  0.00    -0.504 OA
ATOM     19  H   UNL     1       1.004  17.680   3.204  1.00  0.00     0.293 HD
ENDBRANCH  15  18
BRANCH  17  20
ATOM     20  O   UNL     1       1.923  15.320   3.556  1.00  0.00    -0.504 OA
ATOM     21  H   UNL     1       2.701  15.913   3.819  1.00  0.00     0.293 HD
ENDBRANCH  17  20
ENDBRANCH   1  12
BRANCH   2  22
ATOM     22  O   UNL     1      -1.319  13.492   8.453  1.00  0.00    -0.502 OA
ATOM     23  H   UNL     1      -1.547  13.409   9.436  1.00  0.00     0.293 HD
ENDBRANCH   2  22
BRANCH   6  24
ATOM     24  O   UNL     1      -2.943   8.423   8.670  1.00  0.00    -0.507 OA
ATOM     25  H   UNL     1      -2.370   8.238   9.480  1.00  0.00     0.293 HD
ENDBRANCH   6  24
BRANCH   8  26
ATOM     26  O   UNL     1      -2.028   7.053   4.160  1.00  0.00    -0.508 OA
ATOM     27  H   UNL     1      -1.715   6.114   4.375  1.00  0.00     0.293 HD
ENDBRANCH   8  26
TORSDOF 6
ENDMDL
