MODEL 1
REMARK VINA RESULT:    -4.005      0.000      0.000
REMARK INTER + INTRA:          -7.338
REMARK INTER:                  -6.346
REMARK INTRA:                  -0.992
REMARK UNBOUND:                -0.992
REMARK SMILES CCCCCCCCCCCC(=O)[O-]
REMARK SMILES IDX 7 1 8 2 9 3 10 4 11 5 12 6 13 7 14 8 6 9 5 10 4 11 3 12 2 13
REMARK SMILES IDX 1 14
REMARK H PARENT
REMARK Flexibility Score: inf
ROOT
ATOM      1  C   UNL     1      -5.871  17.985 -10.472  1.00  0.00     0.000 C 
ENDROOT
BRANCH   1   2
ATOM      2  C   UNL     1      -7.260  18.618 -10.641  1.00  0.00     0.000 C 
BRANCH   2   3
ATOM      3  C   UNL     1      -7.521  18.989 -12.106  1.00  0.00     0.000 C 
BRANCH   3   4
ATOM      4  C   UNL     1      -8.981  18.713 -12.492  1.00  0.00     0.006 C 
BRANCH   4   5
ATOM      5  C   UNL     1      -9.885  18.545 -11.263  1.00  0.00     0.053 C 
BRANCH   5   6
ATOM      6  C   UNL     1     -10.624  17.242 -11.292  1.00  0.00     0.041 C 
ATOM      7  O   UNL     1     -10.287  16.304 -10.523  1.00  0.00    -0.550 OA
ATOM      8  O   UNL     1     -11.706  17.075 -12.147  1.00  0.00    -0.550 OA
ENDBRANCH   5   6
ENDBRANCH   4   5
ENDBRANCH   3   4
ENDBRANCH   2   3
ENDBRANCH   1   2
BRANCH   1   9
ATOM      9  C   UNL     1      -5.916  16.629  -9.745  1.00  0.00     0.000 C 
BRANCH   9  10
ATOM     10  C   UNL     1      -7.050  16.482  -8.711  1.00  0.00    -0.000 C 
BRANCH  10  11
ATOM     11  C   UNL     1      -6.694  16.933  -7.281  1.00  0.00    -0.000 C 
BRANCH  11  12
ATOM     12  C   UNL     1      -5.294  16.507  -6.794  1.00  0.00    -0.000 C 
BRANCH  12  13
ATOM     13  C   UNL     1      -4.335  17.670  -6.488  1.00  0.00    -0.003 C 
ATOM     14  C   UNL     1      -4.930  19.038  -6.822  1.00  0.00     0.004 C 
ENDBRANCH  12  13
ENDBRANCH  11  12
ENDBRANCH  10  11
ENDBRANCH   9  10
ENDBRANCH   1   9
TORSDOF 10
ENDMDL
MODEL 2
REMARK VINA RESULT:    -3.899      0.872      2.087
REMARK INTER + INTRA:          -7.171
REMARK INTER:                  -5.942
REMARK INTRA:                  -1.229
REMARK UNBOUND:                -0.992
REMARK SMILES CCCCCCCCCCCC(=O)[O-]
REMARK SMILES IDX 7 1 8 2 9 3 10 4 11 5 12 6 13 7 14 8 6 9 5 10 4 11 3 12 2 13
REMARK SMILES IDX 1 14
REMARK H PARENT
REMARK Flexibility Score: inf
ROOT
ATOM      1  C   UNL     1      -7.016  16.602  -8.780  1.00  0.00     0.000 C 
ENDROOT
BRANCH   1   2
ATOM      2  C   UNL     1      -5.881  16.900  -9.769  1.00  0.00     0.000 C 
BRANCH   2   3
ATOM      3  C   UNL     1      -6.258  18.053 -10.708  1.00  0.00     0.000 C 
BRANCH   3   4
ATOM      4  C   UNL     1      -7.672  18.569 -10.406  1.00  0.00     0.006 C 
BRANCH   4   5
ATOM      5  C   UNL     1      -8.611  18.429 -11.611  1.00  0.00     0.053 C 
BRANCH   5   6
ATOM      6  C   UNL     1      -9.880  17.721 -11.245  1.00  0.00     0.041 C 
ATOM      7  O   UNL     1      -9.845  16.539 -10.811  1.00  0.00    -0.550 OA
ATOM      8  O   UNL     1     -11.100  18.379 -11.352  1.00  0.00    -0.550 OA
ENDBRANCH   5   6
ENDBRANCH   4   5
ENDBRANCH   3   4
ENDBRANCH   2   3
ENDBRANCH   1   2
BRANCH   1   9
ATOM      9  C   UNL     1      -6.526  16.483  -7.325  1.00  0.00     0.000 C 
BRANCH   9  10
ATOM     10  C   UNL     1      -5.000  16.603  -7.141  1.00  0.00    -0.000 C 
BRANCH  10  11
ATOM     11  C   UNL     1      -4.551  17.305  -5.844  1.00  0.00    -0.000 C 
BRANCH  11  12
ATOM     12  C   UNL     1      -4.346  18.828  -5.965  1.00  0.00    -0.000 C 
BRANCH  12  13
ATOM     13  C   UNL     1      -4.565  19.400  -7.376  1.00  0.00    -0.003 C 
ATOM     14  C   UNL     1      -5.865  20.196  -7.502  1.00  0.00     0.004 C 
ENDBRANCH  12  13
ENDBRANCH  11  12
ENDBRANCH  10  11
ENDBRANCH   9  10
ENDBRANCH   1   9
TORSDOF 10
ENDMDL
MODEL 3
REMARK VINA RESULT:    -3.899      1.555      2.132
REMARK INTER + INTRA:          -7.170
REMARK INTER:                  -6.641
REMARK INTRA:                  -0.529
REMARK UNBOUND:                -0.992
REMARK SMILES CCCCCCCCCCCC(=O)[O-]
REMARK SMILES IDX 7 1 8 2 9 3 10 4 11 5 12 6 13 7 14 8 6 9 5 10 4 11 3 12 2 13
REMARK SMILES IDX 1 14
REMARK H PARENT
REMARK Flexibility Score: inf
ROOT
ATOM      1  C   UNL     1      -7.244  18.130 -10.387  1.00  0.00     0.000 C 
ENDROOT
BRANCH   1   2
ATOM      2  C   UNL     1      -8.615  18.116 -11.078  1.00  0.00     0.000 C 
BRANCH   2   3
ATOM      3  C   UNL     1      -9.411  16.862 -10.696  1.00  0.00     0.000 C 
BRANCH   3   4
ATOM      4  C   UNL     1     -10.542  16.599 -11.701  1.00  0.00     0.006 C 
BRANCH   4   5
ATOM      5  C   UNL     1     -10.647  17.706 -12.758  1.00  0.00     0.053 C 
BRANCH   5   6
ATOM      6  C   UNL     1     -12.050  18.217 -12.887  1.00  0.00     0.041 C 
ATOM      7  O   UNL     1     -12.295  19.443 -12.739  1.00  0.00    -0.550 OA
ATOM      8  O   UNL     1     -13.082  17.343 -13.205  1.00  0.00    -0.550 OA
ENDBRANCH   5   6
ENDBRANCH   4   5
ENDBRANCH   3   4
ENDBRANCH   2   3
ENDBRANCH   1   2
BRANCH   1   9
ATOM      9  C   UNL     1      -7.042  16.939  -9.432  1.00  0.00     0.000 C 
BRANCH   9  10
ATOM     10  C   UNL     1      -5.665  16.254  -9.530  1.00  0.00    -0.000 C 
BRANCH  10  11
ATOM     11  C   UNL     1      -4.723  16.507  -8.336  1.00  0.00    -0.000 C 
BRANCH  11  12
ATOM     12  C   UNL     1      -5.409  16.513  -6.955  1.00  0.00    -0.000 C 
BRANCH  12  13
ATOM     13  C   UNL     1      -4.614  17.216  -5.842  1.00  0.00    -0.003 C 
ATOM     14  C   UNL     1      -4.464  18.720  -6.074  1.00  0.00     0.004 C 
ENDBRANCH  12  13
ENDBRANCH  11  12
ENDBRANCH  10  11
ENDBRANCH   9  10
ENDBRANCH   1   9
TORSDOF 10
ENDMDL
MODEL 4
REMARK VINA RESULT:    -3.867      0.939      1.618
REMARK INTER + INTRA:          -7.120
REMARK INTER:                  -6.385
REMARK INTRA:                  -0.735
REMARK UNBOUND:                -0.992
REMARK SMILES CCCCCCCCCCCC(=O)[O-]
REMARK SMILES IDX 7 1 8 2 9 3 10 4 11 5 12 6 13 7 14 8 6 9 5 10 4 11 3 12 2 13
REMARK SMILES IDX 1 14
REMARK H PARENT
REMARK Flexibility Score: inf
ROOT
ATOM      1  C   UNL     1      -7.096  18.085  -9.746  1.00  0.00     0.000 C 
ENDROOT
BRANCH   1   2
ATOM      2  C   UNL     1      -6.358  18.498 -11.027  1.00  0.00     0.000 C 
BRANCH   2   3
ATOM      3  C   UNL     1      -7.347  18.928 -12.117  1.00  0.00     0.000 C 
BRANCH   3   4
ATOM      4  C   UNL     1      -8.794  18.860 -11.607  1.00  0.00     0.006 C 
BRANCH   4   5
ATOM      5  C   UNL     1      -9.713  18.096 -12.567  1.00  0.00     0.053 C 
BRANCH   5   6
ATOM      6  C   UNL     1     -10.648  17.184 -11.832  1.00  0.00     0.041 C 
ATOM      7  O   UNL     1     -11.829  17.024 -12.238  1.00  0.00    -0.550 OA
ATOM      8  O   UNL     1     -10.203  16.484 -10.717  1.00  0.00    -0.550 OA
ENDBRANCH   5   6
ENDBRANCH   4   5
ENDBRANCH   3   4
ENDBRANCH   2   3
ENDBRANCH   1   2
BRANCH   1   9
ATOM      9  C   UNL     1      -6.815  16.628  -9.336  1.00  0.00     0.000 C 
BRANCH   9  10
ATOM     10  C   UNL     1      -5.349  16.178  -9.498  1.00  0.00    -0.000 C 
BRANCH  10  11
ATOM     11  C   UNL     1      -4.419  16.545  -8.325  1.00  0.00    -0.000 C 
BRANCH  11  12
ATOM     12  C   UNL     1      -5.101  16.590  -6.942  1.00  0.00    -0.000 C 
BRANCH  12  13
ATOM     13  C   UNL     1      -4.606  17.711  -6.013  1.00  0.00    -0.003 C 
ATOM     14  C   UNL     1      -4.222  17.207  -4.622  1.00  0.00     0.004 C 
ENDBRANCH  12  13
ENDBRANCH  11  12
ENDBRANCH  10  11
ENDBRANCH   9  10
ENDBRANCH   1   9
TORSDOF 10
ENDMDL
MODEL 5
REMARK VINA RESULT:    -3.819      3.068      6.005
REMARK INTER + INTRA:          -7.043
REMARK INTER:                  -5.944
REMARK INTRA:                  -1.099
REMARK UNBOUND:                -0.992
REMARK SMILES CCCCCCCCCCCC(=O)[O-]
REMARK SMILES IDX 7 1 8 2 9 3 10 4 11 5 12 6 13 7 14 8 6 9 5 10 4 11 3 12 2 13
REMARK SMILES IDX 1 14
REMARK H PARENT
REMARK Flexibility Score: inf
ROOT
ATOM      1  C   UNL     1      -8.272  20.157 -11.500  1.00  0.00     0.000 C 
ENDROOT
BRANCH   1   2
ATOM      2  C   UNL     1      -7.449  18.862 -11.461  1.00  0.00     0.000 C 
BRANCH   2   3
ATOM      3  C   UNL     1      -6.923  18.587 -10.047  1.00  0.00     0.000 C 
BRANCH   3   4
ATOM      4  C   UNL     1      -6.714  17.083  -9.820  1.00  0.00     0.006 C 
BRANCH   4   5
ATOM      5  C   UNL     1      -6.823  16.699  -8.338  1.00  0.00     0.053 C 
BRANCH   5   6
ATOM      6  C   UNL     1      -5.476  16.469  -7.724  1.00  0.00     0.041 C 
ATOM      7  O   UNL     1      -5.361  16.332  -6.478  1.00  0.00    -0.550 OA
ATOM      8  O   UNL     1      -4.350  16.374  -8.533  1.00  0.00    -0.550 OA
ENDBRANCH   5   6
ENDBRANCH   4   5
ENDBRANCH   3   4
ENDBRANCH   2   3
ENDBRANCH   1   2
BRANCH   1   9
ATOM      9  C   UNL     1      -9.315  20.239 -10.371  1.00  0.00     0.000 C 
BRANCH   9  10
ATOM     10  C   UNL     1     -10.781  20.097 -10.829  1.00  0.00    -0.000 C 
BRANCH  10  11
ATOM     11  C   UNL     1     -10.974  19.428 -12.204  1.00  0.00    -0.000 C 
BRANCH  11  12
ATOM     12  C   UNL     1     -11.741  18.091 -12.175  1.00  0.00    -0.000 C 
BRANCH  12  13
ATOM     13  C   UNL     1     -10.852  16.836 -12.132  1.00  0.00    -0.003 C 
ATOM     14  C   UNL     1     -10.272  16.564 -10.744  1.00  0.00     0.004 C 
ENDBRANCH  12  13
ENDBRANCH  11  12
ENDBRANCH  10  11
ENDBRANCH   9  10
ENDBRANCH   1   9
TORSDOF 10
ENDMDL
MODEL 6
REMARK VINA RESULT:    -3.765      3.083      6.187
REMARK INTER + INTRA:          -6.958
REMARK INTER:                  -5.941
REMARK INTRA:                  -1.017
REMARK UNBOUND:                -0.992
REMARK SMILES CCCCCCCCCCCC(=O)[O-]
REMARK SMILES IDX 7 1 8 2 9 3 10 4 11 5 12 6 13 7 14 8 6 9 5 10 4 11 3 12 2 13
REMARK SMILES IDX 1 14
REMARK H PARENT
REMARK Flexibility Score: inf
ROOT
ATOM      1  C   UNL     1      -7.064  18.799 -11.413  1.00  0.00     0.000 C 
ENDROOT
BRANCH   1   2
ATOM      2  C   UNL     1      -7.201  18.429  -9.929  1.00  0.00     0.000 C 
BRANCH   2   3
ATOM      3  C   UNL     1      -6.971  16.928  -9.713  1.00  0.00     0.000 C 
BRANCH   3   4
ATOM      4  C   UNL     1      -6.842  16.601  -8.218  1.00  0.00     0.006 C 
BRANCH   4   5
ATOM      5  C   UNL     1      -5.378  16.475  -7.775  1.00  0.00     0.053 C 
BRANCH   5   6
ATOM      6  C   UNL     1      -5.053  17.419  -6.659  1.00  0.00     0.041 C 
ATOM      7  O   UNL     1      -4.633  16.979  -5.556  1.00  0.00    -0.550 OA
ATOM      8  O   UNL     1      -5.183  18.790  -6.847  1.00  0.00    -0.550 OA
ENDBRANCH   5   6
ENDBRANCH   4   5
ENDBRANCH   3   4
ENDBRANCH   2   3
ENDBRANCH   1   2
BRANCH   1   9
ATOM      9  C   UNL     1      -8.308  19.513 -11.970  1.00  0.00     0.000 C 
BRANCH   9  10
ATOM     10  C   UNL     1      -9.275  20.064 -10.903  1.00  0.00    -0.000 C 
BRANCH  10  11
ATOM     11  C   UNL     1     -10.664  19.397 -10.873  1.00  0.00    -0.000 C 
BRANCH  11  12
ATOM     12  C   UNL     1     -11.070  18.678 -12.175  1.00  0.00    -0.000 C 
BRANCH  12  13
ATOM     13  C   UNL     1     -11.218  17.152 -12.052  1.00  0.00    -0.003 C 
ATOM     14  C   UNL     1     -10.443  16.570 -10.869  1.00  0.00     0.004 C 
ENDBRANCH  12  13
ENDBRANCH  11  12
ENDBRANCH  10  11
ENDBRANCH   9  10
ENDBRANCH   1   9
TORSDOF 10
ENDMDL
MODEL 7
REMARK VINA RESULT:    -3.728      3.801      6.601
REMARK INTER + INTRA:          -6.899
REMARK INTER:                  -5.908
REMARK INTRA:                  -0.991
REMARK UNBOUND:                -0.992
REMARK SMILES CCCCCCCCCCCC(=O)[O-]
REMARK SMILES IDX 7 1 8 2 9 3 10 4 11 5 12 6 13 7 14 8 6 9 5 10 4 11 3 12 2 13
REMARK SMILES IDX 1 14
REMARK H PARENT
REMARK Flexibility Score: inf
ROOT
ATOM      1  C   UNL     1      -5.747  16.759  -9.639  1.00  0.00     0.000 C 
ENDROOT
BRANCH   1   2
ATOM      2  C   UNL     1      -6.881  16.514  -8.634  1.00  0.00     0.000 C 
BRANCH   2   3
ATOM      3  C   UNL     1      -6.453  16.905  -7.214  1.00  0.00     0.000 C 
BRANCH   3   4
ATOM      4  C   UNL     1      -4.961  16.618  -6.990  1.00  0.00     0.006 C 
BRANCH   4   5
ATOM      5  C   UNL     1      -4.208  17.843  -6.455  1.00  0.00     0.053 C 
BRANCH   5   6
ATOM      6  C   UNL     1      -4.143  17.843  -4.958  1.00  0.00     0.041 C 
ATOM      7  O   UNL     1      -4.118  16.755  -4.324  1.00  0.00    -0.550 OA
ATOM      8  O   UNL     1      -4.076  19.045  -4.264  1.00  0.00    -0.550 OA
ENDBRANCH   5   6
ENDBRANCH   4   5
ENDBRANCH   3   4
ENDBRANCH   2   3
ENDBRANCH   1   2
BRANCH   1   9
ATOM      9  C   UNL     1      -6.070  17.880 -10.644  1.00  0.00     0.000 C 
BRANCH   9  10
ATOM     10  C   UNL     1      -6.803  19.098 -10.047  1.00  0.00    -0.000 C 
BRANCH  10  11
ATOM     11  C   UNL     1      -8.182  19.398 -10.666  1.00  0.00    -0.000 C 
BRANCH  11  12
ATOM     12  C   UNL     1      -8.451  18.715 -12.022  1.00  0.00    -0.000 C 
BRANCH  12  13
ATOM     13  C   UNL     1      -9.750  17.894 -12.087  1.00  0.00    -0.003 C 
ATOM     14  C   UNL     1      -9.885  16.898 -10.935  1.00  0.00     0.004 C 
ENDBRANCH  12  13
ENDBRANCH  11  12
ENDBRANCH  10  11
ENDBRANCH   9  10
ENDBRANCH   1   9
TORSDOF 10
ENDMDL
MODEL 8
REMARK VINA RESULT:    -3.726      3.848      6.842
REMARK INTER + INTRA:          -6.896
REMARK INTER:                  -6.161
REMARK INTRA:                  -0.735
REMARK UNBOUND:                -0.992
REMARK SMILES CCCCCCCCCCCC(=O)[O-]
REMARK SMILES IDX 7 1 8 2 9 3 10 4 11 5 12 6 13 7 14 8 6 9 5 10 4 11 3 12 2 13
REMARK SMILES IDX 1 14
REMARK H PARENT
REMARK Flexibility Score: inf
ROOT
ATOM      1  C   UNL     1      -7.081  17.248  -9.869  1.00  0.00     0.000 C 
ENDROOT
BRANCH   1   2
ATOM      2  C   UNL     1      -6.653  16.326  -8.718  1.00  0.00     0.000 C 
BRANCH   2   3
ATOM      3  C   UNL     1      -6.439  17.123  -7.426  1.00  0.00     0.000 C 
BRANCH   3   4
ATOM      4  C   UNL     1      -5.224  16.596  -6.648  1.00  0.00     0.006 C 
BRANCH   4   5
ATOM      5  C   UNL     1      -4.134  17.662  -6.482  1.00  0.00     0.053 C 
BRANCH   5   6
ATOM      6  C   UNL     1      -4.122  18.232  -5.097  1.00  0.00     0.041 C 
ATOM      7  O   UNL     1      -4.154  19.479  -4.923  1.00  0.00    -0.550 OA
ATOM      8  O   UNL     1      -4.109  17.384  -3.996  1.00  0.00    -0.550 OA
ENDBRANCH   5   6
ENDBRANCH   4   5
ENDBRANCH   3   4
ENDBRANCH   2   3
ENDBRANCH   1   2
BRANCH   1   9
ATOM      9  C   UNL     1      -7.009  18.740  -9.499  1.00  0.00     0.000 C 
BRANCH   9  10
ATOM     10  C   UNL     1      -7.960  19.655 -10.296  1.00  0.00    -0.000 C 
BRANCH  10  11
ATOM     11  C   UNL     1      -8.838  18.935 -11.338  1.00  0.00    -0.000 C 
BRANCH  11  12
ATOM     12  C   UNL     1     -10.358  19.110 -11.143  1.00  0.00    -0.000 C 
BRANCH  12  13
ATOM     13  C   UNL     1     -11.186  17.828 -11.333  1.00  0.00    -0.003 C 
ATOM     14  C   UNL     1     -10.323  16.574 -11.472  1.00  0.00     0.004 C 
ENDBRANCH  12  13
ENDBRANCH  11  12
ENDBRANCH  10  11
ENDBRANCH   9  10
ENDBRANCH   1   9
TORSDOF 10
ENDMDL
MODEL 9
REMARK VINA RESULT:    -3.702      1.208      2.108
REMARK INTER + INTRA:          -6.859
REMARK INTER:                  -5.797
REMARK INTRA:                  -1.062
REMARK UNBOUND:                -0.992
REMARK SMILES CCCCCCCCCCCC(=O)[O-]
REMARK SMILES IDX 7 1 8 2 9 3 10 4 11 5 12 6 13 7 14 8 6 9 5 10 4 11 3 12 2 13
REMARK SMILES IDX 1 14
REMARK H PARENT
REMARK Flexibility Score: inf
ROOT
ATOM      1  C   UNL     1      -6.856  19.397  -9.231  1.00  0.00     0.000 C 
ENDROOT
BRANCH   1   2
ATOM      2  C   UNL     1      -7.453  18.320 -10.147  1.00  0.00     0.000 C 
BRANCH   2   3
ATOM      3  C   UNL     1      -7.669  18.861 -11.565  1.00  0.00     0.000 C 
BRANCH   3   4
ATOM      4  C   UNL     1      -9.162  19.074 -11.853  1.00  0.00     0.006 C 
BRANCH   4   5
ATOM      5  C   UNL     1      -9.760  17.937 -12.691  1.00  0.00     0.053 C 
BRANCH   5   6
ATOM      6  C   UNL     1     -10.765  17.144 -11.914  1.00  0.00     0.041 C 
ATOM      7  O   UNL     1     -10.419  16.530 -10.870  1.00  0.00    -0.550 OA
ATOM      8  O   UNL     1     -12.092  17.109 -12.324  1.00  0.00    -0.550 OA
ENDBRANCH   5   6
ENDBRANCH   4   5
ENDBRANCH   3   4
ENDBRANCH   2   3
ENDBRANCH   1   2
BRANCH   1   9
ATOM      9  C   UNL     1      -6.275  18.820  -7.927  1.00  0.00     0.000 C 
BRANCH   9  10
ATOM     10  C   UNL     1      -6.603  17.336  -7.670  1.00  0.00    -0.000 C 
BRANCH  10  11
ATOM     11  C   UNL     1      -5.379  16.422  -7.462  1.00  0.00    -0.000 C 
BRANCH  11  12
ATOM     12  C   UNL     1      -4.252  16.598  -8.500  1.00  0.00    -0.000 C 
BRANCH  12  13
ATOM     13  C   UNL     1      -4.559  16.023  -9.893  1.00  0.00    -0.003 C 
ATOM     14  C   UNL     1      -4.162  16.966 -11.029  1.00  0.00     0.004 C 
ENDBRANCH  12  13
ENDBRANCH  11  12
ENDBRANCH  10  11
ENDBRANCH   9  10
ENDBRANCH   1   9
TORSDOF 10
ENDMDL
