MODEL 1
REMARK VINA RESULT:    -2.157      0.000      0.000
REMARK INTER + INTRA:          -4.923
REMARK INTER:                  -4.174
REMARK INTRA:                  -0.749
REMARK UNBOUND:                -0.749
REMARK SMILES CCCCCCCCCCCCCCCCCC(=O)[O-]
REMARK SMILES IDX 10 1 11 2 12 3 13 4 14 5 15 6 16 7 17 8 18 9 19 10 20 11
REMARK SMILES IDX 9 12 8 13 7 14 6 15 5 16 4 17 3 18 2 19 1 20
REMARK H PARENT
REMARK Flexibility Score: inf
ROOT
ATOM      1  C   UNL     1      -3.959  -7.697   3.217  1.00  0.00     0.000 C 
ENDROOT
BRANCH   1   2
ATOM      2  C   UNL     1      -5.153  -6.992   3.883  1.00  0.00     0.000 C 
BRANCH   2   3
ATOM      3  C   UNL     1      -6.504  -7.478   3.338  1.00  0.00     0.000 C 
BRANCH   3   4
ATOM      4  C   UNL     1      -7.041  -8.705   4.098  1.00  0.00     0.000 C 
BRANCH   4   5
ATOM      5  C   UNL     1      -6.255  -9.985   3.777  1.00  0.00     0.000 C 
BRANCH   5   6
ATOM      6  C   UNL     1      -7.105 -11.023   3.021  1.00  0.00     0.000 C 
BRANCH   6   7
ATOM      7  C   UNL     1      -7.123 -10.782   1.501  1.00  0.00     0.006 C 
BRANCH   7   8
ATOM      8  C   UNL     1      -5.736 -10.541   0.883  1.00  0.00     0.053 C 
BRANCH   8   9
ATOM      9  C   UNL     1      -5.756  -9.436  -0.129  1.00  0.00     0.041 C 
ATOM     10  O   UNL     1      -6.595  -9.453  -1.068  1.00  0.00    -0.550 OA
ATOM     11  O   UNL     1      -4.872  -8.371  -0.014  1.00  0.00    -0.550 OA
ENDBRANCH   8   9
ENDBRANCH   7   8
ENDBRANCH   6   7
ENDBRANCH   5   6
ENDBRANCH   4   5
ENDBRANCH   3   4
ENDBRANCH   2   3
ENDBRANCH   1   2
BRANCH   1  12
ATOM     12  C   UNL     1      -3.596  -9.030   3.897  1.00  0.00     0.000 C 
BRANCH  12  13
ATOM     13  C   UNL     1      -2.764  -9.999   3.031  1.00  0.00    -0.000 C 
BRANCH  13  14
ATOM     14  C   UNL     1      -1.261  -9.674   2.947  1.00  0.00    -0.000 C 
BRANCH  14  15
ATOM     15  C   UNL     1      -0.480  -9.871   4.260  1.00  0.00    -0.000 C 
BRANCH  15  16
ATOM     16  C   UNL     1       0.233  -8.595   4.755  1.00  0.00    -0.000 C 
BRANCH  16  17
ATOM     17  C   UNL     1      -0.480  -7.311   4.305  1.00  0.00    -0.000 C 
BRANCH  17  18
ATOM     18  C   UNL     1      -0.002  -6.101   5.123  1.00  0.00    -0.000 C 
BRANCH  18  19
ATOM     19  C   UNL     1      -0.559  -4.772   4.590  1.00  0.00    -0.003 C 
ATOM     20  C   UNL     1       0.231  -3.559   5.083  1.00  0.00     0.004 C 
ENDBRANCH  18  19
ENDBRANCH  17  18
ENDBRANCH  16  17
ENDBRANCH  15  16
ENDBRANCH  14  15
ENDBRANCH  13  14
ENDBRANCH  12  13
ENDBRANCH   1  12
TORSDOF 16
ENDMDL
MODEL 2
REMARK VINA RESULT:    -2.060      1.537      4.169
REMARK INTER + INTRA:          -4.735
REMARK INTER:                  -3.377
REMARK INTRA:                  -1.358
REMARK UNBOUND:                -0.749
REMARK SMILES CCCCCCCCCCCCCCCCCC(=O)[O-]
REMARK SMILES IDX 10 1 11 2 12 3 13 4 14 5 15 6 16 7 17 8 18 9 19 10 20 11
REMARK SMILES IDX 9 12 8 13 7 14 6 15 5 16 4 17 3 18 2 19 1 20
REMARK H PARENT
REMARK Flexibility Score: inf
ROOT
ATOM      1  C   UNL     1       0.087  -9.035   2.833  1.00  0.00     0.000 C 
ENDROOT
BRANCH   1   2
ATOM      2  C   UNL     1      -0.036 -10.567   2.882  1.00  0.00     0.000 C 
BRANCH   2   3
ATOM      3  C   UNL     1      -1.333 -11.075   2.233  1.00  0.00     0.000 C 
BRANCH   3   4
ATOM      4  C   UNL     1      -2.568 -10.838   3.120  1.00  0.00     0.000 C 
BRANCH   4   5
ATOM      5  C   UNL     1      -3.885 -11.123   2.383  1.00  0.00     0.000 C 
BRANCH   5   6
ATOM      6  C   UNL     1      -4.658  -9.837   2.039  1.00  0.00     0.000 C 
BRANCH   6   7
ATOM      7  C   UNL     1      -6.154  -9.932   2.389  1.00  0.00     0.006 C 
BRANCH   7   8
ATOM      8  C   UNL     1      -7.073 -10.156   1.176  1.00  0.00     0.053 C 
BRANCH   8   9
ATOM      9  C   UNL     1      -6.376  -9.863  -0.118  1.00  0.00     0.041 C 
ATOM     10  O   UNL     1      -6.435  -8.711  -0.622  1.00  0.00    -0.550 OA
ATOM     11  O   UNL     1      -5.632 -10.853  -0.748  1.00  0.00    -0.550 OA
ENDBRANCH   8   9
ENDBRANCH   7   8
ENDBRANCH   6   7
ENDBRANCH   5   6
ENDBRANCH   4   5
ENDBRANCH   3   4
ENDBRANCH   2   3
ENDBRANCH   1   2
BRANCH   1  12
ATOM     12  C   UNL     1       0.261  -8.405   4.226  1.00  0.00     0.000 C 
BRANCH  12  13
ATOM     13  C   UNL     1      -0.256  -6.957   4.357  1.00  0.00    -0.000 C 
BRANCH  13  14
ATOM     14  C   UNL     1      -1.609  -6.809   5.078  1.00  0.00    -0.000 C 
BRANCH  14  15
ATOM     15  C   UNL     1      -2.602  -7.962   4.837  1.00  0.00    -0.000 C 
BRANCH  15  16
ATOM     16  C   UNL     1      -4.081  -7.520   4.850  1.00  0.00    -0.000 C 
BRANCH  16  17
ATOM     17  C   UNL     1      -4.499  -6.828   3.545  1.00  0.00    -0.000 C 
BRANCH  17  18
ATOM     18  C   UNL     1      -5.969  -6.384   3.603  1.00  0.00    -0.000 C 
BRANCH  18  19
ATOM     19  C   UNL     1      -6.138  -4.979   4.201  1.00  0.00    -0.003 C 
ATOM     20  C   UNL     1      -5.250  -3.936   3.522  1.00  0.00     0.004 C 
ENDBRANCH  18  19
ENDBRANCH  17  18
ENDBRANCH  16  17
ENDBRANCH  15  16
ENDBRANCH  14  15
ENDBRANCH  13  14
ENDBRANCH  12  13
ENDBRANCH   1  12
TORSDOF 16
ENDMDL
MODEL 3
REMARK VINA RESULT:    -1.929      2.574      7.028
REMARK INTER + INTRA:          -4.482
REMARK INTER:                  -3.623
REMARK INTRA:                  -0.859
REMARK UNBOUND:                -0.749
REMARK SMILES CCCCCCCCCCCCCCCCCC(=O)[O-]
REMARK SMILES IDX 10 1 11 2 12 3 13 4 14 5 15 6 16 7 17 8 18 9 19 10 20 11
REMARK SMILES IDX 9 12 8 13 7 14 6 15 5 16 4 17 3 18 2 19 1 20
REMARK H PARENT
REMARK Flexibility Score: inf
ROOT
ATOM      1  C   UNL     1      -2.632 -11.076   3.218  1.00  0.00     0.000 C 
ENDROOT
BRANCH   1   2
ATOM      2  C   UNL     1      -1.320 -10.277   3.146  1.00  0.00     0.000 C 
BRANCH   2   3
ATOM      3  C   UNL     1      -0.142 -11.122   2.637  1.00  0.00     0.000 C 
BRANCH   3   4
ATOM      4  C   UNL     1       1.116 -10.967   3.510  1.00  0.00     0.000 C 
BRANCH   4   5
ATOM      5  C   UNL     1       0.794 -10.444   4.918  1.00  0.00     0.000 C 
BRANCH   5   6
ATOM      6  C   UNL     1       1.252  -8.990   5.125  1.00  0.00     0.000 C 
BRANCH   6   7
ATOM      7  C   UNL     1       0.157  -7.966   4.771  1.00  0.00     0.006 C 
BRANCH   7   8
ATOM      8  C   UNL     1       0.514  -6.513   5.123  1.00  0.00     0.053 C 
BRANCH   8   9
ATOM      9  C   UNL     1      -0.639  -5.582   4.900  1.00  0.00     0.041 C 
ATOM     10  O   UNL     1      -0.510  -4.350   5.121  1.00  0.00    -0.550 OA
ATOM     11  O   UNL     1      -1.845  -6.072   4.413  1.00  0.00    -0.550 OA
ENDBRANCH   8   9
ENDBRANCH   7   8
ENDBRANCH   6   7
ENDBRANCH   5   6
ENDBRANCH   4   5
ENDBRANCH   3   4
ENDBRANCH   2   3
ENDBRANCH   1   2
BRANCH   1  12
ATOM     12  C   UNL     1      -3.294 -11.015   4.607  1.00  0.00     0.000 C 
BRANCH  12  13
ATOM     13  C   UNL     1      -4.833 -11.122   4.601  1.00  0.00    -0.000 C 
BRANCH  13  14
ATOM     14  C   UNL     1      -5.577  -9.853   5.058  1.00  0.00    -0.000 C 
BRANCH  14  15
ATOM     15  C   UNL     1      -4.828  -8.532   4.796  1.00  0.00    -0.000 C 
BRANCH  15  16
ATOM     16  C   UNL     1      -5.733  -7.400   4.266  1.00  0.00    -0.000 C 
BRANCH  16  17
ATOM     17  C   UNL     1      -5.959  -7.490   2.749  1.00  0.00    -0.000 C 
BRANCH  17  18
ATOM     18  C   UNL     1      -6.635  -8.817   2.371  1.00  0.00    -0.000 C 
BRANCH  18  19
ATOM     19  C   UNL     1      -5.884  -9.566   1.260  1.00  0.00    -0.003 C 
ATOM     20  C   UNL     1      -6.194  -9.024  -0.134  1.00  0.00     0.004 C 
ENDBRANCH  18  19
ENDBRANCH  17  18
ENDBRANCH  16  17
ENDBRANCH  15  16
ENDBRANCH  14  15
ENDBRANCH  13  14
ENDBRANCH  12  13
ENDBRANCH   1  12
TORSDOF 16
ENDMDL
MODEL 4
REMARK VINA RESULT:    -1.915      2.864      6.469
REMARK INTER + INTRA:          -4.455
REMARK INTER:                  -2.812
REMARK INTRA:                  -1.643
REMARK UNBOUND:                -0.749
REMARK SMILES CCCCCCCCCCCCCCCCCC(=O)[O-]
REMARK SMILES IDX 10 1 11 2 12 3 13 4 14 5 15 6 16 7 17 8 18 9 19 10 20 11
REMARK SMILES IDX 9 12 8 13 7 14 6 15 5 16 4 17 3 18 2 19 1 20
REMARK H PARENT
REMARK Flexibility Score: inf
ROOT
ATOM      1  C   UNL     1      -3.618 -10.168   2.745  1.00  0.00     0.000 C 
ENDROOT
BRANCH   1   2
ATOM      2  C   UNL     1      -2.131 -10.377   2.410  1.00  0.00     0.000 C 
BRANCH   2   3
ATOM      3  C   UNL     1      -1.375 -11.122   3.521  1.00  0.00     0.000 C 
BRANCH   3   4
ATOM      4  C   UNL     1       0.041 -10.565   3.746  1.00  0.00     0.000 C 
BRANCH   4   5
ATOM      5  C   UNL     1       0.178  -9.831   5.088  1.00  0.00     0.000 C 
BRANCH   5   6
ATOM      6  C   UNL     1      -0.607  -8.507   5.118  1.00  0.00     0.000 C 
BRANCH   6   7
ATOM      7  C   UNL     1      -0.347  -7.635   3.877  1.00  0.00     0.006 C 
BRANCH   7   8
ATOM      8  C   UNL     1       0.703  -6.532   4.089  1.00  0.00     0.053 C 
BRANCH   8   9
ATOM      9  C   UNL     1       1.225  -5.996   2.790  1.00  0.00     0.041 C 
ATOM     10  O   UNL     1       0.959  -6.585   1.710  1.00  0.00    -0.550 OA
ATOM     11  O   UNL     1       1.974  -4.826   2.771  1.00  0.00    -0.550 OA
ENDBRANCH   8   9
ENDBRANCH   7   8
ENDBRANCH   6   7
ENDBRANCH   5   6
ENDBRANCH   4   5
ENDBRANCH   3   4
ENDBRANCH   2   3
ENDBRANCH   1   2
BRANCH   1  12
ATOM     12  C   UNL     1      -4.049  -8.694   2.657  1.00  0.00     0.000 C 
BRANCH  12  13
ATOM     13  C   UNL     1      -5.221  -8.413   1.693  1.00  0.00    -0.000 C 
BRANCH  13  14
ATOM     14  C   UNL     1      -6.607  -8.320   2.358  1.00  0.00    -0.000 C 
BRANCH  14  15
ATOM     15  C   UNL     1      -6.793  -9.217   3.596  1.00  0.00    -0.000 C 
BRANCH  15  16
ATOM     16  C   UNL     1      -7.084  -8.433   4.893  1.00  0.00    -0.000 C 
BRANCH  16  17
ATOM     17  C   UNL     1      -6.085  -7.289   5.125  1.00  0.00    -0.000 C 
BRANCH  17  18
ATOM     18  C   UNL     1      -6.793  -5.926   5.100  1.00  0.00    -0.000 C 
BRANCH  18  19
ATOM     19  C   UNL     1      -6.338  -5.046   3.926  1.00  0.00    -0.003 C 
ATOM     20  C   UNL     1      -4.842  -5.169   3.639  1.00  0.00     0.004 C 
ENDBRANCH  18  19
ENDBRANCH  17  18
ENDBRANCH  16  17
ENDBRANCH  15  16
ENDBRANCH  14  15
ENDBRANCH  13  14
ENDBRANCH  12  13
ENDBRANCH   1  12
TORSDOF 16
ENDMDL
MODEL 5
REMARK VINA RESULT:    -1.825      2.130      3.331
REMARK INTER + INTRA:          -4.282
REMARK INTER:                  -2.898
REMARK INTRA:                  -1.384
REMARK UNBOUND:                -0.749
REMARK SMILES CCCCCCCCCCCCCCCCCC(=O)[O-]
REMARK SMILES IDX 10 1 11 2 12 3 13 4 14 5 15 6 16 7 17 8 18 9 19 10 20 11
REMARK SMILES IDX 9 12 8 13 7 14 6 15 5 16 4 17 3 18 2 19 1 20
REMARK H PARENT
REMARK Flexibility Score: inf
ROOT
ATOM      1  C   UNL     1      -3.707  -9.786   2.770  1.00  0.00     0.000 C 
ENDROOT
BRANCH   1   2
ATOM      2  C   UNL     1      -4.749 -10.507   1.898  1.00  0.00     0.000 C 
BRANCH   2   3
ATOM      3  C   UNL     1      -5.808  -9.550   1.330  1.00  0.00     0.000 C 
BRANCH   3   4
ATOM      4  C   UNL     1      -6.861  -9.148   2.378  1.00  0.00     0.000 C 
BRANCH   4   5
ATOM      5  C   UNL     1      -6.969 -10.166   3.524  1.00  0.00     0.000 C 
BRANCH   5   6
ATOM      6  C   UNL     1      -7.069  -9.490   4.903  1.00  0.00     0.000 C 
BRANCH   6   7
ATOM      7  C   UNL     1      -6.187  -8.233   5.014  1.00  0.00     0.006 C 
BRANCH   7   8
ATOM      8  C   UNL     1      -6.921  -6.917   4.711  1.00  0.00     0.053 C 
BRANCH   8   9
ATOM      9  C   UNL     1      -6.034  -5.926   4.020  1.00  0.00     0.041 C 
ATOM     10  O   UNL     1      -6.231  -4.691   4.165  1.00  0.00    -0.550 OA
ATOM     11  O   UNL     1      -4.969  -6.367   3.245  1.00  0.00    -0.550 OA
ENDBRANCH   8   9
ENDBRANCH   7   8
ENDBRANCH   6   7
ENDBRANCH   5   6
ENDBRANCH   4   5
ENDBRANCH   3   4
ENDBRANCH   2   3
ENDBRANCH   1   2
BRANCH   1  12
ATOM     12  C   UNL     1      -3.321 -10.586   4.026  1.00  0.00     0.000 C 
BRANCH  12  13
ATOM     13  C   UNL     1      -2.605  -9.772   5.125  1.00  0.00    -0.000 C 
BRANCH  13  14
ATOM     14  C   UNL     1      -1.069  -9.882   5.123  1.00  0.00    -0.000 C 
BRANCH  14  15
ATOM     15  C   UNL     1      -0.332  -8.665   4.533  1.00  0.00    -0.000 C 
BRANCH  15  16
ATOM     16  C   UNL     1      -1.112  -7.340   4.673  1.00  0.00    -0.000 C 
BRANCH  16  17
ATOM     17  C   UNL     1      -0.237  -6.110   4.389  1.00  0.00    -0.000 C 
BRANCH  17  18
ATOM     18  C   UNL     1       1.055  -6.510   3.660  1.00  0.00    -0.000 C 
BRANCH  18  19
ATOM     19  C   UNL     1       1.316  -5.655   2.411  1.00  0.00    -0.003 C 
ATOM     20  C   UNL     1       1.770  -4.235   2.750  1.00  0.00     0.004 C 
ENDBRANCH  18  19
ENDBRANCH  17  18
ENDBRANCH  16  17
ENDBRANCH  15  16
ENDBRANCH  14  15
ENDBRANCH  13  14
ENDBRANCH  12  13
ENDBRANCH   1  12
TORSDOF 16
ENDMDL
MODEL 6
REMARK VINA RESULT:    -1.450      1.315      3.562
REMARK INTER + INTRA:          -3.556
REMARK INTER:                  -2.235
REMARK INTRA:                  -1.320
REMARK UNBOUND:                -0.749
REMARK SMILES CCCCCCCCCCCCCCCCCC(=O)[O-]
REMARK SMILES IDX 10 1 11 2 12 3 13 4 14 5 15 6 16 7 17 8 18 9 19 10 20 11
REMARK SMILES IDX 9 12 8 13 7 14 6 15 5 16 4 17 3 18 2 19 1 20
REMARK H PARENT
REMARK Flexibility Score: inf
ROOT
ATOM      1  C   UNL     1      -2.025  -7.020   5.035  1.00  0.00     0.000 C 
ENDROOT
BRANCH   1   2
ATOM      2  C   UNL     1      -3.328  -6.749   4.263  1.00  0.00     0.000 C 
BRANCH   2   3
ATOM      3  C   UNL     1      -4.178  -8.016   4.078  1.00  0.00     0.000 C 
BRANCH   3   4
ATOM      4  C   UNL     1      -5.333  -8.103   5.092  1.00  0.00     0.000 C 
BRANCH   4   5
ATOM      5  C   UNL     1      -6.688  -8.369   4.418  1.00  0.00     0.000 C 
BRANCH   5   6
ATOM      6  C   UNL     1      -6.941  -9.868   4.179  1.00  0.00     0.000 C 
BRANCH   6   7
ATOM      7  C   UNL     1      -7.120 -10.209   2.688  1.00  0.00     0.006 C 
BRANCH   7   8
ATOM      8  C   UNL     1      -6.866  -9.029   1.735  1.00  0.00     0.053 C 
BRANCH   8   9
ATOM      9  C   UNL     1      -6.144  -9.456   0.493  1.00  0.00     0.041 C 
ATOM     10  O   UNL     1      -5.273 -10.364   0.548  1.00  0.00    -0.550 OA
ATOM     11  O   UNL     1      -6.460  -8.876  -0.729  1.00  0.00    -0.550 OA
ENDBRANCH   8   9
ENDBRANCH   7   8
ENDBRANCH   6   7
ENDBRANCH   5   6
ENDBRANCH   4   5
ENDBRANCH   3   4
ENDBRANCH   2   3
ENDBRANCH   1   2
BRANCH   1  12
ATOM     12  C   UNL     1      -0.788  -6.407   4.355  1.00  0.00     0.000 C 
BRANCH  12  13
ATOM     13  C   UNL     1       0.402  -7.373   4.173  1.00  0.00    -0.000 C 
BRANCH  13  14
ATOM     14  C   UNL     1       0.412  -8.584   5.125  1.00  0.00    -0.000 C 
BRANCH  14  15
ATOM     15  C   UNL     1       1.388  -9.709   4.732  1.00  0.00    -0.000 C 
BRANCH  15  16
ATOM     16  C   UNL     1       0.772 -11.121   4.813  1.00  0.00    -0.000 C 
BRANCH  16  17
ATOM     17  C   UNL     1      -0.732 -11.125   4.501  1.00  0.00    -0.000 C 
BRANCH  17  18
ATOM     18  C   UNL     1      -1.004 -10.571   3.094  1.00  0.00    -0.000 C 
BRANCH  18  19
ATOM     19  C   UNL     1      -2.324 -11.088   2.501  1.00  0.00    -0.003 C 
ATOM     20  C   UNL     1      -3.490 -10.999   3.485  1.00  0.00     0.004 C 
ENDBRANCH  18  19
ENDBRANCH  17  18
ENDBRANCH  16  17
ENDBRANCH  15  16
ENDBRANCH  14  15
ENDBRANCH  13  14
ENDBRANCH  12  13
ENDBRANCH   1  12
TORSDOF 16
ENDMDL
MODEL 7
REMARK VINA RESULT:    -1.296      2.883      6.377
REMARK INTER + INTRA:          -3.258
REMARK INTER:                  -2.090
REMARK INTRA:                  -1.168
REMARK UNBOUND:                -0.749
REMARK SMILES CCCCCCCCCCCCCCCCCC(=O)[O-]
REMARK SMILES IDX 10 1 11 2 12 3 13 4 14 5 15 6 16 7 17 8 18 9 19 10 20 11
REMARK SMILES IDX 9 12 8 13 7 14 6 15 5 16 4 17 3 18 2 19 1 20
REMARK H PARENT
REMARK Flexibility Score: inf
ROOT
ATOM      1  C   UNL     1      -2.063  -7.752   5.083  1.00  0.00     0.000 C 
ENDROOT
BRANCH   1   2
ATOM      2  C   UNL     1      -2.103  -6.262   4.702  1.00  0.00     0.000 C 
BRANCH   2   3
ATOM      3  C   UNL     1      -0.704  -5.631   4.643  1.00  0.00     0.000 C 
BRANCH   3   4
ATOM      4  C   UNL     1       0.412  -6.683   4.513  1.00  0.00     0.000 C 
BRANCH   4   5
ATOM      5  C   UNL     1       1.072  -6.673   3.126  1.00  0.00     0.000 C 
BRANCH   5   6
ATOM      6  C   UNL     1       0.408  -7.660   2.150  1.00  0.00     0.000 C 
BRANCH   6   7
ATOM      7  C   UNL     1      -0.416  -8.743   2.871  1.00  0.00     0.006 C 
BRANCH   7   8
ATOM      8  C   UNL     1       0.197 -10.151   2.805  1.00  0.00     0.053 C 
BRANCH   8   9
ATOM      9  C   UNL     1       0.491 -10.700   4.168  1.00  0.00     0.041 C 
ATOM     10  O   UNL     1      -0.452 -11.002   4.945  1.00  0.00    -0.550 OA
ATOM     11  O   UNL     1       1.805 -10.912   4.565  1.00  0.00    -0.550 OA
ENDBRANCH   8   9
ENDBRANCH   7   8
ENDBRANCH   6   7
ENDBRANCH   5   6
ENDBRANCH   4   5
ENDBRANCH   3   4
ENDBRANCH   2   3
ENDBRANCH   1   2
BRANCH   1  12
ATOM     12  C   UNL     1      -3.459  -8.401   5.105  1.00  0.00     0.000 C 
BRANCH  12  13
ATOM     13  C   UNL     1      -3.628  -9.619   4.172  1.00  0.00    -0.000 C 
BRANCH  13  14
ATOM     14  C   UNL     1      -3.656  -9.289   2.667  1.00  0.00    -0.000 C 
BRANCH  14  15
ATOM     15  C   UNL     1      -4.740 -10.030   1.862  1.00  0.00    -0.000 C 
BRANCH  15  16
ATOM     16  C   UNL     1      -6.090  -9.285   1.807  1.00  0.00    -0.000 C 
BRANCH  16  17
ATOM     17  C   UNL     1      -6.585  -8.861   3.198  1.00  0.00    -0.000 C 
BRANCH  17  18
ATOM     18  C   UNL     1      -7.123  -7.422   3.176  1.00  0.00    -0.000 C 
BRANCH  18  19
ATOM     19  C   UNL     1      -6.127  -6.410   3.762  1.00  0.00    -0.003 C 
ATOM     20  C   UNL     1      -6.561  -5.873   5.125  1.00  0.00     0.004 C 
ENDBRANCH  18  19
ENDBRANCH  17  18
ENDBRANCH  16  17
ENDBRANCH  15  16
ENDBRANCH  14  15
ENDBRANCH  13  14
ENDBRANCH  12  13
ENDBRANCH   1  12
TORSDOF 16
ENDMDL
MODEL 8
REMARK VINA RESULT:    -1.248      1.543      3.324
REMARK INTER + INTRA:          -3.164
REMARK INTER:                  -2.600
REMARK INTRA:                  -0.564
REMARK UNBOUND:                -0.749
REMARK SMILES CCCCCCCCCCCCCCCCCC(=O)[O-]
REMARK SMILES IDX 10 1 11 2 12 3 13 4 14 5 15 6 16 7 17 8 18 9 19 10 20 11
REMARK SMILES IDX 9 12 8 13 7 14 6 15 5 16 4 17 3 18 2 19 1 20
REMARK H PARENT
REMARK Flexibility Score: inf
ROOT
ATOM      1  C   UNL     1      -2.967  -9.387   2.849  1.00  0.00     0.000 C 
ENDROOT
BRANCH   1   2
ATOM      2  C   UNL     1      -3.339 -10.589   3.733  1.00  0.00     0.000 C 
BRANCH   2   3
ATOM      3  C   UNL     1      -4.748 -11.124   3.438  1.00  0.00     0.000 C 
BRANCH   3   4
ATOM      4  C   UNL     1      -5.753 -10.784   4.553  1.00  0.00     0.000 C 
BRANCH   4   5
ATOM      5  C   UNL     1      -7.101 -10.296   4.001  1.00  0.00     0.000 C 
BRANCH   5   6
ATOM      6  C   UNL     1      -7.079  -8.803   3.627  1.00  0.00     0.000 C 
BRANCH   6   7
ATOM      7  C   UNL     1      -7.109  -8.572   2.105  1.00  0.00     0.006 C 
BRANCH   7   8
ATOM      8  C   UNL     1      -6.734  -9.808   1.271  1.00  0.00     0.053 C 
BRANCH   8   9
ATOM      9  C   UNL     1      -6.570  -9.477  -0.181  1.00  0.00     0.041 C 
ATOM     10  O   UNL     1      -6.035  -8.390  -0.526  1.00  0.00    -0.550 OA
ATOM     11  O   UNL     1      -6.975 -10.384  -1.152  1.00  0.00    -0.550 OA
ENDBRANCH   8   9
ENDBRANCH   7   8
ENDBRANCH   6   7
ENDBRANCH   5   6
ENDBRANCH   4   5
ENDBRANCH   3   4
ENDBRANCH   2   3
ENDBRANCH   1   2
BRANCH   1  12
ATOM     12  C   UNL     1      -3.579  -8.066   3.348  1.00  0.00     0.000 C 
BRANCH  12  13
ATOM     13  C   UNL     1      -2.974  -7.519   4.658  1.00  0.00    -0.000 C 
BRANCH  13  14
ATOM     14  C   UNL     1      -1.523  -7.015   4.548  1.00  0.00    -0.000 C 
BRANCH  14  15
ATOM     15  C   UNL     1      -0.452  -8.013   5.026  1.00  0.00    -0.000 C 
BRANCH  15  16
ATOM     16  C   UNL     1       0.589  -8.371   3.944  1.00  0.00    -0.000 C 
BRANCH  16  17
ATOM     17  C   UNL     1      -0.006  -9.226   2.816  1.00  0.00    -0.000 C 
BRANCH  17  18
ATOM     18  C   UNL     1       0.358 -10.708   2.997  1.00  0.00    -0.000 C 
BRANCH  18  19
ATOM     19  C   UNL     1       0.416 -11.125   4.475  1.00  0.00    -0.003 C 
ATOM     20  C   UNL     1       1.763 -10.813   5.125  1.00  0.00     0.004 C 
ENDBRANCH  18  19
ENDBRANCH  17  18
ENDBRANCH  16  17
ENDBRANCH  15  16
ENDBRANCH  14  15
ENDBRANCH  13  14
ENDBRANCH  12  13
ENDBRANCH   1  12
TORSDOF 16
ENDMDL
