MODEL 1
REMARK VINA RESULT:    -5.346      0.000      0.000
REMARK INTER + INTRA:          -9.486
REMARK INTER:                  -8.471
REMARK INTRA:                  -1.015
REMARK UNBOUND:                -1.015
REMARK SMILES CCCCCCCCCCCC(=O)[O-]
REMARK SMILES IDX 7 1 8 2 9 3 10 4 11 5 12 6 13 7 14 8 6 9 5 10 4 11 3 12 2 13
REMARK SMILES IDX 1 14
REMARK H PARENT
REMARK Flexibility Score: inf
ROOT
ATOM      1  C   UNL     1      25.520  -2.503  62.046  1.00  0.00     0.000 C 
ENDROOT
BRANCH   1   2
ATOM      2  C   UNL     1      25.963  -1.137  61.493  1.00  0.00     0.000 C 
BRANCH   2   3
ATOM      3  C   UNL     1      25.087   0.018  62.002  1.00  0.00     0.000 C 
BRANCH   3   4
ATOM      4  C   UNL     1      25.900   1.115  62.707  1.00  0.00     0.006 C 
BRANCH   4   5
ATOM      5  C   UNL     1      25.424   2.508  62.282  1.00  0.00     0.053 C 
BRANCH   5   6
ATOM      6  C   UNL     1      24.008   2.730  62.707  1.00  0.00     0.041 C 
ATOM      7  O   UNL     1      23.697   2.682  63.927  1.00  0.00    -0.550 OA
ATOM      8  O   UNL     1      23.020   2.943  61.754  1.00  0.00    -0.550 OA
ENDBRANCH   5   6
ENDBRANCH   4   5
ENDBRANCH   3   4
ENDBRANCH   2   3
ENDBRANCH   1   2
BRANCH   1   9
ATOM      9  C   UNL     1      25.393  -3.571  60.947  1.00  0.00     0.000 C 
BRANCH   9  10
ATOM     10  C   UNL     1      25.442  -2.976  59.532  1.00  0.00    -0.000 C 
BRANCH  10  11
ATOM     11  C   UNL     1      24.068  -3.055  58.856  1.00  0.00    -0.000 C 
BRANCH  11  12
ATOM     12  C   UNL     1      23.004  -3.576  59.830  1.00  0.00    -0.000 C 
BRANCH  12  13
ATOM     13  C   UNL     1      21.852  -2.575  59.971  1.00  0.00    -0.003 C 
ATOM     14  C   UNL     1      21.898  -1.867  61.323  1.00  0.00     0.004 C 
ENDBRANCH  12  13
ENDBRANCH  11  12
ENDBRANCH  10  11
ENDBRANCH   9  10
ENDBRANCH   1   9
TORSDOF 10
ENDMDL
MODEL 2
REMARK VINA RESULT:    -5.344      3.122      6.158
REMARK INTER + INTRA:          -9.484
REMARK INTER:                  -8.760
REMARK INTRA:                  -0.724
REMARK UNBOUND:                -1.015
REMARK SMILES CCCCCCCCCCCC(=O)[O-]
REMARK SMILES IDX 7 1 8 2 9 3 10 4 11 5 12 6 13 7 14 8 6 9 5 10 4 11 3 12 2 13
REMARK SMILES IDX 1 14
REMARK H PARENT
REMARK Flexibility Score: inf
ROOT
ATOM      1  C   UNL     1      25.868   1.128  62.769  1.00  0.00     0.000 C 
ENDROOT
BRANCH   1   2
ATOM      2  C   UNL     1      25.028   0.071  62.031  1.00  0.00     0.000 C 
BRANCH   2   3
ATOM      3  C   UNL     1      25.851  -1.164  61.632  1.00  0.00     0.000 C 
BRANCH   3   4
ATOM      4  C   UNL     1      25.243  -2.476  62.151  1.00  0.00     0.006 C 
BRANCH   4   5
ATOM      5  C   UNL     1      25.570  -3.640  61.210  1.00  0.00     0.053 C 
BRANCH   5   6
ATOM      6  C   UNL     1      24.696  -3.595  59.997  1.00  0.00     0.041 C 
ATOM      7  O   UNL     1      23.480  -3.911  60.080  1.00  0.00    -0.550 OA
ATOM      8  O   UNL     1      25.234  -3.250  58.763  1.00  0.00    -0.550 OA
ENDBRANCH   5   6
ENDBRANCH   4   5
ENDBRANCH   3   4
ENDBRANCH   2   3
ENDBRANCH   1   2
BRANCH   1   9
ATOM      9  C   UNL     1      25.548   2.561  62.311  1.00  0.00     0.000 C 
BRANCH   9  10
ATOM     10  C   UNL     1      24.059   2.763  61.991  1.00  0.00    -0.000 C 
BRANCH  10  11
ATOM     11  C   UNL     1      23.387   3.652  63.044  1.00  0.00    -0.000 C 
BRANCH  11  12
ATOM     12  C   UNL     1      22.172   2.950  63.663  1.00  0.00    -0.000 C 
BRANCH  12  13
ATOM     13  C   UNL     1      22.416   2.631  65.143  1.00  0.00    -0.003 C 
ATOM     14  C   UNL     1      23.819   3.053  65.574  1.00  0.00     0.004 C 
ENDBRANCH  12  13
ENDBRANCH  11  12
ENDBRANCH  10  11
ENDBRANCH   9  10
ENDBRANCH   1   9
TORSDOF 10
ENDMDL
MODEL 3
REMARK VINA RESULT:    -5.316      3.241      6.225
REMARK INTER + INTRA:          -9.440
REMARK INTER:                  -8.535
REMARK INTRA:                  -0.904
REMARK UNBOUND:                -1.015
REMARK SMILES CCCCCCCCCCCC(=O)[O-]
REMARK SMILES IDX 7 1 8 2 9 3 10 4 11 5 12 6 13 7 14 8 6 9 5 10 4 11 3 12 2 13
REMARK SMILES IDX 1 14
REMARK H PARENT
REMARK Flexibility Score: inf
ROOT
ATOM      1  C   UNL     1      25.524   2.572  62.281  1.00  0.00     0.000 C 
ENDROOT
BRANCH   1   2
ATOM      2  C   UNL     1      25.958   1.166  62.734  1.00  0.00     0.000 C 
BRANCH   2   3
ATOM      3  C   UNL     1      25.127   0.052  62.079  1.00  0.00     0.000 C 
BRANCH   3   4
ATOM      4  C   UNL     1      25.988  -1.126  61.597  1.00  0.00     0.006 C 
BRANCH   4   5
ATOM      5  C   UNL     1      25.409  -2.460  62.080  1.00  0.00     0.053 C 
BRANCH   5   6
ATOM      6  C   UNL     1      25.096  -3.346  60.916  1.00  0.00     0.041 C 
ATOM      7  O   UNL     1      24.200  -4.226  61.012  1.00  0.00    -0.550 OA
ATOM      8  O   UNL     1      25.829  -3.235  59.740  1.00  0.00    -0.550 OA
ENDBRANCH   5   6
ENDBRANCH   4   5
ENDBRANCH   3   4
ENDBRANCH   2   3
ENDBRANCH   1   2
BRANCH   1   9
ATOM      9  C   UNL     1      25.382   3.553  63.457  1.00  0.00     0.000 C 
BRANCH   9  10
ATOM     10  C   UNL     1      25.230   2.840  64.810  1.00  0.00    -0.000 C 
BRANCH  10  11
ATOM     11  C   UNL     1      23.853   3.119  65.424  1.00  0.00    -0.000 C 
BRANCH  11  12
ATOM     12  C   UNL     1      22.851   3.566  64.352  1.00  0.00    -0.000 C 
BRANCH  12  13
ATOM     13  C   UNL     1      21.759   2.511  64.147  1.00  0.00    -0.003 C 
ATOM     14  C   UNL     1      21.859   1.874  62.764  1.00  0.00     0.004 C 
ENDBRANCH  12  13
ENDBRANCH  11  12
ENDBRANCH  10  11
ENDBRANCH   9  10
ENDBRANCH   1   9
TORSDOF 10
ENDMDL
MODEL 4
REMARK VINA RESULT:    -5.302      2.940      6.079
REMARK INTER + INTRA:          -9.417
REMARK INTER:                  -8.820
REMARK INTRA:                  -0.597
REMARK UNBOUND:                -1.015
REMARK SMILES CCCCCCCCCCCC(=O)[O-]
REMARK SMILES IDX 7 1 8 2 9 3 10 4 11 5 12 6 13 7 14 8 6 9 5 10 4 11 3 12 2 13
REMARK SMILES IDX 1 14
REMARK H PARENT
REMARK Flexibility Score: inf
ROOT
ATOM      1  C   UNL     1      25.053  -0.036  62.250  1.00  0.00     0.000 C 
ENDROOT
BRANCH   1   2
ATOM      2  C   UNL     1      25.896  -1.134  61.577  1.00  0.00     0.000 C 
BRANCH   2   3
ATOM      3  C   UNL     1      25.436  -2.549  61.960  1.00  0.00     0.000 C 
BRANCH   3   4
ATOM      4  C   UNL     1      23.986  -2.837  61.541  1.00  0.00     0.006 C 
BRANCH   4   5
ATOM      5  C   UNL     1      23.937  -3.888  60.427  1.00  0.00     0.053 C 
BRANCH   5   6
ATOM      6  C   UNL     1      24.063  -3.237  59.087  1.00  0.00     0.041 C 
ATOM      7  O   UNL     1      25.192  -3.125  58.540  1.00  0.00    -0.550 OA
ATOM      8  O   UNL     1      22.941  -2.709  58.460  1.00  0.00    -0.550 OA
ENDBRANCH   5   6
ENDBRANCH   4   5
ENDBRANCH   3   4
ENDBRANCH   2   3
ENDBRANCH   1   2
BRANCH   1   9
ATOM      9  C   UNL     1      25.908   1.138  62.755  1.00  0.00     0.000 C 
BRANCH   9  10
ATOM     10  C   UNL     1      25.384   2.502  62.280  1.00  0.00    -0.000 C 
BRANCH  10  11
ATOM     11  C   UNL     1      25.490   3.549  63.395  1.00  0.00    -0.000 C 
BRANCH  11  12
ATOM     12  C   UNL     1      24.109   4.105  63.762  1.00  0.00    -0.000 C 
BRANCH  12  13
ATOM     13  C   UNL     1      23.000   3.363  63.007  1.00  0.00    -0.003 C 
ATOM     14  C   UNL     1      21.901   2.898  63.959  1.00  0.00     0.004 C 
ENDBRANCH  12  13
ENDBRANCH  11  12
ENDBRANCH  10  11
ENDBRANCH   9  10
ENDBRANCH   1   9
TORSDOF 10
ENDMDL
MODEL 5
REMARK VINA RESULT:    -5.216      1.397      2.718
REMARK INTER + INTRA:          -9.281
REMARK INTER:                  -8.590
REMARK INTRA:                  -0.691
REMARK UNBOUND:                -1.015
REMARK SMILES CCCCCCCCCCCC(=O)[O-]
REMARK SMILES IDX 7 1 8 2 9 3 10 4 11 5 12 6 13 7 14 8 6 9 5 10 4 11 3 12 2 13
REMARK SMILES IDX 1 14
REMARK H PARENT
REMARK Flexibility Score: inf
ROOT
ATOM      1  C   UNL     1      25.112   0.085  62.036  1.00  0.00     0.000 C 
ENDROOT
BRANCH   1   2
ATOM      2  C   UNL     1      25.915   1.197  62.733  1.00  0.00     0.000 C 
BRANCH   2   3
ATOM      3  C   UNL     1      25.403   2.603  62.382  1.00  0.00     0.000 C 
BRANCH   3   4
ATOM      4  C   UNL     1      23.876   2.657  62.225  1.00  0.00     0.006 C 
BRANCH   4   5
ATOM      5  C   UNL     1      23.260   3.657  63.210  1.00  0.00     0.053 C 
BRANCH   5   6
ATOM      6  C   UNL     1      22.932   2.983  64.504  1.00  0.00     0.041 C 
ATOM      7  O   UNL     1      21.819   2.415  64.659  1.00  0.00    -0.550 OA
ATOM      8  O   UNL     1      23.837   3.023  65.558  1.00  0.00    -0.550 OA
ENDBRANCH   5   6
ENDBRANCH   4   5
ENDBRANCH   3   4
ENDBRANCH   2   3
ENDBRANCH   1   2
BRANCH   1   9
ATOM      9  C   UNL     1      25.992  -1.108  61.624  1.00  0.00     0.000 C 
BRANCH   9  10
ATOM     10  C   UNL     1      25.370  -2.462  61.999  1.00  0.00    -0.000 C 
BRANCH  10  11
ATOM     11  C   UNL     1      23.842  -2.363  62.070  1.00  0.00    -0.000 C 
BRANCH  11  12
ATOM     12  C   UNL     1      23.180  -3.354  61.105  1.00  0.00    -0.000 C 
BRANCH  12  13
ATOM     13  C   UNL     1      24.175  -3.835  60.043  1.00  0.00    -0.003 C 
ATOM     14  C   UNL     1      23.970  -3.098  58.722  1.00  0.00     0.004 C 
ENDBRANCH  12  13
ENDBRANCH  11  12
ENDBRANCH  10  11
ENDBRANCH   9  10
ENDBRANCH   1   9
TORSDOF 10
ENDMDL
MODEL 6
REMARK VINA RESULT:    -5.210      1.156      2.414
REMARK INTER + INTRA:          -9.271
REMARK INTER:                  -8.597
REMARK INTRA:                  -0.674
REMARK UNBOUND:                -1.015
REMARK SMILES CCCCCCCCCCCC(=O)[O-]
REMARK SMILES IDX 7 1 8 2 9 3 10 4 11 5 12 6 13 7 14 8 6 9 5 10 4 11 3 12 2 13
REMARK SMILES IDX 1 14
REMARK H PARENT
REMARK Flexibility Score: inf
ROOT
ATOM      1  C   UNL     1      25.070   0.076  62.083  1.00  0.00     0.000 C 
ENDROOT
BRANCH   1   2
ATOM      2  C   UNL     1      25.925   1.174  62.741  1.00  0.00     0.000 C 
BRANCH   2   3
ATOM      3  C   UNL     1      25.478   2.589  62.342  1.00  0.00     0.000 C 
BRANCH   3   4
ATOM      4  C   UNL     1      23.982   2.664  61.996  1.00  0.00     0.006 C 
BRANCH   4   5
ATOM      5  C   UNL     1      23.277   3.728  62.843  1.00  0.00     0.053 C 
BRANCH   5   6
ATOM      6  C   UNL     1      22.631   3.103  64.038  1.00  0.00     0.041 C 
ATOM      7  O   UNL     1      21.449   2.675  63.969  1.00  0.00    -0.550 OA
ATOM      8  O   UNL     1      23.318   3.035  65.245  1.00  0.00    -0.550 OA
ENDBRANCH   5   6
ENDBRANCH   4   5
ENDBRANCH   3   4
ENDBRANCH   2   3
ENDBRANCH   1   2
BRANCH   1   9
ATOM      9  C   UNL     1      25.907  -1.133  61.633  1.00  0.00     0.000 C 
BRANCH   9  10
ATOM     10  C   UNL     1      25.291  -2.474  62.060  1.00  0.00    -0.000 C 
BRANCH  10  11
ATOM     11  C   UNL     1      25.466  -3.531  60.963  1.00  0.00    -0.000 C 
BRANCH  11  12
ATOM     12  C   UNL     1      24.124  -3.863  60.300  1.00  0.00    -0.000 C 
BRANCH  12  13
ATOM     13  C   UNL     1      22.951  -3.472  61.206  1.00  0.00    -0.003 C 
ATOM     14  C   UNL     1      21.834  -2.805  60.406  1.00  0.00     0.004 C 
ENDBRANCH  12  13
ENDBRANCH  11  12
ENDBRANCH  10  11
ENDBRANCH   9  10
ENDBRANCH   1   9
TORSDOF 10
ENDMDL
MODEL 7
REMARK VINA RESULT:    -5.145      2.421      5.616
REMARK INTER + INTRA:          -9.169
REMARK INTER:                  -8.419
REMARK INTRA:                  -0.750
REMARK UNBOUND:                -1.015
REMARK SMILES CCCCCCCCCCCC(=O)[O-]
REMARK SMILES IDX 7 1 8 2 9 3 10 4 11 5 12 6 13 7 14 8 6 9 5 10 4 11 3 12 2 13
REMARK SMILES IDX 1 14
REMARK H PARENT
REMARK Flexibility Score: inf
ROOT
ATOM      1  C   UNL     1      25.117  -0.082  62.243  1.00  0.00     0.000 C 
ENDROOT
BRANCH   1   2
ATOM      2  C   UNL     1      25.948  -1.114  61.460  1.00  0.00     0.000 C 
BRANCH   2   3
ATOM      3  C   UNL     1      25.566  -2.562  61.801  1.00  0.00     0.000 C 
BRANCH   3   4
ATOM      4  C   UNL     1      24.176  -2.673  62.447  1.00  0.00     0.006 C 
BRANCH   4   5
ATOM      5  C   UNL     1      23.225  -3.486  61.562  1.00  0.00     0.053 C 
BRANCH   5   6
ATOM      6  C   UNL     1      22.288  -2.580  60.830  1.00  0.00     0.041 C 
ATOM      7  O   UNL     1      21.696  -1.652  61.440  1.00  0.00    -0.550 OA
ATOM      8  O   UNL     1      22.029  -2.791  59.480  1.00  0.00    -0.550 OA
ENDBRANCH   5   6
ENDBRANCH   4   5
ENDBRANCH   3   4
ENDBRANCH   2   3
ENDBRANCH   1   2
BRANCH   1   9
ATOM      9  C   UNL     1      25.947   1.137  62.678  1.00  0.00     0.000 C 
BRANCH   9  10
ATOM     10  C   UNL     1      25.257   2.471  62.354  1.00  0.00    -0.000 C 
BRANCH  10  11
ATOM     11  C   UNL     1      23.746   2.281  62.187  1.00  0.00    -0.000 C 
BRANCH  11  12
ATOM     12  C   UNL     1      22.969   3.080  63.241  1.00  0.00    -0.000 C 
BRANCH  12  13
ATOM     13  C   UNL     1      23.923   3.729  64.250  1.00  0.00    -0.003 C 
ATOM     14  C   UNL     1      23.839   3.039  65.609  1.00  0.00     0.004 C 
ENDBRANCH  12  13
ENDBRANCH  11  12
ENDBRANCH  10  11
ENDBRANCH   9  10
ENDBRANCH   1   9
TORSDOF 10
ENDMDL
MODEL 8
REMARK VINA RESULT:    -5.054      0.916      1.960
REMARK INTER + INTRA:          -9.023
REMARK INTER:                  -7.915
REMARK INTRA:                  -1.108
REMARK UNBOUND:                -1.015
REMARK SMILES CCCCCCCCCCCC(=O)[O-]
REMARK SMILES IDX 7 1 8 2 9 3 10 4 11 5 12 6 13 7 14 8 6 9 5 10 4 11 3 12 2 13
REMARK SMILES IDX 1 14
REMARK H PARENT
REMARK Flexibility Score: inf
ROOT
ATOM      1  C   UNL     1      24.950  -3.663  61.062  1.00  0.00     0.000 C 
ENDROOT
BRANCH   1   2
ATOM      2  C   UNL     1      25.254  -2.618  62.151  1.00  0.00     0.000 C 
BRANCH   2   3
ATOM      3  C   UNL     1      25.875  -1.334  61.579  1.00  0.00     0.000 C 
BRANCH   3   4
ATOM      4  C   UNL     1      25.081  -0.073  61.953  1.00  0.00     0.006 C 
BRANCH   4   5
ATOM      5  C   UNL     1      25.981   0.956  62.645  1.00  0.00     0.053 C 
BRANCH   5   6
ATOM      6  C   UNL     1      25.206   2.191  62.978  1.00  0.00     0.041 C 
ATOM      7  O   UNL     1      24.394   2.674  62.145  1.00  0.00    -0.550 OA
ATOM      8  O   UNL     1      25.415   2.838  64.189  1.00  0.00    -0.550 OA
ENDBRANCH   5   6
ENDBRANCH   4   5
ENDBRANCH   3   4
ENDBRANCH   2   3
ENDBRANCH   1   2
BRANCH   1   9
ATOM      9  C   UNL     1      24.913  -3.051  59.652  1.00  0.00     0.000 C 
BRANCH   9  10
ATOM     10  C   UNL     1      23.515  -3.107  59.017  1.00  0.00    -0.000 C 
BRANCH  10  11
ATOM     11  C   UNL     1      22.438  -3.344  60.082  1.00  0.00    -0.000 C 
BRANCH  11  12
ATOM     12  C   UNL     1      21.583  -2.089  60.291  1.00  0.00    -0.000 C 
BRANCH  12  13
ATOM     13  C   UNL     1      21.768  -1.527  61.705  1.00  0.00    -0.003 C 
ATOM     14  C   UNL     1      21.293  -0.079  61.791  1.00  0.00     0.004 C 
ENDBRANCH  12  13
ENDBRANCH  11  12
ENDBRANCH  10  11
ENDBRANCH   9  10
ENDBRANCH   1   9
TORSDOF 10
ENDMDL
MODEL 9
REMARK VINA RESULT:    -4.876      2.844      6.025
REMARK INTER + INTRA:          -8.741
REMARK INTER:                  -7.659
REMARK INTRA:                  -1.083
REMARK UNBOUND:                -1.015
REMARK SMILES CCCCCCCCCCCC(=O)[O-]
REMARK SMILES IDX 7 1 8 2 9 3 10 4 11 5 12 6 13 7 14 8 6 9 5 10 4 11 3 12 2 13
REMARK SMILES IDX 1 14
REMARK H PARENT
REMARK Flexibility Score: inf
ROOT
ATOM      1  C   UNL     1      21.841   1.087  62.015  1.00  0.00     0.000 C 
ENDROOT
BRANCH   1   2
ATOM      2  C   UNL     1      21.743  -0.403  62.387  1.00  0.00     0.000 C 
BRANCH   2   3
ATOM      3  C   UNL     1      21.363  -1.287  61.189  1.00  0.00     0.000 C 
BRANCH   3   4
ATOM      4  C   UNL     1      22.140  -2.612  61.157  1.00  0.00     0.006 C 
BRANCH   4   5
ATOM      5  C   UNL     1      23.652  -2.360  61.155  1.00  0.00     0.053 C 
BRANCH   5   6
ATOM      6  C   UNL     1      24.308  -3.104  62.275  1.00  0.00     0.041 C 
ATOM      7  O   UNL     1      23.615  -3.580  63.212  1.00  0.00    -0.550 OA
ATOM      8  O   UNL     1      25.691  -3.229  62.310  1.00  0.00    -0.550 OA
ENDBRANCH   5   6
ENDBRANCH   4   5
ENDBRANCH   3   4
ENDBRANCH   2   3
ENDBRANCH   1   2
BRANCH   1   9
ATOM      9  C   UNL     1      21.820   2.006  63.248  1.00  0.00     0.000 C 
BRANCH   9  10
ATOM     10  C   UNL     1      22.972   3.023  63.251  1.00  0.00    -0.000 C 
BRANCH  10  11
ATOM     11  C   UNL     1      23.742   2.982  61.926  1.00  0.00    -0.000 C 
BRANCH  11  12
ATOM     12  C   UNL     1      25.256   2.995  62.168  1.00  0.00    -0.000 C 
BRANCH  12  13
ATOM     13  C   UNL     1      25.682   1.814  63.048  1.00  0.00    -0.003 C 
ATOM     14  C   UNL     1      25.593   0.496  62.282  1.00  0.00     0.004 C 
ENDBRANCH  12  13
ENDBRANCH  11  12
ENDBRANCH  10  11
ENDBRANCH   9  10
ENDBRANCH   1   9
TORSDOF 10
ENDMDL
