MODEL 1
REMARK VINA RESULT:    -6.442      0.000      0.000
REMARK INTER + INTRA:          -9.903
REMARK INTER:                  -8.513
REMARK INTRA:                  -1.390
REMARK UNBOUND:                -1.390
REMARK SMILES CC[C@@H](C=C[C@H](C)[C@H]1CC[C@H]2C3=CC[C@H]4C[C@H](O)CC[C@@]4(C)[C@H]3CC[C@@]12C)C(C)C
REMARK SMILES IDX 6 1 7 2 5 3 4 4 3 5 2 6 1 7 28 8 29 9 30 10 8 11 9 12 26 13
REMARK SMILES IDX 10 14 11 15 25 16 27 17 12 18 24 19 23 20 13 21 21 22 14 23
REMARK SMILES IDX 15 24 20 25 22 26 16 27 19 28 17 29 18 30
REMARK H PARENT 18 31
REMARK Flexibility Score: inf
ROOT
ATOM      1  C   UNL     1     147.234 138.989 141.778  1.00  0.00     0.012 C 
ATOM      2  C   UNL     1     146.006 139.360 142.626  1.00  0.00     0.012 C 
ENDROOT
BRANCH   1   3
ATOM      3  C   UNL     1     148.410 139.811 142.271  1.00  0.00    -0.028 C 
ATOM      4  C   UNL     1     149.107 140.735 141.574  1.00  0.00    -0.027 C 
BRANCH   4   5
ATOM      5  C   UNL     1     148.845 141.193 140.146  1.00  0.00     0.014 C 
BRANCH   5   6
ATOM      6  C   UNL     1     150.066 140.814 139.271  1.00  0.00     0.004 C 
ATOM      7  C   UNL     1     149.653 140.142 137.955  1.00  0.00     0.004 C 
ENDBRANCH   5   6
BRANCH   5   8
ATOM      8  C   UNL     1     148.568 142.730 140.143  1.00  0.00    -0.011 C 
ATOM      9  C   UNL     1     147.355 143.118 141.010  1.00  0.00     0.008 C 
ATOM     10  C   UNL     1     149.798 143.515 140.633  1.00  0.00     0.008 C 
ENDBRANCH   5   8
ENDBRANCH   4   5
ENDBRANCH   1   3
BRANCH   1  11
ATOM     11  C   UNL     1     147.654 137.478 141.748  1.00  0.00     0.002 C 
ATOM     12  C   UNL     1     146.599 136.452 142.180  1.00  0.00     0.005 C 
ATOM     13  C   UNL     1     148.308 136.873 140.472  1.00  0.00    -0.023 C 
ATOM     14  C   UNL     1     147.118 135.099 141.676  1.00  0.00     0.009 C 
ATOM     15  C   UNL     1     148.412 135.386 140.895  1.00  0.00     0.021 C 
ATOM     16  C   UNL     1     147.419 137.046 139.189  1.00  0.00     0.008 C 
ATOM     17  C   UNL     1     149.715 137.486 140.252  1.00  0.00     0.012 C 
ATOM     18  C   UNL     1     148.641 134.395 139.762  1.00  0.00    -0.067 C 
ATOM     19  C   UNL     1     147.280 135.811 138.272  1.00  0.00     0.009 C 
ATOM     20  C   UNL     1     148.489 134.860 138.326  1.00  0.00     0.021 C 
ATOM     21  C   UNL     1     149.099 133.170 140.070  1.00  0.00    -0.027 C 
ATOM     22  C   UNL     1     148.447 133.710 137.239  1.00  0.00    -0.023 C 
ATOM     23  C   UNL     1     149.268 132.077 139.063  1.00  0.00     0.031 C 
ATOM     24  C   UNL     1     149.472 132.593 137.621  1.00  0.00     0.002 C 
ATOM     25  C   UNL     1     147.030 133.072 137.101  1.00  0.00     0.010 C 
ATOM     26  C   UNL     1     148.862 134.348 135.876  1.00  0.00     0.012 C 
ATOM     27  C   UNL     1     149.443 131.399 136.635  1.00  0.00     0.036 C 
ATOM     28  C   UNL     1     146.990 131.891 136.114  1.00  0.00     0.032 C 
ATOM     29  C   UNL     1     148.031 130.808 136.436  1.00  0.00     0.114 C 
BRANCH  29  30
ATOM     30  O   UNL     1     148.054 129.878 135.386  1.00  0.00    -0.393 OA
ATOM     31  H   UNL     1     147.177 129.943 134.924  1.00  0.00     0.210 HD
ENDBRANCH  29  30
ENDBRANCH   1  11
TORSDOF 6
ENDMDL
MODEL 2
REMARK VINA RESULT:    -6.219      3.913      6.378
REMARK INTER + INTRA:          -9.608
REMARK INTER:                  -8.063
REMARK INTRA:                  -1.545
REMARK UNBOUND:                -1.390
REMARK SMILES CC[C@@H](C=C[C@H](C)[C@H]1CC[C@H]2C3=CC[C@H]4C[C@H](O)CC[C@@]4(C)[C@H]3CC[C@@]12C)C(C)C
REMARK SMILES IDX 6 1 7 2 5 3 4 4 3 5 2 6 1 7 28 8 29 9 30 10 8 11 9 12 26 13
REMARK SMILES IDX 10 14 11 15 25 16 27 17 12 18 24 19 23 20 13 21 21 22 14 23
REMARK SMILES IDX 15 24 20 25 22 26 16 27 19 28 17 29 18 30
REMARK H PARENT 18 31
REMARK Flexibility Score: inf
ROOT
ATOM      1  C   UNL     1     149.194 137.971 138.965  1.00  0.00     0.012 C 
ATOM      2  C   UNL     1     149.105 137.528 137.496  1.00  0.00     0.012 C 
ENDROOT
BRANCH   1   3
ATOM      3  C   UNL     1     150.112 139.178 139.035  1.00  0.00    -0.028 C 
ATOM      4  C   UNL     1     149.747 140.477 139.082  1.00  0.00    -0.027 C 
BRANCH   4   5
ATOM      5  C   UNL     1     148.327 141.027 139.118  1.00  0.00     0.014 C 
BRANCH   5   6
ATOM      6  C   UNL     1     147.909 141.417 137.677  1.00  0.00     0.004 C 
ATOM      7  C   UNL     1     146.409 141.213 137.431  1.00  0.00     0.004 C 
ENDBRANCH   5   6
BRANCH   5   8
ATOM      8  C   UNL     1     148.272 142.241 140.099  1.00  0.00    -0.011 C 
ATOM      9  C   UNL     1     147.587 141.896 141.436  1.00  0.00     0.008 C 
ATOM     10  C   UNL     1     149.684 142.781 140.392  1.00  0.00     0.008 C 
ENDBRANCH   5   8
ENDBRANCH   4   5
ENDBRANCH   1   3
BRANCH   1  11
ATOM     11  C   UNL     1     147.850 138.320 139.692  1.00  0.00     0.002 C 
ATOM     12  C   UNL     1     146.550 138.049 138.923  1.00  0.00     0.005 C 
ATOM     13  C   UNL     1     147.581 137.799 141.134  1.00  0.00    -0.023 C 
ATOM     14  C   UNL     1     145.437 138.086 139.978  1.00  0.00     0.009 C 
ATOM     15  C   UNL     1     146.127 138.292 141.338  1.00  0.00     0.021 C 
ATOM     16  C   UNL     1     147.681 136.236 141.248  1.00  0.00     0.008 C 
ATOM     17  C   UNL     1     148.545 138.485 142.136  1.00  0.00     0.012 C 
ATOM     18  C   UNL     1     145.366 137.637 142.483  1.00  0.00    -0.067 C 
ATOM     19  C   UNL     1     146.569 135.529 142.053  1.00  0.00     0.009 C 
ATOM     20  C   UNL     1     145.947 136.406 143.153  1.00  0.00     0.021 C 
ATOM     21  C   UNL     1     144.265 138.249 142.949  1.00  0.00    -0.027 C 
ATOM     22  C   UNL     1     144.961 135.624 144.113  1.00  0.00    -0.023 C 
ATOM     23  C   UNL     1     143.376 137.659 143.997  1.00  0.00     0.031 C 
ATOM     24  C   UNL     1     144.094 136.648 144.917  1.00  0.00     0.002 C 
ATOM     25  C   UNL     1     144.014 134.659 143.336  1.00  0.00     0.010 C 
ATOM     26  C   UNL     1     145.840 134.800 145.105  1.00  0.00     0.012 C 
ATOM     27  C   UNL     1     143.057 135.954 145.835  1.00  0.00     0.036 C 
ATOM     28  C   UNL     1     142.986 133.956 144.242  1.00  0.00     0.032 C 
ATOM     29  C   UNL     1     142.164 134.942 145.087  1.00  0.00     0.114 C 
BRANCH  29  30
ATOM     30  O   UNL     1     141.400 134.214 146.013  1.00  0.00    -0.393 OA
ATOM     31  H   UNL     1     140.871 133.553 145.494  1.00  0.00     0.210 HD
ENDBRANCH  29  30
ENDBRANCH   1  11
TORSDOF 6
ENDMDL
MODEL 3
REMARK VINA RESULT:    -6.202      4.458      7.043
REMARK INTER + INTRA:          -9.585
REMARK INTER:                  -7.918
REMARK INTRA:                  -1.667
REMARK UNBOUND:                -1.390
REMARK SMILES CC[C@@H](C=C[C@H](C)[C@H]1CC[C@H]2C3=CC[C@H]4C[C@H](O)CC[C@@]4(C)[C@H]3CC[C@@]12C)C(C)C
REMARK SMILES IDX 6 1 7 2 5 3 4 4 3 5 2 6 1 7 28 8 29 9 30 10 8 11 9 12 26 13
REMARK SMILES IDX 10 14 11 15 25 16 27 17 12 18 24 19 23 20 13 21 21 22 14 23
REMARK SMILES IDX 15 24 20 25 22 26 16 27 19 28 17 29 18 30
REMARK H PARENT 18 31
REMARK Flexibility Score: inf
ROOT
ATOM      1  C   UNL     1     148.248 137.558 140.433  1.00  0.00     0.012 C 
ATOM      2  C   UNL     1     148.656 136.086 140.261  1.00  0.00     0.012 C 
ENDROOT
BRANCH   1   3
ATOM      3  C   UNL     1     149.113 138.395 139.509  1.00  0.00    -0.028 C 
ATOM      4  C   UNL     1     149.081 139.736 139.355  1.00  0.00    -0.027 C 
BRANCH   4   5
ATOM      5  C   UNL     1     148.196 140.722 140.107  1.00  0.00     0.014 C 
BRANCH   5   6
ATOM      6  C   UNL     1     147.490 141.640 139.078  1.00  0.00     0.004 C 
ATOM      7  C   UNL     1     146.718 140.842 138.020  1.00  0.00     0.004 C 
ENDBRANCH   5   6
BRANCH   5   8
ATOM      8  C   UNL     1     149.071 141.528 141.119  1.00  0.00    -0.011 C 
ATOM      9  C   UNL     1     148.635 143.001 141.241  1.00  0.00     0.008 C 
ATOM     10  C   UNL     1     149.036 140.884 142.517  1.00  0.00     0.008 C 
ENDBRANCH   5   8
ENDBRANCH   4   5
ENDBRANCH   1   3
BRANCH   1  11
ATOM     11  C   UNL     1     146.744 137.921 140.179  1.00  0.00     0.002 C 
ATOM     12  C   UNL     1     146.065 137.268 138.968  1.00  0.00     0.005 C 
ATOM     13  C   UNL     1     145.706 137.808 141.332  1.00  0.00    -0.023 C 
ATOM     14  C   UNL     1     144.560 137.460 139.192  1.00  0.00     0.009 C 
ATOM     15  C   UNL     1     144.403 138.141 140.563  1.00  0.00     0.021 C 
ATOM     16  C   UNL     1     145.650 136.373 141.967  1.00  0.00     0.008 C 
ATOM     17  C   UNL     1     145.997 138.877 142.417  1.00  0.00     0.012 C 
ATOM     18  C   UNL     1     143.109 137.750 141.264  1.00  0.00    -0.067 C 
ATOM     19  C   UNL     1     144.245 135.787 142.229  1.00  0.00     0.009 C 
ATOM     20  C   UNL     1     143.167 136.855 142.487  1.00  0.00     0.021 C 
ATOM     21  C   UNL     1     141.964 138.318 140.850  1.00  0.00    -0.027 C 
ATOM     22  C   UNL     1     141.779 136.260 142.962  1.00  0.00    -0.023 C 
ATOM     23  C   UNL     1     140.618 137.944 141.386  1.00  0.00     0.031 C 
ATOM     24  C   UNL     1     140.666 137.348 142.810  1.00  0.00     0.002 C 
ATOM     25  C   UNL     1     141.364 134.994 142.151  1.00  0.00     0.010 C 
ATOM     26  C   UNL     1     141.930 135.883 144.469  1.00  0.00     0.012 C 
ATOM     27  C   UNL     1     139.262 136.818 143.197  1.00  0.00     0.036 C 
ATOM     28  C   UNL     1     139.975 134.454 142.536  1.00  0.00     0.032 C 
ATOM     29  C   UNL     1     138.874 135.523 142.452  1.00  0.00     0.114 C 
BRANCH  29  30
ATOM     30  O   UNL     1     137.694 134.999 143.002  1.00  0.00    -0.393 OA
ATOM     31  H   UNL     1     137.865 134.039 143.190  1.00  0.00     0.210 HD
ENDBRANCH  29  30
ENDBRANCH   1  11
TORSDOF 6
ENDMDL
MODEL 4
REMARK VINA RESULT:    -6.189      6.366      9.521
REMARK INTER + INTRA:          -9.569
REMARK INTER:                  -8.367
REMARK INTRA:                  -1.202
REMARK UNBOUND:                -1.390
REMARK SMILES CC[C@@H](C=C[C@H](C)[C@H]1CC[C@H]2C3=CC[C@H]4C[C@H](O)CC[C@@]4(C)[C@H]3CC[C@@]12C)C(C)C
REMARK SMILES IDX 6 1 7 2 5 3 4 4 3 5 2 6 1 7 28 8 29 9 30 10 8 11 9 12 26 13
REMARK SMILES IDX 10 14 11 15 25 16 27 17 12 18 24 19 23 20 13 21 21 22 14 23
REMARK SMILES IDX 15 24 20 25 22 26 16 27 19 28 17 29 18 30
REMARK H PARENT 18 31
REMARK Flexibility Score: inf
ROOT
ATOM      1  C   UNL     1     139.421 135.869 142.942  1.00  0.00     0.012 C 
ATOM      2  C   UNL     1     139.640 134.440 142.418  1.00  0.00     0.012 C 
ENDROOT
BRANCH   1   3
ATOM      3  C   UNL     1     138.433 135.798 144.092  1.00  0.00    -0.028 C 
ATOM      4  C   UNL     1     137.369 136.604 144.303  1.00  0.00    -0.027 C 
BRANCH   4   5
ATOM      5  C   UNL     1     136.893 137.741 143.409  1.00  0.00     0.014 C 
BRANCH   5   6
ATOM      6  C   UNL     1     136.301 138.860 144.303  1.00  0.00     0.004 C 
ATOM      7  C   UNL     1     135.079 139.531 143.664  1.00  0.00     0.004 C 
ENDBRANCH   5   6
BRANCH   5   8
ATOM      8  C   UNL     1     135.851 137.188 142.386  1.00  0.00    -0.011 C 
ATOM      9  C   UNL     1     136.491 136.786 141.043  1.00  0.00     0.008 C 
ATOM     10  C   UNL     1     135.103 135.970 142.961  1.00  0.00     0.008 C 
ENDBRANCH   5   8
ENDBRANCH   4   5
ENDBRANCH   1   3
BRANCH   1  11
ATOM     11  C   UNL     1     140.688 136.661 143.416  1.00  0.00     0.002 C 
ATOM     12  C   UNL     1     141.634 135.947 144.389  1.00  0.00     0.005 C 
ATOM     13  C   UNL     1     141.621 137.341 142.372  1.00  0.00    -0.023 C 
ATOM     14  C   UNL     1     142.938 136.754 144.356  1.00  0.00     0.009 C 
ATOM     15  C   UNL     1     142.744 137.861 143.305  1.00  0.00     0.021 C 
ATOM     16  C   UNL     1     142.179 136.335 141.304  1.00  0.00     0.008 C 
ATOM     17  C   UNL     1     140.883 138.519 141.685  1.00  0.00     0.012 C 
ATOM     18  C   UNL     1     144.046 138.244 142.614  1.00  0.00    -0.067 C 
ATOM     19  C   UNL     1     143.683 136.445 140.969  1.00  0.00     0.009 C 
ATOM     20  C   UNL     1     144.259 137.859 141.162  1.00  0.00     0.021 C 
ATOM     21  C   UNL     1     144.912 139.027 143.278  1.00  0.00    -0.027 C 
ATOM     22  C   UNL     1     145.738 138.027 140.624  1.00  0.00    -0.023 C 
ATOM     23  C   UNL     1     146.265 139.390 142.752  1.00  0.00     0.031 C 
ATOM     24  C   UNL     1     146.363 139.334 141.212  1.00  0.00     0.002 C 
ATOM     25  C   UNL     1     146.648 136.816 140.997  1.00  0.00     0.010 C 
ATOM     26  C   UNL     1     145.651 138.149 139.070  1.00  0.00     0.012 C 
ATOM     27  C   UNL     1     147.836 139.533 140.778  1.00  0.00     0.036 C 
ATOM     28  C   UNL     1     148.113 137.001 140.561  1.00  0.00     0.032 C 
ATOM     29  C   UNL     1     148.729 138.310 141.078  1.00  0.00     0.114 C 
BRANCH  29  30
ATOM     30  O   UNL     1     149.985 138.486 140.477  1.00  0.00    -0.393 OA
ATOM     31  H   UNL     1     149.820 138.811 139.553  1.00  0.00     0.210 HD
ENDBRANCH  29  30
ENDBRANCH   1  11
TORSDOF 6
ENDMDL
MODEL 5
REMARK VINA RESULT:    -6.108      2.968      8.216
REMARK INTER + INTRA:          -9.461
REMARK INTER:                  -7.720
REMARK INTRA:                  -1.741
REMARK UNBOUND:                -1.390
REMARK SMILES CC[C@@H](C=C[C@H](C)[C@H]1CC[C@H]2C3=CC[C@H]4C[C@H](O)CC[C@@]4(C)[C@H]3CC[C@@]12C)C(C)C
REMARK SMILES IDX 6 1 7 2 5 3 4 4 3 5 2 6 1 7 28 8 29 9 30 10 8 11 9 12 26 13
REMARK SMILES IDX 10 14 11 15 25 16 27 17 12 18 24 19 23 20 13 21 21 22 14 23
REMARK SMILES IDX 15 24 20 25 22 26 16 27 19 28 17 29 18 30
REMARK H PARENT 18 31
REMARK Flexibility Score: inf
ROOT
ATOM      1  C   UNL     1     146.817 132.301 139.932  1.00  0.00     0.012 C 
ATOM      2  C   UNL     1     145.374 131.788 139.789  1.00  0.00     0.012 C 
ENDROOT
BRANCH   1   3
ATOM      3  C   UNL     1     147.755 131.161 139.586  1.00  0.00    -0.028 C 
ATOM      4  C   UNL     1     148.269 130.869 138.371  1.00  0.00    -0.027 C 
BRANCH   4   5
ATOM      5  C   UNL     1     148.057 131.646 137.078  1.00  0.00     0.014 C 
BRANCH   5   6
ATOM      6  C   UNL     1     147.264 130.754 136.089  1.00  0.00     0.004 C 
ATOM      7  C   UNL     1     145.854 131.295 135.820  1.00  0.00     0.004 C 
ENDBRANCH   5   6
BRANCH   5   8
ATOM      8  C   UNL     1     149.444 132.078 136.505  1.00  0.00    -0.011 C 
ATOM      9  C   UNL     1     150.010 131.067 135.490  1.00  0.00     0.008 C 
ATOM     10  C   UNL     1     149.358 133.460 135.832  1.00  0.00     0.008 C 
ENDBRANCH   5   8
ENDBRANCH   4   5
ENDBRANCH   1   3
BRANCH   1  11
ATOM     11  C   UNL     1     147.219 133.557 139.086  1.00  0.00     0.002 C 
ATOM     12  C   UNL     1     146.086 134.317 138.383  1.00  0.00     0.005 C 
ATOM     13  C   UNL     1     148.120 134.664 139.706  1.00  0.00    -0.023 C 
ATOM     14  C   UNL     1     146.685 135.674 137.994  1.00  0.00     0.009 C 
ATOM     15  C   UNL     1     148.118 135.699 138.554  1.00  0.00     0.021 C 
ATOM     16  C   UNL     1     147.524 135.269 141.027  1.00  0.00     0.008 C 
ATOM     17  C   UNL     1     149.549 134.111 139.952  1.00  0.00     0.012 C 
ATOM     18  C   UNL     1     148.571 137.103 138.932  1.00  0.00    -0.067 C 
ATOM     19  C   UNL     1     147.570 136.807 141.165  1.00  0.00     0.009 C 
ATOM     20  C   UNL     1     148.730 137.464 140.397  1.00  0.00     0.021 C 
ATOM     21  C   UNL     1     148.942 137.940 137.948  1.00  0.00    -0.027 C 
ATOM     22  C   UNL     1     148.907 139.007 140.703  1.00  0.00    -0.023 C 
ATOM     23  C   UNL     1     149.308 139.371 138.178  1.00  0.00     0.031 C 
ATOM     24  C   UNL     1     149.817 139.655 139.609  1.00  0.00     0.002 C 
ATOM     25  C   UNL     1     147.545 139.766 140.744  1.00  0.00     0.010 C 
ATOM     26  C   UNL     1     149.607 139.124 142.093  1.00  0.00     0.012 C 
ATOM     27  C   UNL     1     149.985 141.182 139.806  1.00  0.00     0.036 C 
ATOM     28  C   UNL     1     147.702 141.284 140.950  1.00  0.00     0.032 C 
ATOM     29  C   UNL     1     148.641 141.932 139.921  1.00  0.00     0.114 C 
BRANCH  29  30
ATOM     30  O   UNL     1     148.875 143.262 140.301  1.00  0.00    -0.393 OA
ATOM     31  H   UNL     1     149.694 143.559 139.823  1.00  0.00     0.210 HD
ENDBRANCH  29  30
ENDBRANCH   1  11
TORSDOF 6
ENDMDL
MODEL 6
REMARK VINA RESULT:    -6.049      7.255     10.042
REMARK INTER + INTRA:          -9.383
REMARK INTER:                  -8.231
REMARK INTRA:                  -1.152
REMARK UNBOUND:                -1.390
REMARK SMILES CC[C@@H](C=C[C@H](C)[C@H]1CC[C@H]2C3=CC[C@H]4C[C@H](O)CC[C@@]4(C)[C@H]3CC[C@@]12C)C(C)C
REMARK SMILES IDX 6 1 7 2 5 3 4 4 3 5 2 6 1 7 28 8 29 9 30 10 8 11 9 12 26 13
REMARK SMILES IDX 10 14 11 15 25 16 27 17 12 18 24 19 23 20 13 21 21 22 14 23
REMARK SMILES IDX 15 24 20 25 22 26 16 27 19 28 17 29 18 30
REMARK H PARENT 18 31
REMARK Flexibility Score: inf
ROOT
ATOM      1  C   UNL     1     138.093 136.830 142.332  1.00  0.00     0.012 C 
ATOM      2  C   UNL     1     137.821 135.607 141.441  1.00  0.00     0.012 C 
ENDROOT
BRANCH   1   3
ATOM      3  C   UNL     1     137.073 136.827 143.455  1.00  0.00    -0.028 C 
ATOM      4  C   UNL     1     135.885 137.469 143.479  1.00  0.00    -0.027 C 
BRANCH   4   5
ATOM      5  C   UNL     1     135.278 138.310 142.364  1.00  0.00     0.014 C 
BRANCH   5   6
ATOM      6  C   UNL     1     134.403 139.419 143.000  1.00  0.00     0.004 C 
ATOM      7  C   UNL     1     134.592 139.511 144.519  1.00  0.00     0.004 C 
ENDBRANCH   5   6
BRANCH   5   8
ATOM      8  C   UNL     1     134.460 137.383 141.410  1.00  0.00    -0.011 C 
ATOM      9  C   UNL     1     133.845 136.173 142.138  1.00  0.00     0.008 C 
ATOM     10  C   UNL     1     133.332 138.165 140.712  1.00  0.00     0.008 C 
ENDBRANCH   5   8
ENDBRANCH   4   5
ENDBRANCH   1   3
BRANCH   1  11
ATOM     11  C   UNL     1     139.526 136.958 142.955  1.00  0.00     0.002 C 
ATOM     12  C   UNL     1     140.173 135.674 143.489  1.00  0.00     0.005 C 
ATOM     13  C   UNL     1     140.659 137.684 142.171  1.00  0.00    -0.023 C 
ATOM     14  C   UNL     1     141.662 136.003 143.648  1.00  0.00     0.009 C 
ATOM     15  C   UNL     1     141.854 137.436 143.125  1.00  0.00     0.021 C 
ATOM     16  C   UNL     1     140.915 137.062 140.752  1.00  0.00     0.008 C 
ATOM     17  C   UNL     1     140.343 139.198 142.059  1.00  0.00     0.012 C 
ATOM     18  C   UNL     1     143.234 137.656 142.518  1.00  0.00    -0.067 C 
ATOM     19  C   UNL     1     142.389 136.844 140.349  1.00  0.00     0.009 C 
ATOM     20  C   UNL     1     143.366 137.827 141.016  1.00  0.00     0.021 C 
ATOM     21  C   UNL     1     144.277 137.819 143.348  1.00  0.00    -0.027 C 
ATOM     22  C   UNL     1     144.842 137.746 140.450  1.00  0.00    -0.023 C 
ATOM     23  C   UNL     1     145.692 137.940 142.880  1.00  0.00     0.031 C 
ATOM     24  C   UNL     1     145.820 138.468 141.434  1.00  0.00     0.002 C 
ATOM     25  C   UNL     1     145.322 136.276 140.245  1.00  0.00     0.010 C 
ATOM     26  C   UNL     1     144.850 138.489 139.076  1.00  0.00     0.012 C 
ATOM     27  C   UNL     1     147.297 138.375 140.977  1.00  0.00     0.036 C 
ATOM     28  C   UNL     1     146.786 136.174 139.781  1.00  0.00     0.032 C 
ATOM     29  C   UNL     1     147.759 136.927 140.702  1.00  0.00     0.114 C 
BRANCH  29  30
ATOM     30  O   UNL     1     149.027 136.944 140.101  1.00  0.00    -0.393 OA
ATOM     31  H   UNL     1     148.888 136.800 139.129  1.00  0.00     0.210 HD
ENDBRANCH  29  30
ENDBRANCH   1  11
TORSDOF 6
ENDMDL
MODEL 7
REMARK VINA RESULT:    -6.036      8.370     11.106
REMARK INTER + INTRA:          -9.366
REMARK INTER:                  -7.851
REMARK INTRA:                  -1.514
REMARK UNBOUND:                -1.390
REMARK SMILES CC[C@@H](C=C[C@H](C)[C@H]1CC[C@H]2C3=CC[C@H]4C[C@H](O)CC[C@@]4(C)[C@H]3CC[C@@]12C)C(C)C
REMARK SMILES IDX 6 1 7 2 5 3 4 4 3 5 2 6 1 7 28 8 29 9 30 10 8 11 9 12 26 13
REMARK SMILES IDX 10 14 11 15 25 16 27 17 12 18 24 19 23 20 13 21 21 22 14 23
REMARK SMILES IDX 15 24 20 25 22 26 16 27 19 28 17 29 18 30
REMARK H PARENT 18 31
REMARK Flexibility Score: inf
ROOT
ATOM      1  C   UNL     1     136.252 135.361 142.759  1.00  0.00     0.012 C 
ATOM      2  C   UNL     1     135.815 133.937 142.376  1.00  0.00     0.012 C 
ENDROOT
BRANCH   1   3
ATOM      3  C   UNL     1     135.233 135.916 143.736  1.00  0.00    -0.028 C 
ATOM      4  C   UNL     1     134.522 137.058 143.612  1.00  0.00    -0.027 C 
BRANCH   4   5
ATOM      5  C   UNL     1     134.551 138.030 142.439  1.00  0.00     0.014 C 
BRANCH   5   6
ATOM      6  C   UNL     1     134.501 139.476 142.993  1.00  0.00     0.004 C 
ATOM      7  C   UNL     1     135.115 139.585 144.394  1.00  0.00     0.004 C 
ENDBRANCH   5   6
BRANCH   5   8
ATOM      8  C   UNL     1     133.353 137.719 141.486  1.00  0.00    -0.011 C 
ATOM      9  C   UNL     1     133.018 138.895 140.548  1.00  0.00     0.008 C 
ATOM     10  C   UNL     1     133.637 136.470 140.631  1.00  0.00     0.008 C 
ENDBRANCH   5   8
ENDBRANCH   4   5
ENDBRANCH   1   3
BRANCH   1  11
ATOM     11  C   UNL     1     137.683 135.532 143.375  1.00  0.00     0.002 C 
ATOM     12  C   UNL     1     138.488 134.252 143.635  1.00  0.00     0.005 C 
ATOM     13  C   UNL     1     138.698 136.523 142.735  1.00  0.00    -0.023 C 
ATOM     14  C   UNL     1     139.936 134.715 143.835  1.00  0.00     0.009 C 
ATOM     15  C   UNL     1     139.948 136.236 143.603  1.00  0.00     0.021 C 
ATOM     16  C   UNL     1     138.970 136.225 141.217  1.00  0.00     0.008 C 
ATOM     17  C   UNL     1     138.212 137.983 142.929  1.00  0.00     0.012 C 
ATOM     18  C   UNL     1     141.271 136.729 143.033  1.00  0.00    -0.067 C 
ATOM     19  C   UNL     1     140.444 136.263 140.758  1.00  0.00     0.009 C 
ATOM     20  C   UNL     1     141.329 137.205 141.593  1.00  0.00     0.021 C 
ATOM     21  C   UNL     1     142.319 136.848 143.865  1.00  0.00    -0.027 C 
ATOM     22  C   UNL     1     142.783 137.408 141.001  1.00  0.00    -0.023 C 
ATOM     23  C   UNL     1     143.694 137.222 143.410  1.00  0.00     0.031 C 
ATOM     24  C   UNL     1     143.709 138.033 142.095  1.00  0.00     0.002 C 
ATOM     25  C   UNL     1     143.416 136.072 140.503  1.00  0.00     0.010 C 
ATOM     26  C   UNL     1     142.657 138.400 139.802  1.00  0.00     0.012 C 
ATOM     27  C   UNL     1     145.170 138.203 141.609  1.00  0.00     0.036 C 
ATOM     28  C   UNL     1     144.864 136.234 140.007  1.00  0.00     0.032 C 
ATOM     29  C   UNL     1     145.780 136.901 141.046  1.00  0.00     0.114 C 
BRANCH  29  30
ATOM     30  O   UNL     1     147.015 137.183 140.443  1.00  0.00    -0.393 OA
ATOM     31  H   UNL     1     147.008 138.147 140.206  1.00  0.00     0.210 HD
ENDBRANCH  29  30
ENDBRANCH   1  11
TORSDOF 6
ENDMDL
MODEL 8
REMARK VINA RESULT:    -5.981     11.012     12.883
REMARK INTER + INTRA:          -9.294
REMARK INTER:                  -7.643
REMARK INTRA:                  -1.650
REMARK UNBOUND:                -1.390
REMARK SMILES CC[C@@H](C=C[C@H](C)[C@H]1CC[C@H]2C3=CC[C@H]4C[C@H](O)CC[C@@]4(C)[C@H]3CC[C@@]12C)C(C)C
REMARK SMILES IDX 6 1 7 2 5 3 4 4 3 5 2 6 1 7 28 8 29 9 30 10 8 11 9 12 26 13
REMARK SMILES IDX 10 14 11 15 25 16 27 17 12 18 24 19 23 20 13 21 21 22 14 23
REMARK SMILES IDX 15 24 20 25 22 26 16 27 19 28 17 29 18 30
REMARK H PARENT 18 31
REMARK Flexibility Score: inf
ROOT
ATOM      1  C   UNL     1     134.761 134.584 142.595  1.00  0.00     0.012 C 
ATOM      2  C   UNL     1     133.477 133.924 143.123  1.00  0.00     0.012 C 
ENDROOT
BRANCH   1   3
ATOM      3  C   UNL     1     135.581 135.034 143.789  1.00  0.00    -0.028 C 
ATOM      4  C   UNL     1     136.097 136.264 144.007  1.00  0.00    -0.027 C 
BRANCH   4   5
ATOM      5  C   UNL     1     135.935 137.493 143.121  1.00  0.00     0.014 C 
BRANCH   5   6
ATOM      6  C   UNL     1     137.122 138.454 143.385  1.00  0.00     0.004 C 
ATOM      7  C   UNL     1     138.333 138.139 142.497  1.00  0.00     0.004 C 
ENDBRANCH   5   6
BRANCH   5   8
ATOM      8  C   UNL     1     134.555 138.161 143.418  1.00  0.00    -0.011 C 
ATOM      9  C   UNL     1     134.690 139.620 143.894  1.00  0.00     0.008 C 
ATOM     10  C   UNL     1     133.646 138.128 142.176  1.00  0.00     0.008 C 
ENDBRANCH   5   8
ENDBRANCH   4   5
ENDBRANCH   1   3
BRANCH   1  11
ATOM     11  C   UNL     1     135.674 133.725 141.653  1.00  0.00     0.002 C 
ATOM     12  C   UNL     1     135.313 132.243 141.494  1.00  0.00     0.005 C 
ATOM     13  C   UNL     1     135.997 134.218 140.213  1.00  0.00    -0.023 C 
ATOM     14  C   UNL     1     136.079 131.767 140.253  1.00  0.00     0.009 C 
ATOM     15  C   UNL     1     136.795 133.002 139.679  1.00  0.00     0.021 C 
ATOM     16  C   UNL     1     134.710 134.485 139.355  1.00  0.00     0.008 C 
ATOM     17  C   UNL     1     136.891 135.485 140.271  1.00  0.00     0.012 C 
ATOM     18  C   UNL     1     136.952 132.934 138.165  1.00  0.00    -0.067 C 
ATOM     19  C   UNL     1     134.721 133.950 137.905  1.00  0.00     0.009 C 
ATOM     20  C   UNL     1     136.129 133.860 137.290  1.00  0.00     0.021 C 
ATOM     21  C   UNL     1     137.912 132.142 137.659  1.00  0.00    -0.027 C 
ATOM     22  C   UNL     1     136.130 133.516 135.745  1.00  0.00    -0.023 C 
ATOM     23  C   UNL     1     138.101 131.910 136.194  1.00  0.00     0.031 C 
ATOM     24  C   UNL     1     137.562 133.058 135.313  1.00  0.00     0.002 C 
ATOM     25  C   UNL     1     135.109 132.394 135.384  1.00  0.00     0.010 C 
ATOM     26  C   UNL     1     135.754 134.824 134.981  1.00  0.00     0.012 C 
ATOM     27  C   UNL     1     137.627 132.642 133.822  1.00  0.00     0.036 C 
ATOM     28  C   UNL     1     135.159 131.981 133.901  1.00  0.00     0.032 C 
ATOM     29  C   UNL     1     136.570 131.584 133.439  1.00  0.00     0.114 C 
BRANCH  29  30
ATOM     30  O   UNL     1     136.557 131.415 132.046  1.00  0.00    -0.393 OA
ATOM     31  H   UNL     1     135.721 131.834 131.712  1.00  0.00     0.210 HD
ENDBRANCH  29  30
ENDBRANCH   1  11
TORSDOF 6
ENDMDL
MODEL 9
REMARK VINA RESULT:    -5.966      4.961      8.042
REMARK INTER + INTRA:          -9.274
REMARK INTER:                  -7.592
REMARK INTRA:                  -1.682
REMARK UNBOUND:                -1.390
REMARK SMILES CC[C@@H](C=C[C@H](C)[C@H]1CC[C@H]2C3=CC[C@H]4C[C@H](O)CC[C@@]4(C)[C@H]3CC[C@@]12C)C(C)C
REMARK SMILES IDX 6 1 7 2 5 3 4 4 3 5 2 6 1 7 28 8 29 9 30 10 8 11 9 12 26 13
REMARK SMILES IDX 10 14 11 15 25 16 27 17 12 18 24 19 23 20 13 21 21 22 14 23
REMARK SMILES IDX 15 24 20 25 22 26 16 27 19 28 17 29 18 30
REMARK H PARENT 18 31
REMARK Flexibility Score: inf
ROOT
ATOM      1  C   UNL     1     147.321 138.643 140.215  1.00  0.00     0.012 C 
ATOM      2  C   UNL     1     147.333 140.144 139.879  1.00  0.00     0.012 C 
ENDROOT
BRANCH   1   3
ATOM      3  C   UNL     1     148.750 138.212 140.483  1.00  0.00    -0.028 C 
ATOM      4  C   UNL     1     149.330 137.045 140.127  1.00  0.00    -0.027 C 
BRANCH   4   5
ATOM      5  C   UNL     1     148.691 135.911 139.335  1.00  0.00     0.014 C 
BRANCH   5   6
ATOM      6  C   UNL     1     149.433 134.593 139.670  1.00  0.00     0.004 C 
ATOM      7  C   UNL     1     148.623 133.691 140.609  1.00  0.00     0.004 C 
ENDBRANCH   5   6
BRANCH   5   8
ATOM      8  C   UNL     1     148.747 136.253 137.813  1.00  0.00    -0.011 C 
ATOM      9  C   UNL     1     149.523 135.203 136.994  1.00  0.00     0.008 C 
ATOM     10  C   UNL     1     147.331 136.392 137.223  1.00  0.00     0.008 C 
ENDBRANCH   5   8
ENDBRANCH   4   5
ENDBRANCH   1   3
BRANCH   1  11
ATOM     11  C   UNL     1     146.424 138.184 141.416  1.00  0.00     0.002 C 
ATOM     12  C   UNL     1     146.065 139.245 142.464  1.00  0.00     0.005 C 
ATOM     13  C   UNL     1     145.097 137.414 141.152  1.00  0.00    -0.023 C 
ATOM     14  C   UNL     1     144.893 138.654 143.258  1.00  0.00     0.009 C 
ATOM     15  C   UNL     1     144.549 137.308 142.597  1.00  0.00     0.021 C 
ATOM     16  C   UNL     1     144.110 138.199 140.217  1.00  0.00     0.008 C 
ATOM     17  C   UNL     1     145.404 136.009 140.571  1.00  0.00     0.012 C 
ATOM     18  C   UNL     1     143.071 136.961 142.715  1.00  0.00    -0.067 C 
ATOM     19  C   UNL     1     142.627 138.231 140.649  1.00  0.00     0.009 C 
ATOM     20  C   UNL     1     142.196 137.007 141.476  1.00  0.00     0.021 C 
ATOM     21  C   UNL     1     142.616 136.500 143.891  1.00  0.00    -0.027 C 
ATOM     22  C   UNL     1     140.637 136.931 141.741  1.00  0.00    -0.023 C 
ATOM     23  C   UNL     1     141.172 136.221 144.165  1.00  0.00     0.031 C 
ATOM     24  C   UNL     1     140.352 135.913 142.893  1.00  0.00     0.002 C 
ATOM     25  C   UNL     1     140.030 138.316 142.126  1.00  0.00     0.010 C 
ATOM     26  C   UNL     1     139.970 136.422 140.424  1.00  0.00     0.012 C 
ATOM     27  C   UNL     1     138.848 135.832 143.254  1.00  0.00     0.036 C 
ATOM     28  C   UNL     1     138.532 138.246 142.476  1.00  0.00     0.032 C 
ATOM     29  C   UNL     1     138.221 137.208 143.565  1.00  0.00     0.114 C 
BRANCH  29  30
ATOM     30  O   UNL     1     136.829 137.076 143.678  1.00  0.00    -0.393 OA
ATOM     31  H   UNL     1     136.425 137.715 143.033  1.00  0.00     0.210 HD
ENDBRANCH  29  30
ENDBRANCH   1  11
TORSDOF 6
ENDMDL
